#------------------------------------------------------------------------------
#$Date: 2016-02-17 15:59:13 +0200 (Wed, 17 Feb 2016) $
#$Revision: 176629 $
#$URL: svn://www.crystallography.net/cod/cif/2/02/03/2020324.cif $
#------------------------------------------------------------------------------
#
# This file is available in the Crystallography Open Database (COD),
# http://www.crystallography.net/. The original data for this entry
# were provided by IUCr Journals, http://journals.iucr.org/.
#
# The file may be used within the scientific community so long as
# proper attribution is given to the journal article from which the
# data were obtained.
#
data_2020324
loop_
_publ_author_name
'Mohamed, Shaaban K.'
'Younes, Sabry H. H.'
'Abdel-Raheem, Eman M. M.'
'Horton, Peter N.'
'Akkurt, Mehmet'
'Glidewell, Christopher'
_publ_section_title
;
 Triclinic and monoclinic polymorphs of
 <i>meso</i>-(<i>E</i>,<i>E</i>)-1,1'-[1,2-bis(4-chlorophenyl)ethane-1,2-diyl]bis(phenyldiazene):
 the high-yield synthesis of an unexpected product, concomitant
 polymorphism and configurational disorder
;
_journal_coeditor_code           FA3380
_journal_issue                   1
_journal_name_full               'Acta Crystallographica Section C'
_journal_page_first              57
_journal_page_last               62
_journal_paper_doi               10.1107/S2053229615023578
_journal_volume                  72
_journal_year                    2016
_chemical_formula_iupac          'C26 H20 Cl2 N4'
_chemical_formula_moiety         'C26 H20 Cl2 N4'
_chemical_formula_sum            'C26 H20 Cl2 N4'
_chemical_formula_weight         459.36
_chemical_name_systematic
;
<i>meso</i>-(<i>E</i>,<i>E</i>)-1,1'-[1,2-Bis(4-chlorophenyl)ethane-\
1,2-diyl]bis(phenyldiazene)
;
_space_group_crystal_system      triclinic
_space_group_IT_number           2
_space_group_name_Hall           '-P 1'
_space_group_name_H-M_alt        'P -1'
_symmetry_space_group_name_Hall  '-P 1'
_symmetry_space_group_name_H-M   'P -1'
_atom_sites_solution_hydrogens   geom
_audit_creation_method           SHELXL-2014
_cell_angle_alpha                83.0390(10)
_cell_angle_beta                 77.139(9)
_cell_angle_gamma                85.0550(10)
_cell_formula_units_Z            1
_cell_length_a                   6.1037(4)
_cell_length_b                   9.3345(7)
_cell_length_c                   10.4146(7)
_cell_measurement_reflns_used    3602
_cell_measurement_temperature    100(2)
_cell_measurement_theta_max      27.473
_cell_measurement_theta_min      2.202
_cell_volume                     573.15(7)
_computing_cell_refinement       'Rigaku CrystalClear-SM Expert 3.1 b18'
_computing_data_collection
;
Rigaku CrystalClear-SM Expert 3.1 b18 (Rigaku, 2012)
;
_computing_data_reduction        'Rigaku CrystalClear-SM Expert 3.1 b18'
_computing_molecular_graphics
;
PLATON (Spek, 2009)
;
_computing_publication_material  'SHELXL-2014 and PLATON'
_computing_structure_refinement
;
SHELXL-2014 (Sheldrick, 2015)
;
_computing_structure_solution
;
SUPERFLIP (Palatinus & Chapuis, 2007)
;
_diffrn_ambient_temperature      100(2)
_diffrn_detector_area_resol_mean 28.5714
_diffrn_measured_fraction_theta_full 0.998
_diffrn_measured_fraction_theta_max 0.998
_diffrn_measurement_device_type  'Rigaku AFC12 (Right)'
_diffrn_measurement_method       'profile data from \w-scans'
_diffrn_radiation_type           MoK\a
_diffrn_radiation_wavelength     0.71075
_diffrn_reflns_av_R_equivalents  0.0366
_diffrn_reflns_limit_h_max       7
_diffrn_reflns_limit_h_min       -5
_diffrn_reflns_limit_k_max       11
_diffrn_reflns_limit_k_min       -11
_diffrn_reflns_limit_l_max       13
_diffrn_reflns_limit_l_min       -11
_diffrn_reflns_number            6269
_diffrn_reflns_theta_full        25.242
_diffrn_reflns_theta_max         26.542
_diffrn_reflns_theta_min         2.202
_diffrn_standards_decay_%        0
_diffrn_standards_interval_count 0
_diffrn_standards_interval_time  0
_diffrn_standards_number         0
_exptl_absorpt_coefficient_mu    0.305
_exptl_absorpt_correction_T_max  0.997
_exptl_absorpt_correction_T_min  0.710
_exptl_absorpt_correction_type   multi-scan
_exptl_absorpt_process_details
;
CrystalClear-SM Expert 3.1 b18 (Rigaku, 2012)
;
_exptl_crystal_colour            yellow
_exptl_crystal_density_diffrn    1.331
_exptl_crystal_description       plate
_exptl_crystal_F_000             238
_exptl_crystal_size_max          0.190
_exptl_crystal_size_mid          0.080
_exptl_crystal_size_min          0.010
_refine_diff_density_max         0.644
_refine_diff_density_min         -0.284
_refine_ls_extinction_method     none
_refine_ls_goodness_of_fit_ref   1.075
_refine_ls_hydrogen_treatment    constr
_refine_ls_matrix_type           full
_refine_ls_number_parameters     145
_refine_ls_number_reflns         2397
_refine_ls_number_restraints     0
_refine_ls_restrained_S_all      1.075
_refine_ls_R_factor_all          0.0748
_refine_ls_R_factor_gt           0.0615
_refine_ls_shift/su_max          0.000
_refine_ls_shift/su_mean         0.000
_refine_ls_structure_factor_coef Fsqd
_refine_ls_weighting_details
'w=1/[\s^2^(Fo^2^)+(0.0856P)^2^+0.5249P] where P=(Fo^2^+2Fc^2^)/3'
_refine_ls_weighting_scheme      calc
_refine_ls_wR_factor_gt          0.1686
_refine_ls_wR_factor_ref         0.1771
_reflns_number_gt                1919
_reflns_number_total             2397
_reflns_threshold_expression     'I > 2\s(I)'
_cod_data_source_file            fa3380sup1.cif
_cod_data_source_block           I
_cod_depositor_comments
;Adding full bibliography for 2020324--2020325.cif.

 Adding full bibliography for 2020324--2020325.cif.
;
_cod_database_code               2020324
_cod_database_fobs_code          2020324
_shelx_space_group_comment
;
The symmetry employed for this shelxl refinement is uniquely defined
by the following loop, which should always be used as a source of
symmetry information in preference to the above space-group names.
They are only intended as comments.
;
_shelx_estimated_absorpt_t_min   0.944
_shelx_estimated_absorpt_t_max   0.997
_shelx_hkl_file
;
   0  -1   0 1629.67 153.650   1
   0  -1  -1 4681.46 209.330   1
   0   1   1 4185.27 200.960   1
   0  -1  -1 4358.93 213.530   1
   0   1   1 4118.79 232.210   1
   0  -1  -1 3925.35 191.710   1
   0  -1   1 4390.98 163.240   1
   0   1  -1 4218.69 167.190   1
   0  -1   1 4366.08 184.870   1
   0   1  -1 3687.81 207.340   1
   0  -1   1 3616.00 216.270   1
  -1   0   0 93353.3 1319.24   1
   1   0   0 88705.1 1200.37   1
  -1   0   0 90782.4 1247.44   1
   1   0   0 85021.4 1216.88   1
   1   0   1 1948.66 174.820   1
  -1  -1   0 24349.8 780.000   1
   1   1   0 25729.8 733.650   1
   1   1   0 25311.8 519.700   1
  -1  -1   0 23774.2 605.270   1
   1   1   0 25407.8 501.060   1
  -1  -1  -1 3463.08 228.830   1
   1   1   1 3357.65 180.260   1
   0   0   2 33130.8 574.750   1
   0   0   2 33319.6 657.270   1
   0   0  -2 31249.9 616.460   1
   1  -1   0 509228. 7749.40   1
  -1   1   0 496071. 7463.90   1
   1  -1   0 455274. 6797.30   1
  -1   1   0 469577. 6952.13   1
   1  -1   0 499704. 7386.52   1
  -1   0   1 7777.91 274.360   1
   1   0  -1 7953.99 293.500   1
   1   0  -1 7817.79 249.570   1
   1   0  -1 7573.33 264.470   1
  -1   0   1 7401.26 259.820   1
  -1   0   1 8444.52 278.210   1
   0   1   2 327890. 4953.63   1
   0  -1  -2 361849. 5439.43   1
   0  -1  -2 335068. 5069.57   1
   0  -2   0 569.480 70.7100   1
   0   2   0 537.180 124.290   1
   0   2   0 531.550 66.4800   1
   0  -2   0 430.110 113.370   1
   1  -1   1 52699.4 810.230   1
  -1   1  -1 52645.1 821.550   1
  -1   1  -1 52406.4 848.500   1
   1  -1   1 53938.9 974.740   1
  -1   1  -1 50929.1 843.620   1
   1  -1   1 51093.0 845.200   1
   0   2   1 24316.0 608.180   1
   0  -2  -1 24088.6 666.990   1
   0   2   1 23585.9 657.380   1
   0  -2  -1 25883.0 438.210   1
   0   2   1 27188.4 526.560   1
   0   2   1 24308.0 523.410   1
   0  -2  -1 24265.5 518.920   1
   1   0   2 308682. 4703.35   1
  -1   0  -2 306676. 4654.14   1
  -1   0  -2 327923. 4971.48   1
   1   0   2 318662. 4889.92   1
   0  -1   2 83652.9 1335.27   1
   1  -1  -1 12721.1 356.550   1
  -1   1   1 13305.4 384.810   1
   1  -1  -1 12934.3 335.410   1
  -1   1   1 12542.5 356.530   1
  -1   1   1 13532.3 346.120   1
   1  -1  -1 13454.5 381.640   1
  -1   1   1 13466.1 475.750   1
   1   1  -1 65333.5 871.050   1
   1   1  -1 67471.5 994.160   1
  -1  -1   1 67364.4 1126.42   1
   1   1  -1 65069.6 955.430   1
  -1  -1   1 65022.8 940.080   1
  -1  -1  -2 34165.3 613.830   1
   1   1   2 33395.2 606.610   1
   0  -2   1 193257. 2369.07   1
   0   2  -1 201072. 2423.76   1
   0  -2   1 189951. 2264.76   1
   0   2  -1 200402. 2203.05   1
   0  -2   1 202553. 2183.35   1
   1   2   1 3976.67 196.500   1
  -1  -2  -1 4047.23 237.940   1
  -1  -2  -1 4419.44 202.270   1
   1   2   1 4493.25 168.560   1
   1   2   1 3819.46 182.990   1
  -1  -2  -1 4138.85 285.770   1
   1   2   1 3881.75 253.430   1
  -1  -2   0 81537.2 1131.02   1
  -1  -2   0 78711.0 1189.20   1
  -1  -2   0 79862.3 1409.45   1
   1   2   0 80015.1 1008.43   1
   1   2   0 79588.1 1257.13   1
   1   2   0 77480.4 1025.88   1
   1  -1   2 93535.5 1270.43   1
  -1   1  -2 95656.2 1195.70   1
   1  -1   2 89387.2 1308.76   1
  -1   1  -2 95168.3 1205.09   1
   1  -1   2 100000. 1391.32   1
   0  -2  -2 51788.7 773.330   1
   0   2   2 51335.1 947.340   1
   0  -2  -2 54953.9 776.050   1
   0   2   2 52161.6 857.240   1
   0   2   2 54799.3 806.570   1
   0  -2  -2 53369.8 908.020   1
  -1   2   0 201.890 84.5900   1
   1  -2   0 200.440 71.2100   1
   1  -2   0 211.530 74.8300   1
   1  -2   0 117.580 98.8900   1
  -1   0   2 21146.2 464.370   1
   1   0  -2 22856.2 443.900   1
   1   0  -2 22490.1 417.450   1
  -1   0   2 21769.5 449.750   1
  -1   0   2 21612.7 452.730   1
   1   2   2 7979.67 313.850   1
  -1  -2  -2 8262.31 310.500   1
   1   2   2 8341.01 281.290   1
   1   2   2 8919.32 254.870   1
  -1   2  -1 14519.2 382.160   1
  -1   2  -1 14287.3 390.470   1
   1  -2   1 14079.9 429.670   1
   1  -2   1 15694.5 386.040   1
  -1   2  -1 15416.5 410.940   1
   1  -2   1 14258.1 390.040   1
   0   0   3 217531. 2362.73   1
   0   0   3 226847. 2454.55   1
   0   0  -3 222292. 2427.93   1
  -1   1   2 53761.6 816.080   1
   1  -1  -2 57415.3 913.360   1
  -1   1   2 57331.5 887.060   1
   1  -1  -2 52899.8 865.820   1
  -1   1   2 54583.9 786.940   1
   1  -1  -2 58065.3 845.820   1
  -1   2   1 122.700 61.8700   1
  -1   2   1 198.080 80.1700   1
   1   2  -1 560227. 8127.40   1
  -1  -2   1 525776. 7754.41   1
   1   2  -1 571571. 8335.08   1
  -1  -2   1 530957. 8090.28   1
   0  -1  -3 90224.1 1212.91   1
   0   1   3 89842.7 1174.93   1
   0   2  -2 246833. 3772.75   1
   0  -2   2 250386. 4012.54   1
   0   2  -2 243850. 2683.57   1
   0  -2   2 245243. 2656.09   1
   0   2  -2 250860. 3770.78   1
   0  -2   2 243242. 2542.15   1
   1   0   3 93850.1 1286.90   1
  -1   0  -3 96636.5 1297.51   1
  -1   0  -3 95386.5 1219.33   1
   1   0   3 99410.5 1341.75   1
   1   1  -2 161675. 1816.51   1
  -1  -1   2 156924. 1818.55   1
   1   1  -2 157780. 1818.26   1
  -1  -1   2 149457. 2023.15   1
   1   1  -2 162685. 1809.33   1
  -1  -1   2 161149. 1866.29   1
   1   1   3 17882.3 431.190   1
  -1  -1  -3 17929.5 436.100   1
   1   1   3 17922.5 598.690   1
   0  -3   0 5686.18 186.700   1
   0   3   0 5744.55 218.060   1
   0   3   0 5757.26 275.940   1
   0  -3   0 5383.34 285.180   1
   0  -1   3 2102.32 142.050   1
   0   1  -3 2447.93 143.910   1
   0  -1   3 3200.54 152.260   1
   0  -1   3 2722.02 134.870   1
   0   1  -3 2435.34 133.070   1
   0  -3  -1 31666.7 509.020   1
   0   3   1 33206.1 642.470   1
   0   3   1 30874.0 666.730   1
   0   3   1 31063.1 592.590   1
   0   3   1 29725.8 595.730   1
   0  -3  -1 31078.2 628.300   1
   0  -3  -1 29716.0 772.010   1
   2   0   1 89261.4 1338.05   1
   2   0   1 89045.9 1216.95   1
   2   0   1 90890.2 1241.85   1
   2   0   0 73824.3 1124.02   1
   2   0   0 74631.0 1106.91   1
  -2   0   0 76671.9 1091.45   1
  -2   0   0 77015.5 1107.38   1
   1  -2   2 14834.2 430.960   1
  -1   2  -2 15511.1 360.130   1
  -1   2  -2 14281.8 371.460   1
   1  -2   2 15234.2 371.180   1
   1  -2   2 15406.3 420.160   1
  -1   2  -2 15880.3 388.860   1
   2   1   1 18221.4 460.250   1
   2   1   1 18013.5 462.040   1
   2   1   1 16737.3 506.070   1
   2   1   1 18023.0 430.300   1
  -1   1  -3 138156. 1602.95   1
   1  -1   3 135599. 1656.51   1
   1  -1   3 138947. 1673.33   1
   1  -1   3 132271. 1618.16   1
  -1   1  -3 127182. 1519.30   1
   0  -2  -3 6365.63 238.760   1
   0  -2  -3 6877.94 269.660   1
   0   2   3 6531.30 228.500   1
   0   2   3 6818.83 223.350   1
   0  -2  -3 6651.26 251.420   1
   0   2   3 5709.47 255.570   1
   0  -3   1 69764.7 1125.40   1
   0  -3   1 72187.4 936.670   1
   0   3  -1 73396.6 1106.55   1
   0  -3   1 74288.5 1047.61   1
   0   3  -1 75918.7 1064.10   1
   0   3  -1 73930.8 1027.56   1
  -1  -3  -1 7790.29 280.110   1
   1   3   1 8397.38 266.480   1
   1   3   1 8005.39 331.260   1
  -1  -3  -1 7947.85 336.570   1
  -1  -3  -1 8742.83 268.490   1
   1   3   1 8511.54 240.290   1
   1   2   3 967.790 103.270   1
  -1  -2  -3 1055.19 110.450   1
   1   2   3 1143.70 112.050   1
   1   2   3 906.460 87.4700   1
   2   0   2 26235.8 536.720   1
  -2   0  -2 26719.2 568.350   1
  -1   2   2 527.980 83.3700   1
   1  -2  -2 592.120 85.6500   1
  -1   2   2 535.100 82.3000   1
  -1   2   2 542.270 128.370   1
   1  -2  -2 499.700 73.1500   1
   1  -2  -2 445.550 75.9700   1
  -1   2   2 494.100 87.7500   1
   1  -2  -2 483.700 94.7300   1
   2   1   2 512.740 82.5700   1
  -2  -1  -2 422.730 84.7000   1
  -1  -3   0 191.140 72.0300   1
   1   3   0 214.250 55.7700   1
  -1  -3   0 149.960 53.6700   1
   1   3   0 192.530 43.2400   1
   2  -1   1 11991.4 421.880   1
  -2   1  -1 11945.9 346.140   1
   2  -1   1 12095.9 344.600   1
   2  -1   1 12086.2 374.520   1
   2  -1   1 11769.6 338.300   1
  -2   1   0 12063.8 353.860   1
  -2   1   0 12693.4 355.080   1
  -2   1   0 13429.0 417.090   1
   2  -1   0 12322.5 352.460   1
   2  -1   0 13284.6 477.380   1
   2  -1   0 13068.3 377.790   1
   0  -3  -2 24162.7 561.450   1
   0   3   2 24043.9 537.120   1
   0  -3  -2 23103.0 478.120   1
   0   3   2 23049.7 643.270   1
   0   3   2 24733.4 577.970   1
   0  -3  -2 23123.7 419.310   1
   0   3   2 24241.6 488.910   1
   1   2  -2 54468.3 791.810   1
  -1  -2   2 50984.6 914.410   1
   1   2  -2 53510.2 805.140   1
  -1  -2   2 53171.5 794.180   1
   1   2  -2 54679.9 804.190   1
  -1  -2   2 54246.2 858.600   1
   1   2  -2 55804.0 763.820   1
   2   0  -1 1670.67 121.280   1
  -2   0   1 1971.82 125.120   1
  -2   0   1 2020.30 143.910   1
   2   0  -1 1938.88 127.790   1
   2   0  -1 1914.47 117.920   1
  -1   0   3 17875.4 394.650   1
   1   0  -3 19233.9 395.930   1
  -1   0   3 17118.4 415.560   1
  -1   0   3 17756.4 408.670   1
   1   0  -3 18444.5 406.710   1
   1   0  -3 17625.4 409.370   1
   1   3   2 621.650 127.510   1
   1   3   2 741.260 97.5900   1
   1   3   2 765.360 69.8000   1
  -1  -3  -2 890.920 83.8400   1
   1   3   2 894.260 93.3200   1
  -1  -3  -2 675.730 78.4700   1
   1  -3   0 215116. 2348.44   1
   1  -3   0 203505. 2569.62   1
  -1   3   0 217462. 2566.04   1
   1  -3   0 208034. 2356.93   1
  -1   3   0 211572. 2399.14   1
   2   2   1 5265.28 219.230   1
   2   2   1 4806.60 256.910   1
   2   2   1 4992.92 195.910   1
   2  -1   2 753.500 91.7400   1
  -2   1  -2 705.080 86.7500   1
   2  -1   2 671.080 91.5100   1
   2  -1   2 747.160 88.3600   1
   2  -1   2 702.810 86.0600   1
  -1   1   3 463.980 73.1700   1
   1  -1  -3 443.850 77.8900   1
  -1   1   3 375.140 66.3100   1
   1  -1  -3 533.530 65.2300   1
   1  -1  -3 426.420 71.8300   1
  -1   1   3 351.110 76.0900   1
  -2  -1   1 59089.2 924.350   1
  -2  -1   1 62271.6 941.920   1
   2   1  -1 59230.7 874.240   1
  -2  -1   1 56859.8 970.520   1
   2   1  -1 59289.4 842.270   1
   0   2  -3 2965.41 158.100   1
   0  -2   3 2892.38 142.420   1
   0  -2   3 2802.00 178.250   1
   0  -2   3 2653.31 148.070   1
   0   2  -3 2816.53 144.850   1
   1  -3   1 2079.27 132.470   1
   1  -3   1 1903.68 181.400   1
  -1   3  -1 2134.61 146.260   1
  -1   3  -1 2076.59 153.010   1
  -1   3  -1 1826.06 132.730   1
  -1   3   1 11326.4 343.930   1
  -1   3   1 11956.5 348.890   1
   1  -3  -1 11014.2 330.160   1
   1  -3  -1 12064.4 332.230   1
  -1   3   1 11149.1 387.910   1
   1  -3  -1 11748.4 487.040   1
  -1   3   1 11999.3 405.740   1
   1  -3  -1 9926.84 357.390   1
  -1  -3   1 164.780 56.0800   1
   1   3  -1 132.900 53.7100   1
   1   3  -1 150.920 45.0300   1
  -2  -2   0 2914.74 226.100   1
  -2  -2   0 2613.45 165.500   1
   2   2   0 3023.43 151.570   1
  -2  -2   0 3054.64 164.040   1
   2   2   0 3113.95 160.620   1
   2   2   0 2759.14 177.940   1
   2  -1  -1 144215. 1793.73   1
  -2   1   1 150122. 1902.12   1
   2  -1  -1 145871. 1703.72   1
  -2   1   1 156228. 1881.42   1
   2   2   2 8631.09 377.810   1
   2   2   2 8596.86 284.580   1
   1   1  -3 2422.15 140.800   1
  -1  -1   3 2078.71 124.680   1
  -1  -1   3 2387.24 142.770   1
   1   1  -3 2442.99 133.760   1
  -1  -1   3 2140.22 124.890   1
   1   1  -3 2296.65 123.020   1
   1   0   4 48861.5 781.220   1
  -1   0  -4 47896.9 737.500   1
  -1   0  -4 48292.2 724.370   1
   1   0   4 46021.8 734.510   1
   0   0   4 1836.49 122.800   1
   0   0  -4 1886.40 131.410   1
   0   0   4 2025.11 120.210   1
   0   0  -4 2011.08 124.810   1
   0   0   4 2071.86 138.900   1
   1   1   4 91490.2 1194.93   1
  -1  -1  -4 93103.1 1257.52   1
   0  -3   2 7397.75 260.780   1
   0   3  -2 7320.73 261.220   1
   0  -3   2 7168.49 304.330   1
   0  -3   2 6927.25 268.780   1
   0   3  -2 7848.71 279.380   1
   0  -3   2 7333.78 215.560   1
   2   0   3 217.420 57.1700   1
  -2   0  -3 252.110 59.9700   1
   2   0   3 213.700 66.0100   1
   2   1   3 30945.6 564.010   1
  -2  -1  -3 30846.7 621.270   1
   0   1   4 30277.2 567.720   1
   0  -1  -4 31770.2 591.440   1
   0   1   4 33408.5 573.930   1
   0   1   4 31061.5 575.840   1
  -1   2  -3 8409.04 269.250   1
   1  -2   3 8573.17 257.670   1
  -1   2  -3 8544.18 272.840   1
   1  -2   3 8431.38 333.350   1
  -2   2  -1 32.0300 58.6200   1
  -2   2   0 28912.0 707.250   1
   2  -2   0 30695.0 702.840   1
  -2   2   0 30190.9 729.560   1
   2  -2   0 30346.4 836.910   1
  -2   2   0 31529.0 773.630   1
  -2   2   0 31244.8 716.070   1
   2  -2   0 30061.4 675.340   1
   2  -2   0 30376.5 703.540   1
   0  -3  -3 8908.37 330.570   1
   0   3   3 8144.52 355.650   1
   0   3   3 9206.07 317.730   1
   0  -3  -3 8276.39 248.570   1
   0  -3  -3 8573.40 316.610   1
   0   3   3 9204.32 281.800   1
   0   3   3 8640.77 315.590   1
   0   3   3 8428.44 382.330   1
   1   3   3 42710.0 790.350   1
  -1  -3  -3 42808.4 940.340   1
  -1  -3  -3 41234.4 884.210   1
   1   3   3 40984.4 851.980   1
  -1  -3  -3 39954.2 899.060   1
  -1   2   3 140.310 48.1200   1
   1  -2  -3 212.170 66.8000   1
  -1   2   3 190.000 56.6900   1
  -1   2   3 165.380 61.0700   1
   1  -2  -3 200.770 68.3300   1
   1  -2  -3 193.480 48.7300   1
   0   1  -4 8040.69 261.770   1
   0  -1   4 7577.68 247.730   1
   0   1  -4 8264.60 277.460   1
   0  -1   4 7510.53 292.470   1
   0  -1   4 7656.94 278.070   1
  -1   3  -2 64923.8 1194.31   1
   1  -3   2 65876.7 1225.42   1
  -1   3  -2 65929.7 1208.77   1
   1  -3   2 62335.6 1239.64   1
   1  -3   2 65302.6 1140.81   1
   1  -1   4 367.420 71.3000   1
  -1   1  -4 459.280 70.6900   1
  -1   1  -4 367.270 65.7800   1
   1  -1   4 295.310 56.1900   1
  -2  -2   1 2829.33 202.210   1
  -2  -2   1 2725.41 197.540   1
   2   2  -1 2875.60 167.900   1
   2   2  -1 3057.62 147.350   1
  -2  -2   1 2909.94 153.080   1
   2   2  -1 2991.69 157.120   1
  -1   3   2 5792.60 266.050   1
   1  -3  -2 5917.36 248.730   1
  -1   3   2 6074.13 299.930   1
   1  -3  -2 5288.61 221.270   1
  -1   3   2 5026.25 216.290   1
   1  -3  -2 5511.32 245.480   1
  -1   3   2 5953.96 266.940   1
   1  -3  -2 6262.66 241.750   1
  -1   3   2 6171.50 244.610   1
   1   2   4 4040.83 203.480   1
  -1  -2  -4 4382.30 214.180   1
   1   2   4 4552.76 207.740   1
   2   0  -2 19394.3 467.180   1
  -2   0   2 18733.6 478.820   1
  -2   0   2 16524.8 444.680   1
   2   0  -2 18574.5 490.080   1
  -2   0   2 18845.6 527.330   1
   2   0  -2 16684.9 430.640   1
   2  -1   3 4564.19 203.250   1
   2  -1   3 4890.85 229.850   1
  -2   1  -3 4869.07 206.630   1
  -2   1  -3 5380.12 236.620   1
   2  -1   3 4965.59 258.390   1
   2   2   3 27780.7 632.690   1
  -2  -2  -3 27799.7 698.160   1
   0   2   4 25560.7 551.600   1
   0   2   4 23814.7 584.800   1
   0  -2  -4 25517.4 595.250   1
   0   2   4 24352.2 541.310   1
   0   4   0 4248.75 225.030   1
   0  -4   0 4026.75 240.560   1
   0   4   0 4156.73 191.510   1
   0  -4   0 3834.10 171.940   1
   0  -4   0 3890.34 254.010   1
   0   4   1 368.530 66.8800   1
   0  -4  -1 467.680 60.9400   1
   0  -4  -1 279.830 124.560   1
   0  -4  -1 419.370 77.5600   1
   0   4   1 372.440 103.690   1
   2  -2   2 2108.59 155.780   1
   2  -2   2 2269.19 181.110   1
   2  -2   2 2355.17 154.820   1
  -2   2  -2 2292.84 159.420   1
  -2   2  -2 2284.48 133.480   1
  -2   2  -2 2111.37 137.970   1
  -2   2   1 421.030 93.0000   1
   2  -2  -1 518.240 82.7500   1
   2  -2  -1 488.490 88.3200   1
  -2   2   1 449.830 75.8400   1
   2  -2  -1 327.110 82.8300   1
  -2   2   1 448.780 74.7900   1
   2  -1  -2 18373.0 459.320   1
  -2   1   2 18383.6 518.930   1
  -2   1   2 17671.2 487.060   1
   2  -1  -2 15559.0 423.750   1
   2  -1  -2 17396.0 450.580   1
  -2   1   2 17353.5 484.080   1
  -2  -1   2 1200.95 113.450   1
   2   1  -2 1378.64 99.2100   1
  -2  -1   2 1277.57 116.480   1
   2   1  -2 1384.70 103.160   1
   2   1  -2 1427.62 112.960   1
  -2  -1   2 1341.80 105.650   1
  -1  -2   3 7574.16 283.520   1
   1   2  -3 7924.13 264.580   1
  -1  -2   3 7364.85 328.800   1
  -1  -2   3 7627.06 254.960   1
   1   2  -3 6933.08 252.630   1
   1   2  -3 8185.48 266.900   1
  -1  -3   2 59335.1 1044.23   1
  -1  -3   2 61637.1 1266.83   1
   1   3  -2 60261.8 1074.82   1
   1   3  -2 60409.8 1112.44   1
  -1  -3   2 59411.7 1161.70   1
  -1  -3   2 62519.0 1247.18   1
   1   3  -2 62481.4 1090.45   1
   2   3   1 24115.2 526.380   1
   2   3   1 23266.1 621.910   1
   2   3   1 24630.5 573.740   1
  -2  -3  -1 24255.7 677.370   1
  -1  -4  -1 20772.0 679.660   1
  -1  -4  -1 21308.0 532.110   1
   1   4   1 22574.2 496.590   1
  -1  -4  -1 20565.4 526.840   1
   1   4   1 23061.0 511.470   1
   1   4   1 21863.5 596.140   1
   2   3   2 13411.2 399.810   1
   2   3   2 12825.8 452.920   1
   2   3   2 13705.8 356.050   1
   2   3   2 12390.7 371.850   1
  -2  -3   0 54582.7 1131.08   1
   2   3   0 54817.1 974.020   1
   2   3   0 57004.1 1132.25   1
   2   3   0 56630.4 1019.50   1
  -2  -3   0 56849.6 1332.55   1
   0  -4   1 1748.33 183.410   1
   0  -4   1 1800.92 152.480   1
   0   4  -1 1916.28 151.380   1
   0   4  -1 1850.50 128.370   1
   0   4  -1 1632.82 119.210   1
   0  -4   1 1756.52 107.570   1
   1   4   0 36195.0 711.250   1
  -1  -4   0 35417.4 717.610   1
   1   4   0 37576.3 727.690   1
   1   4   0 36330.7 824.120   1
  -1  -4   0 33932.9 782.060   1
  -1  -4   0 34872.5 897.110   1
   0  -4  -2 19429.2 634.020   1
   0   4   2 19051.8 603.610   1
   0  -4  -2 19626.3 526.710   1
   0   4   2 21126.0 565.510   1
   0   4   2 19351.9 550.890   1
   0  -4  -2 19286.1 434.570   1
   0   4   2 20262.4 497.070   1
   2   1   4 5013.09 252.750   1
   2   1   4 4796.98 209.060   1
  -2  -1  -4 4524.43 227.900   1
   2   0   4 789.790 90.0700   1
   2   0   4 843.260 87.1100   1
  -2   0  -4 764.080 84.7900   1
  -1  -4  -2 20390.8 653.900   1
  -1  -4  -2 21254.4 501.000   1
   1   4   2 20272.5 503.500   1
   1   4   2 21662.6 502.540   1
   1   4   2 19800.4 584.330   1
   1   4   2 19154.1 528.590   1
  -1  -4  -2 19488.9 483.800   1
   0   3  -3 47220.4 920.310   1
   0  -3   3 45981.8 854.120   1
   0   3  -3 48011.3 954.900   1
   0  -3   3 47162.1 1037.57   1
   0   3  -3 50542.7 948.530   1
   0  -3   3 44967.6 867.360   1
  -1   0   4 12994.7 381.080   1
  -1   0   4 13148.1 370.200   1
   1   0  -4 15110.2 413.870   1
  -1   0   4 13709.7 378.460   1
   1   0  -4 14909.7 395.830   1
   1   0  -4 15146.3 431.030   1
   1  -1  -4 15714.5 413.030   1
   1  -1  -4 15671.8 394.770   1
  -1   1   4 15801.7 416.010   1
   1  -1  -4 15284.5 401.100   1
  -1   1   4 13921.3 378.130   1
   0  -2   4 1879.98 135.630   1
   0   2  -4 2316.62 139.330   1
   0  -2   4 1923.99 132.860   1
   0   2  -4 1925.48 122.700   1
   0  -2   4 2175.34 124.210   1
   0  -2   4 2042.84 169.750   1
   1  -4   0 21715.1 733.120   1
  -1   4   0 21677.3 592.290   1
   1  -4   0 21475.7 489.330   1
  -1   4   0 22598.7 574.690   1
   1  -4   0 21595.2 566.830   1
   1  -2   4 9894.87 334.670   1
  -1   2  -4 10550.8 328.070   1
   1  -2   4 9660.51 327.410   1
  -1   2  -4 10128.0 325.790   1
   1  -2   4 9881.77 310.140   1
  -1   3  -3 19437.3 497.510   1
   1  -3   3 18471.4 554.400   1
  -1   3  -3 19202.4 489.990   1
  -1   3  -3 18163.5 448.980   1
   1  -3   3 18582.7 485.070   1
   1  -3   3 18001.4 442.210   1
  -2   2  -3 9862.16 328.500   1
   2  -2   3 10302.1 375.160   1
   2  -2   3 9938.51 311.350   1
  -2   2  -3 9806.53 347.880   1
   2  -2   3 9334.23 336.010   1
  -2   2   2 37162.0 777.950   1
   2  -2  -2 36206.9 786.940   1
  -2   2   2 32939.7 732.270   1
  -2   2   2 36756.3 824.840   1
   2  -2  -2 34129.2 731.530   1
  -2   2   2 36527.6 847.260   1
   2  -2  -2 35817.0 770.590   1
   2   2  -2 178.940 63.6100   1
   2   2  -2 244.920 67.6600   1
  -2  -2   2 238.140 65.5500   1
  -2  -2   2 193.510 74.4900   1
   2   2  -2 218.230 55.7200   1
   1   3   4 30262.0 668.010   1
  -1  -3  -4 31917.8 732.320   1
   1   3   4 30665.9 635.970   1
   1  -3  -3 21939.5 514.120   1
  -1   3   3 21199.1 503.900   1
   1  -3  -3 21051.7 522.210   1
  -1   3   3 20830.2 495.110   1
   1  -3  -3 24059.9 548.580   1
  -1   3   3 23765.6 661.270   1
  -1   3   3 21938.4 535.550   1
   1  -3  -3 22039.1 577.490   1
  -2  -3  -3 370.040 92.8300   1
   2   3   3 363.770 65.6700   1
   2   3   3 405.100 110.180   1
   2   3   3 413.230 83.3800   1
   2  -3   0 5789.55 230.930   1
  -2   3   0 5692.08 267.280   1
   2  -3   0 6040.26 346.790   1
  -2   3   0 5414.40 240.860   1
  -2   3   0 5749.12 259.950   1
   2  -3   0 5775.65 238.440   1
   2  -3   0 5286.92 289.900   1
  -2   3   0 5667.62 290.030   1
   1  -4  -1 12898.1 480.750   1
   1  -4  -1 15232.6 442.500   1
  -1   4   1 14708.2 470.170   1
  -1   4   1 14393.1 470.450   1
   1  -4  -1 15729.5 401.630   1
  -1   4   1 14562.9 443.740   1
   1  -4  -1 15622.4 613.190   1
  -1  -1   4 2750.12 170.330   1
  -1  -1   4 3120.73 168.850   1
   1   1  -4 3397.24 159.770   1
  -1  -1   4 2874.87 155.760   1
   1   1  -4 3371.49 166.640   1
   1   1  -4 3179.69 168.270   1
  -1  -4   1 40651.3 868.820   1
  -1  -4   1 42249.7 818.440   1
   1   4  -1 44962.0 863.590   1
  -1  -4   1 42324.0 1062.28   1
   1   4  -1 44561.9 910.500   1
   1   4  -1 44073.3 830.760   1
   2   2   4 1645.79 134.870   1
  -2  -2  -4 1971.67 158.970   1
   2  -3   1 206.030 101.630   1
  -2   3  -1 250.190 85.3100   1
  -2   3  -1 256.860 61.6900   1
   2  -3   1 273.610 74.5600   1
   2  -3   1 271.310 66.1100   1
  -2   3  -1 315.740 73.3100   1
   0   3   4 44592.5 867.440   1
   0  -3  -4 43222.4 923.680   1
   0   3   4 41976.6 787.290   1
   0  -3  -4 43064.9 919.280   1
   0  -3  -4 41997.1 873.780   1
   0   3   4 44363.9 896.870   1
   1  -4   1 3415.81 255.630   1
   1  -4   1 3382.60 162.080   1
  -1   4  -1 3532.50 191.840   1
  -1   4  -1 3718.59 204.650   1
  -1   4  -1 3649.22 210.550   1
   1   1   5 95422.1 1637.26   1
  -1  -1  -5 97428.5 1644.70   1
   1   1   5 89832.0 1595.84   1
  -1  -1  -5 95392.9 1630.70   1
   2   3  -1 102207. 1193.39   1
  -2  -3   1 109094. 1560.30   1
  -2  -3   1 103183. 1361.87   1
   2   3  -1 109948. 1264.31   1
   2   3  -1 109811. 1451.31   1
  -2  -3   1 102386. 1495.29   1
   1   0   5 93567.3 1640.42   1
   1   0   5 96914.6 1617.60   1
  -1   0  -5 99548.2 1256.27   1
  -1   0  -5 102105. 1266.98   1
   2  -1   4 2200.19 145.300   1
   2  -1   4 2034.77 142.020   1
  -2   1  -4 2417.08 161.760   1
   2  -1   4 2174.89 149.120   1
  -2   1  -4 2193.38 146.430   1
   3   0   1 93.0200 68.5200   1
   0   4  -2 300.330 65.1800   1
   0  -4   2 315.330 71.1600   1
   0   4  -2 259.270 71.9600   1
   0  -4   2 265.640 58.5000   1
   0  -4   2 355.350 59.2400   1
  -2   0   3 13736.5 407.770   1
  -2   0   3 12950.8 421.010   1
   2   0  -3 14243.6 385.170   1
   2   0  -3 14124.8 399.920   1
  -2   0   3 12893.9 353.890   1
   0   0   5 2736.50 151.900   1
   0   0  -5 2877.89 154.240   1
   0   0   5 2625.35 147.250   1
   0   0  -5 2455.28 162.760   1
   0   0   5 2481.32 159.370   1
   0  -1  -5 1045.07 101.890   1
   0   1   5 1034.74 97.5400   1
   0   1   5 811.020 85.5400   1
   0  -1  -5 960.170 90.7000   1
   0   1   5 945.710 94.7100   1
   3   1   1 4963.03 285.550   1
   3   1   1 4645.39 213.530   1
   3   1   1 4662.66 207.790   1
   3   1   1 4507.93 198.540   1
   3   1   1 4739.05 203.470   1
   1   4   3 14007.8 377.020   1
   1   4   3 14265.0 369.040   1
   1   4   3 14820.6 363.290   1
  -1  -4  -3 14440.3 378.030   1
  -1  -4  -3 13681.0 375.650   1
   1   4   3 14171.8 482.350   1
   1  -2  -4 1875.01 121.850   1
  -1   2   4 1662.94 117.400   1
   1  -2  -4 1806.19 121.150   1
  -1   2   4 1650.06 114.150   1
  -1   2   4 1779.47 119.920   1
   1  -2  -4 1756.25 125.590   1
   0   4   3 4985.65 207.820   1
   0   4   3 5432.34 287.710   1
   0  -4  -3 5183.32 239.840   1
   0   4   3 5329.36 292.190   1
   0   4   3 4836.91 208.990   1
   0  -4  -3 5601.77 201.220   1
   0   4   3 5285.16 197.440   1
   0  -4  -3 4600.15 206.280   1
   2  -3  -1 6022.05 251.690   1
   2  -3  -1 6689.95 248.940   1
  -2   3   1 6662.42 303.140   1
   2  -3  -1 7069.74 273.580   1
  -2   3   1 6780.01 251.770   1
   2  -3  -1 6611.12 351.950   1
  -2   3   1 6560.19 278.630   1
   3   0   2 7858.35 289.210   1
  -3   0  -2 7748.16 290.510   1
   3   0   2 8280.35 269.150   1
   3   0   2 8682.04 286.870   1
   3   0   2 7813.63 283.940   1
   3   1   2 5359.46 212.020   1
   3   1   2 5192.16 208.900   1
   2  -1  -3 241.160 65.9000   1
   2  -1  -3 337.310 60.6700   1
  -2   1   3 346.800 72.1900   1
  -2   1   3 293.600 59.2100   1
  -2   1   3 334.750 59.7500   1
  -3   0   0 1733.97 158.630   1
   3   0   0 1657.46 116.900   1
   3   0   0 1750.25 148.180   1
   3   0   0 1794.23 139.470   1
  -3   0   0 1809.64 124.630   1
  -2   3  -2 34384.4 698.590   1
   2  -3   2 32253.8 585.290   1
  -2   3  -2 35700.1 630.710   1
   2  -3   2 36164.6 682.990   1
  -2   3  -2 36307.8 632.540   1
   2  -3   2 34683.7 794.300   1
   1   3  -3 1358.81 111.820   1
   1   3  -3 1329.20 112.290   1
  -1  -3   3 1136.86 116.870   1
   1   3  -3 1346.00 112.320   1
  -1  -3   3 1105.72 111.830   1
  -1  -3   3 1157.58 101.030   1
   1   3  -3 1366.34 101.330   1
   1   2   5 1402.02 114.460   1
  -1  -2  -5 1286.78 111.880   1
   1   2   5 1272.34 114.470   1
   2   1  -3 33542.4 583.190   1
  -2  -1   3 33583.8 706.350   1
   2   1  -3 32009.1 533.170   1
  -2  -1   3 31941.3 674.800   1
  -2  -1   3 34008.2 624.840   1
   2   1  -3 32654.8 582.380   1
   1  -4  -2 9653.57 368.830   1
  -1   4   2 11058.2 327.670   1
   1  -4  -2 11625.4 308.380   1
  -1   4   2 11175.5 383.420   1
  -1   4   2 11597.5 373.090   1
   1  -4  -2 10978.8 389.940   1
   1  -4  -2 11818.8 368.240   1
  -1   4   2 11494.3 387.200   1
   3   1   0 56.1800 71.9200   1
  -1   1  -5 1532.52 109.220   1
   1  -1   5 1307.78 109.570   1
   1  -1   5 1371.90 108.230   1
  -1   1  -5 1505.34 104.110   1
   3  -1   1 48562.9 971.380   1
   3  -1   1 46194.2 729.770   1
   3  -1   1 48001.0 901.950   1
   1  -4   2 446.970 114.050   1
  -1   4  -2 583.550 96.4400   1
   1  -4   2 444.130 65.4500   1
  -1   4  -2 453.960 78.3600   1
   0   1  -5 414.670 61.5900   1
   0  -1   5 384.700 81.7300   1
   0   1  -5 500.160 74.2400   1
   0  -1   5 509.330 75.9900   1
   0  -1   5 336.630 68.1500   1
   2   4   1 73693.0 1144.74   1
   2   4   1 75636.9 963.130   1
  -2  -4  -1 72758.0 1145.08   1
   2   4   1 77189.6 991.780   1
  -2  -4  -1 75668.6 1106.74   1
  -2  -4  -1 75173.1 1338.85   1
   0  -2  -5 59672.5 924.800   1
   0   2   5 55225.7 777.990   1
   0   2   5 61007.2 863.900   1
   0   2   5 60704.3 894.030   1
   3   2   1 26417.1 528.780   1
   3   2   1 24863.0 626.360   1
   3   2   1 24060.4 464.770   1
   3   2   1 24716.1 499.610   1
   3   2   1 25313.6 549.840   1
  -3   1   0 18438.9 457.830   1
   3  -1   0 18317.8 433.480   1
   3  -1   0 18146.8 465.320   1
  -3   1   0 18897.7 458.490   1
  -3   1   0 19238.4 487.860   1
   1   2  -4 8591.02 268.270   1
  -1  -2   4 7113.00 282.310   1
   1   2  -4 7897.50 246.550   1
   1   2  -4 7222.43 245.040   1
  -1  -2   4 7228.61 251.840   1
  -1  -2   4 6737.05 236.700   1
   3  -1   2 204.150 75.1600   1
   3  -1   2 159.980 60.9600   1
   3  -1   2 294.010 71.1300   1
   3  -1   2 132.520 54.5500   1
   2   4   2 29649.2 551.570   1
   2   4   2 31395.7 528.240   1
  -2  -4  -2 31387.6 663.290   1
  -2  -4  -2 30602.2 645.500   1
   2   4   2 29509.3 593.700   1
   2   4   2 30260.5 674.120   1
   3   2   2 419.370 122.170   1
   3   2   2 448.690 69.3800   1
   3   2   2 505.740 84.0800   1
   3   2   2 449.320 77.6100   1
  -3  -1  -3 3589.98 211.460   1
   3   1   3 3583.20 189.880   1
  -2  -3  -4 6112.95 298.710   1
   2   3   4 6629.73 244.480   1
   2   3   4 5917.71 238.910   1
   2   3   4 6503.72 246.910   1
  -1  -4   2 87835.4 1187.90   1
   1   4  -2 91493.5 1359.23   1
   1   4  -2 90638.5 1194.14   1
  -1  -4   2 92300.6 1477.77   1
   1   4  -2 94109.2 1369.03   1
  -1  -4   2 88593.8 1396.15   1
   3   0   3 57698.0 843.610   1
  -3   0  -3 55371.0 849.620   1
   3   0   3 57452.8 976.670   1
  -2  -4   0 590.220 123.260   1
   2   4   0 672.370 109.850   1
  -2  -4   0 740.420 99.5200   1
   2   4   0 696.970 92.0200   1
   2   4   0 779.480 80.3500   1
  -2  -4   0 697.670 85.9500   1
   2   4   0 701.000 69.6100   1
   2   1   5 214.470 60.5600   1
  -2  -1  -5 265.360 72.7100   1
  -2   3   2 11066.3 341.650   1
  -2   3   2 10170.9 376.060   1
   2  -3  -2 10606.1 331.030   1
   2  -3  -2 12359.5 369.490   1
  -2   3   2 12468.0 434.610   1
   2  -3  -2 10888.3 355.540   1
   2  -3  -2 11089.0 316.110   1
  -3   0   1 5281.32 224.910   1
   3   0  -1 5577.47 220.640   1
   3   0  -1 5484.55 222.490   1
   3   0  -1 4713.20 221.450   1
   2   3  -2 44536.1 697.030   1
  -2  -3   2 45181.0 924.350   1
   2   3  -2 46498.7 669.280   1
  -2  -3   2 42439.3 812.840   1
   2   3  -2 46183.6 675.770   1
   2  -2   4 19139.5 469.490   1
  -2   2  -4 22197.5 491.290   1
   2  -2   4 20539.1 480.320   1
   2  -2   4 19328.5 501.560   1
  -2   2  -4 21088.3 431.020   1
   2  -2  -3 3490.95 178.610   1
  -2   2   3 4063.03 197.300   1
  -2   2   3 3847.61 188.650   1
   2  -2  -3 4349.40 218.340   1
   2  -2  -3 3633.65 178.740   1
  -2   0  -5 19702.3 449.260   1
   2   0   5 17675.8 447.760   1
   2   0   5 17852.0 388.790   1
  -2   0  -5 19073.6 461.720   1
  -3  -2   0 21188.0 687.120   1
  -3  -2   0 19841.8 583.910   1
   3   2   0 22804.6 474.670   1
  -3  -2   0 21727.0 478.840   1
   3   2   0 20222.2 476.970   1
   0  -3   4 7164.55 262.340   1
   0  -3   4 7180.16 273.770   1
   0   3  -4 8334.72 260.330   1
   0  -3   4 7719.42 262.140   1
   0  -5  -1 13020.4 359.770   1
   0   5   1 14196.0 395.140   1
   0  -5  -1 12281.3 310.540   1
   0  -5  -1 13693.0 584.770   1
   0  -5   0 437.160 58.6700   1
   0  -5   0 437.810 70.6800   1
   0  -5   0 378.340 73.6600   1
   0   5   0 584.950 73.5700   1
   0  -5   0 296.170 127.820   1
   3   1  -1 18437.0 414.650   1
  -3  -1   1 16747.0 480.860   1
  -3  -1   1 19180.8 455.060   1
   3   1  -1 17824.7 418.170   1
   3   1  -1 18075.2 396.090   1
   1  -3   4 127.260 39.9200   1
   1  -3   4 138.070 59.5000   1
  -1   3  -4 167.850 64.7900   1
  -1   3  -4 148.470 57.5800   1
   2   2  -3 11153.2 289.600   1
  -2  -2   3 13011.9 373.780   1
   2   2  -3 13389.1 363.790   1
   2   2  -3 12434.1 285.090   1
  -2   3  -3 276.760 72.0900   1
   2  -3   3 170.780 86.0000   1
  -2   3  -3 369.170 73.6300   1
  -2   3  -3 357.680 67.7600   1
   2  -3   3 321.030 98.6200   1
  -1   3   4 10866.8 305.510   1
   1  -3  -4 11488.9 334.650   1
   1  -3  -4 12343.0 335.480   1
   1  -3  -4 12839.4 357.220   1
   1  -3  -4 11782.4 357.050   1
  -1   3   4 11948.6 351.790   1
   1   4   4 16882.8 405.740   1
   1   4   4 17872.0 434.830   1
  -1  -4  -4 17427.7 484.260   1
   1   4   4 17364.4 430.400   1
  -1  -4  -4 18145.3 437.690   1
   3   2   3 7586.53 266.540   1
   3   2   3 7469.04 247.810   1
  -1  -5  -1 19889.9 689.820   1
   1   5   1 21084.5 462.860   1
  -1  -5  -1 17994.8 511.340   1
  -1  -5  -1 20649.7 508.620   1
   1   5   1 20483.6 434.280   1
  -1  -5  -1 18762.8 425.470   1
   2   4   3 92.6900 80.6300   1
   2   4   3 161.850 46.6900   1
   2   4   3 192.570 127.490   1
   0  -4   3 220.570 97.4100   1
   0   4  -3 221.890 61.9700   1
   0  -4   3 86.8100 44.8900   1
   0  -4   3 119.270 67.2100   1
   2   2   5 627.020 81.7500   1
   2   2   5 531.680 87.5600   1
  -2  -2  -5 684.220 92.7400   1
  -3   1   1 6098.17 303.710   1
  -3   1   1 6954.93 332.600   1
   3  -1  -1 6107.74 253.400   1
   3  -1  -1 7226.27 277.530   1
  -3   1   1 6130.24 248.230   1
   3  -1  -1 6173.73 239.510   1
   1   3   5 1409.17 107.920   1
   1   3   5 1444.56 116.850   1
   3  -1   3 29664.2 582.740   1
  -3   1  -3 26632.4 549.130   1
   3  -1   3 27099.4 626.350   1
   3  -1   3 26731.3 538.580   1
   3  -1   3 25844.9 612.400   1
  -1   4   3 28503.5 567.580   1
   1  -4  -3 26254.7 596.240   1
  -1   4   3 28408.1 675.770   1
   1  -4  -3 24784.2 571.170   1
  -1   4   3 27690.8 554.360   1
   1  -4  -3 27303.2 584.230   1
   1  -4  -3 27606.0 511.890   1
   0   4   4 52081.2 794.680   1
   0   4   4 51584.4 773.090   1
   0  -4  -4 51048.7 871.180   1
   0  -4  -4 47427.7 682.020   1
   0   4   4 53195.3 854.690   1
   0   4   4 46197.6 869.310   1
   3  -2   1 11462.0 323.160   1
  -3   2  -1 12176.3 337.510   1
   3  -2   1 10922.4 434.670   1
  -3   2  -1 12014.0 363.390   1
   0  -5  -2 19268.8 477.960   1
   0   5   2 18566.5 451.970   1
   0   5   2 19212.0 462.560   1
   0  -5  -2 18833.0 628.820   1
   0  -5  -2 19764.0 412.090   1
  -1   0   5 1261.99 100.810   1
   1   0  -5 1272.53 105.500   1
   1   0  -5 1098.93 102.890   1
   1   0  -5 1284.47 102.450   1
   1   5   0 4374.77 177.980   1
   1   5   0 4757.94 224.360   1
  -1  -5   0 4376.35 246.110   1
   1   5   0 4700.98 227.890   1
  -1  -5   0 4348.74 202.790   1
  -1  -5   0 4811.23 308.540   1
   1  -2   5 12590.0 356.410   1
   1  -2   5 11492.5 339.920   1
  -1   2  -5 12439.5 328.780   1
   1  -2   5 10723.2 300.280   1
  -1  -5  -2 1397.26 111.210   1
   1   5   2 1459.55 125.020   1
   1   5   2 1462.32 120.200   1
   1   5   2 1171.66 97.1500   1
  -1  -5  -2 1353.60 113.920   1
  -1  -5  -2 1199.99 172.970   1
   1  -1  -5 32979.6 629.000   1
   1  -1  -5 31919.7 607.410   1
  -1   1   5 29524.7 545.850   1
   0   5  -1 54241.2 819.350   1
   0  -5   1 51812.9 883.410   1
   0  -5   1 53158.2 1047.70   1
   0   5  -1 54412.5 854.040   1
   2  -1   5 59641.7 944.180   1
  -2   1  -5 61597.2 968.770   1
  -2   1  -5 63204.7 908.520   1
   2  -1   5 59176.4 864.110   1
   0   2  -5 395.340 62.5300   1
   0  -2   5 293.310 61.3400   1
   0  -2   5 374.570 82.4100   1
   3  -2   0 2604.01 157.150   1
  -3   2   0 2356.43 173.110   1
   3  -2   0 2407.07 165.040   1
  -3   2   0 2783.34 184.380   1
   3  -2   0 2259.35 210.990   1
  -3   2   0 2064.22 162.040   1
   2   4  -1 44384.9 796.820   1
   2   4  -1 45665.0 735.970   1
  -2  -4   1 41499.8 838.090   1
   2   4  -1 43641.7 653.890   1
  -2  -4   1 42857.6 901.890   1
   0   3   5 12657.7 378.080   1
   0   3   5 12319.5 326.200   1
   0   3   5 11797.5 323.090   1
   0  -3  -5 12615.2 373.240   1
   1  -4   3 850.070 113.220   1
   1  -4   3 893.110 123.970   1
  -1   4  -3 771.570 102.930   1
  -1   4  -3 802.190 89.4000   1
  -2   4   0 33459.9 716.880   1
   2  -4   0 34960.1 938.470   1
  -2   4   0 33262.9 730.050   1
   2  -4   0 34967.0 741.320   1
   3  -2   2 1115.85 108.260   1
   3  -2   2 961.810 97.4000   1
  -3   2  -2 1192.11 106.230   1
   3  -2   2 1034.40 114.230   1
  -3   2  -2 1099.58 101.260   1
   3   3   1 24446.0 615.010   1
   3   3   1 26542.8 566.610   1
   3   3   1 25257.8 537.750   1
   3   1   4 8809.03 328.610   1
  -3  -1  -4 9489.31 338.590   1
   3   1   4 9240.97 285.460   1
  -2   4  -1 223.240 75.9400   1
   2  -4   1 165.040 111.670   1
  -2   4  -1 268.150 81.3200   1
   2  -4   1 267.620 75.1000   1
   3   3   2 39637.4 715.990   1
   3   3   2 37359.5 823.460   1
   3   3   2 38216.1 740.520   1
   3   3   2 38549.3 719.940   1
   3   2  -1 19028.1 478.860   1
  -3  -2   1 17555.9 432.300   1
  -3  -2   1 18060.1 620.390   1
   3   2  -1 17886.3 397.810   1
   3   0   4 13943.8 355.370   1
  -3   0  -4 13088.3 367.210   1
   3   0   4 13720.1 444.170   1
  -2   0   4 1815.50 122.860   1
   2   0  -4 1986.92 131.910   1
   2   0  -4 1787.13 120.250   1
   2   0  -4 1911.33 133.760   1
  -1  -1   5 586.070 77.8800   1
   1   1  -5 536.580 73.9600   1
   1   1  -5 556.850 72.1600   1
  -1  -1   5 483.120 73.3400   1
   1  -5   0 1028.89 163.470   1
   1  -5   0 1041.35 113.160   1
  -1   5   0 1039.36 117.590   1
   2  -4  -1 36.5100 65.5600   1
  -2   4   1 43.1700 65.8200   1
  -1  -1  -6 12901.1 376.970   1
   1   1   6 13584.9 358.380   1
   1   1   6 11965.6 383.370   1
   2  -1  -4 19988.5 448.420   1
  -2   1   4 18477.5 455.910   1
   2  -1  -4 20193.9 510.970   1
   2  -1  -4 21086.7 470.570   1
   3   0  -2 931.450 92.8700   1
   3   0  -2 824.660 92.4500   1
  -3   0   2 932.460 96.5800   1
   3   0  -2 950.230 90.1300   1
   1  -5  -1 149.700 73.3300   1
   1  -5  -1 111.380 121.700   1
  -1   5   1 162.830 67.5000   1
  -1   5   1 110.720 73.1100   1
   1   5  -1 5192.16 217.820   1
   1   5  -1 5077.28 202.050   1
  -1  -5   1 4673.14 232.310   1
   1   5  -1 5432.19 220.190   1
  -1  -5   1 5249.94 294.960   1
  -1   2   5 17755.7 426.310   1
  -1   2   5 17402.4 414.780   1
   1  -2  -5 17248.2 440.550   1
   1  -2  -5 16753.5 422.210   1
   1   0   6 21043.2 492.540   1
  -1   0  -6 22416.1 508.690   1
   1   0   6 18644.9 465.640   1
   1   3  -4 17977.2 434.390   1
  -1  -3   4 17412.6 489.660   1
   1   3  -4 17977.8 423.670   1
   3   3   0 4900.61 202.260   1
  -3  -3   0 4155.01 201.710   1
  -3  -3   0 4481.67 296.170   1
   3   3   0 4487.63 221.970   1
   3   3   0 4454.59 187.890   1
   3   2   4 3766.59 191.440   1
  -3  -2  -4 3748.40 205.260   1
   3  -2  -1 24939.2 531.260   1
  -3   2   1 28833.8 673.100   1
   3  -2  -1 27416.5 562.320   1
  -3   2   1 26423.0 583.360   1
   1   5   3 10135.7 354.550   1
   1   5   3 10875.2 309.350   1
   1   5   3 10796.1 341.950   1
  -1  -5  -3 10660.5 325.850   1
  -1  -5  -3 11995.5 349.980   1
  -2   3   3 38.6100 55.7900   1
   2  -3  -3 25.1600 64.1000   1
   2  -3  -3 13.2800 59.5100   1
  -1  -4   3 160578. 2257.35   1
   1   4  -3 180837. 5449.30   1
  -1  -4   3 173568. 2442.11   1
  -1  -4   3 173870. 5272.20   1
   1   4  -3 184345. 5543.35   1
   2   1  -4 2648.53 142.920   1
   2   1  -4 2366.15 122.140   1
   2   1  -4 2533.99 141.410   1
  -2  -1   4 2482.98 148.850   1
  -2  -1   4 2294.57 155.110   1
   3   3   3 10318.2 338.430   1
   3   3   3 9783.60 438.250   1
   3   3   3 9776.79 312.560   1
   3   3   3 9870.97 312.130   1
   2   3   5 729.470 84.8000   1
   2   3   5 751.270 80.0700   1
   2   3   5 723.080 96.4600   1
   1  -5   1 4091.89 231.990   1
  -1   5  -1 4442.06 211.540   1
   2   4   4 15095.7 419.770   1
   2   4   4 15315.4 355.830   1
   2   4   4 15283.0 392.640   1
  -3  -1   2 10350.2 381.200   1
   3   1  -2 11597.1 317.100   1
   3   1  -2 10569.1 334.450   1
  -3  -1   2 11053.9 345.230   1
   0   5   3 9795.87 326.850   1
   0   5   3 9687.54 343.860   1
   0  -5  -3 9835.21 279.070   1
   0  -5  -3 9131.63 305.380   1
   0   5   3 9801.72 309.440   1
   2  -4   2 45420.9 939.560   1
  -2   4  -2 44607.5 851.790   1
  -2   4  -2 45828.1 802.110   1
   3  -1  -2 17909.6 433.960   1
   3  -1  -2 16207.2 426.370   1
   3  -1  -2 17938.8 437.690   1
  -3   1   2 20023.3 610.470   1
  -3   1   2 17721.6 458.710   1
   0   1   6 6135.87 223.400   1
   0  -1  -6 5276.10 223.330   1
   3  -2   3 8627.42 340.770   1
   3  -2   3 9624.51 300.600   1
   0   0   6 113.060 54.2700   1
   0   0  -6 129.740 44.8100   1
   0   0   6 89.0800 58.1000   1
   3  -1   4 13918.6 417.510   1
   3  -1   4 15385.6 419.950   1
   3  -1   4 14680.4 402.080   1
  -3   1  -4 14385.2 389.350   1
   1   2   6 4534.01 218.650   1
   1   2   6 4470.10 198.730   1
   0   5  -2 1374.06 108.250   1
   0  -5   2 1390.27 126.210   1
   0  -5   2 1364.77 155.640   1
   2   3  -3 118406. 1641.31   1
   2   3  -3 113729. 1546.53   1
  -2   3  -4 37410.8 700.670   1
   2  -3   4 37342.3 748.160   1
  -2   3  -4 34462.7 677.650   1
   2  -3   4 36352.1 735.100   1
   1  -5  -2 16987.9 619.990   1
  -1   5   2 17200.2 457.920   1
   1  -5  -2 17576.2 460.670   1
   1  -5  -2 16032.6 390.440   1
  -1   5   2 17175.0 542.720   1
  -2   2  -5 3873.77 191.450   1
   2  -2   5 3535.97 189.840   1
   2  -2   5 3836.88 183.800   1
  -2   2  -5 3899.68 200.030   1
   2  -2   5 3621.34 209.540   1
   2  -2  -4 27577.8 596.390   1
  -2   2   4 27102.2 590.210   1
  -2   2   4 27837.0 550.980   1
   2  -2  -4 27249.8 616.620   1
   2  -2  -4 30000.1 593.220   1
   1  -1   6 469.900 75.8300   1
  -1   1  -6 648.300 81.1800   1
   1  -1   6 574.120 76.9500   1
  -2  -5  -1 4278.46 275.650   1
   2   5   1 4394.45 250.190   1
   2   5   1 4409.53 183.420   1
   2   5   1 4547.62 181.170   1
  -2  -5  -1 4384.17 224.330   1
   2  -4  -2 9983.35 315.580   1
  -2   4   2 9616.08 311.320   1
  -2   4   2 8966.86 357.290   1
   2  -4  -2 9173.73 333.520   1
   2  -4  -2 9167.53 295.490   1
   2   4  -2 23877.6 488.630   1
   2   4  -2 24623.6 517.860   1
   2   4  -2 22419.4 525.170   1
  -2  -4   2 24434.6 666.150   1
   1   4   5 4851.77 207.280   1
   1   4   5 4962.76 209.310   1
   2   5   2 14030.4 347.560   1
  -2  -5  -2 14793.1 500.820   1
  -2  -5  -2 13993.9 439.150   1
   2   5   2 15483.5 368.100   1
   2   5   2 13541.0 408.320   1
  -2  -5  -2 14126.9 410.470   1
   0  -2  -6 9343.97 325.990   1
   0   2   6 9771.20 293.140   1
   0   2   6 10887.7 333.600   1
  -1   4   4 1419.35 121.660   1
   1  -4  -4 1420.83 126.640   1
   1  -4  -4 1249.05 105.040   1
   1  -4  -4 1297.64 107.490   1
  -1  -2   5 21867.5 524.090   1
   1   2  -5 22534.5 526.950   1
   2   1   6 10938.6 349.900   1
   2   1   6 11223.4 306.210   1
  -3   3  -1 3543.30 200.030   1
   3  -3   1 3210.61 174.390   1
  -3   3  -1 3490.98 187.580   1
   3  -3   1 3081.66 231.690   1
   0  -1   6 18584.2 429.730   1
   0  -1   6 17510.4 406.110   1
   0   1  -6 15965.1 422.050   1
   3   3  -1 1026.21 95.8800   1
  -3  -3   1 934.000 132.720   1
   3   3  -1 1025.38 89.4200   1
  -3  -3   1 1017.92 92.9300   1
   3   3  -1 1093.53 100.340   1
   1  -5   2 8743.21 404.600   1
  -1   5  -2 8415.37 271.980   1
   3   2  -2 106.430 59.6400   1
   3   2  -2 43.3300 52.5000   1
   3   2  -2 48.2200 60.3600   1
   0  -4   4 1109.33 115.850   1
   0   4  -4 1102.66 89.1000   1
   3  -3   0 26916.6 755.760   1
   3  -3   0 28382.6 646.950   1
  -3   3   0 30482.8 660.530   1
  -3   3   0 29375.2 616.410   1
   2   0   6 2992.06 164.510   1
  -2   0  -6 3913.89 201.180   1
   2   0   6 3296.37 160.020   1
   2   5   0 744.960 83.2000   1
   2   5   0 634.330 87.6300   1
  -2  -5   0 600.980 93.0400   1
   2   5   0 598.430 66.5200   1
   2   5   0 506.530 104.310   1
  -2  -5   0 632.540 139.820   1
  -2  -2   4 117.910 69.2900   1
   2   2  -4 149.840 60.5700   1
   2   2  -4 102.170 49.5600   1
  -1   3  -5 3563.28 185.090   1
   1  -3   5 3519.62 179.560   1
   0  -3   5 12768.2 402.190   1
   0   3  -5 13631.7 377.030   1
   3   3   4 24598.5 530.400   1
   3   3   4 24509.5 595.270   1
   3   3   4 22244.2 492.590   1
  -3  -3  -4 22520.4 610.740   1
   1   5  -2 3275.96 157.710   1
  -1  -5   2 2824.64 191.290   1
   1   5  -2 3341.28 173.920   1
  -1  -5   2 3124.48 238.860   1
  -3  -1  -5 9299.80 339.000   1
   3   1   5 9180.75 397.740   1
   3   1   5 9825.71 305.270   1
   0  -4  -5 23588.8 513.900   1
   0  -4  -5 23671.3 539.680   1
   0   4   5 21357.7 455.380   1
   0   4   5 23839.5 535.580   1
   1  -3  -5 10154.7 323.120   1
   1  -3  -5 10404.6 334.380   1
  -1   3   5 10032.7 300.250   1
   1  -3  -5 10241.7 341.410   1
  -1   3   5 9591.49 301.890   1
   3  -2  -2 3395.70 197.880   1
  -3   2   2 3475.73 170.410   1
  -3   2   2 4009.10 249.010   1
   3  -2  -2 3687.35 197.240   1
   3  -2  -2 3501.59 184.100   1
   1  -4   4 15227.4 383.450   1
   1  -4   4 16844.9 525.370   1
  -1   4  -4 17523.1 435.440   1
   3  -3   2 8968.36 288.610   1
  -3   3  -2 9088.56 323.820   1
  -3   3  -2 9392.18 294.620   1
   3  -3   2 9306.55 394.950   1
   2  -4   3 8697.29 356.730   1
  -2   4  -3 9409.92 294.150   1
   2  -4   3 9614.56 316.920   1
  -2   4  -3 8882.19 344.420   1
   2   2   6 5663.79 260.650   1
   2   2   6 5584.61 209.640   1
  -1  -5  -4 7855.47 296.870   1
   1   5   4 7455.73 273.650   1
  -1  -5  -4 8058.41 285.210   1
   1   5   4 8466.46 287.380   1
   1   5   4 8562.03 309.020   1
  -3   0  -5 10671.3 336.620   1
   3   0   5 9441.80 349.310   1
   3   0   5 10859.0 319.860   1
   3   4   2 8867.75 363.600   1
   3   4   2 9200.25 288.790   1
   3   4   2 9459.60 300.970   1
   3   4   2 10156.7 333.640   1
   3   4   1 1004.74 124.020   1
  -3  -4  -1 1000.58 134.110   1
   3   4   1 955.270 106.180   1
   3   4   1 1081.90 91.5900   1
  -2  -5  -3 33237.1 702.370   1
   2   5   3 33962.6 598.780   1
  -2  -5  -3 32888.9 676.910   1
   2   5   3 31065.7 644.000   1
   2   5   3 31217.2 621.960   1
   1   3   6 2856.27 160.170   1
   1   3   6 2658.72 156.340   1
   3   2   5 831.910 99.1800   1
  -3  -2  -5 878.040 96.7000   1
   3   2   5 988.190 102.160   1
   0  -5  -4 1518.32 103.910   1
   0  -5  -4 1518.25 114.230   1
   0   5   4 1452.04 116.490   1
   0   5   4 1452.36 113.230   1
   0   5   4 1373.54 137.880   1
  -3   2  -4 4133.18 210.270   1
   3  -2   4 4569.49 213.940   1
   3  -2   4 3860.41 214.830   1
  -3   2  -4 4185.22 190.190   1
  -3   3   1 554.500 75.3300   1
  -3   3   1 606.640 107.930   1
   3  -3  -1 550.960 91.8400   1
   3  -3  -1 514.420 90.1200   1
   1  -5  -3 3909.42 194.390   1
  -1   5   3 3929.82 229.860   1
   1  -5  -3 3492.28 216.300   1
   1  -5  -3 3999.87 191.360   1
  -1   5   3 4005.74 203.960   1
   3   0  -3 29730.9 626.750   1
   3   0  -3 30189.2 595.310   1
   3   0  -3 32352.1 617.860   1
   2  -1   6 306.220 68.4700   1
  -2   1  -6 300.140 73.9000   1
   2  -1   6 306.300 61.2500   1
   2   4   5 11.2600 66.2600   1
   3   4   3 11057.9 428.550   1
   3   4   3 13441.3 373.390   1
   3   4   3 12491.7 355.940   1
   3   4   3 12459.2 369.970   1
   0  -5   3 20821.4 619.020   1
   0  -5   3 21736.9 530.980   1
   0   5  -3 21278.0 471.540   1
   3   4   0 2641.31 130.740   1
  -3  -4   0 2756.34 161.010   1
   3   4   0 2775.51 142.780   1
   3   4   0 2559.43 162.240   1
  -3  -4   0 2499.53 222.510   1
   1  -2   6 2442.30 141.950   1
   1  -2   6 2953.95 168.960   1
  -1   2  -6 3149.80 167.340   1
   1  -2   6 2509.24 151.980   1
   0  -6  -1 904.170 99.6900   1
   0  -6  -1 912.400 139.400   1
   0   6   1 914.560 101.380   1
   0   3   6 1011.36 98.8300   1
   0   3   6 734.060 79.3500   1
  -2  -5   1 8134.73 401.740   1
   2   5  -1 8900.23 254.430   1
  -2  -5   1 8165.29 409.560   1
   2   5  -1 8388.64 253.610   1
  -2   3   4 879.810 101.860   1
   2  -3  -4 832.810 94.1000   1
  -2   3   4 816.520 139.180   1
   2  -3  -4 889.290 96.2800   1
   2  -3  -4 744.860 100.730   1
  -2   3   4 840.040 90.6800   1
   2  -3  -4 954.300 105.700   1
   3  -1  -3 129.380 61.2800   1
   3  -1  -3 186.190 59.1300   1
  -3   1   3 181.830 58.5000   1
   3   1  -3 126.820 70.5200   1
   0  -6   0 701.190 103.520   1
   0  -6   0 751.220 103.420   1
   0   6   0 848.280 98.6400   1
   0  -6   0 829.960 150.870   1
   2  -4  -3 30.0300 63.4400   1
   2  -4  -3 10.1700 45.2600   1
   2  -4  -3 49.6900 66.9000   1
   2  -4  -3 -23.220 59.9700   1
  -3   1  -5 167.660 65.4900   1
   3  -1   5 217.990 61.7600   1
   3  -1   5 152.300 68.1600   1
  -1   0   6 17245.7 424.170   1
   1   0  -6 17121.4 421.540   1
  -3   3  -3 1045.16 122.010   1
   3  -3   3 1157.96 120.420   1
  -3   3  -3 1230.08 115.560   1
   3  -3   3 1307.66 148.310   1
  -3   3  -3 1167.39 117.840   1
   1  -1  -6 11054.0 331.140   1
  -1   1   6 11919.0 323.650   1
   1   6   1 9304.50 270.720   1
  -1  -6  -1 9728.26 334.270   1
  -1  -6  -1 10006.9 430.820   1
   0  -2   6 1338.91 110.250   1
   0  -2   6 1091.60 106.200   1
   0  -2   6 1557.18 138.170   1
   0   2  -6 1184.95 114.450   1
   2  -5   0 15494.7 565.100   1
   2  -5   0 16812.1 440.750   1
  -2   5   0 17014.1 506.030   1
  -1  -4   4 13880.5 419.420   1
   1   4  -4 15335.9 370.560   1
  -2   0   5 463.880 63.6400   1
   2   0  -5 329.550 63.3100   1
   2   0  -5 355.140 67.6000   1
   2   3   6 6125.03 238.380   1
   2   3   6 5725.18 222.450   1
   1  -5   3 3823.13 196.780   1
   1  -5   3 4306.84 266.210   1
  -1   5  -3 4197.23 209.030   1
   0  -6  -2 727.830 86.8700   1
   0   6   2 811.850 102.880   1
   0  -6  -2 896.340 167.050   1
   0  -6  -2 926.740 99.8300   1
   0   6   2 871.460 111.330   1
   1   6   2 6823.57 267.250   1
  -1  -6  -2 7265.75 372.810   1
  -1  -6  -2 6438.77 244.170   1
  -1  -6  -2 6637.29 279.300   1
   1   6   2 7194.16 251.030   1
   4   1   2 3126.21 195.280   1
   4   1   2 2974.54 178.470   1
   4   1   2 2789.45 164.330   1
   4   1   2 2782.87 185.990   1
   4   1   2 2775.43 180.730   1
   2  -5   1 3613.93 205.230   1
   2  -5   1 3987.49 246.470   1
  -2   5  -1 4049.09 220.200   1
   4   0   1 4728.75 225.000   1
   4   0   1 4162.84 197.050   1
  -2   1   5 49.2900 50.7100   1
   2  -1  -5 5.68000 57.4200   1
   4   1   1 250.850 78.7100   1
   4   1   1 170.910 63.8600   1
   4   0   2 10124.1 312.460   1
   4   0   2 10406.9 447.920   1
   4   0   2 10120.4 407.850   1
   4   0   2 9109.36 294.830   1
   4   0   2 10650.9 333.420   1
  -1  -6   0 21471.6 703.220   1
  -1  -6   0 18805.2 603.120   1
   1   6   0 20134.0 534.550   1
   1   6   0 20715.2 460.560   1
  -3  -3   2 18348.8 545.530   1
  -3  -3   2 18329.4 449.610   1
   3   3  -2 17563.9 449.880   1
   3   3  -2 17848.3 416.310   1
   3   3  -2 20274.5 428.310   1
   2   5   4 11925.3 314.350   1
   2   5   4 10784.5 333.290   1
   2   5   4 10732.4 331.880   1
   2  -3   5 23307.3 566.650   1
  -2   3  -5 23545.1 516.940   1
  -2  -4   3 4226.16 226.360   1
   2   4  -3 5363.08 206.560   1
  -2  -4   3 5796.65 291.420   1
   2   4  -3 5347.72 203.710   1
  -2   5   1 1453.66 132.740   1
   2  -5  -1 1296.60 199.450   1
   2  -5  -1 1291.13 109.500   1
  -2   5   1 1356.65 132.390   1
   2  -5  -1 1301.71 115.850   1
   1   3  -5 23783.9 487.860   1
  -1  -3   5 22826.1 529.710   1
   0  -6   1 2190.87 226.100   1
   0  -6   1 1844.57 161.720   1
   0   6  -1 2034.53 160.720   1
   3   3   5 71.8000 66.9900   1
   2   3  -4 2036.42 138.390   1
   2   3  -4 1974.45 143.550   1
  -2  -3   4 1908.44 163.200   1
   1   1  -6 2157.66 141.090   1
  -1  -1   6 2524.97 166.030   1
   1  -2  -6 6485.55 265.950   1
  -1   2   6 6041.59 217.170   1
   2   1  -5 4549.04 186.780   1
  -2  -1   5 5660.69 237.030   1
   2   1  -5 5920.72 217.580   1
   3  -3  -2 2228.35 177.030   1
  -3   3   2 2266.80 197.210   1
  -3   3   2 1981.20 144.660   1
   3  -3  -2 2122.33 151.300   1
   3   4   4 19502.0 487.590   1
   3   4   4 19626.2 462.900   1
   4   1   3 759.200 86.7500   1
   4   1   3 1014.24 96.9400   1
   4   1   3 947.480 102.140   1
  -1  -1  -7 48919.8 1223.57   1
   1   1   7 45810.6 1134.94   1
  -1  -5   3 7560.10 347.500   1
  -1  -5   3 7030.58 271.620   1
   1   5  -3 7207.58 267.590   1
   4   0   0 4083.74 191.270   1
   4   0   0 3969.00 189.610   1
  -4   0   0 4014.45 230.810   1
   2  -4   4 1292.56 135.250   1
  -2   4  -4 1178.72 112.960   1
   2  -4   4 1153.93 113.860   1
   3  -2  -3 8.33000 66.5500   1
   3  -2  -3 -38.850 53.7500   1
   3   2  -3 4406.32 198.720   1
  -3  -2   3 4608.95 214.130   1
   3   2  -3 4377.99 165.540   1
  -3  -2   3 4588.91 263.940   1
   3   2  -3 4350.65 179.480   1
   4   2   2 16154.0 421.830   1
   4   2   2 17223.9 460.840   1
   4   2   2 17725.4 493.180   1
   4   2   2 18212.0 453.350   1
   4   2   2 14606.9 560.150   1
  -3  -4   1 10391.0 337.330   1
  -3  -4   1 10285.4 464.530   1
   3   4  -1 9044.50 304.620   1
   3   4  -1 9749.96 256.350   1
   3   4  -1 9891.21 265.220   1
   4   0   3 2826.98 187.600   1
   4   0   3 2937.48 180.480   1
   4   0   3 2918.30 203.890   1
   4   0   3 3398.03 186.260   1
   4   1   0 4348.40 205.850   1
   4   1   0 4361.53 233.970   1
  -4  -1   0 4394.45 230.010   1
   4   1   0 4532.80 196.050   1
   4  -1   1 5301.74 226.020   1
   4  -1   1 5293.71 241.020   1
  -1   0  -7 1620.47 132.580   1
   1   0   7 1674.36 126.430   1
   1   0   7 1286.68 120.100   1
   4   2   1 945.690 106.650   1
   4   2   1 901.410 94.2200   1
   4   2   1 1139.61 122.620   1
   1  -4  -5 1383.36 117.950   1
  -1   4   5 1123.84 106.980   1
   1  -4  -5 1208.88 109.740   1
  -1   4   5 1274.43 119.670   1
   4  -1   2 14543.0 351.030   1
   4  -1   2 16839.8 455.340   1
   4  -1   2 14383.3 526.440   1
   2  -5   2 323.640 102.940   1
  -2   5  -2 133.460 63.4600   1
  -1  -6  -3 8692.91 280.430   1
   1   6   3 8929.94 307.230   1
   1   6   3 9092.46 296.390   1
  -1  -6  -3 8734.74 300.130   1
  -1   6   0 -37.210 77.6800   1
   1  -6   0 16.9400 69.0600   1
   1  -6   0 49.5000 124.340   1
   1   4   6 933.410 107.280   1
  -1  -5  -5 2442.00 168.100   1
   1   5   5 2315.61 173.250   1
   1   5   5 2304.92 166.450   1
   1   5   5 2207.12 177.550   1
  -1  -5  -5 2300.33 167.460   1
  -2   2  -6 2705.38 164.180   1
   2  -2   6 3058.13 215.930   1
   2  -2   6 2854.20 184.140   1
   2  -2  -5 4530.90 238.070   1
  -2   2   5 4094.90 177.210   1
   2  -2  -5 4760.23 210.980   1
  -1   6   1 12136.6 408.050   1
   1  -6  -1 13909.9 513.730   1
  -1   6   1 12602.0 372.140   1
   1  -6  -1 13064.1 397.050   1
   3  -4   1 7531.48 264.930   1
   3  -4   1 7433.91 396.030   1
  -3   4  -1 8383.57 306.680   1
  -1  -6   1 19879.2 559.210   1
   1   6  -1 21349.9 537.700   1
   1   6  -1 23190.3 481.690   1
  -1  -6   1 25098.6 760.870   1
   0  -6  -3 590.520 78.9700   1
   0   6   3 584.020 100.950   1
   0  -6  -3 726.630 91.6500   1
   0   6   3 602.330 98.0200   1
   3  -4   0 11741.9 352.230   1
  -3   4   0 12007.3 413.360   1
   3  -4   0 10623.4 435.430   1
  -3   4   0 11494.3 373.080   1
   3  -4   0 10634.8 308.630   1
   1   2   7 5601.66 230.260   1
   3   1   6 4676.48 196.930   1
   3   1   6 4101.14 215.560   1
   4   2   3 13788.2 382.870   1
   4   2   3 14117.1 387.100   1
   4   2   3 11594.8 544.930   1
   4   2   3 12409.0 336.290   1
  -1   5   4 15421.7 397.120   1
  -1   5   4 13119.8 420.930   1
   1  -5  -4 15494.0 405.440   1
   1  -5  -4 15022.1 376.270   1
   2  -5  -2 446.210 75.3700   1
   2  -5  -2 742.110 100.600   1
  -2   5   2 450.190 80.0900   1
   2  -5  -2 505.680 155.010   1
  -2  -5   2 3927.59 251.430   1
   2   5  -2 3481.03 188.160   1
   2   5  -2 3643.76 183.270   1
   4  -1   0 658.070 90.2900   1
  -4   1   0 544.200 89.3500   1
   4  -1   0 792.190 100.400   1
   3  -2   5 13204.5 375.250   1
  -3   2  -5 14148.7 417.680   1
   3  -2   5 13222.5 396.510   1
  -3   2  -5 13389.5 389.300   1
   0   1   7 497.120 73.9300   1
   0  -1  -7 444.450 70.9600   1
   0  -4   5 6955.50 317.760   1
   0   4  -5 6688.27 238.590   1
  -3   3  -4 105.400 68.4600   1
   3  -3   4 106.960 76.6600   1
  -3   3  -4 83.3700 53.1800   1
   3  -3   4 0.11000 81.1100   1
   1  -4   5 4234.37 239.200   1
  -1   4  -5 4440.31 203.580   1
   1  -6   1 17744.3 450.350   1
   1  -6   1 18264.3 703.740   1
  -1   6  -1 16992.2 471.840   1
   3   0   6 3274.16 200.390   1
   3   0   6 3771.05 179.150   1
   0   0   7 10183.7 340.610   1
   0   0  -7 10216.6 310.940   1
   0   0   7 11709.7 332.860   1
   0   5   5 86.7800 84.1200   1
   0  -5  -5 131.890 66.4300   1
  -4  -2   0 5723.73 247.790   1
   4   2   0 6847.43 256.060   1
   3  -4   2 2530.01 209.620   1
  -3   4  -2 2667.88 178.180   1
  -3   4  -2 2353.92 170.510   1
   3  -4   2 2619.08 170.890   1
   4  -1   3 5029.06 232.690   1
   4  -1   3 4622.62 197.200   1
  -4   1  -3 4509.27 233.860   1
   4  -1   3 4697.31 262.050   1
   2   1   7 3550.89 184.060   1
   2   1   7 2869.52 194.200   1
   3   2   6 73.2200 58.9900   1
   0   4   6 2111.50 149.060   1
   0   4   6 1467.29 114.260   1
   0  -4  -6 2104.74 164.940   1
   0   6  -2 15636.1 413.070   1
   0  -6   2 12957.3 388.740   1
   0  -6   2 16078.5 561.620   1
   3   5   2 2275.55 166.180   1
   3   5   2 2308.10 153.740   1
   3   5   2 2247.88 140.670   1
   1  -1   7 423.310 71.9700   1
   1  -1   7 442.290 88.4800   1
  -1   6   2 566.930 102.250   1
   1  -6  -2 440.900 86.4700   1
   1  -6  -2 529.110 120.980   1
  -1   6   2 492.900 93.0300   1
   2   6   1 458.800 108.690   1
  -2  -6  -1 461.790 94.0300   1
   2   6   1 478.870 73.7400   1
  -4  -1  -4 22.8800 78.0700   1
  -2  -2   5 1393.14 128.140   1
   2   2  -5 1494.72 120.940   1
   2   2  -5 1927.15 128.680   1
  -1   3  -6 14822.1 395.670   1
   1  -3   6 16243.9 448.120   1
   3   5   1 364.850 65.9000   1
   3   5   1 382.780 72.3800   1
   3   5   1 331.310 101.300   1
  -3  -5  -1 410.270 120.350   1
   2   6   2 25833.8 580.650   1
  -2  -6  -2 26326.0 853.430   1
   2   6   2 26600.3 696.980   1
   2   6   2 26378.5 706.920   1
  -2  -6  -2 25946.6 586.780   1
   3  -4  -1 457.390 164.040   1
  -3   4   1 488.950 74.6800   1
   3  -4  -1 661.900 106.370   1
   3  -4  -1 656.190 92.6200   1
  -3   4   1 659.480 140.640   1
   4   0  -1 6098.77 252.370   1
   4   0  -1 7166.20 268.870   1
  -4   0   1 6329.61 300.760   1
   4   0  -1 7639.73 300.100   1
   1   2  -6 6258.04 236.940   1
  -1  -2   6 6443.74 248.920   1
  -1  -2   6 6360.68 243.410   1
   2   0   7 20061.1 456.570   1
   0  -5   4 6382.44 329.810   1
   0  -5   4 6238.43 249.510   1
   0   5  -4 6062.97 228.700   1
  -1   3   6 133.890 72.1800   1
   1  -3  -6 254.610 83.1800   1
   0   2   7 919.550 103.880   1
   0  -2  -7 855.420 101.410   1
   2   4   6 543.200 87.4100   1
   2   4   6 683.680 101.430   1
   4   0   4 2365.96 162.750   1
   4   0   4 2819.49 183.360   1
  -4   0  -4 2428.68 187.740   1
  -2   4   4 7587.66 346.500   1
   2  -4  -4 7631.41 312.530   1
  -2   4   4 8211.64 276.640   1
   2  -4  -4 8915.54 296.570   1
   2  -4  -4 8043.41 296.010   1
   4   1  -1 2844.21 182.270   1
   4   1  -1 3132.66 186.150   1
   4   1  -1 2659.94 187.140   1
  -4  -1   1 2490.53 179.990   1
  -4  -1   1 2818.72 196.010   1
  -3   0   4 47.4000 58.2700   1
   3   0  -4 113.290 70.5600   1
   3   0  -4 60.1900 58.7900   1
   3   0  -4 116.900 77.6200   1
   0  -3   6 1527.23 151.130   1
   0   3  -6 1702.24 132.950   1
   2   2   7 755.500 95.2700   1
   4   3   2 12882.7 377.300   1
   4   3   2 12065.0 368.110   1
   4   3   2 13935.8 371.240   1
   4   3   2 12185.8 506.140   1
   4   3   2 13495.0 385.290   1
   2   5   5 159.190 75.8600   1
   2   5   5 198.830 63.6800   1
   2   5   5 183.000 68.8300   1
   4  -2   1 7040.31 286.560   1
   4  -2   1 7340.01 409.600   1
   4  -2   1 7431.21 265.870   1
   3   5   3 109.710 72.1400   1
   3   5   3 94.8200 85.3600   1
   3   5   3 96.3400 62.6000   1
   1  -5   4 1898.07 144.920   1
  -1   5  -4 1963.96 151.370   1
   1  -5   4 1669.02 156.090   1
   4   3   1 6696.62 329.270   1
   4   3   1 7694.29 315.710   1
   4   3   1 8460.48 322.010   1
   4   3   1 7833.36 340.020   1
   4   2   4 7494.49 303.070   1
   4   2   4 7007.48 287.050   1
  -2   5  -3 45.0200 61.4200   1
   2  -5   3 87.5000 94.3800   1
  -3   1   4 35.6400 53.6200   1
   3  -1  -4 54.5000 61.6800   1
   3  -1  -4 31.9800 72.5900   1
   3  -1  -4 -8.8700 50.7900   1
   2   6   0 5355.61 234.920   1
  -2  -6   0 5068.52 290.360   1
   2   6   0 4901.27 260.980   1
   2   6   0 5697.29 228.010   1
  -2  -6   0 5798.31 375.880   1
   0  -1   7 1116.81 112.280   1
   0  -1   7 1178.93 113.500   1
   0   1  -7 982.520 99.2800   1
   3   4   5 800.660 94.3900   1
   3   4   5 794.940 100.270   1
   3   4   5 822.770 95.9200   1
   4  -2   2 227.370 65.1400   1
   1   3   7 2059.56 158.570   1
   1   6   4 4267.33 281.200   1
   1   6   4 4289.51 216.480   1
  -1  -6  -4 3536.98 199.890   1
   1   6   4 3502.67 213.240   1
   1   6   4 3511.18 204.540   1
  -1  -6  -4 3431.41 191.480   1
   1   6   4 3381.17 193.560   1
   4  -1  -1 4767.57 233.020   1
   4  -1  -1 5324.51 250.640   1
  -4   1   1 3847.70 233.890   1
   3  -1   6 3571.98 189.850   1
   3  -1   6 3889.78 203.850   1
  -3   1  -6 3732.75 210.450   1
   3   1  -4 82.4200 60.9400   1
   3   1  -4 85.7900 61.6300   1
   3   1  -4 101.700 49.0900   1
   2   6   3 1791.36 127.880   1
  -2  -6  -3 1736.66 131.580   1
  -2  -6  -3 1798.13 144.770   1
   2   6   3 1901.81 125.340   1
   2   6   3 1627.25 128.720   1
  -3   3   3 69.7800 102.350   1
   3  -3  -3 47.2100 81.2200   1
   3  -3  -3 4.59000 57.7700   1
   3   3  -3 14821.4 431.680   1
  -3  -3   3 13162.8 440.160   1
   3   3  -3 15735.1 483.930   1
  -3  -3   3 13865.0 560.510   1
   3   5   0 8016.30 285.530   1
   3   5   0 7693.68 279.240   1
  -3  -5   0 8168.12 414.280   1
   3   5   0 6853.72 309.770   1
   4   3   3 6609.43 285.280   1
   4   3   3 5410.17 340.060   1
   4   3   3 6660.68 275.690   1
   1  -6   2 4964.95 325.190   1
  -1   6  -2 4840.37 258.390   1
   2  -3  -5 680.680 95.3100   1
  -2   3   5 736.140 83.2000   1
   2  -3  -5 614.090 96.4900   1
   2  -3  -5 665.390 102.620   1
   3   4  -2 797.450 104.250   1
   3   4  -2 899.640 91.0900   1
  -3  -4   2 840.490 97.2100   1
   3   4  -2 906.660 82.2300   1
  -1  -6   2 2518.10 207.870   1
  -1  -6   2 1738.86 157.900   1
   1   6  -2 1960.04 140.290   1
   4  -2   0 988.240 96.4500   1
   4  -2   0 985.270 114.300   1
  -4   2   0 897.750 97.6900   1
  -3   4  -3 554.190 88.2800   1
  -3   4  -3 534.420 89.0400   1
   3  -4   3 448.300 85.0000   1
   0  -6  -4 654.440 79.7400   1
   0  -6  -4 590.920 75.7800   1
   0   6   4 606.230 102.770   1
   0   6   4 811.680 108.040   1
   3   3   6 11.1100 62.9300   1
   2  -5  -3 69.5900 56.1300   1
   4   2  -1 622.490 77.8300   1
   4   2  -1 613.770 94.0600   1
   4   2  -1 763.490 89.5000   1
  -4  -2   1 589.410 91.2100   1
   4  -1   4 1650.52 130.200   1
   4  -1   4 1517.22 124.010   1
   4  -1   4 1494.44 129.800   1
  -4   1  -4 1354.21 128.710   1
   2  -1   7 2542.96 163.600   1
  -2   1  -7 3037.17 184.180   1
   2  -1   7 3372.40 179.700   1
  -1   6   3 -61.640 78.6000   1
  -1   6   3 90.5600 71.8000   1
   1  -6  -3 57.0900 77.5600   1
   4   3   0 36053.4 895.830   1
  -4  -3   0 34821.0 939.500   1
   4   3   0 33166.2 916.010   1
   4   3   0 37951.9 961.080   1
   1   4  -5 50.8800 57.7700   1
  -1  -4   5 37.6400 58.6000   1
  -2  -4   4 3806.01 244.850   1
   2   4  -4 3714.32 182.980   1
   2   4  -4 4226.60 194.060   1
  -3   4   2 25551.1 695.200   1
  -3   4   2 26870.7 834.720   1
   3  -4  -2 27061.4 759.730   1
   3  -4  -2 25811.2 763.120   1
  -4   2  -3 445.820 81.8800   1
   4  -2   3 440.510 102.070   1
   4  -2   3 646.310 86.5600   1
   4  -2   3 636.640 91.9000   1
  -2   4  -5 480.810 89.7700   1
   2  -4   5 400.170 113.120   1
   2  -4   5 390.170 74.9800   1
   2   3   7 5693.39 247.530   1
   0   3   7 24.9700 80.7700   1
  -2   3  -6 955.620 93.7200   1
   2  -3   6 967.570 122.650   1
  -1  -5   4 20009.8 608.060   1
  -1  -5   4 21069.0 716.000   1
   1   5  -4 21705.9 625.760   1
  -3   2   4 2424.97 145.990   1
   3  -2  -4 2432.53 154.850   1
   3  -2  -4 2601.32 154.570   1
  -3   2   4 2527.92 221.950   1
   3  -2  -4 1884.70 151.260   1
   3   5   4 76.3800 70.4800   1
   3   5   4 34.3900 75.7700   1
  -1   2  -7 1448.87 121.670   1
   1  -2   7 1636.91 140.450   1
   1  -2   7 1844.29 150.160   1
   2   6  -1 350.530 55.9300   1
  -2  -6   1 348.710 90.2700   1
   2   6  -1 440.370 70.0800   1
  -2  -6   1 404.400 147.180   1
  -4  -1  -5 234.000 76.5800   1
   4   1   5 125.420 66.1900   1
   4   3   4 2050.95 276.350   1
   4   3   4 2476.10 163.420   1
   2   5  -3 665.470 79.0000   1
  -2  -5   3 547.960 117.250   1
   2   5  -3 612.150 73.0200   1
   3   2  -4 148.340 62.0400   1
  -3  -2   4 190.110 74.4000   1
   3   2  -4 108.880 65.5000   1
   0  -6   3 4187.82 303.220   1
   0  -6   3 2752.05 177.330   1
   0   6  -3 3788.54 221.790   1
   4   0  -2 3688.48 207.290   1
   4   0  -2 4214.70 202.500   1
   4   0  -2 3490.62 211.570   1
  -3   3  -5 278.080 68.5700   1
   3  -3   5 120.050 79.2700   1
   3  -3   5 78.5600 66.8800   1
   4  -2  -1 3204.95 177.480   1
   4  -2  -1 3730.92 220.550   1
  -4   2   1 3398.17 223.110   1
   1   5   6 568.980 75.0200   1
   1   5   6 851.600 103.870   1
  -2   0   6 1121.05 104.600   1
   2   0  -6 812.850 91.4200   1
   2   0  -6 963.210 97.4800   1
  -2  -6  -4 4536.63 245.740   1
   2   6   4 5174.62 233.160   1
   2   6   4 4813.21 221.980   1
   2   6   4 4771.82 268.370   1
  -2  -6  -4 4942.93 244.450   1
   2  -1  -6 1392.81 123.340   1
  -2   1   6 1422.65 121.300   1
   2  -1  -6 1413.01 114.650   1
   4   0   5 5394.53 258.730   1
  -4   0  -5 4480.07 234.450   1
   4   0   5 4524.86 210.990   1
   2   3  -5 2416.57 153.890   1
   2   3  -5 1909.94 124.860   1
  -2  -3   5 2230.18 165.900   1
   3   5  -1 97.0600 51.9700   1
   3   5  -1 79.7300 51.4600   1
  -3  -5   1 57.8600 123.180   1
   1  -5  -5 20806.7 610.900   1
  -1   5   5 22025.5 633.210   1
  -1   5   5 18622.8 736.170   1
   1  -5  -5 18595.5 570.550   1
   1  -1  -7 12480.6 439.280   1
  -1   1   7 13495.1 405.600   1
   4   1  -2 74.2400 57.1500   1
   0  -2   7 633.170 90.9700   1
   0   2  -7 565.860 85.4800   1
   0  -2   7 833.080 112.670   1
   1   0  -7 5039.00 224.760   1
  -1   0   7 5937.12 257.440   1
   2  -6   0 854.040 154.500   1
  -2   6   0 935.550 130.100   1
   2  -6   0 824.210 116.400   1
   2  -6   0 1192.54 113.580   1
   4   2   5 410.670 71.4700   1
  -1  -3   6 14360.1 488.610   1
   1   3  -6 13743.0 427.760   1
   4  -1  -2 576.680 81.7900   1
   4  -1  -2 472.710 80.5500   1
   1  -4  -6 1000.00 101.670   1
   1  -4  -6 1198.56 121.280   1
  -1   4   6 1227.66 108.280   1
  -1   4   6 1017.22 97.0400   1
   3  -2   6 1224.49 114.430   1
   3  -2   6 1406.42 124.990   1
  -3   2  -6 1608.47 136.510   1
   0  -7  -1 6585.69 278.540   1
   0   7   1 6651.18 296.350   1
   0  -7  -1 5697.17 322.130   1
   4   4   2 5552.34 251.230   1
   4   4   2 5157.66 289.620   1
   4   4   2 6198.01 277.620   1
   4   4   2 6089.62 259.900   1
  -1   6  -3 17017.4 535.810   1
   2  -6   1 716.710 105.790   1
   2  -6   1 881.270 138.080   1
  -2   6  -1 819.220 123.090   1
  -2   6   1 1329.38 145.300   1
   2  -6  -1 1265.91 131.380   1
   2  -6  -1 1338.14 134.270   1
  -2   6   1 1400.20 122.730   1
   2  -6  -1 1368.44 169.490   1
  -1  -7  -1 287.980 119.890   1
   2  -5   4 1104.57 147.970   1
   2  -5   4 1032.77 116.180   1
  -2   5  -4 916.750 87.9100   1
   0  -7   0 10367.2 400.750   1
   0  -7   0 8770.26 434.910   1
   0   7   0 9519.92 377.340   1
   2   1  -6 12951.8 414.180   1
   2   1  -6 10975.8 355.550   1
  -2  -1   6 11618.7 404.200   1
   4  -3   1 903.190 157.660   1
  -4   3  -1 858.130 99.2800   1
   4  -3   1 1022.07 113.830   1
   4  -3   1 1075.54 111.030   1
   1   4   7 3611.63 193.440   1
   1   4   7 4574.00 218.810   1
   3   1   7 1096.39 113.330   1
   3   1   7 1242.90 98.3100   1
   3  -4   4 984.320 110.650   1
   3  -4   4 999.480 107.240   1
  -3   4  -4 943.820 105.610   1
  -3   4  -4 950.880 93.1200   1
   4   4   1 20148.9 644.610   1
   4   4   1 24626.5 735.110   1
   4   4   1 24772.1 673.100   1
   4   4   1 22557.5 650.350   1
  -4  -3   1 26331.1 734.400   1
  -4  -3   1 30560.8 1032.00   1
   4   3  -1 30196.3 785.030   1
   4   3  -1 29499.6 764.650   1
  -1  -6  -5 219.710 70.3800   1
   1   6   5 173.230 87.7900   1
   0   5   6 -14.060 94.0800   1
   0  -5  -6 154.930 73.7800   1
   4  -2   4 13791.1 521.780   1
   4  -2   4 15421.3 504.280   1
  -4   2  -4 12105.0 430.560   1
  -1   2   7 382.540 72.9000   1
   1  -2  -7 332.090 70.7300   1
  -1  -7  -2 48445.2 863.580   1
   1   7   2 45394.8 1139.20   1
  -1  -7  -2 46312.9 1183.75   1
   1   7   2 47066.5 649.380   1
   4   4   3 1165.17 112.930   1
   4   4   3 1202.06 118.930   1
   4   4   3 1182.09 152.390   1
   4   4   3 1505.20 127.360   1
   3  -5   1 205.710 69.9900   1
   3  -5   1 255.830 131.990   1
  -3   5  -1 145.560 92.8100   1
   0  -7  -2 6209.79 272.870   1
   0   7   2 5446.27 263.670   1
   0   7   2 5747.39 290.790   1
   0  -7  -2 6520.17 431.520   1
   3  -5   0 -12.280 79.8000   1
   4  -3   2 1377.03 156.580   1
  -4   3  -2 1436.43 129.470   1
   4  -3   2 1257.96 111.980   1
  -4   3  -2 1396.09 122.400   1
   2  -2   7 4058.45 191.220   1
  -2   2  -7 4447.89 224.130   1
   2  -2   7 5084.29 265.160   1
  -2   2   6 120.870 62.5400   1
   2  -2  -6 59.9600 58.5600   1
   2   5   6 831.230 109.960   1
   2   5   6 738.050 93.3800   1
   2   5   6 686.350 95.7200   1
  -1  -1   7 781.530 103.400   1
   1   1  -7 621.130 86.9100   1
   3   0   7 3442.12 209.250   1
   3   0   7 4053.28 201.780   1
   4  -3   0 646.460 122.790   1
  -4   3   0 858.230 108.740   1
   4  -3   0 786.290 96.9500   1
   4  -3   0 967.930 115.890   1
  -1  -7   0 9525.71 483.170   1
  -1  -7   0 9300.71 354.950   1
   1   7   0 8595.56 317.310   1
   3   4   6 12732.5 446.110   1
   3   4   6 11631.7 449.000   1
   3   4   6 11798.3 388.880   1
  -1  -6   3 12900.2 557.130   1
   1   6  -3 12232.9 415.350   1
   3   2   7 164.980 74.0500   1
   4  -1   5 13767.7 470.940   1
  -4   1  -5 13191.8 480.110   1
   4  -1   5 15640.0 498.150   1
   4   2  -2 20877.6 601.050   1
  -4  -2   2 26344.1 959.070   1
   4   2  -2 23275.8 617.830   1
  -4  -2   2 22220.1 678.890   1
  -4  -2   2 19738.9 664.050   1
   1  -4   6 526.870 123.830   1
  -1   4  -6 481.370 94.8800   1
   2  -4  -5 44739.2 1134.74   1
   2  -4  -5 38345.7 1027.40   1
   2  -4  -5 42586.3 1089.70   1
  -2   4   5 43103.8 1064.51   1
   1   1   8 8229.86 311.850   1
   1   1   8 7535.28 340.410   1
  -1  -1  -8 8269.45 342.420   1
   0  -5   5 1898.99 151.620   1
   0  -5   5 1953.77 172.230   1
   0   5  -5 2085.45 134.390   1
   0   4  -6 10632.2 374.690   1
   0  -4   6 9945.66 389.680   1
   1  -6  -4 16504.2 501.370   1
  -1   6   4 17474.3 520.140   1
   1  -6  -4 19353.8 571.160   1
  -3   4   3 5545.24 258.070   1
   3  -4  -3 6602.05 278.370   1
   3  -4  -3 6682.73 289.410   1
  -3  -4   3 10449.3 449.740   1
   3   4  -3 10632.1 355.410   1
   3   4  -3 10608.5 344.580   1
   3   5   5 183.510 90.3600   1
   3   5   5 182.450 60.7800   1
  -3   3   4 2523.93 206.460   1
   3  -3  -4 2609.55 160.540   1
   3  -3  -4 2752.06 161.790   1
   3  -3  -4 1936.86 146.230   1
  -3   3   4 2360.92 150.190   1
   2  -5  -4 640.100 110.610   1
  -2   5   4 655.470 94.5500   1
   2  -5  -4 507.520 75.4700   1
  -2   5   4 509.220 97.2900   1
   1  -5   5 3311.45 233.000   1
   1  -5   5 3269.74 178.360   1
  -1   5  -5 3335.01 194.120   1
   0  -7   1 9548.07 350.260   1
   0   7  -1 11808.5 325.460   1
   0  -7   1 11283.3 408.330   1
   0   6   5 82.3600 91.3900   1
   0  -6  -5 48.6000 64.8900   1
   2  -6   2 1193.40 145.790   1
   2  -6   2 1541.65 123.560   1
  -2   6  -2 1439.21 125.160   1
   1   0   8 224.690 69.7600   1
   1   0   8 154.570 57.1600   1
   3  -5   2 834.420 91.5700   1
  -3   5  -2 847.920 99.1800   1
  -3   5  -2 858.610 97.0700   1
   3  -5   2 880.740 144.740   1
   2   4   7 3804.79 188.530   1
   4   3   5 1275.31 117.040   1
   3  -5  -1 4076.35 297.300   1
   3  -5  -1 4090.73 182.820   1
   3  -5  -1 4604.18 232.140   1
  -3   5   1 4635.21 239.240   1
   2  -6  -2 838.890 105.410   1
   2  -6  -2 844.800 122.800   1
   2  -6  -2 1137.40 118.450   1
  -2   6   2 932.290 115.790   1
  -2   6   2 865.990 102.610   1
  -2  -6   2 4283.86 315.610   1
   2   6  -2 4347.48 207.400   1
   2   6  -2 3987.31 174.010   1
   0   4   7 10107.8 294.150   1
   4   4   0 7715.95 251.840   1
  -4  -4   0 6942.98 273.340   1
   4   4   0 7348.62 213.350   1
   4   4   0 6946.45 262.990   1
  -4  -4   0 7756.96 389.810   1
   1   2   8 321.590 83.8600   1
   1   7   3 2637.60 156.790   1
  -1  -7  -3 2471.30 165.560   1
   1   7   3 2448.89 149.710   1
   3   6   2 1584.53 141.830   1
   3   6   2 1637.28 114.260   1
   3   6   2 1693.87 110.790   1
  -4   2   2 1013.86 127.470   1
   4  -2  -2 898.030 102.490   1
   4  -2  -2 885.760 121.290   1
   4  -2  -2 949.170 92.2300   1
  -3   0   5 6087.86 243.650   1
   3   0  -5 5194.20 180.740   1
   3   0  -5 6090.92 232.430   1
   4  -3   3 19920.6 614.440   1
  -4   3  -3 20222.0 448.980   1
   4  -3   3 20796.0 415.070   1
   3   3  -4 7960.73 233.660   1
   3   3  -4 6760.79 208.570   1
  -3  -3   4 6690.80 335.390   1
   3   6   1 473.710 71.9700   1
  -3  -6  -1 372.810 79.1700   1
   3   6   1 450.490 73.5200   1
  -3  -6  -1 456.140 120.220   1
   3   6   1 380.170 74.8700   1
   4   4   4 4382.35 218.620   1
   4   4   4 4217.07 193.760   1
   4   4   4 3902.18 268.030   1
   4   4   4 4359.18 219.100   1
   2   6   5 54.3200 67.6000   1
   2   6   5 66.3400 78.0400   1
   0   7   3 11083.6 363.950   1
   0  -7  -3 11424.7 333.500   1
   0   7   3 11405.2 342.370   1
  -3   1   5 147.230 57.5300   1
   3  -1  -5 69.4800 60.4500   1
   2   1   8 283.330 76.1400   1
  -1   7   0 50.4900 82.5600   1
   1  -7   0 22.8300 146.960   1
   1  -7   0 49.0700 57.2900   1
  -2  -2   6 437.280 90.3600   1
   2   2  -6 224.660 66.1200   1
   2   2  -6 360.890 78.4400   1
  -4   3   1 488.010 103.220   1
   4  -3  -1 452.140 85.3200   1
   4  -3  -1 583.470 116.700   1
  -1   3  -7 2748.38 172.880   1
   1  -3   7 2560.54 168.740   1
  -1   7   1 4263.38 193.510   1
   1  -7  -1 4233.55 254.090   1
   1  -7  -1 4028.13 178.190   1
  -1   7   1 4199.10 251.960   1
  -1  -7   1 27633.8 744.210   1
   1   7  -1 26937.4 472.090   1
   3   5  -2 9961.34 277.650   1
   3   5  -2 9707.84 258.220   1
  -3  -5   2 9857.36 438.840   1
   3   6   3 1497.56 138.620   1
   3   6   3 1704.80 118.930   1
   3   6   3 1865.75 137.430   1
   3  -1   7 555.770 93.4700   1
   3  -1   7 437.560 70.9200   1
  -3   1  -7 409.190 94.6700   1
   0  -1  -8 2535.77 156.810   1
   0   1   8 2619.76 137.550   1
   3   3   7 9933.90 363.230   1
   3   3   7 7889.96 289.380   1
   3   3   7 9793.14 269.750   1
   3   3   7 8926.59 327.780   1
   1  -3  -7 4467.50 255.500   1
  -1   3   7 5011.70 198.520   1
   1  -3  -7 4562.88 227.370   1
  -3  -1   5 1460.81 117.790   1
   3   1  -5 1638.05 112.480   1
   3   1  -5 1616.10 115.500   1
   4   1   6 227.070 59.7100   1
   2   0   8 18490.6 379.350   1
  -4   0   3 2140.25 166.100   1
   4   0  -3 1931.61 140.620   1
   4   0  -3 2067.53 151.920   1
   4   0  -3 2132.42 142.350   1
   0   0   8 376.680 79.7400   1
   0   0  -8 248.690 59.8600   1
   2   2   8 9539.39 273.510   1
   2  -3  -6 9011.88 306.920   1
  -2   3   6 8662.83 254.580   1
   2  -3  -6 8590.11 271.750   1
   1  -1   8 166.090 72.0800   1
  -1   1  -8 147.600 67.0200   1
   1  -1   8 252.250 67.2500   1
   0  -6   4 2033.55 156.600   1
   0  -6   4 1927.15 175.840   1
   0   6  -4 1746.86 120.350   1
  -1  -2   7 436.050 76.4600   1
   1   2  -7 369.820 76.1600   1
  -1  -2   7 531.680 93.2700   1
   0   3  -7 682.470 87.1500   1
   0  -3   7 835.080 118.730   1
  -2  -7  -2 303.810 76.8300   1
   2   7   2 236.240 57.9300   1
  -2  -7  -2 270.990 106.750   1
   2   7   2 175.540 98.0300   1
   2   7   2 332.360 71.6300   1
   2   7   1 12575.3 326.950   1
   2   7   1 11886.8 339.740   1
  -2  -7  -1 11995.9 329.130   1
  -2  -7  -1 13639.8 514.980   1
   4   0   6 1259.31 99.7200   1
   1  -7   1 9407.18 306.350   1
   1  -7   1 8044.02 336.010   1
   1  -7   1 7155.17 283.170   1
  -1   7  -1 8502.60 311.670   1
  -3  -6   0 24858.2 742.060   1
   3   6   0 25484.3 431.890   1
   3   6   0 25595.0 404.190   1
   4   2   6 6725.03 232.660   1
   4   1  -3 6342.17 256.250   1
   4   1  -3 4866.33 211.410   1
  -4  -1   3 5634.10 286.920   1
   4   1  -3 5892.54 217.640   1
   3  -5   3 2340.56 210.130   1
  -3   5  -3 2214.29 149.020   1
  -3   5  -3 2403.06 150.490   1
   0   2   8 186.630 75.2600   1
  -1   7   2 178.000 86.7300   1
   1  -7  -2 361.640 164.810   1
   1  -7  -2 246.350 86.4900   1
  -1   7   2 177.100 80.4700   1
  -2   4  -6 3081.22 163.220   1
   2  -4   6 2937.06 153.930   1
   2  -4   6 3413.21 227.320   1
   3  -5  -2 12750.7 368.520   1
  -3   5   2 13238.0 377.880   1
   3  -5  -2 13643.9 383.560   1
   4  -1  -3 3013.11 167.840   1
   4  -1  -3 3547.04 169.660   1
   4  -1  -3 2209.16 156.510   1
  -4   1   3 3027.89 252.550   1
   4   3  -2 4661.25 192.320   1
  -4  -3   2 4437.11 217.150   1
   4   3  -2 5362.89 201.770   1
  -4  -3   2 5421.49 371.620   1
   2   5  -4 15917.2 348.920   1
   2   5  -4 13977.9 310.960   1
  -2  -5   4 16111.6 499.230   1
  -2  -5   4 14638.5 422.840   1
  -4   2  -5 924.260 100.470   1
   4  -2   5 1070.82 105.820   1
   4  -2   5 1183.05 132.310   1
   1   3   8 1826.73 130.340   1
   0   7  -2 -26.610 64.5500   1
   0  -7   2 50.0000 59.2300   1
   0  -7   2 85.8200 95.6900   1
   2   4  -5 6379.06 240.040   1
  -2  -4   5 5728.28 263.750   1
   2   4  -5 5398.80 186.240   1
  -1   6  -4 238.930 78.7500   1
   1  -6   4 461.740 93.0300   1
   1  -6   4 314.020 114.770   1
   3  -3   6 4716.28 247.640   1
  -3   3  -6 4528.86 199.510   1
  -3   2   5 191.640 59.9900   1
   3  -2  -5 97.7000 52.0800   1
   3  -2  -5 155.220 62.9700   1
  -1  -5   5 2232.72 171.160   1
  -1  -5   5 2014.41 137.940   1
   1   5  -5 2192.91 134.980   1
  -2   6  -3 1398.31 140.370   1
   2  -6   3 1779.41 183.460   1
   1   7   4 842.810 100.720   1
  -1  -7  -4 723.210 90.4900   1
  -1  -7  -4 901.110 92.5600   1
   1   7   4 763.670 106.510   1
  -2   6   3 8170.74 271.800   1
   2  -6  -3 6511.25 284.680   1
   2  -6  -3 7005.40 236.370   1
   3  -4   5 26759.0 483.780   1
   3  -4   5 27199.8 647.600   1
  -3   4  -5 25953.4 576.360   1
  -4  -4   1 822.170 102.970   1
  -4  -4   1 1108.13 159.910   1
   4   4  -1 822.500 86.6300   1
   4   4  -1 837.640 94.4000   1
   4   4  -1 1046.43 82.3600   1
   3   6   4 3506.79 163.120   1
   3   6   4 3285.76 187.580   1
   3   6   4 3408.16 171.780   1
   2   7   3 526.330 75.5700   1
   2   7   3 497.350 85.8300   1
   2   7   3 516.310 79.6300   1
   4  -3   4 20163.4 401.970   1
  -4   3  -4 18654.9 434.620   1
   4  -3   4 19578.5 538.280   1
  -2  -7   0 4695.11 312.970   1
   2   7   0 4218.37 176.890   1
   2   7   0 4059.56 213.260   1
   2   7   0 3507.45 208.430   1
  -2  -7   0 3112.37 253.660   1
   1   4  -6 3893.97 199.530   1
  -1  -4   6 4037.36 231.740   1
   0  -1   8 757.190 89.8700   1
   0   1  -8 804.540 93.5100   1
   2  -5   5 -109.66 100.910   1
   2  -5   5 27.1600 87.2800   1
  -2   5  -5 3.44000 76.8600   1
  -2   3  -7 13939.1 388.920   1
   2  -3   7 13991.1 402.500   1
  -1   5   6 2840.92 162.230   1
  -1   5   6 2134.39 161.880   1
   1  -5  -6 2747.04 162.310   1
   1  -5  -6 2601.19 161.170   1
   4   5   2 4764.14 215.860   1
   4   5   2 4191.66 247.430   1
   4   5   2 5973.30 222.960   1
   4   5   2 5517.71 215.940   1
   2  -1   8 29.5000 63.4800   1
   2  -1   8 -52.790 69.0100   1
   1   5   7 -108.88 83.8000   1
   1   5   7 40.6400 45.6600   1
   4   4   5 50.7600 64.0800   1
   4   4   5 23.7200 54.0300   1
   3   2  -5 24442.3 452.690   1
  -3  -2   5 23497.2 495.630   1
   2   3   8 208.770 77.2100   1
  -1  -6  -6 3684.15 190.510   1
   1   6   6 4145.20 202.480   1
   1   6   6 2949.59 167.190   1
  -1  -6  -6 3972.30 205.370   1
   1   6   6 3572.64 206.950   1
   4  -4   1 4443.32 330.370   1
  -4   4  -1 4617.32 224.240   1
   4  -4   1 4877.37 236.960   1
   4  -4   1 4777.99 222.620   1
  -4   4  -1 5190.21 214.770   1
  -4   4  -1 4638.19 239.640   1
   0   7   4 10595.4 317.790   1
   0   7   4 10040.8 348.470   1
   0  -7  -4 10710.4 324.280   1
  -4   3   2 687.800 113.290   1
   4  -3  -2 820.480 106.790   1
  -4   3   2 697.240 89.1100   1
   4  -3  -2 779.460 90.9700   1
   4  -1   6 3395.84 186.190   1
   4  -1   6 3788.93 186.790   1
   4   5   3 3932.36 212.080   1
   4   5   3 3755.40 179.290   1
   4   5   3 3546.25 201.850   1
   4   2  -3 32668.9 533.090   1
  -4  -2   3 29844.3 736.860   1
   4   2  -3 32115.2 489.740   1
   1   7  -2 447.520 61.7600   1
  -1  -7   2 323.580 80.8400   1
  -1  -7   2 400.650 148.080   1
   3   5   6 34723.7 545.210   1
   3   5   6 34567.5 552.150   1
   3   5   6 32238.9 570.890   1
   4   5   1 2668.68 143.220   1
   4   5   1 2353.95 162.330   1
   4   5   1 2784.13 150.780   1
   5   1   2 1684.79 137.110   1
   5   1   2 1390.06 117.990   1
   5   1   2 1743.70 140.420   1
   4   3   6 2576.45 176.240   1
   4   3   6 3686.55 179.050   1
  -1   7  -2 2070.42 147.510   1
   1  -7   2 1787.90 161.750   1
   1  -7   2 2519.71 223.220   1
   1   6  -4 14254.6 318.970   1
  -1  -6   4 17496.8 529.010   1
  -1  -6   4 16870.9 428.300   1
   3  -4  -4 1452.09 102.150   1
   3  -4  -4 1419.05 142.160   1
  -3   4   4 1413.96 108.660   1
   3  -4  -4 1654.63 142.110   1
  -1   6   5 6262.16 242.570   1
   1  -6  -5 5548.23 230.890   1
   1  -6  -5 6841.48 243.110   1
  -1   6   5 5304.02 269.680   1
   4  -4   2 10940.1 488.080   1
  -4   4  -2 11122.6 351.590   1
   4  -4   2 10614.4 297.830   1
   4  -4   0 11802.5 330.930   1
   4  -4   0 12334.2 343.200   1
  -4   4   0 12837.6 412.010   1
  -4   4   0 10688.5 346.060   1
   4  -4   0 10042.8 472.940   1
  -4   4   0 10495.7 361.550   1
   5   0   2 837.630 105.280   1
   5   0   2 877.500 98.6400   1
  -3   2  -7 2990.09 185.570   1
   3  -2   7 2950.05 177.040   1
   3  -2   7 3128.88 166.660   1
   4  -2  -3 5613.81 234.610   1
   4  -2  -3 5590.17 204.380   1
  -4   2   3 5495.74 236.790   1
  -4   2   3 5101.17 299.910   1
   0   3   8 74.2400 83.3100   1
   2   6  -3 19816.1 453.800   1
  -2  -6   3 20707.7 617.910   1
   2   6  -3 20615.5 399.780   1
  -1   7   3 152.770 80.4100   1
   1  -7  -3 51.8000 72.3600   1
  -1   7   3 124.860 92.5900   1
  -3  -6   1 187.330 139.880   1
   3   6  -1 124.340 58.7000   1
   3   6  -1 138.600 54.1100   1
   5   1   1 12577.0 536.780   1
   5   1   1 12693.4 538.830   1
   5   1   1 12844.3 476.820   1
   5   1   1 13560.3 510.890   1
   5   0   1 186.770 84.3800   1
   5   0   1 31.3100 60.6200   1
   3   4   7 59.0300 92.9500   1
   5   1   3 1450.59 116.320   1
   5   1   3 1543.35 141.790   1
   5   1   3 1547.91 122.390   1
   5   1   3 1715.06 131.020   1
   5   1   3 1659.92 139.890   1
   2   3  -6 823.720 78.5500   1
   2   3  -6 999.460 97.4400   1
  -2  -3   6 947.040 116.830   1
   2   5   7 813.800 100.260   1
  -1   2  -8 -29.050 68.6000   1
   1  -2   8 -36.120 75.8900   1
   1  -2   8 -23.970 68.2800   1
   2  -5  -5 6596.86 321.390   1
  -2   5   5 7772.01 335.530   1
   2  -5  -5 7056.65 305.060   1
  -2   5   5 5668.28 344.490   1
   5   0   3 4272.91 253.470   1
   5   0   3 4412.87 231.530   1
   5   0   3 4488.05 250.750   1
   5   0   3 4239.66 303.970   1
   2   7   4 27139.7 890.350   1
   2   7   4 25813.9 867.880   1
   2   7   4 24033.6 869.070   1
  -2  -7  -4 24021.5 823.550   1
   5   2   2 13068.3 505.390   1
   5   2   2 14054.6 550.140   1
   5   2   2 13046.2 527.820   1
  -1   4   7 641.760 94.5400   1
   1  -4  -7 560.060 89.6400   1
   0  -6  -6 33.5500 76.4000   1
   0   6   6 -32.660 93.9600   1
   2   6   6 3573.89 225.400   1
   2   6   6 4276.91 239.260   1
   2   6   6 4473.70 235.420   1
   2   0  -7 64.9400 62.4100   1
  -2   0   7 61.2600 60.9200   1
   2   0  -7 58.4000 67.7400   1
   0   5   7 3012.32 201.480   1
   0  -5  -7 4479.14 263.110   1
   0   5   7 4446.05 238.050   1
   3   4  -4 1934.76 138.260   1
  -3  -4   4 1653.20 153.930   1
   3   4  -4 1813.24 129.700   1
   2  -1  -7 188.850 66.5900   1
  -2   1   7 261.900 85.2400   1
   2  -1  -7 142.090 76.9100   1
  -2  -7   1 46.9400 90.2000   1
   2   7  -1 44.4800 58.4100   1
   3  -5   4 7768.84 400.040   1
  -3   5  -4 7195.26 362.910   1
   3   1   8 63.7900 70.7600   1
   4   5   4 5671.16 266.600   1
   4   5   4 6504.67 311.620   1
   4   5   4 6715.06 316.520   1
   3  -3  -5 -10.700 49.1800   1
  -3   3   5 -24.710 52.3300   1
   3  -3  -5 -34.920 57.0200   1
  -3   5   3 277.840 87.7200   1
   3  -5  -3 197.350 87.0800   1
   3  -5  -3 229.450 62.3100   1
   3   5  -3 8835.62 364.190   1
  -3  -5   3 8672.77 480.410   1
   3   5  -3 8689.72 345.990   1
   5   2   3 12160.2 490.330   1
   5   2   3 10552.2 442.170   1
   5   2   3 11042.3 441.430   1
   5   2   3 8799.33 504.340   1
   5   2   3 10415.9 417.340   1
   4   5   0 9762.84 456.080   1
  -4  -5   0 10929.1 444.560   1
   4   5   0 11769.6 446.180   1
   4   5   0 12642.4 466.380   1
  -4  -5   0 13018.6 682.490   1
   5   2   1 8438.03 402.510   1
   5   2   1 8638.46 384.270   1
   5   2   1 7875.59 374.630   1
  -2   4   6 5989.09 269.770   1
   2  -4  -6 5600.64 297.340   1
   2  -4  -6 5197.36 255.150   1
   5  -1   2 21399.2 1038.33   1
   5  -1   2 20997.1 734.440   1
   5  -1   2 18880.3 658.140   1
   1   3  -7 734.840 90.1300   1
  -1  -3   7 793.170 102.640   1
   1   4   8 649.070 102.700   1
   4  -4   3 21996.3 753.770   1
  -4   4  -3 18680.0 681.490   1
   4  -4   3 20129.3 791.320   1
   4  -4  -1 750.260 105.160   1
   4  -4  -1 763.610 106.910   1
  -4   4   1 680.900 121.540   1
  -4   4   1 640.710 83.9800   1
   3   6   5 1168.48 110.250   1
   3   6   5 1053.62 112.870   1
   3   6   5 1216.52 103.030   1
   5  -1   1 25.0100 73.7400   1
   5  -1   1 -42.870 99.9100   1
   0   7  -3 48599.6 675.260   1
   3   2   8 2806.94 178.950   1
   3   2   8 1952.78 152.310   1
   5   0   0 2527.97 186.260   1
   5   0   0 3092.33 200.470   1
   5   1   0 10651.3 521.650   1
   5   1   0 9604.30 382.210   1
   5   1   0 8981.28 385.950   1
   5   1   0 10175.0 422.200   1
   1  -1  -8 980.170 95.3300   1
  -1   1   8 831.990 92.1600   1
  -1   5  -6 1321.08 122.600   1
   1  -5   6 1441.94 158.790   1
   1  -5   6 1396.09 120.400   1
   0   2  -8 865.360 94.2500   1
   0  -2   8 1006.85 116.150   1
   0  -2   8 731.440 95.5500   1
   3   0   8 27.9600 64.4300   1
   3   0   8 74.8000 54.9600   1
   0  -5   6 4885.78 280.550   1
   0   5  -6 4467.09 234.460   1
   1   0  -8 118.150 50.9100   1
   5   1   4 9795.65 410.380   1
   5   1   4 10147.0 427.170   1
   5   1   4 8525.28 370.650   1
   5   1   4 10692.3 447.120   1
  -2   6  -4 1312.17 148.710   1
   2  -6   4 1312.77 166.200   1
   3  -6   0 2652.44 178.950   1
   3  -6   0 2274.00 208.040   1
   3  -6   0 2304.32 206.710   1
  -3   6   0 2448.43 181.610   1
  -3   6   0 2480.19 196.230   1
   1   7   5 536.500 97.1000   1
  -1  -7  -5 459.870 85.9400   1
   1   7   5 688.300 85.8100   1
  -1  -7  -5 493.360 75.6100   1
  -2  -1   7 1127.22 108.090   1
   2   1  -7 1095.18 103.370   1
   2   1  -7 1086.43 106.680   1
  -2   7   0 -10.570 89.1700   1
  -2   7   0 105.130 64.1400   1
   2  -7   0 103.260 91.6200   1
   2  -7   0 -88.700 147.310   1
  -1   4  -7 40.2100 78.9700   1
   1  -4   7 187.460 101.840   1
  -3   6  -1 202.580 90.9900   1
   3  -6   1 357.500 96.3200   1
   3  -6   1 391.060 140.140   1
  -2   2  -8 521.500 90.3300   1
   2  -2   8 510.850 74.4300   1
   2  -2   8 535.040 89.1200   1
  -2   2   7 12295.8 450.070   1
   2  -2  -7 13875.0 517.050   1
   2  -2  -7 11534.7 467.700   1
   5  -1   3 10188.2 413.610   1
   5  -1   3 11459.0 480.010   1
   5  -1   3 10030.1 522.420   1
   4   4  -2 13.5100 59.3000   1
   4   4  -2 183.720 63.9400   1
  -4  -4   2 18.3200 75.1200   1
   4   1   7 2289.70 148.820   1
   2  -6  -4 11753.9 469.880   1
  -2   6   4 10945.0 432.690   1
   2  -6  -4 9216.00 416.750   1
   4  -3   5 20712.5 783.330   1
  -4   3  -5 16589.9 647.470   1
   4  -3   5 20019.2 689.210   1
   5   0   4 678.590 97.3800   1
   5   0   4 838.620 120.730   1
   5   0   4 615.360 91.1700   1
   2   4   8 10007.3 398.320   1
   4   0  -4 986.140 104.440   1
   4   0  -4 1211.06 88.4000   1
  -4   0   4 1135.91 131.190   1
   2  -7  -1 3811.32 319.400   1
   2  -7  -1 3972.05 256.950   1
   2  -7  -1 4434.82 244.460   1
  -2   7   1 3569.64 215.210   1
  -2   7   1 4052.53 272.290   1
   4   3  -3 7182.92 314.860   1
  -4  -3   3 6903.79 383.850   1
   4   3  -3 6938.04 279.080   1
   4  -2   6 203.730 79.1500   1
   4  -2   6 242.140 93.8600   1
   4  -2   6 459.020 103.300   1
   3   3  -5 17952.9 629.730   1
   3   3  -5 18084.6 621.040   1
  -3  -3   5 17890.1 685.490   1
  -1   2   8 8089.94 337.860   1
   1  -2  -8 7144.14 344.000   1
   2  -7   1 2548.04 173.260   1
  -2   7  -1 2670.19 209.720   1
   2  -7   1 2721.08 256.370   1
   5   2   4 285.530 94.0800   1
   5   2   4 182.570 68.6000   1
   5   2   4 303.320 129.420   1
   5   2   4 260.470 71.7200   1
   5   2   4 388.710 86.3100   1
   0   4  -7 92.4000 64.4700   1
   0  -4   7 108.230 75.0300   1
   1  -7   3 1175.79 147.680   1
  -1   7  -3 966.250 109.660   1
   4   2   7 713.320 103.220   1
   4   2   7 1050.96 101.040   1
   5  -1   0 481.020 97.9300   1
   5  -1   0 487.520 84.0600   1
   4   4   6 6734.27 324.100   1
   4   4   6 7391.12 349.760   1
   4   4   6 7815.54 340.870   1
   5   2   0 31903.3 1019.10   1
   5   2   0 28142.6 992.680   1
   5   2   0 24308.0 886.670   1
  -5  -2   0 26190.2 948.610   1
   0   6  -5 31018.2 1010.49   1
   0  -6   5 32409.3 694.430   1
   0  -6   5 33162.5 563.790   1
   4   0   7 961.260 99.8400   1
   3  -6  -1 49.1500 71.6000   1
   3  -6  -1 53.9400 75.0800   1
  -3   6   1 -31.740 79.0000   1
   3  -6  -1 124.870 126.330   1
   5   3   2 22854.8 819.160   1
   5   3   2 25235.6 850.010   1
   4  -1  -4 46.5700 80.6700   1
  -4   1   4 177.200 112.960   1
   4  -1  -4 65.5900 66.4100   1
   4  -1  -4 162.450 86.1100   1
   4   1  -4 3443.09 192.560   1
   4   1  -4 3768.87 192.270   1
  -4  -1   4 3495.94 232.290   1
   3   0  -6 2782.89 153.030   1
   3   0  -6 2821.49 182.030   1
  -3   0   6 3004.26 193.020   1
   0  -7  -5 1301.67 118.620   1
   0   7   5 1269.09 142.180   1
   0  -7  -5 1389.73 116.020   1
   0   7   5 1497.80 151.470   1
   4  -3  -3 1116.79 111.270   1
  -4   3   3 1021.80 145.190   1
   4  -3  -3 1218.29 112.450   1
   4  -3  -3 845.350 113.670   1
  -4   3   3 1021.95 104.850   1
  -1   7   4 3017.51 219.100   1
  -1   7   4 2629.71 215.940   1
   1  -7  -4 2700.16 186.180   1
  -3   6  -2 2957.54 177.790   1
   3  -6   2 3723.00 222.160   1
   3  -6   2 2943.88 254.370   1
   1  -6   5 1624.39 139.380   1
  -1   6  -5 1741.59 129.780   1
   1  -6   5 2187.60 152.280   1
   0   8   1 2011.96 187.140   1
   0  -8  -1 1940.45 155.530   1
   0   8   1 1629.45 145.530   1
   0  -8  -1 2051.55 240.220   1
   1   1  -8 439.490 71.5300   1
  -1  -1   8 282.140 62.9100   1
   5   3   3 565.300 119.240   1
   5   3   3 731.540 110.010   1
   5   3   3 548.100 131.470   1
   5   3   3 483.770 76.2400   1
  -3   1   6 136.660 71.4200   1
   3  -1  -6 155.880 67.6400   1
   3  -1  -6 108.240 100.540   1
   3   3   8 12459.3 519.130   1
   3   3   8 16213.6 580.570   1
   3   3   8 14374.7 578.630   1
  -1  -7   3 1196.27 183.080   1
   1   7  -3 1039.83 98.2100   1
   0   4   8 1555.32 129.500   1
  -1  -8  -1 19113.8 800.380   1
  -1  -8  -1 18238.0 648.080   1
   1   8   1 17488.2 642.770   1
  -3  -6   2 12021.9 609.730   1
   3   6  -2 10697.2 395.130   1
   3   6  -2 11214.9 427.760   1
  -3  -7  -2 9705.67 561.290   1
   3   7   2 10047.2 392.400   1
  -3  -7  -2 9643.38 434.200   1
   3   7   2 9414.83 353.010   1
   3   7   2 9794.03 452.770   1
   4   5   5 44.8100 94.4000   1
   4   5   5 104.990 83.0900   1
   4   5   5 51.2100 60.5000   1
  -3   4  -6 815.710 114.110   1
   3  -4   6 873.010 112.550   1
   3  -4   6 685.610 129.390   1
   3  -1   8 213.110 71.4600   1
  -3   1  -8 196.210 90.8400   1
   3  -1   8 144.090 60.0400   1
   1   1   9 77.7900 48.8900   1
  -1  -8  -2 5557.16 417.830   1
  -1  -8  -2 6292.41 300.580   1
   1   8   2 5210.75 249.370   1
   1   8   2 5711.81 289.800   1
   5   3   1 18302.6 689.970   1
   5   3   1 17876.0 636.030   1
   5   3   1 16771.2 613.570   1
   0   8   0 10994.3 461.640   1
   0  -8   0 11717.5 463.120   1
   0  -8   0 9351.24 475.130   1
   2   7   5 4647.53 276.080   1
   2   7   5 5503.87 287.620   1
  -2  -7  -5 5838.31 310.160   1
  -2  -7  -5 4761.68 258.590   1
   2   7   5 5439.22 284.530   1
   4   5  -1 2021.92 132.390   1
  -4  -5   1 1786.27 143.100   1
  -4  -5   1 2240.62 237.980   1
   4   5  -1 1504.88 158.230   1
   4   5  -1 2232.92 137.700   1
   0   8   2 675.100 143.800   1
   0   8   2 671.650 127.340   1
   0  -8  -2 545.490 101.880   1
   0  -8  -2 503.780 147.580   1
   3   7   1 2096.83 143.430   1
   3   7   1 2234.44 143.340   1
   3   7   1 1608.56 168.890   1
  -3  -7  -1 2004.11 159.400   1
  -3  -7  -1 2239.92 252.150   1
   2  -7  -2 263.540 143.280   1
  -2   7   2 267.520 89.0400   1
  -2   7   2 277.050 84.8500   1
   2  -7  -2 234.790 62.8800   1
   2  -7  -2 244.180 74.2200   1
   5   0  -1 8759.19 374.820   1
   5   0  -1 7326.75 338.260   1
   5  -1   4 3779.42 223.810   1
   5  -1   4 3587.76 218.760   1
   5  -1   4 3338.71 238.840   1
   5  -2   2 141.480 95.9500   1
   5  -2   2 16.4000 82.4500   1
   2   7  -2 2840.76 165.370   1
   2   7  -2 3067.90 188.640   1
  -2  -7   2 3069.79 249.040   1
   4  -4   4 174.980 101.060   1
  -4   4  -4 143.900 71.5600   1
   4  -4   4 210.670 118.800   1
   4  -4  -2 88.5900 73.3600   1
   4  -4  -2 67.3900 81.0400   1
  -4   4   2 171.290 93.7100   1
   3   1  -6 3217.67 193.260   1
   3   1  -6 3450.34 189.840   1
  -3  -1   6 2786.09 191.030   1
   5  -2   1 3368.51 206.520   1
   5  -2   1 3122.91 184.140   1
   2   5  -5 12344.4 457.130   1
  -2  -5   5 14824.2 616.990   1
   2   5  -5 15613.9 555.190   1
  -2  -5   5 13648.7 544.070   1
   5   1  -1 9.56000 86.6000   1
   5   1  -1 83.3600 76.2000   1
   3   7   3 3337.37 212.040   1
   3   7   3 3196.34 179.240   1
  -3  -7  -3 3564.16 236.640   1
   3   7   3 3674.25 194.340   1
  -3   3  -7 2730.03 178.100   1
   3  -3   7 2822.66 204.750   1
   1   0   9 1793.44 142.310   1
  -1   0  -9 2345.20 173.070   1
   1   0   9 2200.95 144.750   1
   1   8   0 4449.70 239.790   1
  -1  -8   0 4687.21 372.040   1
  -1  -8   0 2931.35 279.290   1
  -1  -8   0 4350.40 258.910   1
   2  -7   2 1798.43 127.010   1
  -2   7  -2 1872.34 145.970   1
   2  -7   2 2114.44 205.900   1
   1   2   9 20042.4 696.840   1
   2  -4   7 736.700 96.3900   1
  -2   4  -7 811.930 92.5600   1
  -2   5  -6 574.360 108.130   1
   2  -5   6 469.890 102.830   1
   2  -5   6 341.970 101.430   1
   2   2  -7 9302.83 285.250   1
  -2  -2   7 10740.1 322.170   1
   2   2  -7 9204.53 291.940   1
   5   1   5 358.510 64.7300   1
  -5  -1  -5 310.940 92.7300   1
   5   1   5 467.670 83.0500   1
   5   1   5 403.830 78.9100   1
   5   1   5 465.910 80.3200   1
  -1   3  -8 1715.28 130.270   1
   1  -3   8 1215.55 109.800   1
   4   3   7 229.310 83.9900   1
   4   3   7 357.950 67.1800   1
  -2   3   7 4992.85 178.120   1
   2  -3  -7 5419.99 252.020   1
   2  -3  -7 6241.89 246.470   1
   3   5   7 1395.40 128.480   1
   3   5   7 1531.99 133.560   1
   3   5   7 1181.28 118.260   1
   2   1   9 41159.1 552.190   1
   5   3   4 11106.0 320.270   1
  -3   2   6 10134.8 282.980   1
   3  -2  -6 9512.05 312.820   1
   4  -1   7 883.890 104.210   1
   4  -1   7 742.100 78.7800   1
   1  -3  -8 171.730 62.3200   1
  -1   3   8 475.800 86.3100   1
   1  -3  -8 295.790 78.8900   1
   3  -6  -2 65.5700 57.1900   1
  -3   6   2 62.8000 73.5800   1
   3  -6  -2 109.330 59.9000   1
  -4   2   4 261.710 79.5200   1
   4  -2  -4 161.030 62.6700   1
  -4   2   4 223.190 123.840   1
   4  -2  -4 351.950 79.4800   1
   4  -2  -4 177.250 79.5200   1
   1   8   3 8792.98 306.580   1
  -1  -8  -3 8765.65 302.240   1
   1   8   3 8206.74 301.250   1
  -4  -2   4 5882.74 274.420   1
   4   2  -4 6724.21 250.940   1
   4   2  -4 5866.69 196.200   1
   1   6   7 75.6800 91.9900   1
   1   6   7 124.460 55.7500   1
   5  -2   3 1873.88 148.870   1
   5  -2   3 1614.99 113.450   1
   5  -2   3 1870.36 213.230   1
  -1  -5   6 -20.930 119.750   1
   1   5  -6 27.2300 75.2900   1
   5  -1  -1 6444.16 257.790   1
   5  -1  -1 6146.35 233.790   1
  -3   5  -5 992.430 120.970   1
   3  -5   5 1068.12 113.280   1
   3  -5   5 1027.45 154.200   1
   5   0   5 40.7000 91.1000   1
   5   0   5 53.2500 69.9700   1
   5   0   5 29.6300 75.0200   1
  -2  -4   6 533.540 143.130   1
   2   4  -6 212.350 73.3100   1
   2   4  -6 160.950 73.4900   1
  -2  -6   4 40315.4 869.930   1
   2   6  -4 39706.3 535.820   1
   2   6  -4 37048.0 618.820   1
   4   6   2 5755.13 270.190   1
   4   6   2 5817.96 214.920   1
   4   6   2 5860.39 218.120   1
   0  -8   1 14242.0 497.360   1
   0   8  -1 13143.5 348.260   1
   0  -8   1 12402.7 323.160   1
   3  -4  -5 1088.89 100.110   1
   3  -4  -5 988.100 105.900   1
  -3   4   5 1166.20 97.6700   1
   2   2   9 9372.92 285.270   1
   5   2   5 75.4500 59.1000   1
   1  -6  -6 86.8100 96.6100   1
  -1   6   6 110.990 59.4300   1
   5  -2   0 1022.33 129.200   1
   5  -2   0 915.800 102.810   1
   3  -5  -4 18169.0 407.140   1
  -3   5   4 19754.2 388.910   1
   3  -5  -4 21927.8 502.000   1
   2   0   9 2027.47 153.230   1
  -2   0  -9 2786.66 187.680   1
   2   0   9 2968.76 159.690   1
   3   6   6 2820.58 161.450   1
   3   6   6 2757.07 161.390   1
   5   3   0 267.160 84.6700   1
   5   3   0 264.640 84.4800   1
  -5  -3   0 209.060 84.6400   1
  -3   6  -3 13.3100 78.9400   1
   3  -6   3 121.240 131.340   1
   3  -6   3 46.8000 92.5900   1
   3   7   0 5803.28 282.060   1
   3   7   0 5912.26 225.830   1
  -3  -7   0 6703.85 373.550   1
   0   8   3 7471.59 310.910   1
   0   8   3 7375.31 269.520   1
   0  -8  -3 7580.26 294.190   1
  -4   5  -1 16732.3 467.450   1
   4  -5   1 16126.7 442.650   1
   4  -5   1 16954.5 386.830   1
   4  -5   1 16182.0 608.620   1
   4   6   3 6052.85 215.510   1
   4   6   3 6395.58 233.170   1
   4   6   3 5994.18 232.430   1
   5   2  -1 5250.57 212.410   1
   5   2  -1 5004.15 243.080   1
  -1   5   7 495.030 89.3600   1
   1  -5  -7 346.460 83.0900   1
   1  -5  -7 474.250 78.6400   1
   1   6  -5 3427.12 175.970   1
  -1  -6   5 3643.86 250.200   1
  -1  -6   5 3599.93 191.680   1
   0   1   9 4675.71 178.400   1
   0  -1  -9 4362.24 225.650   1
   0   3  -8 17107.6 377.370   1
   0  -3   8 18515.5 436.880   1
   4   6   1 2447.46 136.580   1
   4   6   1 2202.56 129.390   1
   3   7   4 2159.11 136.460   1
   3   7   4 2262.34 156.070   1
   3   7   4 2337.63 151.490   1
   1   5   8 191.600 88.4500   1
  -4   5   0 19511.9 449.360   1
   4  -5   0 18873.4 679.370   1
   4  -5   0 20888.5 447.190   1
   4  -5   0 21019.0 492.240   1
   1   2  -8 19694.4 393.820   1
  -1  -2   8 20944.7 395.460   1
  -1   1  -9 1573.94 126.860   1
   1  -1   9 1638.91 124.030   1
   0  -7   4 12615.4 412.430   1
   0   7  -4 11992.2 317.830   1
  -1   8   1 6591.95 278.720   1
   1  -8  -1 6229.53 244.060   1
   1  -8  -1 7311.62 385.500   1
  -1   8   1 7377.49 280.180   1
   2   6   7 171.800 71.5400   1
  -1  -8   1 902.620 163.100   1
  -1  -8   1 393.320 105.450   1
   1   8  -1 442.260 82.4100   1
  -1   8   0 487.130 124.300   1
   1  -8   0 434.400 97.9200   1
   1  -8   0 420.580 142.580   1
   0   0  -9 745.340 88.8400   1
   0   0   9 851.360 106.860   1
   4  -5   2 372.040 133.150   1
   4  -5   2 440.680 95.7700   1
   1   3   9 344.000 74.7000   1
   3   2  -6 65.1000 80.3200   1
   3   2  -6 102.590 52.6900   1
  -3  -2   6 -53.830 67.4200   1
  -2   3  -8 258.120 91.5100   1
   2  -3   8 99.3700 90.5000   1
  -2   5   6 217.180 76.0500   1
   2  -5  -6 212.890 90.8400   1
   2  -5  -6 247.220 81.4700   1
   3   4   8 10906.9 317.230   1
  -1  -4   7 676.300 126.580   1
   1   4  -7 724.380 87.0000   1
  -2  -8  -2 408.860 142.140   1
   2   8   2 371.690 77.0500   1
   2   8   2 314.170 99.5200   1
  -2  -8  -2 443.240 104.870   1
   2   8   2 278.920 64.3800   1
   0   2   9 675.150 104.610   1
   5   4   2 3394.45 187.610   1
   5   4   2 3852.62 206.310   1
   5   4   2 3227.56 166.140   1
   1   7   6 623.560 109.240   1
   1   7   6 780.470 110.640   1
  -1  -7  -6 810.360 97.7400   1
   2  -7  -3 2170.66 166.620   1
   2  -7  -3 2501.73 154.710   1
  -2   7   3 2816.17 167.270   1
  -3  -5   4 28407.6 676.330   1
   3   5  -4 27608.8 485.650   1
   3   5  -4 29988.2 485.660   1
   2  -6   5 117.500 103.610   1
  -2   6  -5 306.870 91.2100   1
   2  -6   5 207.030 119.920   1
   2   8   1 1353.11 112.630   1
   2   8   1 1253.10 115.530   1
  -2  -8  -1 1480.61 208.460   1
   5   4   3 876.200 111.220   1
   5   4   3 1266.20 118.450   1
   5   4   3 1052.40 115.410   1
   5   4   3 1091.86 122.930   1
  -4  -4   3 678.650 139.240   1
   4   4  -3 489.920 68.1200   1
   4   4  -3 398.450 66.2600   1
   2   5   8 -15.450 72.6800   1
   0  -6  -7 26.9100 58.6700   1
   0   6   7 63.7000 67.4000   1
   3  -2   8 29.9200 54.3300   1
   3  -2   8 2.95000 75.3100   1
  -3   2  -8 69.6500 86.8800   1
   4  -3   6 449.940 131.990   1
   4  -3   6 347.320 75.2800   1
  -1   7  -4 40.3200 61.1400   1
   1  -7   4 72.4500 131.500   1
   5  -1   5 173.110 71.6700   1
   5  -1   5 95.1300 85.0400   1
   5  -1   5 318.360 98.7200   1
   5  -1   5 136.490 105.570   1
   4   6   4 992.150 97.5000   1
   4   6   4 1035.51 114.010   1
   4   6   4 1038.31 121.350   1
   5  -2   4 2061.62 137.920   1
   5  -2   4 2463.27 147.510   1
   5  -2   4 1975.72 171.970   1
  -2   7  -3 5554.91 266.830   1
   2  -7   3 6230.26 371.080   1
   2   3   9 1734.51 121.150   1
   2  -6  -5 315.500 81.3400   1
  -2   6   5 290.540 86.0900   1
   2  -6  -5 324.110 68.1000   1
   1  -8  -2 8670.91 369.600   1
  -1   8   2 9301.25 301.510   1
   1  -8  -2 10097.5 325.690   1
  -1   8   2 9586.25 357.990   1
   3   4  -5 -16.250 70.9000   1
  -3  -4   5 -1.2900 103.520   1
   3   4  -5 -9.4600 62.2700   1
   5   3   5 5482.19 219.300   1
   5   3   5 7222.18 284.540   1
   1  -8   1 4406.08 212.320   1
   1  -8   1 2971.81 216.540   1
  -1   8  -1 3937.99 221.620   1
   1   8   4 17159.8 410.590   1
  -1  -8  -4 16364.7 405.130   1
   1   8   4 16814.5 451.670   1
   4   5   6 8343.59 276.970   1
   4   5   6 8831.29 284.170   1
   2  -1   9 -31.550 56.2300   1
  -2   1  -9 -14.570 74.2200   1
   5   4   1 1908.44 157.220   1
   5   4   1 1568.73 113.450   1
   5   4   1 1702.18 154.360   1
   2   8   3 853.720 108.520   1
   2   8   3 747.990 96.2100   1
  -2  -8  -3 885.280 107.160   1
   2   8   3 921.670 101.010   1
   4  -5  -1 857.830 104.440   1
  -4   5   1 862.140 108.120   1
   4  -5  -1 925.580 112.060   1
   5  -2  -1 305.590 93.5700   1
   5  -2  -1 410.980 96.7800   1
  -1   7   5 158.150 88.2200   1
   1  -7  -5 229.310 83.6600   1
   5   0  -2 499.690 116.670   1
   5   0  -2 483.200 94.0300   1
   4   5  -2 2904.66 132.820   1
  -4  -5   2 2850.42 266.120   1
   4   5  -2 2824.66 140.540   1
   4   6   0 99.5600 74.6700   1
  -4  -6   0 143.930 154.020   1
   4   6   0 27.6100 46.0100   1
   3  -3  -6 1242.74 121.430   1
   3  -3  -6 1421.56 120.350   1
  -3   3   6 1264.89 104.990   1
   4   4   7 383.330 89.4200   1
   4   4   7 320.580 67.4700   1
   4  -4   5 1376.59 129.010   1
  -4   4  -5 1139.62 120.460   1
   4  -4   5 1226.68 170.020   1
   4  -4  -3 114.160 70.5800   1
   4  -4  -3 -96.350 84.5500   1
   0  -8   2 1061.71 283.400   1
   0   8  -2 690.940 112.250   1
   5   1  -2 4656.50 206.510   1
  -2  -8   0 14850.3 579.920   1
   2   8   0 11399.1 351.570   1
  -2  -8   0 13138.6 382.100   1
   2   8   0 13017.2 342.950   1
   0  -1   9 209.830 89.0100   1
   4  -5   3 714.300 132.780   1
   4  -5   3 534.850 105.580   1
   2   7   6 1024.45 130.010   1
   2   7   6 1103.63 111.080   1
   2   7   6 864.010 116.060   1
   5  -3   1 4746.97 228.560   1
   5  -3   1 4246.65 191.390   1
   5  -3   1 3731.50 304.330   1
   3   7  -1 449.780 73.5700   1
  -3  -7   1 473.100 152.360   1
   3   7  -1 357.520 66.7000   1
   3  -6  -3 1340.93 117.360   1
  -3   6   3 1671.35 155.730   1
   3  -6  -3 1840.49 134.020   1
   5  -3   2 68.8700 102.540   1
   5  -3   2 14.6700 84.6200   1
   5  -3   2 -4.3500 78.6500   1
   5   4   4 6905.50 265.240   1
   5   4   4 7031.96 257.120   1
   5   4   4 7330.16 282.790   1
  -3  -6   3 140.810 125.940   1
   3   6  -3 223.480 51.9700   1
   3   6  -3 135.750 75.7200   1
  -4   3   4 557.550 86.3600   1
   4  -3  -4 736.460 94.2600   1
   4  -3  -4 677.570 88.9900   1
   4  -2   7 560.260 86.2100   1
   4  -2   7 521.150 85.2000   1
   0   5   8 2399.43 134.960   1
  -4  -3   4 8808.81 402.600   1
   4   3  -4 8230.03 238.840   1
   4   3  -4 8911.65 255.130   1
   0   7   6 2437.56 161.890   1
   0  -7  -6 2459.63 170.940   1
   5   3  -1 3997.84 213.030   1
   5   3  -1 3789.83 171.460   1
   0  -8  -4 3745.69 194.730   1
   0   8   4 3378.45 176.390   1
   0   8   4 3059.38 194.510   1
   2   3  -7 1697.65 115.340   1
  -2  -3   7 2345.83 152.280   1
  -2  -7   3 3032.79 262.110   1
   2   7  -3 3059.19 161.700   1
  -1  -7   4 2961.96 201.240   1
   1   7  -4 2717.86 147.010   1
   5   1   6 2552.11 149.390   1
   2  -4  -7 5117.50 207.400   1
   2  -4  -7 6198.86 248.230   1
  -2   4   7 6512.21 224.370   1
   4   1   8 258.770 59.9500   1
  -1   4   8 9.49000 84.3600   1
   5  -1  -2 1581.51 136.320   1
   5  -1  -2 1551.28 135.030   1
   0   3   9 72.0800 74.1900   1
   3   7   5 2522.05 152.770   1
   3   7   5 2708.09 176.160   1
   3   7   5 2671.91 181.030   1
  -1   5  -7 164.720 88.1000   1
   1  -5   7 209.640 71.7100   1
   1  -5   7 167.210 101.630   1
  -3   6  -4 4201.86 222.910   1
   3  -6   4 4590.10 292.240   1
   3   1   9 4558.01 186.880   1
   4   0  -5 2211.98 155.560   1
   4   0  -5 1979.88 131.140   1
  -4   0   5 1621.26 130.570   1
   5   2   6 196.030 71.6800   1
   5   2   6 288.450 78.5500   1
   4   2   8 2099.79 141.190   1
   5   0   6 260.660 65.4000   1
   5   0   6 257.930 110.660   1
   5  -3   0 672.210 113.530   1
   5  -3   0 491.550 77.2600   1
   1   8  -2 342.780 61.6000   1
  -1  -8   2 280.740 190.750   1
   5  -3   3 1393.75 175.100   1
   5  -3   3 1800.93 130.320   1
   3   2   9 7121.80 262.520   1
  -1   2  -9 2587.79 173.700   1
   1  -2   9 2662.73 198.190   1
   1  -2   9 2573.33 169.680   1
  -1   8   3 31990.3 632.390   1
   1  -8  -3 31762.6 555.980   1
  -1   8   3 29973.7 676.510   1
   5   4   0 592.290 88.7300   1
   5   4   0 399.330 79.7500   1
  -4   1   5 7062.96 275.840   1
   4  -1  -5 7445.32 237.710   1
   0   5  -7 10049.7 330.200   1
   0  -5   7 10202.1 330.730   1
   4   0   8 7795.26 222.590   1
   5   2  -2 1292.59 109.400   1
   5   2  -2 1385.60 113.090   1
   2   8   4 350.460 82.8800   1
  -2  -8  -4 436.810 94.6900   1
   2   8   4 343.010 101.210   1
   2  -1  -8 5691.46 219.270   1
   2  -1  -8 5916.55 215.670   1
  -2   1   8 6379.67 221.990   1
   1  -6   6 427.120 128.410   1
   1  -6   6 370.800 82.7000   1
  -1   6  -6 403.830 100.910   1
   0  -6   6 4316.30 251.520   1
   0  -6   6 4141.94 204.900   1
   0   6  -6 3968.91 205.200   1
   1  -8   2 7.09000 91.5600   1
   1  -8   2 214.410 157.990   1
  -1   8  -2 -118.48 83.4700   1
  -2   0   8 64.7300 83.0700   1
   2   0  -8 80.3400 58.0700   1
   1   4   9 5561.45 221.360   1
   4   6   5 805.790 121.130   1
   4   6   5 880.070 102.070   1
   4   6   5 697.230 111.530   1
  -4  -1   5 7874.22 296.380   1
   4   1  -5 8287.14 238.950   1
   4   1  -5 8913.00 284.780   1
   3   0   9 6338.23 219.430   1
  -3   4  -7 5922.66 249.100   1
   3  -4   7 7143.63 266.200   1
   3  -4   7 5645.57 244.940   1
   3   3  -6 3737.41 179.920   1
  -3  -3   6 4409.69 237.710   1
   3   3  -6 4416.01 199.540   1
   4  -5  -2 13572.9 345.440   1
   4  -5  -2 13488.8 356.640   1
  -4   5   2 11951.3 345.320   1
  -1  -3   8 211.180 106.100   1
   1   3  -8 -72.480 80.7600   1
   5  -2   5 415.920 96.5100   1
   5  -2   5 289.060 113.520   1
   5  -2   5 383.510 112.650   1
   1  -4   8 1301.28 127.870   1
  -1   4  -8 1438.78 134.840   1
   2   4   9 59.8700 83.1700   1
   2   8  -1 1396.05 98.9700   1
  -2  -8   1 1489.19 193.900   1
   2  -7  -4 4352.02 239.250   1
   2  -7  -4 5582.38 233.110   1
  -2   7   4 6120.20 238.570   1
   3   6   7 6156.04 246.950   1
   3   6   7 7122.03 266.210   1
   5   4   5 8002.11 275.760   1
   5   4   5 7821.59 298.800   1
   5   4   5 7847.45 294.940   1
   3  -5   6 2599.11 185.400   1
   3  -5   6 2249.71 141.810   1
  -3   5  -6 2333.96 172.640   1
  -4  -6   1 207.070 172.130   1
   4   6  -1 246.240 79.9900   1
   4   6  -1 207.360 52.9000   1
   3  -7   0 1678.71 210.210   1
   3  -7   0 1458.65 124.890   1
  -3   7   0 1425.31 170.160   1
   3  -7   0 1306.72 151.440   1
  -3   7   0 1425.62 146.310   1
  -2   2  -9 490.710 102.030   1
   2  -2   9 463.950 80.4700   1
   2  -2   9 580.920 98.6400   1
   2  -2  -8 233.000 82.9800   1
  -2   2   8 307.800 59.2300   1
   4   3   8 3129.86 165.680   1
  -3   5   5 23130.0 475.230   1
   3  -5  -5 21299.7 434.150   1
   3  -5  -5 25123.2 521.020   1
   4  -5   4 2688.59 163.610   1
  -4   5  -4 2620.10 192.190   1
   4  -5   4 2429.53 185.460   1
   1   8   5 1088.38 119.630   1
   1   8   5 1124.19 132.910   1
  -1  -8  -5 1173.64 109.710   1
   5   3   6 1222.35 119.050   1
   5   3   6 1263.75 117.250   1
  -3   7  -1 3113.79 207.150   1
   3  -7   1 2587.58 209.660   1
   3  -7   1 2799.62 162.490   1
   3  -7   1 2948.12 260.870   1
  -3   7  -1 2348.11 173.180   1
   5  -2  -2 1069.65 106.180   1
   5  -2  -2 1118.45 118.080   1
   3   5   8 5923.60 239.810   1
  -2   7  -4 6271.73 243.910   1
   2  -7   4 7429.92 380.230   1
   2   1  -8 3646.80 186.980   1
  -2  -1   8 3318.66 183.220   1
  -2  -1   8 2741.38 154.210   1
  -1   1   9 118.070 90.3100   1
   3   3   9 403.180 86.9400   1
   0   2  -9 1419.57 117.580   1
   0  -2   9 1722.23 131.990   1
   0  -2   9 1777.32 137.120   1
   5  -1   6 1486.67 126.340   1
   5  -1   6 1702.88 150.800   1
   5  -1   6 1778.00 129.380   1
   4  -2  -5 1107.13 122.580   1
   4  -2  -5 743.240 95.3700   1
  -4   2   5 832.240 127.550   1
   3   0  -7 -54.460 61.8400   1
   3   0  -7 -80.140 63.7400   1
   5  -3  -1 4505.33 202.730   1
   5  -3  -1 4625.87 209.560   1
   0  -4   8 3131.73 174.830   1
   0   4  -8 2797.21 166.580   1
  -2   5  -7 33.1000 86.5000   1
   2  -5   7 12.0100 109.550   1
   2  -5   7 100.180 131.710   1
  -1   0   9 559.630 94.8200   1
   1   0  -9 418.860 72.2800   1
   5  -3   4 3494.59 176.740   1
   5  -3   4 3448.97 258.760   1
   3  -1  -7 4966.62 206.260   1
  -3   1   7 5185.58 211.760   1
   3  -1  -7 4899.89 215.380   1
  -2  -5   6 2306.22 163.750   1
   2   5  -6 3043.81 177.400   1
   3  -7  -1 759.380 156.490   1
   3  -7  -1 605.990 102.430   1
   3  -7  -1 666.130 90.9300   1
  -3   7   1 836.440 117.360   1
  -3   3  -8 -14.840 85.9900   1
   3  -3   8 -1.5500 87.1900   1
   5   5   2 86.8200 86.5300   1
   5   5   2 70.9000 72.6400   1
   5   5   2 128.930 101.230   1
   0  -8   3 4240.09 287.740   1
   0   8  -3 4219.08 191.940   1
   4  -1   8 3651.72 196.640   1
   4  -1   8 3579.66 178.860   1
   2   6  -5 8326.85 235.450   1
  -2  -6   5 8326.56 297.430   1
  -2  -6   5 10307.9 402.740   1
   5   5   3 219.750 76.6700   1
   5   5   3 345.240 84.3500   1
   5   5   3 315.880 83.5000   1
   5   5   3 286.360 73.1300   1
  -4  -2   5 6068.13 284.810   1
   4   2  -5 6799.12 237.940   1
   4   2  -5 5451.23 210.130   1
   3   7  -2 2759.09 158.420   1
   3   7  -2 2479.68 120.080   1
  -3  -7   2 2945.88 285.610   1
   3  -1   9 230.790 95.5600   1
   3  -1   9 129.210 94.0000   1
   3  -4  -6 559.990 100.110   1
   3  -4  -6 523.410 85.9300   1
  -3   4   6 541.150 76.0000   1
   0   7  -5 1615.96 119.970   1
   0  -7   5 2243.29 188.740   1
   2  -8   0 46.4000 89.5300   1
  -2   8   0 22.3200 75.6900   1
   2  -8   0 210.410 166.900   1
  -2   8   0 44.5800 91.3500   1
  -1   2   9 3568.80 157.730   1
   1  -2  -9 3328.05 178.820   1
   1   6   8 77.4400 92.9300   1
  -1   6   7 88.3900 73.3200   1
   1  -6  -7 60.3200 85.9100   1
   0   4   9 68.1200 60.2500   1
   3  -7   2 1028.81 125.940   1
   3  -7   2 1184.48 230.800   1
  -3   7  -2 956.990 101.610   1
   4   5   7 6524.19 223.980   1
   4   5   7 6335.00 241.110   1
   2  -8  -1 2775.26 177.070   1
  -2   8   1 2852.39 185.980   1
  -2   8   1 3393.29 191.670   1
   2  -8  -1 3186.13 271.190   1
   0   8   5 1675.36 141.240   1
   0   8   5 1347.05 148.940   1
   0  -8  -5 1468.97 122.460   1
  -2   4  -8 2977.66 186.110   1
   2  -4   8 3209.09 200.970   1
   5   0  -3 1740.09 126.500   1
   5   3  -2 118.390 68.0100   1
   5   3  -2 52.5600 100.160   1
   3  -6  -4 433.800 78.0700   1
  -3   6   4 584.340 99.2100   1
   3  -6  -4 415.940 74.7100   1
   1  -7   5 14063.4 491.940   1
  -1   7  -5 13634.2 379.120   1
   5   4  -1 3321.69 150.860   1
   5   4  -1 3343.61 159.720   1
   1   7   7 547.400 98.6400   1
  -3  -1   7 5131.94 222.690   1
   3   1  -7 5480.74 226.160   1
   3   1  -7 5211.23 215.680   1
  -1   8   4 1608.82 141.860   1
  -1   8   4 1274.48 147.810   1
   1  -8  -4 1448.45 120.060   1
   5   5   1 4391.24 232.690   1
   5   5   1 4117.71 190.100   1
   5   5   1 3897.72 180.580   1
  -4  -5   3 -59.960 132.450   1
   4   5  -3 7.35000 71.8100   1
   4   5  -3 39.0700 62.6000   1
   2  -6   6 13727.8 351.950   1
   2  -6   6 13503.3 467.170   1
  -2   6  -6 11700.9 366.040   1
   2   8   5 1398.99 115.150   1
  -2  -8  -5 1352.16 144.740   1
   2   8   5 1537.45 146.610   1
   3   8   2 1662.19 125.200   1
   3   8   2 1653.47 136.380   1
  -3  -8  -2 1729.23 146.840   1
   3   8   2 1550.95 121.640   1
  -3  -8  -2 1526.28 238.900   1
  -2   8  -1 8565.70 329.640   1
   2  -8   1 9485.00 399.190   1
   2  -8   1 10516.4 324.330   1
   3   7   6 2201.10 160.240   1
   3   7   6 2488.86 172.310   1
   3   7   6 2265.34 173.530   1
   5   1  -3 3101.27 185.210   1
   5   1  -3 3012.45 157.500   1
   4  -4   6 3205.98 205.100   1
  -4   4  -6 2672.48 181.540   1
   4  -4   6 2565.27 147.580   1
   4  -4  -4 859.670 108.140   1
   4  -4  -4 656.420 89.5900   1
  -4   4   4 554.880 81.6900   1
   4   4  -4 1972.86 114.330   1
   4   4  -4 2197.92 123.640   1
  -4  -4   4 2543.86 223.930   1
   2   6   8 3635.19 180.060   1
  -1  -6   6 -23.930 82.7800   1
  -1  -6   6 25.8000 119.690   1
   1   6  -6 48.8600 60.7800   1
   4  -3   7 4911.41 218.500   1
   4  -3   7 4973.20 269.130   1
  -4   3  -7 3808.80 233.880   1
   5   5   4 183.920 63.9900   1
   5   5   4 118.280 64.4400   1
   5   5   4 73.2800 79.8700   1
   4   7   2 3000.85 189.720   1
   4   7   2 2702.89 159.800   1
   4   7   2 3162.97 167.780   1
   3  -2  -7 3434.99 189.510   1
   3  -2  -7 3331.27 186.700   1
  -3   2   7 3283.41 158.760   1
  -1   8  -3 6822.37 289.870   1
   1  -8   3 7810.77 426.820   1
   1   1  -9 215.100 69.9800   1
  -1  -1   9 103.590 58.5500   1
  -1   7   6 638.700 112.460   1
   1  -7  -6 743.090 101.520   1
  -1  -5   7 2099.27 169.070   1
   1   5  -7 1734.49 118.580   1
  -2   6   6 803.270 97.7100   1
   2  -6  -6 748.420 101.660   1
   4   7   3 -67.050 107.810   1
   4   7   3 31.5600 70.5400   1
   4   7   3 -3.8600 71.0200   1
   3   8   3 1956.71 132.950   1
   3   8   3 1734.65 148.780   1
   3   8   3 1655.44 128.340   1
   2  -3  -8 39.0300 72.0200   1
  -2   3   8 43.5800 76.2600   1
   3   8   1 2797.68 156.660   1
  -3  -8  -1 2758.68 175.200   1
   3   8   1 3055.73 159.170   1
  -3  -8  -1 2993.28 305.820   1
   5  -1  -3 11659.0 355.870   1
   5  -1  -3 11151.2 306.650   1
   4   6   6 1606.83 191.850   1
   4   6   6 1903.73 159.290   1
   4   6   6 1721.49 123.000   1
  -3   6  -5 655.030 106.120   1
   3  -6   5 688.780 117.070   1
   1   8  -3 1232.52 109.050   1
  -1  -8   3 746.430 159.970   1
   4  -6   1 130.730 79.5300   1
   4  -6   1 130.120 72.4700   1
   4  -6   1 6.07000 122.240   1
  -3  -5   5 2212.54 173.980   1
   3   5  -5 2442.79 139.500   1
  -3  -5   5 2164.33 154.160   1
   3   5  -5 2696.46 154.030   1
   5  -4   1 180.810 95.0400   1
   5  -4   1 59.6200 87.9600   1
   5   1   7 2117.98 126.160   1
   1   1  10 237.450 67.0900   1
   2   7   7 3101.78 163.280   1
   3  -7  -2 1317.82 126.710   1
   3  -7  -2 1588.31 294.300   1
  -3   7   2 1659.43 139.070   1
   5  -4   2 3335.19 204.830   1
   5  -4   2 3192.84 170.770   1
   5  -4   2 2647.76 276.480   1
   2   4  -7 1566.48 120.970   1
  -2  -4   7 1557.22 168.690   1
  -1   5   8 454.280 112.740   1
   1  -5  -8 485.620 85.9200   1
   4  -6   0 567.880 159.620   1
  -4   6   0 630.590 102.410   1
   4  -6   0 532.580 106.790   1
   4  -6   0 438.110 97.6100   1
  -2   8   2 153.500 92.1600   1
   2  -8  -2 72.9600 192.680   1
   2  -8  -2 153.740 84.1100   1
  -2   8   2 167.950 96.8100   1
   2   2  -8 2450.42 149.330   1
  -2  -2   8 2599.37 184.880   1
   4   7   1 703.120 109.670   1
  -4  -7  -1 444.910 157.280   1
   4   7   1 651.990 90.1500   1
   4   7   1 826.120 103.280   1
  -2  -8   2 5264.41 303.740   1
   2   8  -2 4195.32 185.480   1
   2  -5  -7 10982.2 329.310   1
  -2   5   7 11539.1 321.670   1
   4  -5  -3 1855.01 153.840   1
   4  -5  -3 1638.40 130.830   1
  -4   5   3 1370.48 122.320   1
  -1   3  -9 72.4600 79.5500   1
   1  -3   9 65.9000 114.330   1
   4   4   8 13904.0 332.440   1
   4   4   8 12914.2 361.780   1
   5   2   7 1530.40 125.130   1
  -2  -7   4 1587.58 209.130   1
   2   7  -4 1675.61 127.460   1
   3   6  -4 582.260 82.9600   1
   3   6  -4 665.410 92.2300   1
  -3  -6   4 443.120 163.920   1
   1   2  10 2024.65 131.820   1
   5   4   6 822.370 109.920   1
   5   4   6 766.300 98.2100   1
   3   4   9 1687.34 137.950   1
   2   1  10 12494.2 481.370   1
   0   9   1 11473.9 519.310   1
   0  -9  -1 11168.1 561.840   1
   0  -9  -1 12551.9 505.800   1
   0   9   1 12745.4 534.200   1
   4  -6   2 58.9700 88.5600   1
   4  -6   2 -41.310 75.9300   1
   1   0  10 6181.77 285.060   1
  -1   0 -10 5956.76 322.350   1
  -1  -9  -1 3199.89 279.010   1
   1   9   1 3831.32 227.880   1
  -1  -9  -1 2696.58 181.760   1
   1   9   1 3412.69 217.590   1
   1   5   9 -114.17 83.5800   1
   1  -3  -9 1063.60 119.440   1
  -1   3   9 1432.37 125.050   1
   5   0   7 1464.85 133.530   1
   5   0   7 1799.12 159.500   1
   1   9   2 781.160 112.720   1
   1   9   2 854.660 106.620   1
  -1  -9  -2 758.300 144.730   1
  -1  -9  -2 720.620 113.250   1
   4  -3  -5 1083.58 105.110   1
   4  -3  -5 1377.31 126.730   1
  -4   3   5 1173.18 116.380   1
   5  -4   0 200.990 100.870   1
   5  -4   0 385.680 111.370   1
   0   6   8 3.09000 93.0300   1
   5   2  -3 1674.58 126.000   1
   5   2  -3 1631.97 144.900   1
   5  -2   6 176.950 109.710   1
   5  -2   6 122.050 120.520   1
   0  -7  -7 89.2300 93.2700   1
   0   7   7 230.210 114.280   1
   4   7   4 24.8100 64.2700   1
   4   7   4 16.3400 98.2300   1
   4   7   4 48.0800 71.5200   1
   2  -8   2 3891.43 249.520   1
  -2   8  -2 3574.71 219.570   1
   2  -8   2 3277.52 327.730   1
   2   2  10 685.660 86.9200   1
   4   6  -2 3236.56 181.650   1
  -4  -6   2 3374.59 304.870   1
   4   6  -2 3164.73 180.180   1
   5  -3  -2 2.69000 54.7400   1
   5  -3  -2 -63.160 66.0200   1
   5   5   0 218.740 71.0100   1
   5   5   0 269.560 89.1100   1
   1   7  -5 4461.97 259.300   1
  -1  -7   5 4572.64 352.850   1
   0   9   2 480.580 101.300   1
   0  -9  -2 463.770 97.9600   1
   0  -9  -2 365.850 170.240   1
   0   9   2 592.580 121.540   1
  -3   7  -3 1982.88 175.000   1
   3  -7   3 1697.67 146.290   1
   3  -7   3 2363.57 239.010   1
   0  -9   0 252.160 260.660   1
   0  -9   0 289.910 127.110   1
   5  -3   5 166.910 109.680   1
   5  -3   5 362.260 135.050   1
   5  -3   5 384.280 109.610   1
   2   5   9 192.470 88.3400   1
   5  -4   3 2726.64 283.480   1
   5  -4   3 2643.00 175.740   1
   4  -5   5 7173.71 387.260   1
  -4   5  -5 6419.81 334.550   1
   3   8   4 197.090 71.9200   1
   3   8   4 114.400 49.1300   1
   3   8   4 78.7000 90.3200   1
  -3  -8   0 -42.210 189.590   1
   3   8   0 192.140 66.3500   1
   3   8   0 174.900 56.2500   1
   3   2  -7 5923.02 271.640   1
   3   2  -7 6927.01 298.020   1
  -3  -2   7 7566.18 352.020   1
   2   0  10 1533.35 114.850   1
  -2   0 -10 1708.29 212.400   1
   3   4  -6 118.260 66.6400   1
  -3  -4   6 80.9300 107.480   1
   3   4  -6 78.3600 69.3400   1
  -4   6   1 979.340 104.780   1
   4  -6  -1 1111.54 134.770   1
   4  -6  -1 1147.78 123.800   1
   4  -2   8 10.5300 90.6600   1
   4  -2   8 35.1400 72.3100   1
  -4  -3   5 235.060 128.620   1
   4   3  -5 277.720 89.0100   1
   4   3  -5 357.250 87.4000   1
  -1  -9   0 4651.60 260.320   1
   1   9   0 4425.50 244.180   1
  -1  -9   0 4503.93 338.070   1
   5   5   5 156.530 82.1400   1
   5   5   5 65.5500 71.2400   1
   5   5   5 76.7700 80.3000   1
   2  -7  -5 2670.78 185.330   1
  -2   7   5 2825.17 189.080   1
  -3   2  -9 5582.93 317.260   1
   3  -2   9 5682.75 289.470   1
   3  -2   9 5753.24 286.890   1
  -2   3  -9 140.440 104.700   1
   2  -3   9 138.730 95.6000   1
   2  -3   9 85.6600 62.9700   1
   5  -2  -3 75.2100 85.2500   1
   5  -2  -3 147.580 122.300   1
   0   3  -9 1155.13 121.650   1
   0  -3   9 1014.25 114.570   1
   1   8   6 223.570 90.9000   1
   1   8   6 99.9400 79.4600   1
   1   9   3 75.5900 81.7900   1
  -1  -9  -3 140.530 93.9500   1
   1   9   3 136.770 112.400   1
  -1  -4   8 4.92000 125.640   1
   1   4  -8 68.5000 73.6000   1
   5   3   7 -24.910 59.6800   1
   3  -3  -7 5937.08 296.530   1
  -3   3   7 5552.13 267.190   1
   4   7   0 624.510 80.0400   1
  -4  -7   0 770.340 171.210   1
   4   7   0 534.500 83.1600   1
   6   1   2 6944.27 338.050   1
   6   1   2 6177.62 305.580   1
   1   3  10 -53.330 85.3300   1
  -2   7  -5 1619.49 130.110   1
   2  -7   5 1874.89 196.890   1
   1   2  -9 0.52000 45.4400   1
  -1  -2   9 157.830 104.570   1
  -1  -2   9 -26.430 86.6100   1
   0   1  10 727.610 97.9200   1
   0  -1 -10 684.940 101.720   1
  -4   6  -3 94.3800 99.8400   1
   4  -6   3 27.6800 80.8000   1
   4  -6   3 -75.810 124.340   1
   6   1   3 1202.27 123.790   1
   6   1   3 979.310 116.940   1
   4   1   9 2179.18 131.800   1
   6   0   2 4300.01 231.580   1
   6   0   2 4692.95 281.470   1
   1  -1  10 889.380 99.4800   1
  -1   1 -10 1082.76 134.030   1
  -2   8   3 449.730 105.780   1
   2  -8  -3 494.010 103.260   1
  -2   8   3 355.840 82.7400   1
   0  -9  -3 2581.15 196.140   1
   0   9   3 2544.11 207.240   1
   0   9   3 2007.29 152.210   1
   2   3  10 194.450 106.790   1
   5  -4  -1 -82.950 71.3300   1
   5  -4  -1 -25.940 94.2000   1
   0  -9   1 750.160 140.390   1
   0   9  -1 602.250 93.9500   1
   0  -9   1 534.600 180.290   1
   0   8  -4 1079.60 110.110   1
   0  -8   4 1232.67 153.590   1
   5  -1   7 253.240 76.6200   1
   5  -1   7 435.700 128.430   1
   5  -1   7 478.500 95.8400   1
   4   0  -6 16.1200 49.1200   1
  -4   0   6 64.1700 72.0400   1
   4   0  -6 -58.690 76.7000   1
   4   2   9 858.910 107.930   1
   5   4  -2 4154.95 237.180   1
   5   4  -2 4134.44 204.940   1
   6   0   3 3529.15 203.220   1
   6   0   3 3761.66 225.800   1
  -3   7   3 228.430 97.3400   1
   3  -7  -3 240.600 90.9200   1
   3  -7  -3 280.100 66.0900   1
   0   0  10 678.670 83.7700   1
   0   0 -10 572.040 93.0600   1
   3   7  -3 702.200 81.1200   1
   3   7  -3 822.620 78.3400   1
  -3  -7   3 827.690 161.980   1
   0   2  10 1465.60 152.320   1
   6   1   1 13442.4 556.480   1
   6   1   1 11013.0 464.920   1
   3   6   8 47.7300 62.4100   1
   6   2   2 2278.92 176.300   1
   6   2   2 1953.48 181.460   1
   2   8   6 17780.5 644.000   1
   2   8   6 17436.5 681.790   1
  -2  -8  -6 19049.0 712.680   1
  -1   8   5 38.4600 93.8500   1
   1  -8  -5 67.5600 87.3600   1
  -4   1   6 1672.89 144.750   1
   4  -1  -6 1555.13 136.330   1
   4  -1  -6 1453.68 119.460   1
   0   5   9 3930.08 223.890   1
   6   2   3 356.380 105.450   1
   6   0   1 10783.9 483.670   1
   6   0   1 9092.32 393.320   1
   4   7   5 31125.0 1049.17   1
   4   7   5 32982.2 624.400   1
   4   7   5 33084.6 568.140   1
   1  -6   7 12057.4 598.490   1
   1  -6   7 10276.0 423.970   1
  -1   6  -7 9549.32 414.500   1
   2  -4  -8 1165.68 125.020   1
  -2   4   8 1101.02 111.110   1
   2  -1  10 2622.84 182.180   1
  -2   1 -10 2815.65 201.110   1
  -3   5  -7 474.540 100.610   1
   3  -5   7 342.150 82.6100   1
   3  -5   7 412.130 120.650   1
   5  -4   4 8013.44 367.430   1
   5  -4   4 7408.21 417.870   1
   2   9   2 1342.23 141.750   1
  -2  -9  -2 1133.36 206.150   1
  -2  -9  -2 864.810 107.550   1
   2   9   2 993.040 103.740   1
   4   0   9 1626.55 116.970   1
  -1   9   1 655.280 132.730   1
   1  -9  -1 708.770 171.920   1
  -1   9   1 734.840 128.500   1
   1  -9  -1 285.950 127.020   1
   1  -5   8 5659.57 312.690   1
  -1   5  -8 6243.06 307.390   1
  -1  -9   1 1207.19 152.450   1
  -1  -9   1 1378.44 205.430   1
   1   9  -1 1184.28 107.790   1
   0   8   6 1798.22 148.950   1
   0  -8  -6 1880.85 156.790   1
  -4  -1   6 160.710 89.4000   1
   4   1  -6 -23.860 78.4200   1
   4   1  -6 -7.5500 76.8200   1
  -1   8  -4 3798.95 230.400   1
   1  -8   4 3777.90 319.560   1
   6   1   4 331.630 108.480   1
   6   1   4 363.590 87.7400   1
   6   1   4 314.140 80.7600   1
   3  -5  -6 1211.01 131.240   1
   3  -5  -6 1488.24 148.800   1
  -3   5   6 1368.31 124.360   1
   1  -9   0 466.010 188.240   1
  -1   9   0 437.220 108.280   1
   1  -9   0 671.860 121.020   1
  -2  -9  -1 6339.00 319.140   1
   2   9   1 6279.54 292.080   1
  -2  -9  -1 6608.69 431.920   1
   0  -6   7 1305.78 151.040   1
   0   6  -7 930.470 111.890   1
   0  -6   7 1005.12 128.700   1
   5   3  -3 535.070 102.060   1
   2  -8   3 1702.87 216.160   1
   2  -8   3 1295.41 142.670   1
  -2   8  -3 1247.27 139.820   1
  -3   4  -8 1209.36 120.800   1
   3  -4   8 1316.93 119.890   1
   3  -4   8 1568.95 141.710   1
  -4   6   2 5830.93 302.310   1
   4  -6  -2 5653.91 272.950   1
   4  -6  -2 5831.79 301.770   1
   3   8   5 4089.15 249.900   1
   3   8   5 4211.61 254.190   1
   3   8  -1 456.260 82.1400   1
   3   8  -1 459.740 62.1300   1
  -3  -8   1 417.000 193.940   1
  -3   6   5 110.430 87.5100   1
   3  -6  -5 206.810 66.3600   1
   3  -6  -5 229.660 91.1800   1
   3   7   7 1108.62 128.700   1
   3   7   7 911.770 139.140   1
   2   3  -8 8732.83 368.600   1
  -2  -3   8 8449.33 390.410   1
   5   5  -1 2249.07 159.020   1
   5   5  -1 2205.73 141.380   1
  -5  -5   1 2014.84 268.490   1
  -1   4   9 1313.91 127.090   1
   1   9   4 1754.35 159.910   1
  -1  -9  -4 2004.10 163.940   1
   1   9   4 2248.67 182.080   1
   6   2   1 1499.38 143.930   1
   5   6   3 2030.54 152.500   1
   5   6   3 2300.52 153.460   1
   5   6   3 2791.99 212.110   1
   5   6   2 523.730 102.550   1
   5   6   2 267.560 79.1300   1
   5   6   2 358.530 98.0000   1
   6  -1   2 775.200 91.7100   1
   6  -1   2 800.630 93.0700   1
   3   1  10 -6.5100 63.9100   1
  -2  -9  -3 1058.79 110.610   1
   2   9   3 949.050 124.910   1
   2   9   3 967.640 116.580   1
   6   0   4 7997.65 357.960   1
   6   0   4 8802.59 384.930   1
   4   6   7 1476.81 128.620   1
   4   6   7 1660.42 150.170   1
   6   2   4 3205.30 195.870   1
   6   2   4 4114.76 272.040   1
   4   3   9 528.800 98.3400   1
  -1   9   2 -43.120 98.6400   1
   1  -9  -2 -49.420 101.380   1
   1  -9  -2 214.750 149.080   1
  -1   9   2 138.450 105.360   1
   5   0  -4 926.750 108.220   1
   5   0  -4 1228.60 127.060   1
   3  -7   4 237.630 170.730   1
  -3   7  -4 190.780 105.680   1
   3   2  10 1327.38 123.900   1
   0   5  -8 122.920 53.6800   1
   0  -5   8 122.210 123.500   1
   4   5   8 771.060 123.040   1
  -2  -8   3 39.2900 137.510   1
   2   8  -3 -19.300 53.2800   1
   6  -1   3 4812.07 250.320   1
   6  -1   3 4966.44 271.830   1
   3   5   9 4477.89 241.630   1
   6  -1   1 1260.07 110.530   1
   6  -1   1 1500.86 136.250   1
   0  -1  10 483.840 78.2800   1
   0   1 -10 394.220 89.1200   1
   4  -2  -6 960.580 110.380   1
  -4   2   6 911.540 108.630   1
   5   5   6 2302.24 182.840   1
   5   5   6 2604.42 190.420   1
   5   5   6 2621.02 200.070   1
   1   8  -4 435.940 95.4600   1
  -1  -8   4 409.860 163.850   1
   4  -5  -4 -13.980 93.2100   1
  -4   5   4 -4.5900 61.3100   1
   4   5  -4 3156.55 190.920   1
  -4  -5   4 3023.38 279.390   1
   4   5  -4 2717.55 173.420   1
   4   7  -1 1721.23 124.590   1
   4   7  -1 1875.94 134.100   1
  -4  -7   1 2351.76 244.610   1
   5   1  -4 375.670 112.700   1
   5   1  -4 574.030 92.0700   1
  -1   9  -1 1081.30 122.940   1
   1  -9   1 1233.34 137.850   1
   1  -9   1 1128.47 179.560   1
   3   3  -7 198.410 64.8000   1
   3   3  -7 457.980 76.9300   1
  -3  -3   7 341.120 105.080   1
   5   4   7 7016.86 354.530   1
   5   4   7 7461.06 340.730   1
   0   3  10 927.580 109.280   1
   6   1   0 493.300 106.620   1
   6   1   0 745.500 112.520   1
   4  -4   7 95.5800 124.910   1
   4  -4   7 -46.710 88.2300   1
  -4   4  -7 -54.930 95.0700   1
   4  -4  -5 120.790 94.9000   1
  -4   4   5 95.1600 65.3800   1
   4  -4  -5 81.3500 68.9100   1
   2   9   0 3.77000 118.690   1
  -2  -9   0 -75.030 95.8000   1
  -2  -9   0 76.8600 168.090   1
   0   7  -6 2980.75 208.230   1
   0  -7   6 2649.31 183.190   1
   0  -7   6 3183.99 245.360   1
   6   0   0 1135.91 112.260   1
   6   0   0 1168.18 123.070   1
   3   0  10 6113.22 336.250   1
   3  -6   6 1790.67 212.050   1
   3  -6   6 1940.82 162.710   1
  -3   6  -6 1497.70 179.240   1
   1  -7   6 8147.21 452.570   1
  -1   7  -6 7726.31 438.450   1
   1  -7   6 7023.01 469.520   1
   5  -1  -4 1925.90 154.680   1
   5  -1  -4 1672.10 177.060   1
   5   6   4 267.610 84.1100   1
   5   6   4 370.990 80.0800   1
   5   6   4 305.830 72.7900   1
   5  -3  -3 3047.17 200.470   1
   5  -3  -3 3205.61 215.430   1
   0   9   4 258.600 97.5400   1
   0   9   4 359.100 102.780   1
   0  -9  -4 275.640 87.2500   1
   5   6   1 1030.09 123.690   1
   5   6   1 1042.49 110.270   1
   5   6   1 932.250 100.590   1
   4  -6   4 1123.21 166.980   1
  -4   6  -4 912.100 132.780   1
   4  -6   4 848.000 115.240   1
   6   3   3 42.1800 72.2300   1
   6   3   3 -52.630 100.840   1
   6   3   2 216.060 92.5700   1
   6   3   2 242.580 104.610   1
   1   4  10 3148.26 226.760   1
   5  -3   6 556.170 109.660   1
   5  -3   6 459.520 108.730   1
   0  -9   2 615.370 267.000   1
   0   9  -2 592.800 94.7000   1
  -2  -6   6 181.560 88.9200   1
  -2  -6   6 261.280 118.060   1
   2   6  -6 77.9100 65.7700   1
   1   7   8 3636.04 236.970   1
   2   4  10 156.000 80.0000   1
  -2   5  -8 18.4900 98.1800   1
   2  -5   8 25.7800 108.060   1
   2  -5   8 -59.470 109.460   1
   4  -1   9 1870.49 177.690   1
   4  -1   9 2201.44 166.790   1
   2  -1  -9 357.580 76.1600   1
  -2   1   9 344.200 82.8900   1
   5   1   8 1987.68 163.120   1
   5  -4  -2 2519.29 183.800   1
   5  -4  -2 2113.52 157.970   1
   1  -2  10 2671.48 212.430   1
   1  -2  10 2779.17 224.100   1
  -1   2 -10 2558.84 207.760   1
   4   2  -6 3231.76 215.970   1
   4   2  -6 3459.22 232.310   1
  -4  -2   6 3630.05 270.780   1
  -1   4  -9 158.760 86.6700   1
   1  -4   9 233.000 165.830   1
  -4  -6   3 636.140 179.100   1
   4   6  -3 804.300 97.8600   1
   4   6  -3 647.730 89.9300   1
  -2   6  -7 642.420 110.940   1
   2  -6   7 359.580 123.390   1
   2  -6   7 750.030 155.100   1
  -2   0   9 461.810 104.310   1
   2   0  -9 333.050 80.4300   1
  -3   4   7 997.700 105.280   1
   3  -4  -7 1093.08 120.760   1
   3  -4  -7 958.570 125.480   1
  -1   7   7 941.680 137.680   1
   1  -7  -7 646.740 114.810   1
   6   1   5 57.9400 72.6300   1
   6   1   5 54.8200 73.1400   1
   6   1   5 113.950 96.5500   1
  -4  -4   5 1376.49 210.460   1
   4   4  -5 1340.46 111.850   1
   4   4  -5 1172.37 110.280   1
   4  -3   8 649.780 143.260   1
   4  -3   8 496.230 120.040   1
  -4   3  -8 462.170 107.160   1
   5   2   8 40.4300 65.7700   1
   2   9   4 754.640 114.950   1
  -2  -9  -4 685.900 112.830   1
   2   9   4 701.980 102.450   1
   3   3  10 505.730 92.8300   1
   4  -5   6 251.500 97.7400   1
   4  -5   6 421.990 134.120   1
  -4   5  -6 409.520 105.240   1
   5  -2   7 43.7700 85.7500   1
   5  -2   7 158.120 79.0000   1
  -2   8   4 -10.510 100.780   1
   2  -8  -4 26.2300 90.6600   1
  -1   6   8 438.770 91.9400   1
   6  -1   4 230.490 98.9600   1
   6  -1   4 282.590 114.340   1
   6   2   0 263.260 106.230   1
   5  -5   1 756.320 122.760   1
   5  -5   1 858.250 117.970   1
   5  -5   1 652.050 152.700   1
   2   7   8 2035.10 181.220   1
   3  -3   9 4346.11 281.270   1
  -3   3  -9 4974.13 333.030   1
   2   5  -7 2322.00 163.340   1
  -2  -5   7 2828.59 227.490   1
   6   3   4 3335.12 260.690   1
   6   3   4 4357.49 296.550   1
   6   3   4 3844.36 270.010   1
  -1   9   3 161.180 113.080   1
   1  -9  -3 22.9500 73.6000   1
  -1   9   3 -13.080 85.1100   1
   1   6   9 -69.810 79.5800   1
   6  -1   0 4747.79 315.880   1
   6  -1   0 5355.25 332.530   1
   6   3   1 641.100 99.1100   1
   6   3   1 493.380 101.920   1
   1   3  -9 72.6700 55.1100   1
  -1  -3   9 200.150 108.800   1
   5  -5   2 2094.69 188.070   1
   5  -5   2 2411.56 202.890   1
   5  -5   2 2226.55 286.540   1
   2  -6  -7 320.880 93.9000   1
  -2   6   7 317.040 76.4500   1
   6   2   5 6660.47 401.670   1
   6   2   5 6708.61 403.200   1
   1   9  -2 5420.70 319.920   1
  -1  -9   2 5268.07 406.440   1
   5   0   8 220.310 87.5900   1
   5   0   8 259.920 91.5900   1
  -2  -7   5 4938.04 353.570   1
   2   7  -5 5081.04 297.750   1
   4   7   6 1928.33 195.690   1
   4   7   6 1585.67 142.870   1
   4   7   6 1768.08 160.790   1
   6   0   5 879.670 127.000   1
   6   0   5 811.100 111.250   1
   6   0   5 674.680 112.010   1
   5   2  -4 48.3100 86.4900   1
   5   2  -4 96.8700 70.2300   1
   5  -4   5 24750.3 632.910   1
   5  -4   5 29274.3 586.460   1
   2   6   9 459.290 104.330   1
   2  -2  10 89.1400 95.4500   1
   2  -2  10 255.580 89.2600   1
  -2   2 -10 51.6700 106.480   1
  -2   2   9 197.900 84.9200   1
   2  -2  -9 109.960 68.8100   1
  -3   0   8 5226.18 308.430   1
   3   0  -8 5311.78 326.110   1
   3   0  -8 5545.01 331.970   1
   3  -7  -4 1076.83 144.170   1
   3  -7  -4 737.160 104.380   1
  -3   7   4 962.420 126.130   1
   3  -1  -8 2697.05 196.810   1
   3  -1  -8 2915.80 207.120   1
  -3   1   8 3102.35 218.080   1
   3   6  -5 584.460 93.2300   1
   3   6  -5 681.740 93.5000   1
  -3  -6   5 830.210 172.810   1
   6  -2   2 3690.27 246.190   1
   6  -2   2 3028.96 204.740   1
   5  -5   0 -22.880 71.0500   1
  -3   8   0 89.9600 93.6400   1
   3  -8   0 151.960 183.250   1
   3  -8   0 100.140 85.2700   1
  -3   8   0 -144.80 96.4300   1
   5  -2  -4 241.280 77.5200   1
   5  -2  -4 280.540 93.5900   1
  -1   9  -2 272.360 98.2400   1
   1  -9   2 335.240 139.200   1
   1  -9   2 177.680 117.870   1
   4   4   9 3345.73 234.950   1
  -1  -6   7 1523.49 150.270   1
  -1  -6   7 1489.79 185.400   1
   1   6  -7 1318.85 137.320   1
  -4   6   3 309.400 80.9300   1
   4  -6  -3 274.840 110.390   1
   4  -6  -3 161.420 93.9400   1
   5   6   5 8204.71 453.660   1
   5   6   5 8786.62 298.930   1
   5   6   5 9897.96 337.360   1
   2  -7  -6 209.430 93.9900   1
  -2   7   6 -53.690 93.4700   1
  -3   1 -10 252.160 107.680   1
   3  -1  10 178.770 84.3200   1
   3  -1  10 190.680 73.9100   1
   0  -4   9 -15.100 138.160   1
   0   4  -9 127.440 82.2000   1
   5   6   0 5381.44 320.240   1
   5   6   0 5672.20 327.910   1
  -3   8  -1 6.78000 84.9000   1
   3  -8   1 -71.130 177.460   1
  -3   8  -1 203.570 101.220   1
   3  -8   1 106.830 99.2100   1
   3  -8   1 51.8600 95.9000   1
   3   5  -6 530.730 84.7900   1
   3   5  -6 399.920 82.1600   1
  -3  -5   6 514.050 142.610   1
  -1  -8  -7 1263.66 160.440   1
   1   8   7 1168.39 136.640   1
   1   9   5 105.160 84.9200   1
   1   9   5 51.1700 122.970   1
  -1  -9  -5 61.5500 79.4700   1
  -2  -1   9 169.480 91.6200   1
  -2  -1   9 127.760 137.570   1
   2   1  -9 112.070 81.3100   1
   2   9  -1 496.620 80.8800   1
  -2  -9   1 409.170 150.380   1
  -2  -9   1 355.910 202.240   1
  -2   4  -9 357.810 91.0500   1
   2  -4   9 266.720 121.320   1
   6  -2   1 410.430 105.770   1
   6  -2   1 244.250 80.5500   1
   3   8   6 77.3400 108.980   1
   3   8   6 81.9100 59.0200   1
   6  -2   3 1292.84 140.270   1
   6  -2   3 926.090 121.150   1
   3   8  -2 1883.83 168.200   1
   3   8  -2 1725.20 145.080   1
  -3  -8   2 2142.46 240.510   1
   5   3   8 475.100 99.9000   1
  -2   8  -4 1373.39 150.660   1
   2  -8   4 1487.29 180.900   1
  -4   3   6 2482.87 182.390   1
   4  -3  -6 3007.67 229.170   1
   4  -3  -6 2399.94 172.170   1
  -3   8   1 1591.35 195.610   1
   3  -8  -1 2241.56 278.040   1
  -3   8   1 2378.77 189.610   1
   3  -8  -1 2466.45 193.860   1
   5  -5   3 7466.32 496.940   1
   5  -5   3 8609.23 313.070   1
   1  -1 -10 307.290 91.6900   1
  -1   1  10 489.290 87.1500   1
   0   2 -10 1453.23 143.940   1
   0  -2  10 1450.54 157.140   1
   0  -2  10 1604.77 165.860   1
   6   0  -1 -20.280 58.9100   1
   6   0  -1 4.82000 89.2200   1
   5   4  -3 695.940 90.6000   1
   5   4  -3 1117.65 156.390   1
   6   1  -1 92.6000 95.0600   1
   0   7   8 14.6400 104.690   1
  -1  -7   6 1544.64 193.160   1
   1   7  -6 1473.14 143.680   1
  -1  -7   6 1443.01 175.030   1
   4   8   2 181.510 133.540   1
   4   8   2 155.200 67.8800   1
   4   8   2 169.060 79.3700   1
   3   1  -8 3.03000 79.6300   1
  -3  -1   8 16.1800 96.4100   1
   3   1  -8 -80.960 85.1100   1
   0   4  10 31.7100 97.2600   1
   5   5  -2 3528.45 223.950   1
   5   5  -2 3195.23 201.060   1
  -3   2   8 2309.14 169.460   1
   3  -2  -8 2301.66 180.970   1
   3  -2  -8 1992.23 158.800   1
   4   8   3 203.450 78.6100   1
   4   8   3 -0.2700 113.960   1
  -2   7  -6 347.810 113.770   1
   2  -7   6 468.610 136.700   1
   2  -7   6 212.250 115.410   1
   2   8   7 810.650 133.460   1
  -1   0  10 1152.16 120.910   1
   1   0 -10 964.120 109.420   1
   6   3   5 2775.91 225.810   1
   6   3   5 2374.33 187.690   1
  -1   8   6 2089.80 174.660   1
   1  -8  -6 2077.01 175.060   1
   0   8  -5 293.500 96.8000   1
   0  -8   5 393.960 166.740   1
  -1  -5   8 381.050 127.300   1
   1   5  -8 422.630 102.980   1
   6   3   0 12310.1 326.220   1
   6   3   0 14343.4 362.970   1
   4  -7   1 1526.27 164.910   1
   4  -7   1 1024.04 256.490   1
  -4   7  -1 1031.70 127.340   1
   4  -7   1 950.060 131.720   1
   6   4   3 489.240 108.150   1
   6   4   3 642.510 116.220   1
   6   4   3 493.540 96.2800   1
  -1   2  10 227.810 81.2200   1
   3   7  -4 -35.340 50.3700   1
  -3  -7   4 120.560 150.430   1
   3   7  -4 71.4500 75.7100   1
   6  -1   5 162.920 100.020   1
   6  -1   5 -20.700 108.400   1
   4  -7   0 3533.62 256.440   1
   4  -7   0 3063.41 210.210   1
   4  -7   0 2840.94 267.540   1
  -4   7   0 3286.77 262.770   1
   3  -8   2 335.860 175.730   1
  -3   8  -2 338.780 110.110   1
   3  -8   2 309.480 121.110   1
  -1   5   9 1612.17 155.250   1
   6   4   2 1216.51 131.150   1
   6   4   2 1160.64 137.450   1
   6   4   2 1114.62 139.690   1
   5  -5  -1 968.970 108.650   1
   5  -5  -1 1112.74 133.620   1
   0   9   5 85.7400 94.5400   1
   0  -9  -5 104.350 71.6200   1
   0   9   5 -22.530 118.590   1
   5  -1   8 1412.18 142.720   1
   5  -1   8 1420.30 141.310   1
  -3   7  -5 18.0300 124.330   1
   3  -7   5 121.570 150.100   1
   3   4  10 130.760 89.5400   1
   4   7  -2 2048.16 160.180   1
   4   7  -2 2150.88 161.560   1
  -4  -7   2 2006.40 259.070   1
  -2  -9  -5 -4.6800 76.7700   1
   2   9   5 -123.43 74.3100   1
   4   8   1 2974.14 215.860   1
  -4  -8  -1 3562.67 346.040   1
   4   8   1 3090.32 213.460   1
   4   8   1 3080.17 205.990   1
   1  -8   5 1917.03 236.620   1
  -1   8  -5 1743.11 161.220   1
   0   6   9 650.160 96.7600   1
   6  -2   0 2882.73 199.350   1
   6  -2   0 3356.84 246.760   1
   2  -3  -9 616.670 85.7200   1
  -2   3   9 723.640 103.600   1
   4  -2   9 21.4400 81.0100   1
   4  -2   9 151.230 117.250   1
   0   9  -3 281.460 94.6700   1
   0  -9   3 69.4800 134.170   1
   6  -1  -1 2227.63 196.280   1
   6  -1  -1 1958.50 161.270   1
   5   5   7 96.2200 68.6100   1
   5   5   7 29.8700 88.0800   1
  -2  -4   8 527.350 103.220   1
   2   4  -8 608.540 93.1500   1
   6  -2   4 4317.37 294.270   1
   6  -2   4 4201.48 267.040   1
   4   3  -6 17.7700 66.7500   1
  -4  -3   6 -76.370 105.040   1
   4   3  -6 20.4500 75.6100   1
   4  -6   5 -38.840 138.560   1
  -4   6  -5 46.0300 80.3800   1
   6   2  -1 120.130 97.0800   1
   6   2  -1 145.770 79.0200   1
  -3  -9  -2 109.330 180.170   1
   3   9   2 10.0100 75.0600   1
   3   9   2 152.950 105.120   1
  -1   9   4 1412.39 180.290   1
  -1   9   4 1166.94 155.300   1
   1  -9  -4 1395.46 146.500   1
  -2   9   0 2000.90 210.820   1
   2  -9   0 1277.84 255.340   1
   2  -9   0 1276.07 136.770   1
  -2   9   0 1400.81 202.490   1
   6   1   6 864.610 123.770   1
   6   1   6 921.340 113.680   1
   4   8   4 149.490 104.960   1
   4   8   4 254.110 78.1700   1
   4   8   4 257.780 85.4200   1
   4  -7   2 2062.16 220.200   1
  -4   7  -2 1962.86 229.660   1
   4  -7   2 2281.13 267.490   1
  -4   7  -2 1479.25 139.600   1
   4  -7   2 2522.39 201.210   1
   0   8   7 105.390 100.570   1
   0  -8  -7 54.2900 96.8000   1
  -3   8   2 192.670 89.0400   1
   3  -8  -2 140.040 83.5800   1
   6   4   4 46.7000 115.910   1
   6   4   4 -46.370 94.3100   1
   6   4   4 8.21000 82.7000   1
  -2   9   1 8535.16 409.160   1
   2  -9  -1 8012.08 427.410   1
  -2   9   1 9137.46 440.790   1
   2  -9  -1 9822.31 388.490   1
   3   9   3 2262.70 158.690   1
   3   9   3 2614.13 189.350   1
   1   5  10 2390.42 170.490   1
   5   3  -4 2343.16 144.640   1
   5   3  -4 2823.96 175.970   1
   2   5  10 331.540 112.450   1
   5  -4  -3 211.960 96.8800   1
   5  -4  -3 150.160 84.2800   1
   6   2   6 852.220 126.510   1
   6   2   6 676.300 105.710   1
   3   4  -7 231.380 89.9900   1
   3   4  -7 320.080 93.5300   1
  -3  -4   7 203.850 121.090   1
   3   9   1 604.590 91.0600   1
  -3  -9  -1 926.030 174.920   1
   3   9   1 455.940 126.190   1
   3   7   8 2197.52 149.850   1
   4  -7  -1 86.6500 155.030   1
   4  -7  -1 -60.700 102.690   1
   4  -7  -1 17.4700 95.1800   1
   4   6   8 125.180 108.040   1
   6   4   1 2714.60 228.180   1
   6   4   1 2642.20 206.770   1
   6   4   1 2657.65 172.910   1
  -2  -8   4 1792.26 201.330   1
   2   8  -4 1683.52 128.330   1
   1   1 -10 1089.64 106.290   1
  -1  -1  10 1234.58 206.510   1
  -1  -1  10 1424.59 142.250   1
   2   2  -9 4390.37 229.090   1
  -2  -2   9 4397.27 247.580   1
   5  -5   4 716.720 118.920   1
   5  -5   4 725.050 186.310   1
   3   6   9 26.8100 101.600   1
   6   0   6 219.130 93.1300   1
   6   0   6 368.230 96.6500   1
   2  -9   1 1005.19 190.600   1
  -2   9  -1 1596.83 168.720   1
   2  -9   1 1664.19 171.840   1
  -3   6   6 4902.44 248.770   1
   3  -6  -6 3828.87 244.110   1
   3  -6  -6 4517.75 229.070   1
  -1   3 -10 1831.36 166.940   1
   1  -3  10 1969.65 144.460   1
   5   6   6 124.100 97.2600   1
   5   6   6 87.8100 73.8900   1
   5   6   6 -52.670 92.5700   1
   5  -3  -4 112.460 109.910   1
   5  -3  -4 11.6000 75.5600   1
   5   4   8 714.960 112.520   1
   5   4   8 510.730 80.6400   1
   1   1  11 503.820 94.7400   1
   5   6  -1 3671.15 194.380   1
  -5  -6   1 3379.58 311.780   1
   5   6  -1 3849.61 194.850   1
   4  -5  -5 110.700 80.5000   1
  -4   5   5 182.810 70.6000   1
   4  -5  -5 16.0500 99.1000   1
   1  -9   3 3550.40 291.700   1
  -1   9  -3 2618.33 227.880   1
   3   2  -8 12595.2 459.790   1
  -3  -2   8 13728.7 523.510   1
   3   2  -8 13426.5 480.850   1
  -2   8   5 957.030 138.010   1
   2  -8  -5 941.120 109.660   1
   5  -3   7 5074.50 276.650   1
   5  -3   7 4257.81 247.530   1
  -1   3  10 1301.78 127.070   1
   2   1  11 1276.21 117.000   1
  -1  -9   3 920.940 168.050   1
   1   9  -3 741.230 102.210   1
  -3   3   8 1601.80 132.240   1
   3  -3  -8 1476.86 139.230   1
   3  -3  -8 1610.92 156.060   1
   3  -2  10 1505.73 126.330   1
   3  -2  10 1918.99 155.410   1
  -3   2 -10 1895.06 165.550   1
  -3   5  -8 1862.03 169.060   1
   3  -5   8 2046.36 185.370   1
   3  -5   8 2093.26 168.740   1
  -2   9   2 385.760 109.250   1
   2  -9  -2 667.590 157.740   1
   2  -9  -2 738.570 130.990   1
  -2   9   2 592.160 103.300   1
   4   1  10 1538.31 140.890   1
   2   9  -2 2987.18 178.290   1
  -2  -9   2 3359.63 279.170   1
   1   2  11 128.980 82.5800   1
   1   8  -5 20.2200 74.8400   1
  -1  -8   5 49.7900 162.980   1
  -4  -8   0 351.590 175.740   1
   4   8   0 333.030 73.9300   1
   4   8   0 548.670 95.3200   1
   2   2  11 4436.74 217.130   1
   3   9   4 310.230 91.5600   1
   3   9   4 279.980 86.7700   1
   4   2  10 169.450 80.8000   1
   6  -3   2 43.6900 129.260   1
   6  -3   2 54.4900 90.0800   1
   5   0  -5 117.480 76.7500   1
   5   0  -5 173.360 113.650   1
   5  -4   6 1005.39 175.060   1
   5  -4   6 1325.56 156.580   1
   3  -5  -7 1771.29 136.860   1
   3  -5  -7 1332.30 134.340   1
  -3   5   7 1797.95 139.540   1
   4   7   7 1199.48 140.950   1
   4   7   7 1513.51 146.060   1
  -4   0   7 1921.97 164.350   1
   4   0  -7 2298.70 165.620   1
   4   0  -7 2464.42 168.740   1
   3  -8   3 2349.44 207.510   1
  -3   8  -3 1820.74 167.420   1
   3  -8   3 2350.74 275.890   1
   1   0  11 4273.98 222.060   1
   4   5   9 15.7600 102.120   1
   2  -3  10 48.4400 104.680   1
  -2   3 -10 133.690 100.250   1
   5   7   3 1627.75 153.420   1
   5   7   3 1751.71 140.640   1
   5   7   3 1755.84 140.600   1
   4  -7   3 201.170 153.440   1
   4  -7   3 231.900 109.840   1
  -4   7  -3 319.330 102.460   1
   4  -1  -7 -48.900 79.9800   1
  -4   1   7 32.2100 73.3900   1
   4  -1  -7 19.0900 87.3200   1
   6  -3   1 189.510 93.6400   1
   6  -3   1 244.140 92.1200   1
   6   4   5 5040.74 283.930   1
   6   4   5 4926.55 263.000   1
   6   4   5 5653.33 297.700   1
   5   7   2 1783.66 143.560   1
   5   7   2 1664.26 126.310   1
   5   7   2 1868.41 156.650   1
   6   3   6 1572.88 140.590   1
   6   3   6 1226.02 109.930   1
  -3   6  -7 1783.80 146.860   1
   3  -6   7 1937.09 206.460   1
   3  -6   7 2224.52 178.290   1
   1  -6   8 3671.33 209.740   1
  -1   6  -8 3174.08 207.760   1
   1  -6   8 3596.07 245.370   1
   3   9   0 2720.35 192.750   1
  -3  -9   0 3605.16 305.150   1
   3   9   0 3434.03 207.140   1
   6  -2  -1 2444.63 169.730   1
   6  -2  -1 3158.48 198.090   1
   4   8   5 1528.98 158.580   1
   4   8   5 1358.71 112.340   1
   4   8   5 1471.24 162.170   1
   2   0  11 8763.43 361.920   1
   1   9   6 4987.65 265.720   1
  -1  -9  -6 4992.87 278.170   1
   5  -1  -5 1546.77 123.860   1
   5   1  -5 561.000 116.050   1
   5   1  -5 392.160 67.6600   1
   5  -5  -2 43.1800 80.7100   1
   5  -5  -2 14.4000 94.0100   1
   6   3  -1 3667.87 189.610   1
   6   3  -1 3902.86 235.660   1
   4  -6  -4 2930.13 190.750   1
   4  -6  -4 3743.26 228.430   1
   6  -3   3 282.550 110.340   1
   6  -3   3 155.590 91.1600   1
   6   0  -2 68.2500 84.1900   1
   6   0  -2 59.2100 71.7600   1
  -4  -5   5 572.450 145.820   1
   4   5  -5 520.300 90.5000   1
   4   5  -5 480.960 87.2000   1
   1   4  -9 39.7400 59.8100   1
  -1  -4   9 106.280 122.080   1
   4   6  -4 3100.65 190.820   1
  -4  -6   4 3810.14 345.270   1
   4   6  -4 3639.12 198.160   1
  -4   4  -8 195.460 116.830   1
   4  -4   8 75.0400 98.0700   1
   4  -4   8 59.1500 109.360   1
   4  -4  -6 544.800 156.170   1
   4  -4  -6 257.190 91.1400   1
  -4   4   6 289.770 84.1200   1
   6  -2   5 24.6200 100.750   1
   4   0  10 1055.23 93.7000   1
   6   1  -2 4428.34 226.900   1
  -3   7   5 849.690 106.810   1
   3  -7  -5 663.650 119.620   1
  -4   5  -7 2050.85 175.060   1
   4  -5   7 2686.52 193.850   1
   4  -5   7 2654.82 245.330   1
  -3   4  -9 40.8900 106.100   1
   3  -4   9 -132.93 122.990   1
   2  -9   2 203.960 159.320   1
  -2   9  -2 229.080 71.4600   1
   2  -9   2 -98.380 101.630   1
  -4  -1   7 3572.23 219.670   1
   4   1  -7 3925.08 203.410   1
   4   1  -7 3890.80 209.130   1
   0   3 -10 879.450 100.230   1
   0  -3  10 1296.28 217.970   1
   4  -7  -2 574.940 87.7500   1
   4  -7  -2 400.750 80.4100   1
   6   4   0 260.920 103.250   1
   6   4   0 338.600 96.8500   1
   6   4   0 232.640 71.3000   1
   3   8   7 227.020 77.3900   1
   5   7   4 143.690 84.6900   1
   5   7   4 101.490 69.4700   1
   5   7   4 0.60000 72.3000   1
   6  -1   6 694.060 128.950   1
   6  -1   6 451.880 105.140   1
  -1 -10  -2 257.540 168.020   1
   1  10   2 130.790 119.960   1
   1  10   2 122.100 81.3400   1
  -1 -10  -2 199.970 98.6700   1
   5  -2   8 342.700 122.500   1
   5  -2   8 592.660 118.840   1
   1  10   1 307.060 118.560   1
  -1 -10  -1 278.400 158.250   1
  -1 -10  -1 366.700 125.310   1
   1  10   1 305.110 85.8700   1
  -3   8   3 322.070 108.320   1
   3  -8  -3 371.530 88.7200   1
   0  10   1 5228.65 284.150   1
   0 -10  -1 4999.23 259.760   1
   0 -10  -1 5465.81 433.240   1
   0  10   1 5263.98 284.740   1
   3   8  -3 1021.47 128.320   1
   3   8  -3 1209.11 111.220   1
  -3  -8   3 1514.59 214.530   1
   0  -6   8 4025.27 281.310   1
   0  -6   8 3254.46 212.050   1
   0   6  -8 3332.73 207.890   1
   1  -7   7 771.140 127.220   1
   1  -7   7 549.870 104.530   1
  -1   7  -7 622.550 119.430   1
   4   3  10 58.7800 67.3100   1
   2   3  11 485.410 96.1000   1
  -2   4   9 -57.210 71.1800   1
   0   5  10 -25.420 73.0700   1
   1   3  11 400.820 88.4400   1
  -2   8  -5 1650.38 151.640   1
   2  -8   5 1547.31 197.010   1
   5   1   9 28.7600 68.2800   1
   5   7   1 3264.83 198.110   1
   5   7   1 3253.01 193.330   1
   5   7   1 3565.25 273.570   1
  -1   5  -9 1112.07 123.690   1
   1  -5   9 1443.32 170.470   1
   0  10   2 15148.2 406.130   1
   0 -10  -2 15756.0 455.920   1
   0  10   2 14651.9 610.440   1
   0 -10  -2 14490.3 618.310   1
   0  -7   7 1802.16 164.530   1
   0  -7   7 1687.68 166.210   1
   0   7  -7 1306.48 130.650   1
   5   2   9 287.050 64.6600   1
   6  -3   0 162.980 99.9800   1
   6  -3   0 21.3700 72.7700   1
   2   9   6 95.7300 108.400   1
  -2  -9  -6 13.8600 82.9700   1
   6  -1  -2 400.580 117.090   1
   6  -1  -2 284.330 109.610   1
  -4   2   7 1356.94 129.080   1
   4  -2  -7 1019.99 115.310   1
   4  -2  -7 1318.79 153.740   1
   3   5  10 350.590 101.410   1
   1   2 -10 267.690 70.0600   1
  -1  -2  10 315.060 104.680   1
  -1  -2  10 374.740 102.870   1
   0  10   0 4372.68 272.710   1
   0 -10   0 4182.10 239.520   1
   0 -10   0 4157.57 650.230   1
   2  -9  -3 5334.38 273.360   1
  -2   9   3 4260.88 238.640   1
  -2   9   3 3957.79 234.660   1
   6   5   3 5255.20 257.980   1
   6   5   3 5897.95 300.810   1
   6   5   3 6983.79 340.380   1
   0   1  11 326.140 95.2300   1
   1   7   9 151.340 109.990   1
  -1 -10  -3 1227.45 137.810   1
   1  10   3 1070.22 128.340   1
   1  10   3 1024.22 138.470   1
   5   5  -3 1723.65 127.990   1
   5   5  -3 2011.49 126.550   1
   6   2  -2 7504.12 376.970   1
   6   2  -2 6495.65 293.050   1
   1  -1  11 1520.40 142.650   1
   1  -1  11 1783.27 151.220   1
   1  -9  -5 1841.80 137.420   1
  -1   9   5 1924.06 145.920   1
   1  10   0 414.930 83.0400   1
  -1 -10   0 695.090 209.280   1
  -1 -10   0 456.590 129.430   1
  -1   7   8 440.160 109.810   1
   1  -7  -8 326.760 105.500   1
   6   5   2 -8.8100 94.7700   1
   6   5   2 77.8000 132.990   1
   6   5   2 9.47000 85.2200   1
   6  -3   4 60.8600 83.6400   1
   6  -3   4 185.900 125.090   1
   0   9   6 608.740 134.400   1
   0  -9  -6 543.610 106.170   1
   3   9   5 135.740 113.820   1
   3   9   5 274.970 82.8400   1
   2   7   9 619.960 119.580   1
   5  -5   5 58.3600 137.120   1
   5  -5   5 31.3200 118.350   1
   5  -2  -5 5386.29 266.550   1
   5  -2  -5 5269.54 275.390   1
   5   2  -5 992.090 105.500   1
   5   2  -5 936.270 91.3800   1
   5   0   9 1215.54 131.230   1
   5   0   9 1009.26 107.970   1
  -2   6  -8 2489.25 183.080   1
   2  -6   8 3200.96 207.590   1
   2  -6   8 2922.72 238.720   1
  -2  -6   7 3371.60 230.500   1
   2   6  -7 2520.95 197.180   1
   4  -3   9 305.200 102.670   1
  -4   3  -9 353.660 121.420   1
   6   1   7 992.300 131.880   1
   6   1   7 641.210 96.3000   1
   2  -1  11 1289.48 126.840   1
   2  -1  11 1283.24 128.210   1
   4   4  -6 6367.29 279.170   1
   4   4  -6 7105.59 308.740   1
  -4  -4   6 7753.09 445.770   1
   5  -6   1 1378.81 207.700   1
   5  -6   1 1796.93 149.210   1
   5  -6   1 1615.52 144.240   1
   0   2  11 2347.37 161.270   1
   0   9  -4 175.660 114.810   1
   0  -9   4 353.070 159.580   1
   1   8   8 352.700 130.270   1
   4   7  -3 2013.73 159.100   1
   4   7  -3 2452.32 156.680   1
  -4  -7   3 2331.09 271.350   1
   3   1  11 1513.96 130.940   1
   6   5   4 754.330 144.140   1
   6   5   4 249.640 105.150   1
   6   5   4 405.250 103.560   1
  -1   4  10 764.110 100.110   1
   0   0  11 75.8200 64.8500   1
   4   8  -1 8649.26 340.660   1
  -4  -8   1 9998.12 600.520   1
   4   8  -1 9124.63 348.850   1
   5   4  -4 5292.24 242.440   1
   5   4  -4 5470.43 260.720   1
   0   5  -9 114.210 82.1100   1
   0  -5   9 92.3900 143.320   1
  -2   7   7 53.1800 101.710   1
   2  -7  -7 240.010 86.7000   1
  -2  -7   6 1474.95 203.170   1
   2   7  -6 1343.55 122.490   1
   6   2   7 61.9300 67.7100   1
  -2  -3   9 546.150 102.620   1
   2   3  -9 639.700 101.100   1
   3   2  11 38.9500 76.7800   1
   0  10   3 43.9500 134.440   1
   0 -10  -3 99.8400 101.460   1
   0  10   3 -38.480 76.0300   1
  -4   6  -6 4176.33 281.360   1
   4  -6   6 4664.52 331.650   1
   5  -6   2 111.080 170.840   1
   5  -6   2 132.410 95.8500   1
   5  -6   2 198.750 89.2200   1
   5   7   5 3789.93 228.420   1
   5   7   5 4210.73 264.350   1
   5   7   5 4937.41 328.480   1
   4  -1  10 17.9800 81.1600   1
   4  -1  10 -65.650 103.690   1
   5   3   9 2241.04 166.730   1
   3   9  -1 3781.65 254.450   1
  -3  -9   1 4271.03 379.880   1
   3   9  -1 4181.06 244.140   1
  -3   7  -6 11415.1 557.570   1
   3  -7   6 12227.5 637.000   1
  -3  -3   8 190.250 116.740   1
   3   3  -8 105.040 82.5900   1
   3   3  -8 62.8700 63.3600   1
  -4   7  -4 1045.75 167.820   1
   4  -7   4 1189.66 127.190   1
   4  -7   4 1021.26 144.040   1
   2  -5   9 212.180 129.360   1
  -2   5  -9 155.790 107.090   1
   4   2  -7 64.3500 78.6900   1
   4   2  -7 -13.570 55.7000   1
  -4  -2   7 -20.680 119.110   1
   2  -6  -8 3587.86 241.310   1
  -2   6   8 3392.62 211.620   1
   2   8   8 539.990 127.300   1
   6   4   6 1113.99 122.640   1
   6   4   6 1348.66 152.610   1
   6   4   6 1608.35 170.780   1
   3  -4  -8 615.890 102.120   1
  -3   4   8 431.830 68.9700   1
   3  -4  -8 486.860 86.1900   1
   5  -6   0 5465.55 331.010   1
   5  -6   0 5122.57 311.960   1
   5   5   8 698.480 121.980   1
   5   6   7 3931.71 254.110   1
   5   6   7 3501.64 253.250   1
   3   6  -6 35.5400 75.6100   1
   3   6  -6 72.2400 79.2600   1
  -3  -6   6 155.510 170.380   1
  -1   8   7 -7.4600 106.440   1
   1  -8  -7 -10.520 118.820   1
  -3   8  -4 3130.09 254.740   1
   3  -8   4 3459.40 295.490   1
   3  -8   4 3755.03 237.020   1
  -1   6   9 -23.750 76.2700   1
   5   6  -2 1084.63 102.940   1
   5   6  -2 925.060 109.740   1
   6   0   7 1472.79 154.980   1
   6   0   7 1510.34 138.230   1
   6   0   7 1550.35 136.900   1
   0  10  -1 1396.54 171.590   1
   0 -10   1 1324.80 146.500   1
   0 -10   1 1136.17 181.110   1
   6   5   1 3613.02 232.460   1
   6   5   1 3277.90 198.550   1
   6   5   1 3342.17 274.960   1
   5   7   0 47.4600 87.4800   1
   5   7   0 192.550 68.9000   1
   2  10   2 1359.52 152.390   1
  -2 -10  -2 1419.20 245.390   1
   2  10   2 1333.62 133.770   1
   4   8   6 591.930 125.280   1
   5  -4  -4 32.9600 118.900   1
   5  -4  -4 39.3400 91.1700   1
  -1   9  -4 810.020 126.490   1
   1  -9   4 1047.13 213.620   1
   3   0  11 954.790 101.600   1
  -2   9  -3 238.220 97.3100   1
   2  -9   3 180.900 104.970   1
   2  -9   3 204.000 170.640   1
   2  -7   7 1977.71 202.700   1
  -2   7  -7 1570.90 154.630   1
   0  -8   6 687.860 184.900   1
   0   8  -6 726.260 111.160   1
   4   4  10 187.280 115.870   1
   6  -2  -2 396.140 95.5100   1
   6  -2  -2 251.240 97.3100   1
   1   6  10 73.7800 99.5400   1
   2   6  10 139.870 106.370   1
  -2 -10  -1 2062.06 173.450   1
   2  10   1 2365.56 196.100   1
  -2 -10  -1 1759.92 263.760   1
   2  10   1 2078.09 182.870   1
   6  -3  -1 93.9800 105.900   1
   6  -3  -1 -55.080 64.9300   1
  -2  -9   3 1491.32 247.150   1
   2   9  -3 987.630 124.880   1
  -3  -7   5 7287.26 452.710   1
   3   7  -5 6238.74 343.810   1
   3   7  -5 5521.66 280.930   1
  -1   8  -6 2891.56 218.030   1
   1  -8   6 3406.18 281.340   1
   2   4  11 68.2000 89.4000   1
   1  10   4 760.220 120.450   1
  -1 -10  -4 417.670 100.920   1
   1  10   4 585.570 113.800   1
   3  -3  10 -11.230 88.9700   1
  -1  10   1 3835.63 279.720   1
  -1  10   1 4193.69 294.150   1
   1 -10  -1 5455.63 439.460   1
   1 -10  -1 4377.46 276.460   1
  -1 -10   1 773.810 123.840   1
  -1 -10   1 910.680 214.260   1
   1  10  -1 701.150 112.700   1
  -2  -5   8 41.9000 132.680   1
   2   5  -8 50.5100 78.0200   1
   1   4  11 154.400 91.7600   1
   4  -7  -3 861.570 141.860   1
   6   4  -1 3512.56 206.210   1
   6   4  -1 3879.45 260.170   1
   2  10   3 3126.12 209.350   1
   2  10   3 3112.18 201.970   1
   6  -2   6 2482.94 192.030   1
   6  -2   6 2405.82 213.490   1
   3   3  11 1497.70 154.470   1
   0   3  11 1392.27 129.300   1
   5  -6   3 1629.64 144.970   1
   5  -6   3 2061.44 204.120   1
   5  -6   3 1588.00 217.420   1
   5  -5  -3 827.500 108.960   1
   5  -5  -3 1109.45 132.000   1
   6   3   7 10612.8 516.390   1
   4  -3  -7 1294.53 117.750   1
  -4   3   7 1403.52 127.800   1
  -1  10   0 1610.49 173.580   1
  -1  10   0 1559.03 160.410   1
   1 -10   0 1333.95 235.580   1
   1 -10   0 1221.70 135.440   1
   6   5   5 2781.40 213.170   1
   6   5   5 3373.74 249.340   1
   6   5   5 2769.12 201.270   1
   1   9  -4 7321.59 382.560   1
  -1  -9   4 7785.63 472.900   1
   0  -1  11 707.920 104.930   1
   0  -1  11 816.730 118.820   1
   3   5  -7 2621.21 186.450   1
   3   5  -7 1876.68 146.000   1
  -3  -5   7 2344.99 206.780   1
  -1   4 -10 56.5700 83.9300   1
   1  -4  10 67.4200 86.3500   1
   6   3  -2 818.210 118.040   1
   6   3  -2 893.440 114.560   1
   5  -1   9 886.440 112.080   1
   5  -1   9 987.080 127.130   1
   0   7   9 592.020 108.620   1
  -1  -7   7 4483.68 293.050   1
   1   7  -7 3730.85 214.240   1
  -1  -7   7 4535.11 279.930   1
  -3   8   4 36.9600 108.800   1
   3  -8  -4 17.3400 115.060   1
  -2   8   6 247.010 104.140   1
   2  -8  -6 219.430 97.2300   1
   1 -10  -2 150.360 117.570   1
   1 -10  -2 23.5400 143.820   1
  -1  10   2 367.150 135.590   1
   5  -6  -1 187.730 105.280   1
   5  -6  -1 190.570 103.290   1
   1   6  -8 410.070 100.380   1
  -1  -6   8 724.990 198.360   1
  -1  -6   8 714.180 154.300   1
   6  -3   5 761.500 112.270   1
  -2   1  10 1075.35 127.670   1
   2  -1 -10 865.400 105.780   1
   0  -8  -8 722.700 123.550   1
   0   8   8 588.180 120.320   1
   6  -4   2 635.300 113.360   1
   6  -4   2 746.680 119.730   1
   2   8  -5 3574.84 235.330   1
  -2  -8   5 4107.41 369.180   1
   5  -4   7 6070.92 380.430   1
   5  -4   7 6876.29 384.410   1
   2  -9  -4 2395.08 192.680   1
  -2   9   4 2262.50 181.390   1
   0 -10  -4 67.2000 81.0500   1
   0  10   4 -43.520 116.770   1
   0  10   4 210.280 124.310   1
   4   6   9 162.610 123.810   1
   4   7   8 1051.56 150.770   1
   4   7   8 700.690 131.020   1
   6  -4   1 615.140 101.160   1
  -1   2 -11 4437.00 291.110   1
   1  -2  11 5226.19 313.320   1
   1  -2  11 4886.47 381.260   1
   2   0 -10 -23.280 77.0700   1
  -2   0  10 -9.7800 106.810   1
   6   0  -3 68.7500 97.3000   1
   5  -3  -5 106.950 96.9800   1
   5  -3  -5 70.4800 77.0600   1
  -2 -10   0 2590.58 289.620   1
   2  10   0 2310.17 176.760   1
  -2 -10   0 2419.71 220.830   1
   5   3  -5 60.8700 54.4100   1
   3   7   9 1519.28 148.380   1
   3  -1  -9 146.560 103.580   1
   3  -1  -9 55.4400 94.0500   1
  -3   1   9 172.400 133.240   1
   6  -1   7 1.80000 92.2700   1
   6  -1   7 -35.490 131.860   1
   6   1  -3 190.750 109.800   1
   6   1  -3 51.2200 85.6600   1
  -3   0   9 86.9000 75.7100   1
   3   0  -9 110.410 70.6200   1
   3   0  -9 -1.8500 76.8900   1
   5   4   9 17.1400 109.600   1
   5  -3   8 2264.83 189.240   1
   5  -3   8 1526.35 168.570   1
  -1  -9  -7 70.8600 101.250   1
   1   9   7 129.470 98.0200   1
   3   9   6 566.810 101.190   1
   1 -10   1 558.260 178.870   1
   1 -10   1 672.630 130.770   1
  -1  10  -1 505.850 97.6700   1
   6   5   0 1861.42 157.140   1
   6   5   0 1811.74 179.130   1
   6   5   0 1934.72 159.950   1
  -2   4 -10 1123.02 133.660   1
   2  -4  10 1142.00 131.640   1
  -1  -3  10 774.330 125.110   1
   1   3 -10 669.450 128.840   1
   6  -4   3 1233.90 148.610   1
   6  -4   3 1367.67 154.320   1
   5   7   6 506.550 84.2400   1
   5   7   6 663.730 124.590   1
   5   7   6 638.690 113.780   1
   2  10   4 235.280 108.910   1
   2  10   4 219.130 117.990   1
   4  -5  -6 996.810 125.940   1
   4  -5  -6 1083.97 136.820   1
   2  -2  11 1457.44 151.770   1
   2  -2  11 1574.34 150.250   1
  -2   2 -11 1713.06 165.510   1
  -2   2  10 -10.560 86.0100   1
   4  -6  -5 1030.50 122.620   1
   4  -6  -5 818.550 116.290   1
   3  -1  11 277.330 77.6100   1
   3  -1  11 68.2900 107.390   1
  -2   5   9 2333.56 174.370   1
   3  -6  -7 1187.38 145.210   1
   3  -6  -7 1289.65 165.080   1
  -3   6   7 1336.37 137.410   1
   0  10  -2 1975.01 161.850   1
   0 -10   2 2368.44 191.280   1
   0 -10   2 2498.30 280.930   1
   6  -1  -3 133.280 95.1000   1
   6  -1  -3 69.3700 88.7400   1
   4  -2  10 39.5300 61.4100   1
   4  -2  10 -11.820 80.5000   1
   0   4 -10 805.090 111.440   1
   0  -4  10 782.630 141.120   1
   2   9   7 19.2000 106.940   1
   4   3  -7 224.290 79.4700   1
   4   3  -7 136.290 63.7200   1
  -4  -3   7 128.290 148.230   1
   6  -4   0 61.2900 116.780   1
   6  -4   0 23.1400 91.7000   1
   4   9   2 1261.04 187.430   1
   4   9   2 939.030 96.6200   1
   3   8   8 2968.08 207.100   1
  -1  10   3 154.250 128.400   1
  -1  10   3 163.290 110.510   1
   1 -10  -3 17.2900 110.980   1
   4   9   3 6952.34 384.970   1
   4   9   3 8199.06 481.210   1
   3  -7  -6 534.590 93.9800   1
  -3   7   6 426.690 97.3600   1
  -3   9   0 7.64000 122.380   1
   3  -9   0 -139.14 187.870   1
   3  -9   0 3.65000 100.160   1
  -3   9   0 -62.020 99.0200   1
   3  -2  -9 311.820 76.3200   1
   3  -2  -9 469.930 89.6300   1
  -3   2   9 574.100 91.0400   1
   5  -5   6 1670.62 203.230   1
   5  -5   6 2448.38 209.220   1
   1   8  -6 897.460 102.660   1
  -1  -8   6 998.100 188.850   1
   4   8  -2 390.090 85.2000   1
  -4  -8   2 541.720 212.420   1
   4   8  -2 319.180 76.8200   1
   5  -6   4 132.250 166.570   1
   5  -6   4 142.840 128.880   1
   3   9  -2 2565.27 177.700   1
   3   9  -2 1782.63 166.910   1
  -3  -9   2 2118.03 250.370   1
   3   8  -4 6630.02 342.690   1
   3   8  -4 5662.18 308.040   1
  -3  -8   4 7203.73 496.970   1
   5   7  -1 10484.8 502.790   1
   5   7  -1 11346.1 527.100   1
   0   6  10 528.850 105.320   1
  -2  -1  10 241.870 122.380   1
   2   1 -10 160.680 73.2300   1
  -2  -1  10 211.700 102.500   1
   3   6  10 150.330 107.860   1
   3   4  11 6.45000 97.2600   1
  -3  -1   9 13693.9 361.510   1
   3   1  -9 12628.7 575.350   1
   3   1  -9 12940.0 590.380   1
  -1  -5   9 5295.57 314.920   1
   1   5  -9 3736.58 233.670   1
   4  -7   5 -22.980 154.890   1
  -4   7  -5 -104.33 108.020   1
   4  -7   5 76.0600 88.1700   1
  -1   9   6 1479.65 153.950   1
   1  -9  -6 1954.06 166.140   1
  -3   9  -1 3042.82 221.820   1
   3  -9   1 3334.96 217.750   1
   3  -9   1 2881.50 263.990   1
  -3   9  -1 3376.15 272.340   1
   6   2  -3 20.9700 75.7700   1
   6   2  -3 -63.540 84.3900   1
   6   4   7 376.450 113.590   1
   6   4   7 334.900 132.390   1
   6   4   7 205.410 97.0500   1
  -1   5  10 296.980 113.970   1
  -1 -10  -5 640.770 114.590   1
   1  10   5 817.080 126.900   1
   1  10   5 738.940 122.320   1
   4  -8   1 907.990 230.970   1
   4  -8   1 1437.61 167.060   1
   2  -8   6 11.1700 106.080   1
  -2   8  -6 -62.890 108.190   1
   4  -8   0 224.390 163.440   1
   4  -8   0 621.580 147.690   1
   3  -9  -1 429.400 199.190   1
  -3   9   1 520.010 149.680   1
   3  -9  -1 295.300 103.690   1
  -3   9   1 525.760 156.700   1
  -1 -10   2 1520.13 197.130   1
   1  10  -2 1109.81 128.440   1
  -1 -10   2 1317.33 214.220   1
   6   5   6 181.270 84.4800   1
   6   5   6 212.890 98.1500   1
   6   5   6 188.810 87.9200   1
   0   4  11 280.990 115.640   1
   5   0  -6 97.4700 67.4100   1
   5   0  -6 183.860 72.0000   1
  -4  -6   5 86.2300 212.070   1
   4   6  -5 92.6900 79.8000   1
   4   6  -5 116.440 81.6100   1
   6  -3  -2 832.860 121.820   1
   6  -3  -2 751.230 135.700   1
   4  -5   8 179.470 98.0000   1
  -4   5  -8 105.810 109.280   1
   4  -5   8 75.6200 92.3900   1
  -3   6  -8 603.240 98.3400   1
   3  -6   8 792.400 144.160   1
   3  -6   8 595.320 103.370   1
   5  -6  -2 467.950 100.190   1
   5  -6  -2 287.470 105.010   1
   6   6   3 338.850 105.990   1
   6   6   3 257.140 67.7000   1
  -2   9  -4 113.510 89.6300   1
   2  -9   4 70.9300 147.410   1
   4   9   1 3443.21 222.190   1
   4   9   1 4324.59 306.810   1
  -4  -9  -1 4446.25 344.520   1
   4   9   4 1227.32 140.070   1
   4   9   4 1404.75 152.480   1
   6  -4   4 1322.41 147.820   1
   6  -4   4 1118.34 162.560   1
  -1   1  11 283.450 114.740   1
   0   2 -11 4606.21 304.920   1
   0  -2  11 4701.28 312.110   1
   0  -2  11 4997.25 316.930   1
  -3   5  -9 164.750 99.6800   1
   3  -5   9 273.550 103.540   1
   3  -5   9 95.9900 142.220   1
   4   5  10 438.990 119.490   1
  -2 -10   1 312.650 192.650   1
   2  10  -1 311.900 100.460   1
  -2 -10   1 159.220 115.300   1
   3  -8   5 65.0100 149.760   1
  -3   8  -5 -107.93 133.730   1
   4   8   7 472.380 162.340   1
   6   1   8 -30.350 88.1100   1
   5  -1  -6 -51.810 86.2600   1
   5  -1  -6 22.6200 82.2800   1
   0  -9  -7 54.1700 95.5700   1
   0   9   7 30.6800 124.940   1
  -2  -4   9 6174.21 403.020   1
   2   4  -9 4586.37 281.310   1
  -3  -4   8 2114.67 254.550   1
   3   4  -8 2087.29 172.270   1
   6   6   2 201.080 129.220   1
   6   6   2 236.010 107.020   1
   6   6   2 383.350 98.0100   1
  -2   3  10 97.5400 81.9900   1
   6   2   8 42.0800 66.8400   1
   2   5  11 24.8200 77.7200   1
   1 -10   2 2277.37 279.600   1
   1 -10   2 2613.55 217.390   1
  -1  10  -2 2117.04 165.200   1
   5   5  -4 1175.24 117.390   1
   5   5  -4 1076.24 123.740   1
   3  -5  -8 884.050 169.700   1
  -3   5   8 849.300 106.130   1
   5   1  -6 437.770 97.4400   1
   5   1  -6 300.590 106.340   1
   5  -2   9 1707.00 179.640   1
   5  -2   9 1738.45 159.350   1
   5  -2   9 1188.97 130.110   1
   4  -8   2 198.420 97.7300   1
  -4   8  -2 59.1700 97.0900   1
   4  -8   2 134.440 121.540   1
   4  -8   2 95.2800 186.060   1
   6   6   4 2275.76 205.190   1
   6   6   4 2545.46 309.770   1
   6   6   4 2419.91 214.920   1
   0  -9   5 793.060 158.420   1
   0   9  -5 605.980 130.730   1
   4  -8  -1 191.040 212.570   1
   4  -8  -1 247.690 146.850   1
   4   5  -6 1415.26 146.250   1
  -4  -5   6 1533.38 212.990   1
   4   5  -6 1807.02 148.760   1
  -1   0  11 76.0900 120.060   1
   1   5  11 721.370 122.300   1
   4  -4   9 1702.12 190.360   1
   4  -4   9 2380.50 212.070   1
  -4   4  -9 1431.50 182.560   1
  -4   4   7 193.950 71.4500   1
   4  -4  -7 44.7100 64.2600   1
   4  -4  -7 -21.270 96.0700   1
   5   8   3 5193.16 361.830   1
   5   8   3 5071.16 310.710   1
   5   8   3 4415.23 280.130   1
  -1   2  11 -162.98 92.7600   1
   5   6   8 1317.84 152.480   1
   5   6   8 1540.92 174.800   1
   6   4  -2 -15.560 93.0700   1
   6   4  -2 2.10000 63.2500   1
   4  -7  -4 608.360 136.630   1
   6  -2  -3 5259.14 324.770   1
   6  -2  -3 5148.86 313.240   1
   4   7  -4 3914.42 249.630   1
   4   7  -4 4020.62 279.640   1
  -4  -7   4 4094.71 395.950   1
   5   6  -3 2255.16 181.240   1
   5   6  -3 2101.21 180.090   1
   3  -9   2 4370.06 295.540   1
  -3   9  -2 3326.38 302.190   1
   3  -9   2 4060.68 338.090   1
   2  10   5 -93.130 103.620   1
   5   8   2 1164.58 167.710   1
   5   8   2 1099.35 113.320   1
   5   8   2 1243.70 131.070   1
   6  -3   6 123.570 130.000   1
   0  10   5 409.050 113.810   1
   0 -10  -5 582.640 121.390   1
   0  10   5 523.930 134.130   1
   4  -6   7 62.1600 122.440   1
  -4   6  -7 309.320 117.720   1
   4  -6   7 483.770 125.760   1
   4   1  11 34.5000 97.1700   1
   3  -9  -2 156.960 111.380   1
  -3   9   2 268.100 111.880   1
   6  -4  -1 1255.47 131.230   1
   6  -4  -1 1698.36 163.000   1
   6   0   8 221.130 108.070   1
   6   0   8 239.340 105.180   1
   4   2  11 1288.81 135.990   1
   6  -2   7 65.2500 90.1000   1
   6  -2   7 -58.680 113.690   1
   1  -9   5 1821.59 242.770   1
  -1   9  -5 1250.89 142.530   1
   3  -3  -9 115.140 94.3200   1
  -3   3   9 197.040 81.2800   1
   3  10   2 15.0500 94.5500   1
   3  10   2 26.6800 64.9300   1
   5   8   4 21.7900 69.1800   1
   5   8   4 53.3100 104.940   1
   5   8   4 36.0800 89.3600   1
   5   1  10 47.8100 116.900   1
   6   5  -1 291.200 109.850   1
   6   5  -1 240.810 117.770   1
  -4   0   8 651.780 105.360   1
   4   0  -8 845.770 112.940   1
   4   0  -8 794.530 110.420   1
   5   2  10 48.9900 92.1000   1
   5  -5  -4 3171.77 231.900   1
   5  -5  -4 3777.40 271.460   1
  -4   1   8 10607.4 327.910   1
   4  -1  -8 9304.82 275.820   1
   4  -1  -8 8684.20 471.920   1
  -1   7  -8 8241.68 486.350   1
   1  -7   8 9359.07 308.600   1
   1  -7   8 8897.85 363.130   1
   3  10   3 1213.15 136.250   1
   3  10   3 1110.75 132.540   1
  -1   6  -9 803.430 112.410   1
   1  -6   9 1080.27 144.460   1
   1  -6   9 1480.77 209.270   1
   6   6   1 3760.24 307.420   1
   6   6   1 4102.37 263.780   1
   6   6   1 3741.27 250.930   1
  -1  10   4 813.650 142.350   1
  -1  10   4 779.270 144.590   1
   1 -10  -4 524.030 112.460   1
  -3   7  -7 113.160 112.150   1
   3  -7   7 -16.720 117.080   1
   3  -7   7 5.68000 177.450   1
   2   9  -4 2061.49 155.290   1
  -2  -9   4 2347.29 228.750   1
  -3   2 -11 2319.95 255.440   1
   3  -2  11 2266.74 178.020   1
   3  -2  11 2042.30 159.320   1
   6   3   8 924.980 103.930   1
  -2   9   5 65.8300 99.4500   1
   2  -9  -5 238.250 173.630   1
   7   1   3 47.6100 91.6000   1
   5   5   9 317.750 116.270   1
   3   2  -9 1487.63 143.170   1
  -3  -2   9 1591.22 209.350   1
   5  -2  -6 1124.82 106.320   1
   5  -4  -5 81.8200 107.610   1
   5  -4  -5 153.430 94.3500   1
   3  -8  -5 238.590 115.060   1
  -3   8   5 215.140 117.650   1
   7   1   2 161.160 142.350   1
   2   2 -10 4925.29 295.870   1
  -2  -2  10 6669.74 392.430   1
   5   4  -5 1164.79 129.770   1
   5   4  -5 1062.79 127.020   1
  -4  -9   0 150.920 204.620   1
   4   9   0 -54.480 90.0500   1
   4   9   0 73.5700 56.6600   1
   4   9   5 281.990 81.8300   1
   4   9   5 500.300 172.630   1
  -1   3 -11 2059.72 193.950   1
   1  -3  11 2171.44 207.360   1
   6   3  -3 13.2600 90.0700   1
   6   3  -3 -10.390 94.0000   1
   3  10   1 4014.29 290.680   1
   3  10   1 3946.36 272.790   1
  -3 -10  -1 4617.93 420.070   1
   5   7   7 1228.19 157.350   1
   5   7   7 1320.34 174.170   1
   5   8   1 2941.75 278.960   1
   5   8   1 2545.67 209.170   1
   5   8   1 2565.02 194.690   1
   6   6   5 67.8300 81.5600   1
   6   6   5 75.6000 113.380   1
   6   6   5 69.6200 99.3300   1
   0  10  -3 730.780 97.9600   1
   0 -10   3 775.310 206.230   1
   3  -4  10 261.480 105.810   1
  -3   4 -10 103.100 102.280   1
   4   0  11 180.560 89.2900   1
   4   0  11 95.1600 78.2100   1
   0  -7   8 58.1000 126.940   1
   0  -7   8 94.3600 121.580   1
   0   7  -8 42.1000 106.110   1
   1   8   9 63.5700 80.3200   1
   7   0   3 387.260 95.8700   1
   2 -10   0 935.620 220.090   1
   2 -10   0 1024.10 130.720   1
  -2  10   0 941.310 127.270   1
  -2  10   0 1155.28 171.240   1
   5   2  -6 1340.11 143.910   1
   5   2  -6 1424.47 124.620   1
  -1  -1  11 21.2100 94.4400   1
  -1  -1  11 142.410 134.210   1
   7   0   2 650.570 119.260   1
  -2  10   1 189.520 138.890   1
   2 -10  -1 67.5900 105.250   1
   2 -10  -1 -34.010 269.630   1
  -2  10   1 123.140 123.220   1
   7   2   3 3391.75 235.400   1
  -4   8  -3 510.690 132.240   1
   4  -8   3 404.140 105.570   1
   4  -8   3 495.870 145.620   1
   2   8   9 2957.32 227.030   1
   4   3  11 122.860 90.2400   1
   5  -6   5 1570.92 222.160   1
   5  -6   5 1535.45 151.160   1
   3   9   7 337.800 126.050   1
  -4  -1   8 104.890 98.7600   1
   4   1  -8 144.530 78.2900   1
   4   1  -8 237.320 99.7600   1
  -1   3  11 189.330 100.310   1
   5   0  10 1381.18 129.020   1
   5   0  10 1363.81 134.080   1
   7   1   4 0.87000 109.370   1
   4  -8  -2 1895.18 172.160   1
  -2   7   8 1.64000 119.640   1
   2  -7  -8 9.93000 124.100   1
  -1   7   9 866.490 128.050   1
   2   1  12 4088.55 253.150   1
   7   2   2 2046.62 184.920   1
   2   7  10 97.7700 116.500   1
  -1   8   8 333.070 108.340   1
   1  -8  -8 201.020 86.5000   1
   2  -3  11 2.69000 106.150   1
  -2   3 -11 128.450 124.990   1
   5   3  10 333.480 101.050   1
   6  -4   5 74.2200 103.820   1
   0  -6   9 658.590 122.640   1
   0  -6   9 907.250 181.830   1
   0   6  -9 788.200 114.500   1
   1   1  12 153.870 120.900   1
   1   7  10 93.9900 95.3600   1
   1   9  -5 1952.87 197.490   1
  -1  -9   5 2145.72 225.530   1
   2   2  12 895.310 110.700   1
   3  10   4 10.3700 97.8500   1
   3  10   4 -102.96 103.510   1
  -4   2   8 -64.780 90.2000   1
   4  -2  -8 81.4300 64.1200   1
   4  -2  -8 -19.150 101.260   1
   3   5  11 110.940 84.7900   1
   7   1   1 98.0400 107.270   1
   7   2   4 35.0600 118.210   1
   1   2  12 411.360 122.520   1
   5   8   5 1271.61 150.330   1
   5   8   5 1145.87 150.730   1
   5   8   5 1139.29 128.260   1
   2 -10   1 291.500 232.570   1
  -2  10  -1 382.620 131.070   1
   2 -10   1 433.420 106.610   1
  -2  10  -1 528.870 164.430   1
   7   0   4 -110.22 141.610   1
   5   7  -2 -105.67 81.2900   1
   5   7  -2 18.3500 77.6800   1
   2   7  -7 14.9000 80.3400   1
  -2  -7   7 -25.620 151.080   1
  -3   9  -3 1387.73 185.920   1
   3  -9   3 1516.86 201.190   1
   6   5   7 165.900 88.5500   1
   6   5   7 163.280 81.2200   1
   6   5   7 163.340 114.680   1
   4  -3  10 1951.46 202.050   1
  -4   3 -10 1683.82 164.220   1
   6  -1   8 428.130 127.850   1
   6  -1   8 328.320 128.200   1
   2  -6   9 373.220 157.960   1
  -2   6  -9 159.360 109.390   1
   2  -6   9 48.2400 117.470   1
   7   0   1 1683.19 157.250   1
   1   4 -10 243.990 72.0200   1
  -1  -4  10 679.400 140.370   1
   4   4  -7 123.500 102.600   1
  -4  -4   7 139.660 142.030   1
   6   0  -4 -26.310 88.4100   1
   6   0  -4 172.500 123.410   1
   5  -7   1 163.200 126.650   1
   5  -7   1 4.75000 141.070   1
   5  -7   1 217.250 106.580   1
   2 -10  -2 -52.890 139.310   1
  -2  10   2 137.960 123.720   1
   2 -10  -2 96.5100 127.250   1
  -2  10   2 22.0400 113.540   1
  -1 -10  -6 318.470 118.890   1
   1  10   6 257.710 95.0200   1
   2  10  -2 5158.31 330.320   1
  -2 -10   2 5524.05 475.080   1
  -1   8  -7 89.2700 112.580   1
   1  -8   7 208.880 157.460   1
   5  -6  -3 201.070 122.320   1
   5  -6  -3 38.5600 82.1600   1
   2  -8  -7 277.200 129.530   1
  -2   8   7 284.460 117.250   1
  -2   4  10 -38.420 96.4600   1
   1  10  -3 3.06000 71.8500   1
  -1 -10   3 -149.45 207.950   1
   1  -5  10 1972.38 194.950   1
  -1   5 -10 2112.55 196.510   1
   5  -4   8 3655.40 267.260   1
   5  -4   8 3400.11 271.460   1
   1 -10   3 3250.35 309.380   1
   1 -10   3 3309.28 230.420   1
  -1  10  -3 2918.56 269.780   1
   2   0  12 4.56000 115.950   1
  -3   9   3 574.200 119.270   1
   3  -9  -3 406.000 93.8300   1
   0  -8   7 1994.42 208.000   1
   0   8  -7 1570.20 155.810   1
   1   0  12 166.820 73.3000   1
   3   9  -3 1020.35 101.700   1
  -3  -9   3 1337.02 194.240   1
   0   5  11 144.590 114.860   1
   6  -5   2 77.4300 94.3800   1
   6  -5   2 -26.360 122.890   1
   6   1  -4 5870.09 349.200   1
   6   1  -4 5604.56 358.950   1
   2  -7   8 -110.00 145.520   1
   2  -7   8 124.500 119.490   1
  -2   7  -8 33.0400 157.070   1
   3  10   0 797.500 108.340   1
  -3 -10   0 907.500 285.930   1
  -3  -7   6 10577.2 443.960   1
   3   7  -6 8551.57 447.850   1
  -2  -6   8 -64.480 160.320   1
   2   6  -8 -98.740 93.5400   1
   6  -5   1 3662.08 256.970   1
   6  -5   1 2773.47 204.330   1
  -4  -8   3 1596.96 219.280   1
   4   8  -3 2090.33 161.950   1
   4   8  -3 1772.56 165.960   1
   5  -7   2 1281.86 162.430   1
   5  -7   2 1087.93 214.270   1
   5  -7   2 1245.30 156.590   1
   4   7   9 509.750 128.070   1
   5  -7   0 -62.980 119.730   1
   5  -7   0 -174.87 144.910   1
   5  -7   0 -30.620 99.9800   1
   7   2   1 3299.77 236.610   1
   7  -1   2 1326.57 151.530   1
   7  -1   2 791.100 125.970   1
   7  -1   3 383.890 124.270   1
   7  -1   3 446.030 101.380   1
   6   6   0 1987.19 202.980   1
   6   6   0 1800.61 155.010   1
   6   6   0 1748.51 149.500   1
   3   6  -7 78.3800 81.6900   1
  -3  -6   7 93.7300 105.600   1
   6  -3  -3 -40.430 67.5800   1
   6  -3  -3 5.50000 94.5000   1
  -2   6   9 3988.57 250.720   1
   1   9   8 81.6200 112.500   1
   4  -7   6 48.5300 153.530   1
  -4   7  -6 2.68000 117.790   1
   2   3  12 129.840 70.9500   1
   6  -1  -4 2481.81 183.910   1
   7   3   3 880.020 141.180   1
   7   3   3 1522.60 203.030   1
   5  -5   7 661.120 122.500   1
   5  -5   7 807.360 147.220   1
   0  -3  11 1284.17 158.140   1
   0   3 -11 1132.81 167.990   1
   6   4   8 2252.35 189.010   1
   5   8   0 0.50000 76.8400   1
   5   8   0 10.3500 75.9100   1
   6  -4  -2 160.390 105.230   1
   6  -4  -2 104.110 102.050   1
   7   1   5 600.970 117.270   1
   2  10   6 928.100 131.720   1
   4  -1  11 84.5700 86.0400   1
   4  -1  11 9.65000 90.2100   1
   2   9   8 3582.25 263.640   1
   4  -6  -6 38.0700 126.560   1
   4  -6  -6 -20.210 74.6900   1
   1   3  12 316.850 97.1100   1
   6  -5   3 1268.34 144.510   1
   6  -5   3 1375.52 138.340   1
   2   8  -6 3272.72 217.860   1
  -2  -8   6 4046.69 353.100   1
   7   3   2 384.690 90.6000   1
   7   3   2 564.400 127.980   1
   5  -3  -6 44.3900 73.3400   1
   5  -3  -6 -50.540 74.7200   1
   4   2  -8 103.000 79.8400   1
   4   2  -8 10.5300 91.8600   1
  -2   9  -5 275.200 86.0600   1
  -3   4   9 69.1600 80.4200   1
   6   6   6 258.000 86.8100   1
   6   6   6 447.930 109.120   1
   6   6   6 598.860 139.170   1
   7   2   5 346.670 94.6900   1
   7   3   4 119.160 96.4200   1
   5  -1  10 617.540 125.830   1
   5  -1  10 647.880 105.860   1
   4   4  11 273.530 115.370   1
   2  -5  10 414.170 137.880   1
  -2   5 -10 165.080 130.290   1
   7  -1   1 922.620 137.330   1
   7  -1   1 491.830 118.430   1
  -4  -9   1 3363.30 333.980   1
   4   9  -1 2863.66 188.010   1
   4   9  -1 2674.84 193.260   1
   6  -5   0 1117.01 112.900   1
   6  -5   0 1358.09 145.680   1
  -1   6  10 1469.97 157.000   1
   4   9   6 289.810 144.500   1
   5  -3   9 1416.98 178.330   1
   5  -3   9 1046.08 141.310   1
   4   6  10 6.88000 101.480   1
   0   8   9 -93.670 135.820   1
   7  -1   4 6418.90 368.600   1
   7  -1   4 5714.79 309.430   1
  -2  10  -2 180.110 124.840   1
   2 -10   2 51.9800 133.780   1
   2 -10   2 -2.0300 160.030   1
   3  10   5 4984.37 325.120   1
   7   0   5 212.130 100.440   1
   5   4  10 216.350 80.5200   1
   1  -9  -7 120.760 88.2300   1
  -1   9   7 60.5500 94.0000   1
   7   1   0 611.850 126.100   1
   4   8   8 127.280 119.760   1
   0   5 -10 775.580 100.580   1
   0  -5  10 1065.58 166.250   1
  -1  -2  11 -0.8500 119.700   1
   1   2 -11 77.7300 91.2700   1
   6   2  -4 979.870 104.120   1
   6   2  -4 1043.62 122.450   1
   0  10   6 1.95000 113.830   1
   0 -10  -6 -30.170 96.7600   1
  -4   8  -4 700.180 117.650   1
   4  -8   4 1164.76 154.000   1
   4  -8   4 1051.89 160.430   1
   5  -7   3 344.600 105.300   1
   5  -7   3 545.080 183.970   1
   5  -7   3 350.100 126.530   1
   3   1  12 738.170 122.740   1
  -4   3   8 147.870 94.9800   1
   4  -3  -8 148.290 102.430   1
   4  -3  -8 59.3300 87.7700   1
   1 -10  -5 866.660 125.490   1
  -1  10   5 661.470 116.660   1
  -1  10   5 742.340 212.110   1
   2   6  11 1187.86 139.500   1
  -3  -3   9 122.130 134.370   1
   3   3  -9 134.900 79.8100   1
   5   3  -6 1164.50 102.900   1
   5   3  -6 1366.73 136.870   1
   7   0   0 1465.30 136.790   1
  -3   8  -6 3216.97 246.960   1
   3  -8   6 3365.78 268.380   1
   3   8   9 970.920 129.230   1
   5  -7  -1 83.9700 100.580   1
   5  -7  -1 24.9800 89.3100   1
   3   2  12 25.8800 98.5300   1
   3   7  10 766.990 136.210   1
   2 -10  -3 176.670 119.150   1
  -2  10   3 209.820 97.3400   1
  -2  10   3 68.4800 105.490   1
  -1   4  11 15.3700 100.520   1
  -3  -8   5 4988.18 395.900   1
   3   8  -5 4536.01 255.210   1
   4  -5  -7 56.4700 97.6500   1
   6  -3   7 2.53000 131.370   1
   6  -3   7 -152.72 106.870   1
   4  -8  -3 853.490 107.580   1
   6   5  -2 1822.55 146.060   1
   6   5  -2 1939.42 160.750   1
  -1 -11  -2 501.110 128.380   1
   1  11   2 277.830 108.990   1
  -1 -11  -2 474.360 230.360   1
   1  11   2 413.090 113.040   1
   3  -7  -7 88.2600 108.920   1
  -3   7   7 197.800 110.870   1
   1   6  11 492.550 117.010   1
   1  -1  12 2261.75 166.230   1
   1  -1  12 2230.33 184.530   1
   0   7  10 345.440 146.620   1
   1  11   1 7.25000 108.370   1
  -1 -11  -1 239.070 173.640   1
   1  11   1 274.610 125.240   1
  -1 -11  -1 17.1700 107.720   1
  -1  -7   8 3.41000 195.270   1
  -1  -7   8 141.270 120.500   1
   1   7  -8 180.690 114.110   1
  -2  -3  10 1989.10 178.560   1
   2   3 -10 1495.39 136.180   1
   0   1  12 2065.12 154.720   1
   2  -1  12 1164.14 152.080   1
   2  -1  12 1344.29 151.330   1
   6   4  -3 257.350 78.1100   1
   6   4  -3 468.540 103.850   1
   5   8   6 -72.230 115.350   1
   4  -7  -5 -24.400 116.790   1
   0  11   1 838.430 141.720   1
   0 -11  -1 715.680 131.020   1
   0  11   1 562.470 124.470   1
   0 -11  -1 822.630 260.820   1
   7   3   1 463.740 100.740   1
   7   3   1 615.700 110.130   1
   3   5  -8 236.160 95.5100   1
  -3  -5   8 213.110 153.200   1
  -2   8  -7 543.140 122.850   1
   2  -8   7 832.590 256.980   1
   0 -11  -2 1294.64 148.550   1
   0 -11  -2 1139.03 250.380   1
   0  11   2 1427.41 150.360   1
   0  11   2 1535.18 166.880   1
   7   2   0 9769.13 457.480   1
   7   2   0 12360.4 352.230   1
   6  -2  -4 73.4400 83.3400   1
   6  -2  -4 80.5700 99.9200   1
   0   2  12 64.3500 111.530   1
  -3   3 -11 217.840 130.070   1
   3  -3  11 50.9000 106.660   1
   6   1   9 51.2100 100.840   1
  -3   6   8 63.7500 86.3100   1
   2   5  -9 103.780 88.2900   1
  -2  -5   9 -86.890 158.120   1
   7   3   5 136.330 136.980   1
   6  -5   4 1001.63 124.570   1
   6  -5   4 771.460 145.440   1
   3   0  12 3847.63 227.380   1
   6  -4   6 -15.360 91.4900   1
   1  11   3 -140.77 132.010   1
   1  11   3 21.4300 97.7100   1
  -1 -11  -3 -18.860 117.880   1
   3  10  -1 9003.58 412.770   1
  -3 -10   1 10720.5 576.670   1
   6   7   3 1145.46 130.900   1
   6   7   3 1115.01 104.730   1
   6   7   3 1226.55 142.140   1
   0   0  12 163.550 93.4200   1
   0  -9  -8 4844.74 294.520   1
   0   9   8 4483.73 268.260   1
   5   6   9 624.350 113.170   1
   3   3  12 115.370 83.1600   1
   6  -2   8 61.4800 128.010   1
   6  -2   8 -56.810 118.990   1
   3  -9   4 1432.77 139.690   1
  -3   9  -4 1489.25 154.860   1
   3  -9   4 1358.16 191.820   1
   0 -11   0 1360.56 257.610   1
   0  11   0 1317.37 182.210   1
   0 -11   0 1243.98 151.900   1
   0  11   0 1059.07 134.930   1
   7  -2   2 2274.97 207.030   1
   7  -2   2 1999.62 161.700   1
   2   4  12 335.060 106.690   1
  -1  -8   7 363.730 275.270   1
   1   8  -7 16.6300 92.2100   1
   5  -6   6 65.8100 146.580   1
   5  -6   6 183.790 139.300   1
   0 -10   4 808.840 201.390   1
   0  10  -4 524.360 109.020   1
  -1  -6   9 2090.71 175.700   1
   1   6  -9 2018.80 174.500   1
  -1  -6   9 2472.93 216.110   1
   7  -1   0 865.550 126.330   1
   7  -1   0 454.250 103.280   1
   5   6  -4 1598.42 136.670   1
   5   6  -4 1614.05 147.690   1
  -2   9   6 258.480 99.8000   1
   2  -9  -6 459.150 99.5600   1
   7  -2   3 584.160 119.420   1
  -1 -11   0 7834.09 534.520   1
  -1 -11   0 5585.46 341.360   1
   1  11   0 6685.80 380.030   1
   5   7   8 -19.230 122.000   1
   6  -5  -1 7.81000 89.5800   1
   6  -5  -1 179.820 90.8700   1
   0   9  -6 491.760 108.310   1
   0  -9   6 818.850 204.400   1
   6   7   2 283.780 94.7500   1
   6   7   2 242.070 118.280   1
   6   7   2 276.180 106.520   1
   6   7   4 139.840 99.2200   1
   6   7   4 160.080 70.6700   1
   6   7   4 89.6400 76.6800   1
   7  -1   5 397.530 104.870   1
  -3   9   4 486.720 119.960   1
   3  -9  -4 504.290 137.900   1
   7   1   6 -6.4200 116.790   1
   7   1   6 -67.620 114.230   1
   5  -5  -5 48.0800 54.9200   1
   5  -5  -5 45.9000 104.700   1
   7   4   3 940.090 155.190   1
   7   4   3 970.080 151.020   1
   1   4  12 208.290 108.140   1
   5   5  -5 14.0500 98.7100   1
   5   5  -5 107.650 100.760   1
   4   6  -6 1482.62 130.660   1
  -4  -6   6 1685.77 267.710   1
   4   6  -6 1598.14 137.260   1
   1  -9   6 348.520 160.320   1
  -1   9  -6 227.750 84.2100   1
   6   6  -1 9952.47 286.110   1
   6   6  -1 9674.65 441.200   1
  -4   5  -9 162.650 121.310   1
   4  -5   9 360.350 120.120   1
   4  -5   9 455.120 126.200   1
   6   0   9 212.710 107.810   1
   0  11   3 268.360 156.720   1
   0  11   3 167.420 90.3200   1
   0 -11  -3 232.760 125.980   1
   7   2   6 125.690 100.320   1
   3  -8  -6 58.5100 124.890   1
  -3   8   6 120.160 100.390   1
  -4  -7   5 5137.88 427.630   1
   4   7  -5 3777.09 247.250   1
   4   7  -5 3897.30 226.260   1
   7  -2   1 189.270 115.020   1
   7  -2   1 466.450 164.950   1
   5   8  -1 550.460 110.480   1
   5   8  -1 401.730 74.3200   1
   1  -4  11 1027.59 159.260   1
  -1   4 -11 563.240 123.020   1
   6   3   9 171.100 86.4500   1
   7   4   4 683.400 128.600   1
   7   4   4 509.410 107.980   1
   4  -6   8 884.670 196.580   1
   4  -6   8 1076.65 139.450   1
  -4   6  -8 1138.90 189.470   1
   7   4   2 -30.470 107.620   1
   7   4   2 16.3700 79.8600   1
   3   9   8 331.990 111.790   1
   5  -7   4 973.520 193.490   1
   5  -7   4 1240.96 164.230   1
  -2 -10   3 1584.63 267.410   1
   2  10  -3 1382.74 143.880   1
   0   3  12 392.580 113.590   1
  -1  10  -4 234.760 88.7300   1
   1 -10   4 61.0900 221.770   1
   3   6  11 -47.460 115.570   1
  -2  -9   5 987.690 175.540   1
   2   9  -5 735.290 111.830   1
   5  -7  -2 113.390 91.4900   1
  -3   6  -9 47.2800 116.170   1
   3  -6   9 7.40000 146.550   1
   3  -6   9 -65.380 95.6600   1
  -2   5  10 550.390 107.930   1
   5   0  -7 108.150 95.0900   1
   5   0  -7 186.530 100.070   1
   4  -2  11 -61.310 68.9600   1
   4  -2  11 -8.0400 98.4400   1
  -2  10  -3 1052.93 166.530   1
   2 -10   3 1081.47 170.900   1
   2 -10   3 695.220 164.140   1
  -2 -11  -2 87.9700 286.170   1
   2  11   2 50.5800 87.7800   1
   2  11   2 223.690 111.870   1
   6   5   8 345.590 139.380   1
   6   5   8 210.890 89.7700   1
   6   3  -4 109.600 101.590   1
   6   3  -4 276.080 84.3900   1
   7  -2   4 25.8400 98.7400   1
   7  -2   4 -20.980 97.4300   1
   7   0   6 4203.32 296.400   1
   7   0   6 4321.65 279.830   1
   5  -6  -4 510.190 136.940   1
   5  -6  -4 795.860 161.350   1
   4   3  -8 531.130 119.820   1
   4   3  -8 713.430 103.630   1
   5  -2  10 355.010 117.380   1
   5  -2  10 224.000 103.660   1
   5   7  -3 1595.97 130.650   1
   5   7  -3 1491.99 127.810   1
  -3   1  10 1507.46 131.050   1
  -2   4 -11 1215.63 167.990   1
   2  -4  11 1157.42 139.260   1
   5  -1  -7 13.1500 80.9600   1
   5  -1  -7 113.760 86.2700   1
   3  10   6 -56.280 142.430   1
   6   6   7 11.0800 99.0900   1
   6   6   7 4.77000 96.4200   1
   7   1  -1 949.110 128.430   1
   7   3   0 2518.79 197.340   1
   7   3   0 2282.42 162.250   1
   1  11   4 833.530 151.850   1
   1  11   4 892.070 148.280   1
  -1 -11  -4 740.020 123.580   1
  -1 -10  -7 81.9200 102.070   1
   1  10   7 180.320 128.740   1
   7   0  -1 24.1400 77.5100   1
   0 -11   1 593.030 125.980   1
   0  11  -1 210.570 111.400   1
   0 -11   1 552.720 168.040   1
   4   5  11 2020.44 180.250   1
   2  11   1 2884.57 188.990   1
  -2 -11  -1 3548.74 402.500   1
   2  11   1 3629.87 246.590   1
   2  11   3 1358.31 136.530   1
   2  11   3 1094.95 178.690   1
  -3   0  10 692.900 164.710   1
  -3   0  10 687.380 120.590   1
   3   0 -10 684.560 102.200   1
  -1 -10   4 4302.50 355.200   1
   1  10  -4 3329.51 210.300   1
   6   7   1 5161.43 314.740   1
   6   7   1 5239.56 281.460   1
   6   7   1 4698.15 253.670   1
   6  -4  -3 939.610 132.450   1
   6  -4  -3 1142.47 138.300   1
   0  -1  12 179.460 102.440   1
   0  -1  12 17.7600 150.300   1
   2 -10  -4 86.6600 96.7400   1
  -2  10   4 2.75000 113.170   1
   6   7   5 752.590 148.040   1
   6   7   5 704.590 125.620   1
   6   7   5 865.660 144.500   1
   5  -4  -6 176.780 119.360   1
   5  -4  -6 59.3100 93.1000   1
   3  -1  12 213.550 98.3600   1
   3  -1  12 43.9500 96.1800   1
   5   5  10 -17.460 117.540   1
   5   1  -7 604.090 119.360   1
   5   1  -7 564.120 114.020   1
   3  -7   8 7050.47 414.560   1
  -3   7  -8 6293.42 368.100   1
   3  -7   8 6590.23 331.770   1
   4   9  -2 184.280 74.3900   1
   4   9  -2 52.3800 73.8200   1
  -2   0  11 22.6600 75.7400   1
   4   9   7 1067.62 147.080   1
   0   6  11 -76.380 98.9900   1
   3  -5  10 82.2400 134.170   1
   3  -5  10 289.490 144.090   1
  -3   5 -10 279.770 122.890   1
   7   3   6 273.000 130.980   1
  -1  11   1 36.2500 99.4100   1
   1 -11  -1 -150.65 131.330   1
   1 -11  -1 306.740 222.030   1
  -1  11   1 266.940 150.960   1
   1  -2  12 1228.12 126.840   1
   1  -2  12 1137.15 134.200   1
  -1 -11   1 1665.83 166.780   1
  -1 -11   1 1065.27 244.140   1
   1  11  -1 1473.08 136.060   1
  -4   4 -10 116.420 120.770   1
   4  -4  10 216.110 135.880   1
   4  -4  10 7.44000 85.5500   1
   4   5  -7 -8.4000 80.3300   1
  -4  -5   7 -66.340 143.770   1
   4   5  -7 117.990 76.7400   1
   4  -4  -8 215.430 95.8000   1
   4  -4  -8 26.5100 86.1800   1
   2  10   7 209.830 119.230   1
   3   4  12 458.980 134.460   1
   7   4   5 1762.88 173.180   1
   7   4   5 1975.18 194.910   1
   2  -2  12 1784.21 144.870   1
   2  -2  12 2202.25 176.250   1
  -2   2  11 9.42000 109.310   1
   7   4   1 761.510 105.020   1
   7   4   1 719.910 139.090   1
   4  -8   5 471.910 147.720   1
  -4   8  -5 344.120 127.620   1
   4  -8   5 295.140 164.870   1
  -3   2  10 578.960 90.2100   1
   3   9  -4 4083.67 235.860   1
  -3  -9   4 5109.13 441.420   1
   6  -5   5 1982.00 192.620   1
  -1  -3  11 244.830 124.170   1
   1   3 -11 -50.380 67.1300   1
   7  -2   0 145.900 92.4100   1
   7  -2   0 179.640 103.550   1
  -3   5   9 24.7800 86.8800   1
   6  -3  -4 0.72000 88.7900   1
   6  -3  -4 348.320 113.320   1
  -1  11   0 5858.63 341.370   1
   1 -11   0 5764.19 369.930   1
   1 -11   0 6301.03 369.850   1
  -1  11   0 5446.78 313.430   1
   4  10   3 2107.21 164.480   1
   4  10   3 1960.40 205.660   1
   7   2  -1 247.720 107.620   1
   7   2  -1 189.150 128.120   1
   4  10   2 388.070 85.8200   1
   4  10   2 401.520 135.590   1
  -1  11   2 1407.04 184.870   1
   1 -11  -2 1232.17 150.490   1
   1 -11  -2 1776.17 256.050   1
  -1  11   2 1421.07 156.390   1
   5   8   7 77.3600 97.7800   1
   4  -8  -4 1155.52 161.180   1
   0  11   4 1375.54 178.490   1
   0 -11  -4 1489.20 151.160   1
   0  11   4 1401.03 282.790   1
   1   9  -6 2225.40 177.810   1
  -1  -9   6 2489.06 246.400   1
   0  -4  11 1561.02 180.950   1
   0   4 -11 721.780 108.800   1
   5   4  -6 218.120 86.9800   1
   5   4  -6 278.510 138.700   1
  -1   5  11 3975.98 233.410   1
   4   8  -4 1086.12 105.410   1
  -4  -8   4 1527.13 233.960   1
   4   8  -4 1273.53 124.120   1
   7  -1  -1 271.650 80.2500   1
   7  -1  -1 351.710 128.080   1
   6  -1   9 90.2000 119.600   1
   6  -1   9 32.6200 130.120   1
   1   5 -10 385.730 111.090   1
  -1  -5  10 270.060 144.270   1
   5   9   3 91.3600 73.4700   1
   5   9   3 70.4300 108.720   1
   5   2  11 370.680 99.1900   1
   5  -2  -7 702.760 126.520   1
   5  -2  -7 437.440 110.460   1
   5   1  11 142.920 88.1500   1
  -3  -1  10 705.560 105.440   1
   3   1 -10 947.040 115.720   1
   2  11   0 95.6200 105.940   1
  -2 -11   0 59.6900 158.010   1
  -4   7  -7 74.7800 107.510   1
   4  -7   7 87.0000 173.930   1
   2  11   4 6.59000 83.9700   1
   2  11   4 103.360 99.0000   1
   6   0  -5 -50.580 96.6300   1
   6   0  -5 193.950 116.540   1
   4  -9   0 349.250 157.840   1
   4  -9   0 320.810 112.340   1
   1 -10  -6 802.130 148.630   1
  -1  10   6 721.900 137.070   1
   6   4   9 4106.03 246.470   1
   6  -5  -2 1700.09 146.390   1
   6  -5  -2 1374.66 211.380   1
   4  -9   1 -70.960 202.350   1
   4  -9   1 -14.460 120.920   1
   7  -1   6 73.7100 93.3800   1
   5   9   2 -31.040 80.9900   1
   5   9   2 96.8600 125.070   1
   2   8  10 -33.100 99.5100   1
  -3  -4   9 156.450 114.690   1
   3   4  -9 56.2800 96.4700   1
   7  -2   5 34.7900 94.6700   1
   7  -2   5 117.080 112.300   1
   3  10  -2 509.860 91.3700   1
  -3 -10   2 635.280 255.080   1
   4  10   4 3819.68 243.520   1
   4  10   4 3817.12 249.010   1
   1   8  10 -6.9700 87.9200   1
   5  -5   8 113.130 96.6000   1
   5  -5   8 -47.450 103.780   1
   5   9   4 11110.6 440.980   1
   5   9   4 11768.8 359.770   1
   1  -7   9 5511.63 316.560   1
   1  -7   9 5690.47 335.440   1
  -1   7  -9 4648.10 260.140   1
   2   5  12 603.480 147.200   1
   2  -9   6 461.670 169.960   1
  -2   9  -6 268.970 133.780   1
  -2  -1  11 387.580 124.240   1
  -2  -1  11 270.620 79.7000   1
   6   1  -5 2086.80 152.870   1
   6   1  -5 2249.04 156.870   1
  -3  10   0 249.530 128.030   1
  -3  10   0 193.330 136.220   1
   3 -10   0 148.170 232.960   1
   3 -10   0 245.430 170.560   1
  -1   8   9 450.570 194.860   1
   0   4  12 50.6600 116.880   1
  -4 -10  -1 2346.01 299.900   1
   4  10   1 1943.05 131.770   1
   4  10   1 2622.43 223.340   1
   0  10   7 -85.620 122.760   1
   0 -10  -7 -2.2200 101.470   1
   7  -3   2 1235.84 120.540   1
   7  -3   2 1724.77 154.780   1
   5  -4   9 478.190 115.140   1
   5  -4   9 483.520 170.100   1
   6  -1  -5 486.590 93.1200   1
   6  -1  -5 359.210 99.9200   1
  -1  11  -1 1247.01 148.330   1
   1 -11   1 1924.44 286.310   1
   1 -11   1 1755.57 171.360   1
  -2   8   8 -107.38 102.300   1
   2  -8  -8 -17.130 110.090   1
   5   2  -7 851.470 113.380   1
   5   2  -7 763.740 94.4400   1
  -2  -4  10 493.340 173.290   1
   2   4 -10 295.700 139.630   1
   6   5  -3 3560.84 200.980   1
   6   5  -3 2402.23 144.480   1
   4   2  12 653.280 118.780   1
   4   1  12 307.730 108.670   1
   4  -9  -1 -81.830 114.430   1
  -2   7   9 855.640 152.970   1
   7  -3   3 463.270 129.080   1
   7  -3   3 275.200 112.650   1
   7   1   7 -2.3000 122.140   1
   7   1   7 90.7100 131.920   1
   5   3  11 140.290 97.4100   1
   6   7   0 183.270 77.4400   1
   6   7   0 286.000 74.2000   1
   6   7   0 293.900 135.790   1
   3 -10  -1 514.970 144.400   1
  -3  10   1 606.630 152.770   1
   3 -10  -1 631.310 171.570   1
  -3  10   1 658.080 134.820   1
   6   7   6 137.930 118.780   1
   6   7   6 114.280 85.7900   1
   1   5  12 789.270 132.880   1
   4   7  10 -51.690 125.730   1
   3  -9   5 31.7900 164.630   1
   3  -9   5 213.880 151.910   1
  -3   9  -5 102.910 161.390   1
  -2   3  11 291.720 108.220   1
   3 -10   1 659.650 208.500   1
   3 -10   1 1006.51 118.310   1
  -3  10  -1 760.650 162.660   1
   6  -6   2 65.0300 104.060   1
   6  -6   2 -81.020 116.890   1
   6  -6   1 356.200 129.020   1
   6  -6   1 271.260 105.490   1
   5   0  11 49.1800 118.360   1
   5   0  11 -86.360 116.990   1
  -1  11   3 -29.740 130.140   1
  -1  11   3 27.1700 120.360   1
   1 -11  -3 96.1000 121.800   1
   7   2   7 1141.16 142.850   1
   7   2   7 1269.64 163.950   1
   1   9   9 -109.91 100.440   1
  -4   9  -2 98.8400 131.120   1
   4  -9   2 -36.270 171.640   1
   4  -9   2 160.260 131.240   1
   0 -11   2 206.650 108.770   1
   0 -11   2 74.2000 192.350   1
   0  11  -2 249.260 108.480   1
   2   9   9 1657.84 155.570   1
   6  -3   8 118.740 90.4100   1
   6  -3   8 334.020 121.590   1
   6  -4   7 867.800 130.480   1
   1  11   5 253.570 134.840   1
   5  -7   5 -40.150 132.960   1
   5  -7   5 103.580 132.590   1
   4   8   9 116.560 107.660   1
   4   0  -9 1939.05 161.140   1
   4   0  -9 2126.45 168.180   1
   4  -1  -9 28.8400 76.7100   1
   4  -1  -9 12.2900 119.460   1
  -4   1   9 -49.410 100.340   1
   1  -6  10 5356.29 327.360   1
  -1   6 -10 4073.35 259.120   1
   1  -6  10 4320.22 255.000   1
   7  -3   1 337.400 128.770   1
   7  -3   1 223.360 116.550   1
   7   5   3 210.870 96.9300   1
   7   5   3 45.2900 96.4300   1
   5  -7  -3 92.1400 130.210   1
  -3   3  10 -11.950 87.1600   1
   1  -8   8 574.340 179.480   1
   1  -8   8 235.680 134.090   1
  -1   8  -8 402.730 125.050   1
   0   7  -9 2350.14 178.340   1
   0  -7   9 2899.65 210.060   1
   0  -7   9 2655.45 232.870   1
   5   9   1 2228.85 155.130   1
   5   9   1 2724.48 220.330   1
   2   7  11 167.250 111.460   1
  -1   7  10 184.430 121.580   1
   7   4   6 233.130 127.590   1
   7   4   6 283.760 119.430   1
   0  -2  12 2701.21 180.970   1
   0  -2  12 2763.07 189.300   1
   3  -8   7 247.890 189.990   1
  -3   8  -7 152.110 117.360   1
   6   6  -2 500.490 80.0200   1
   6   6  -2 746.060 117.930   1
  -1   1  12 938.510 116.710   1
   3  -9  -5 46.6800 111.390   1
  -3   9   5 23.1800 119.070   1
   7   4   0 405.720 115.520   1
   7   4   0 248.850 91.1000   1
   7   3  -1 -3.9900 133.110   1
   7   3  -1 -93.190 109.160   1
   4  -6  -7 490.970 146.140   1
   5   8  -2 862.070 111.810   1
   5   8  -2 826.740 107.350   1
   7   5   4 1391.68 169.900   1
   7   5   4 804.270 107.150   1
  -2  10  -4 -84.500 122.950   1
   2 -10   4 -74.290 113.790   1
   2 -10   4 84.6000 185.970   1
   1  -9  -8 150.920 158.310   1
  -1   9   8 323.940 131.770   1
   3  -4  11 -116.00 128.510   1
  -3   4 -11 111.780 95.3100   1
   6   4  -4 710.300 96.4300   1
   6   4  -4 781.550 122.480   1
   7   0   7 1262.84 148.630   1
   4  -7  -6 37.2700 132.000   1
   7   5   2 500.700 90.7200   1
   7   5   2 538.850 125.930   1
   0  -8   8 577.260 175.790   1
   0  -8   8 534.630 116.580   1
   0   8  -8 385.320 90.7200   1
   4   3  12 67.5400 106.660   1
   1   7  11 108.010 125.180   1
   5   9   5 1627.27 172.350   1
   5  -6   7 726.400 192.240   1
   5  -6   7 907.590 122.060   1
  -1 -11   2 2259.83 201.160   1
  -1 -11   2 1818.61 312.320   1
   1  11  -2 1403.96 132.500   1
   6  -6   3 21.5300 117.060   1
   6  -6   3 -69.190 76.5000   1
   6  -6   0 633.880 119.200   1
   6  -6   0 635.690 105.420   1
  -3  -7   7 29.2800 154.280   1
   3   7  -7 -37.040 73.9700   1
   7  -2  -1 13.2300 148.030   1
   7  -2  -1 68.6900 164.250   1
   4   0  12 303.410 85.9700   1
   4   0  12 215.440 112.220   1
   6   2  -5 28.9900 83.8400   1
   6   2  -5 139.410 107.770   1
   2   7  -8 1515.43 139.880   1
  -2  -7   8 1429.32 175.920   1
   4  10   5 116.750 89.5600   1
  -1   2  12 481.900 88.3200   1
   3  -2  12 1683.94 152.250   1
   3  -2  12 1561.05 150.580   1
   7  -3   4 188.320 96.4400   1
   7  -3   4 215.090 121.500   1
  -2   7  -9 425.440 119.940   1
   2  -7   9 886.330 151.910   1
   2  -7   9 346.460 198.200   1
  -1   0  12 104.280 105.270   1
   0  10  -5 1554.37 158.400   1
   0 -10   5 1460.04 263.480   1
  -2 -11   1 5449.56 405.920   1
   2  11  -1 5155.91 265.580   1
   3 -10  -2 339.100 127.340   1
  -3  10   2 318.390 121.620   1
   7   0  -2 613.630 130.400   1
   4   1  -9 2684.73 181.340   1
   4   1  -9 2570.93 167.360   1
  -3  -2  10 497.120 140.970   1
   3   2 -10 555.620 102.300   1
   7   1  -2 1842.50 165.320   1
   7   1  -2 1827.54 184.350   1
   2  11   5 1026.37 133.490   1
  -4   2   9 245.270 114.970   1
   4  -2  -9 275.020 95.2400   1
   4  -2  -9 212.000 89.9100   1
   7   3   7 23.1600 117.660   1
   3  10   7 234.960 165.770   1
   5  -3  -7 982.020 120.010   1
   5  -3  -7 937.080 142.850   1
   6  -2  -5 233.690 87.1700   1
   2 -10  -5 105.110 105.370   1
  -2  10   5 12.1000 119.160   1
   4  -3  11 1794.40 147.110   1
  -4   3 -11 1774.81 195.590   1
  -3  10  -2 458.740 101.750   1
   3 -10   2 496.750 146.990   1
   3 -10   2 200.670 184.490   1
  -3  10  -2 511.090 131.550   1
  -2  -8   7 835.470 205.950   1
   2   8  -7 889.090 113.970   1
  -4 -10   0 265.900 192.180   1
   4  10   0 321.250 92.1400   1
   4   4  -8 231.930 83.2900   1
   4   4  -8 194.960 107.700   1
   2  -6  10 2192.99 207.510   1
  -2   6 -10 1813.06 215.480   1
   2  -6  10 1791.20 229.240   1
   3   5  12 801.230 123.190   1
   5   7   9 610.580 129.990   1
   0 -11  -5 536.270 107.220   1
   0  11   5 430.190 135.290   1
   3   8  10 92.8700 130.290   1
   0  -6  10 76.3500 127.670   1
   0   6 -10 149.710 111.210   1
   0  -6  10 81.1400 137.110   1
   4  -9  -2 14.9900 104.930   1
   6   6   8 -8.7700 109.600   1
   6   6   8 57.5100 98.5600   1
   5  -3  10 1592.18 179.600   1
   5  -3  10 1928.42 174.010   1
   5  -8   1 1406.66 224.740   1
   5  -8   1 2099.33 172.100   1
  -2   9   7 53.2200 123.340   1
   2  -9  -7 128.470 116.620   1
  -3  -8   6 4550.08 363.800   1
   3   8  -6 3168.65 185.480   1
   7  -3   0 1182.92 156.080   1
   7  -3   0 1101.97 163.950   1
  -1  10  -5 1629.28 154.490   1
   1 -10   5 1339.04 251.820   1
   7   5   5 41.8100 143.500   1
   7   5   5 262.640 145.600   1
   1 -11   2 936.270 146.100   1
   1 -11   2 645.430 245.380   1
  -1  11  -2 607.400 126.630   1
  -2 -10   4 3723.85 286.240   1
   2  10  -4 3331.12 183.850   1
   6  -2   9 46.3300 140.450   1
   6  -2   9 76.1400 129.840   1
   6  -5   6 615.730 130.310   1
   3  11   2 152.630 100.270   1
   3  11   2 -142.20 187.750   1
   3   6  -8 1380.32 157.720   1
  -3  -6   8 915.280 176.220   1
   4  -9   3 80.6900 134.110   1
   4  -9   3 -114.20 198.650   1
  -4   9  -3 115.360 129.760   1
   4   6  11 715.090 127.350   1
   2   2 -11 -54.740 95.7300   1
  -2  -2  11 -8.5900 123.830   1
   5   4  11 2171.24 172.210   1
   3  11   3 1820.71 195.350   1
   3  11   3 1670.77 168.110   1
   5  -8   0 6322.98 322.670   1
   7  -2   6 100.810 135.070   1
   7  -2   6 92.8000 118.900   1
   1  -3  12 677.900 166.500   1
   6   1  10 247.990 88.3200   1
   3  -7  -8 237.060 130.440   1
  -3   7   8 190.570 175.040   1
   0   8  10 6.60000 108.280   1
   5  -1  11 585.640 90.3500   1
   5  -1  11 566.510 128.020   1
   5  -8   2 458.020 197.950   1
   5  -8   2 1006.23 144.610   1
  -2   6  10 1066.92 212.360   1
   5   6  10 26.1900 104.850   1
   7  -1  -2 1566.91 147.790   1
   7   5   1 1496.07 156.340   1
   7   5   1 1473.99 149.660   1
  -2  -6   9 -235.32 145.640   1
   2   6  -9 40.9800 87.7000   1
   6   5   9 476.100 114.330   1
   7   2  -2 118.580 116.850   1
   7   2  -2 178.110 109.950   1
   5  -6  -5 459.070 119.160   1
   2  -3  12 76.8700 110.460   1
   6  -4  -4 29.0100 96.9900   1
   6  -4  -4 44.9500 78.7200   1
  -1  11   4 733.780 143.320   1
  -1  11   4 480.640 136.790   1
   1 -11  -4 591.330 166.310   1
   5   6  -5 713.730 103.950   1
   5   6  -5 897.570 122.060   1
   2  -8   8 6406.35 379.090   1
  -2   8  -8 5193.51 324.150   1
   2  -8   8 5047.02 255.600   1
   4   9  -3 2282.81 158.550   1
   4   9  -3 2026.64 176.340   1
  -4  -9   3 2491.78 252.430   1
   5   9   0 1301.85 145.230   1
   5   9   0 914.330 116.660   1
   5   9   0 1338.65 163.880   1
   5  -5  -6 -27.750 109.240   1
   5  -5  -6 41.5700 78.0400   1
   4  -5  -8 392.200 108.090   1
   4   9   8 180.100 147.410   1
  -1   3  12 576.720 113.310   1
   5   3  -7 34.6000 87.9200   1
   5   3  -7 -30.110 98.3000   1
   3   7  11 1194.83 120.840   1
   0   9   9 277.630 109.750   1
   3  11   1 4395.80 247.950   1
   3  11   1 4223.93 294.240   1
  -3 -11  -1 5033.73 389.230   1
   6  -6   4 193.700 129.570   1
   6  -6   4 166.330 124.950   1
   6  -6  -1 4683.35 275.270   1
   6  -6  -1 4251.91 296.550   1
   3   9   9 530.210 120.460   1
   3  -8  -7 804.370 118.720   1
  -3   8   7 868.790 132.620   1
   7  -1   7 715.420 145.310   1
   4  -8   6 2846.81 275.320   1
  -4   8  -6 2857.98 244.110   1
   4  -8   6 3009.32 245.950   1
   6  -5  -3 522.030 106.270   1
   6  -5  -3 697.550 140.390   1
   2   1  13 572.780 100.980   1
  -1  -1  12 247.420 110.110   1
  -1  -1  12 -47.580 96.3700   1
  -2   4  11 54.8100 102.770   1
   1  -5  11 18.3800 168.080   1
  -1   5 -11 -2.1800 130.330   1
   2   2  13 -7.9500 79.8700   1
   5   8   8 14.9700 99.8400   1
   1  10   8 1.81000 128.480   1
   4   4  12 732.850 146.500   1
   5   7  -4 3659.78 256.420   1
   5   7  -4 3176.04 236.360   1
   6   8   3 893.000 129.860   1
   6   8   3 826.860 178.590   1
   6   8   3 944.200 124.160   1
   1  -9   7 1256.35 205.280   1
  -1   9  -7 1176.10 166.800   1
   6   7  -1 121.640 113.960   1
   6   7  -1 188.410 104.450   1
   3  11   4 2110.76 197.180   1
   1  10  -5 1478.84 141.440   1
   0  -9   7 980.410 202.100   1
   0   9  -7 1073.24 180.470   1
   7  -3   5 118.720 96.8600   1
   7  -3   5 90.2100 133.280   1
   6   7   7 443.240 137.920   1
   6   7   7 381.240 129.590   1
   0   5  12 41.4300 128.970   1
   6   3  10 703.160 118.390   1
   4  -1  12 608.950 103.050   1
   4  -1  12 510.980 119.180   1
  -1  -4  11 90.4100 133.460   1
   1   4 -11 -6.8100 86.0200   1
   2  10   8 -26.310 130.720   1
   4  -8  -5 2535.21 242.290   1
   6   0  10 75.6400 113.520   1
   5   9   6 547.020 124.360   1
   1   1  13 101.180 127.970   1
   5  -8  -1 -6.7700 87.1400   1
  -3   4  10 317.490 115.250   1
   4   2  -9 1606.69 166.740   1
   4   2  -9 1456.28 141.220   1
   6   8   4 5484.21 421.190   1
   6   8   4 4527.42 300.180   1
   6   8   4 5247.52 373.340   1
   3 -10  -3 829.360 146.860   1
   2 -11  -1 2722.02 338.390   1
   2 -11  -1 2734.37 215.030   1
  -2  11   1 2732.47 253.510   1
  -2  11   1 2699.39 250.700   1
   1   2  13 192.150 126.730   1
   4  -3  -9 135.500 103.140   1
  -2  11   0 119.150 145.560   1
   2 -11   0 -10.800 246.050   1
   2 -11   0 266.080 119.210   1
  -2  11   0 432.290 146.280   1
   0 -11   3 -96.000 277.460   1
   0 -11   3 -70.940 185.560   1
   0  11  -3 40.9000 83.1700   1
  -3 -10   3 426.320 242.430   1
   3  10  -3 400.780 106.740   1
   6   3  -5 68.5900 68.4400   1
   6   3  -5 167.400 124.020   1
   6   8   2 476.550 91.7300   1
   6   8   2 534.160 139.710   1
   6   8   2 370.360 132.490   1
  -1   6  11 186.300 91.8800   1
   4  10   6 1346.66 156.630   1
   1  11   6 180.290 119.070   1
   5   5  -6 1104.09 152.430   1
   5   5  -6 1430.70 137.810   1
  -2  -9   6 7356.51 553.870   1
   2   9  -6 6351.39 410.340   1
   7   4   7 -83.910 102.530   1
   5  -8   3 519.610 168.410   1
   5  -8   3 735.520 140.460   1
  -2   5 -11 628.080 120.330   1
   2  -5  11 501.480 158.730   1
  -3   6   9 147.160 119.460   1
  -3  10  -3 395.780 128.740   1
   3 -10   3 782.690 223.340   1
   3 -10   3 832.780 149.350   1
   7   4  -1 130.930 103.810   1
   7   4  -1 26.6400 99.9100   1
  -4  -7   6 2313.36 280.770   1
   4   7  -6 2110.48 199.490   1
   4   7  -6 2400.78 199.840   1
   2   0  13 243.550 81.6100   1
   1   7  -9 -33.360 98.3400   1
  -1  -7   9 77.5500 145.890   1
   2   6  12 -23.070 102.080   1
  -4   6  -9 118.430 134.810   1
   4  -6   9 121.820 94.4100   1
   4  -6   9 12.3700 167.720   1
   0   7  11 108.680 118.660   1
   1   8  -8 655.900 132.620   1
  -1  -8   8 657.820 189.510   1
   7   5   6 1103.78 148.150   1
   7   5   6 1175.87 164.590   1
   2   3  13 222.140 107.380   1
   6  -3  -5 726.670 116.430   1
   6  -3  -5 657.850 130.890   1
   5  -7   6 -45.710 159.190   1
   5  -7   6 -78.060 169.090   1
   1   0  13 312.860 121.990   1
   1 -10  -7 281.220 132.270   1
  -1  10   7 170.500 127.070   1
   7  -3  -1 477.680 93.2500   1
   7  -3  -1 473.020 132.000   1
   4  -9  -3 176.170 96.1000   1
   7   1   8 333.000 120.370   1
   4  10  -1 772.420 125.660   1
  -4 -10   1 759.710 286.180   1
  -2  11   2 1639.60 205.780   1
  -2  11   2 1867.53 188.480   1
   2 -11  -2 1822.10 169.840   1
   7  -4   2 102.500 88.9200   1
   7  -4   2 544.770 122.490   1
  -3  -9   5 471.580 225.630   1
   3   9  -5 730.570 95.7200   1
   7   2   8 688.420 127.200   1
   7   2   8 882.290 145.520   1
   3  11   0 359.540 105.810   1
  -3 -11   0 320.740 263.300   1
   3  11   0 451.350 110.800   1
   4   6  -7 196.500 96.3800   1
   4   6  -7 135.310 102.410   1
  -2 -11   2 2898.72 345.280   1
   2  11  -2 2474.20 223.770   1
   5  -7  -4 -1.2400 105.030   1
  -2  11  -1 295.850 148.170   1
   2 -11   1 476.650 171.080   1
  -2  11  -1 299.910 260.260   1
   2 -11   1 227.040 247.740   1
   7  -2  -2 2853.78 233.420   1
   7  -2  -2 2993.70 244.640   1
   4  -5  10 -117.78 148.570   1
   4  -5  10 101.180 137.630   1
  -4   5 -10 24.8900 165.210   1
   2  11   6 192.400 107.230   1
   0  -3  12 435.550 136.740   1
   7   3  -2 78.0700 98.9500   1
   7   3  -2 102.240 85.8200   1
   1   6  12 28.0300 88.0400   1
   6   8   5 80.4200 128.440   1
   6   8   5 95.4100 77.1400   1
   1  11  -3 364.830 111.270   1
  -1 -11   3 390.200 121.530   1
  -1 -11   3 162.980 158.860   1
   0  -5  11 -72.180 131.550   1
   0   5 -11 -29.840 109.370   1
   3   5  -9 913.990 132.080   1
  -3  -5   9 927.760 181.110   1
   3   3 -10 276.220 71.2200   1
  -3  -3  10 425.250 183.310   1
   7   5   0 344.150 93.2200   1
   7   5   0 641.370 100.880   1
   7  -4   3 -27.300 112.120   1
   7  -4   3 -17.100 101.870   1
   1   3  13 155.840 100.580   1
   4  -9   4 564.590 245.010   1
  -4   9  -4 446.040 117.250   1
   4  -9   4 677.590 151.860   1
   7  -4   1 13.8100 86.4800   1
   7  -4   1 205.040 141.930   1
  -3   9  -6 64.5200 120.170   1
   3  -9   6 151.790 134.630   1
   5  -4  -7 -26.730 95.0800   1
  -1  11  -3 766.420 122.480   1
   1 -11   3 824.760 174.130   1
   1 -11   3 627.830 175.680   1
   3   2  13 726.330 143.450   1
  -4  -8   5 237.050 244.890   1
   4   8  -5 104.490 95.9200   1
   4   8  -5 -20.940 67.0600   1
   3   1  13 7.82000 104.520   1
   3  11   5 8.80000 145.030   1
   6   8   1 914.360 123.040   1
   6   8   1 941.620 113.030   1
   6   8   1 987.230 148.270   1
   2 -10   5 1119.06 192.730   1
  -2  10  -5 1851.32 189.780   1
   4  -7   8 220.530 209.940   1
  -4   7  -8 -51.840 115.310   1
   7   6   3 2583.52 205.800   1
   7   6   3 1797.14 165.020   1
  -1   4  12 -15.240 110.160   1
   5   5  11 -44.790 119.110   1
   6   4  10 394.260 96.7100   1
   7   0   8 443.470 140.560   1
   3  -3  12 73.6600 127.090   1
   0 -10  -8 163.910 121.470   1
   0  10   8 26.8100 136.130   1
  -3   6 -10 759.440 145.270   1
   3  -6  10 573.560 136.440   1
   3  -6  10 545.970 154.600   1
   6  -4   8 1955.87 219.320   1
   6  -4   8 1636.95 209.110   1
   5   8  -3 1165.71 117.470   1
   5   8  -3 1321.51 149.010   1
   3  -7   9 648.450 198.440   1
   3  -7   9 899.480 152.260   1
  -3   7  -9 862.310 134.380   1
   6   6  -3 3856.95 275.740   1
   6   6  -3 3593.66 256.450   1
   7   6   4 20.6000 163.990   1
   7   6   4 28.7500 106.370   1
   0  11   6 641.840 140.080   1
   0 -11  -6 512.010 152.280   1
   6   5  -4 1167.70 125.110   1
   6   5  -4 1244.05 132.900   1
   6  -1  10 543.710 139.900   1
   6  -1  10 490.500 142.870   1
   6  -6   5 -66.860 147.520   1
   6  -6  -2 107.210 94.2900   1
   6  -6  -2 152.660 109.500   1
   2   5 -10 116.100 107.920   1
  -2  -5  10 336.270 156.670   1
   5  -2  11 219.600 112.210   1
   5  -2  11 55.9400 133.390   1
   7   3   8 1073.41 330.670   1
   5  -8  -2 1073.24 133.320   1
   5   9  -1 3621.85 248.190   1
   5   9  -1 3786.36 273.960   1
   5   0  -8 32.2300 87.7400   1
   5   0  -8 -13.640 129.260   1
   2  -9   7 2314.71 262.660   1
  -2   9  -7 1913.51 201.810   1
   3  -9  -6 164.740 92.1500   1
  -1  -2  12 707.510 124.900   1
  -1  -6  10 556.960 164.430   1
   1   6 -10 351.550 106.640   1
   2   3 -11 346.050 104.010   1
  -2  -3  11 543.500 142.730   1
  -1  11   5 23.2300 131.640   1
   1 -11  -5 57.5800 138.910   1
   5  -1  -8 438.790 93.5200   1
   5  -1  -8 327.060 180.470   1
   7   0  -3 45.9300 104.380   1
  -1  -9   7 336.990 179.550   1
   1   9  -7 500.960 119.470   1
   7   6   2 1520.17 180.870   1
   7   6   2 1083.42 127.900   1
   3   6  12 219.950 158.880   1
   7   1  -3 249.930 119.010   1
   7   1  -3 -4.1900 113.950   1
   2  -1  13 -71.520 97.9700   1
   2  -1  13 8.05000 97.3000   1
   5  -5   9 43.1900 97.1300   1
   5  -5   9 62.2300 151.740   1
   7  -4   4 140.140 149.060   1
   7  -4   4 153.970 88.9600   1
   2 -10  -6 220.470 131.810   1
  -2  10   6 202.300 117.730   1
   6   0  -6 479.130 151.870   1
   6   0  -6 385.890 96.9400   1
   3   3  13 126.450 105.130   1
   5  -8   4 124.090 110.950   1
   5  -8   4 64.5400 195.820   1
   3  10   8 1019.58 168.930   1
   3   0  13 209.390 131.880   1
   3   0  13 324.440 107.030   1
  -2  11   3 1469.61 164.600   1
   2 -11  -3 1097.24 148.790   1
  -2  11   3 1593.64 209.450   1
   7  -3   6 405.060 132.120   1
   7  -3   6 559.690 145.210   1
   6  -3   9 1068.75 184.820   1
   4   5  12 40.3200 124.740   1
   1  -1  13 -117.96 105.550   1
   1  -1  13 -21.090 142.360   1
  -2  11  -2 60.8100 122.370   1
   2 -11   2 166.630 113.920   1
   2 -11   2 61.4400 213.180   1
   2   4  13 626.050 115.530   1
   7  -4   0 119.000 146.770   1
   7  -4   0 72.1000 92.2400   1
   6  -5   7 2685.65 241.450   1
   0   1  13 152.580 99.2200   1
   5   1  -8 139.000 67.4900   1
   5   1  -8 27.6600 99.7100   1
   4  -2  12 -26.400 116.500   1
   4  -2  12 -70.300 119.360   1
   6  -1  -6 177.190 84.0900   1
   6   1  -6 1319.14 139.330   1
   6   1  -6 1874.04 162.740   1
   7   6   5 16.0900 134.410   1
   7   6   5 6.29000 100.500   1
   3 -10  -4 514.450 148.630   1
   5   9   7 321.490 121.260   1
   4   3  -9 92.6300 91.9400   1
   5   4  -7 39.4700 98.1200   1
   5   4  -7 -71.570 77.7800   1
   4   8  10 1265.12 159.590   1
   0   2  13 37.0200 90.5500   1
   5  -6   8 216.080 172.580   1
  -4   4 -11 -3.3600 120.550   1
   4  -4  11 135.310 137.580   1
   4  -4  11 108.370 138.070   1
   4  -4  -9 77.6500 83.7600   1
   6   6   9 30.8800 109.400   1
   6   6   9 127.500 147.810   1
   4   5  -8 568.220 107.370   1
   4   5  -8 670.570 113.000   1
   7  -1  -3 1660.98 167.180   1
  -2   5  11 324.980 105.390   1
   6   8   6 1186.15 154.910   1
   3 -10   4 52.6000 135.810   1
   3 -10   4 76.0200 241.310   1
  -3  10  -4 206.970 103.010   1
  -3 -11   1 32.4600 419.000   1
   3  11  -1 118.670 94.2800   1
   5  -4  10 399.340 106.440   1
   5  -4  10 198.990 170.890   1
   1   4  13 -0.6500 98.9400   1
   7   5   7 -34.570 127.000   1
   3  -5  11 1738.03 220.770   1
  -3   5 -11 1353.36 186.420   1
   3  -5  11 1887.70 195.010   1
   2   9  10 123.370 99.4300   1
   5  -2  -8 264.310 101.920   1
   5  -2  -8 423.600 107.100   1
   1  12   2 223.340 108.780   1
  -1 -12  -2 42.7900 204.210   1
   6   7  -2 1289.55 133.730   1
   6   7  -2 1265.35 125.620   1
   4  10   7 136.970 116.710   1
   7   2  -3 165.200 114.030   1
   7   2  -3 260.370 106.230   1
  -3   8  -8 760.170 124.750   1
   3  -8   8 1075.91 212.710   1
   0 -10   6 1627.73 227.500   1
   0  10  -6 1368.74 187.030   1
   2   8  11 43.8400 116.210   1
   0   0  13 241.630 110.550   1
   6   7   8 65.1200 143.380   1
   6   7   8 16.0900 107.380   1
  -2   8   9 1862.34 200.570   1
   2  -8  -9 1911.30 194.160   1
   1  -4  12 792.590 149.940   1
   6   4  -5 496.240 110.390   1
   6   4  -5 646.860 104.900   1
   4  -7  -7 -61.810 115.560   1
  -1 -12  -1 5215.60 405.840   1
   1  12   1 5940.37 430.220   1
   1  12   1 4680.33 326.520   1
   7  -1   8 141.810 160.830   1
   6   8   0 56.2300 84.0200   1
   6   8   0 -21.430 117.770   1
   6   8   0 150.960 79.8700   1
   1   9  10 208.110 97.9300   1
   5   2  12 398.270 124.160   1
   7   6   1 2829.10 222.380   1
   7   6   1 2894.94 223.780   1
   4   7  11 -101.38 101.850   1
   6  -5  -4 -66.230 107.160   1
   6  -5  -4 131.120 76.4100   1
  -3   5  10 -10.070 102.570   1
  -1  10  -6 -0.3600 90.8100   1
   1 -10   6 14.8400 144.630   1
   5   1  12 686.220 108.970   1
   0  12   1 605.030 187.090   1
   0  12   1 228.070 162.670   1
   0 -12  -1 318.730 247.190   1
   0 -12  -1 270.100 119.250   1
  -1   8  10 662.040 139.840   1
   7  -3  -2 -4.9900 171.770   1
   7  -3  -2 -48.090 124.600   1
   2  -4  12 533.340 192.480   1
   2  10  -5 778.860 138.800   1
  -2 -10   5 665.800 205.420   1
   0  12   2 61.5400 115.600   1
   0 -12  -2 14.3100 164.960   1
   0 -12  -2 110.710 126.110   1
   0  12   2 22.4100 129.940   1
   7   4   8 -144.37 148.030   1
   1   8  11 1031.60 137.630   1
   5   7  10 555.660 131.230   1
   6  -7   1 108.080 95.7700   1
   0 -11   4 2388.59 292.060   1
   0  11  -4 1766.48 186.640   1
   1  12   3 182.830 118.130   1
   1  12   3 175.440 158.530   1
   7   4  -2 1624.69 164.800   1
   7   4  -2 1715.39 162.450   1
   4  -9  -4 229.510 86.8400   1
   0   6  12 231.360 91.2500   1
  -3   1  11 123.470 114.180   1
   6  -7   2 180.910 124.930   1
   6  -7   2 312.570 129.500   1
  -1   9   9 51.3900 122.390   1
   1  -9  -9 85.5600 132.150   1
   3  11   6 660.950 177.340   1
   4   9  -4 139.790 74.2000   1
   4   9  -4 33.4100 68.2700   1
   7   5  -1 11393.2 677.910   1
   7   5  -1 9225.35 555.530   1
  -4 -10   2 110.580 212.140   1
   4  10  -2 313.380 92.0300   1
   4   9   9 84.5400 121.800   1
   0   3  13 324.130 96.6900   1
   1  11   7 2465.47 218.090   1
   6  -4  -5 364.600 149.600   1
   6  -4  -5 512.590 102.210   1
   4  -6  -8 663.720 132.440   1
   3   4  13 196.340 125.890   1
   6  -2  -6 428.260 156.200   1
   6  -2  -6 231.450 108.310   1
  -3   0  11 132.380 114.270   1
  -3   0  11 3.27000 113.460   1
   6   2  -6 63.0500 111.330   1
   6   2  -6 114.720 62.7700   1
   7  -4   5 977.790 131.990   1
   5   8   9 -19.500 79.8000   1
  -4   8  -7 -35.300 126.740   1
   4  -8   7 -62.130 133.520   1
   5  10   3 341.650 153.330   1
   5  10   3 38.2600 85.9700   1
  -2   9   8 636.710 175.460   1
   2  -9  -8 713.180 147.130   1
   3  -1  13 504.270 145.780   1
   5   2  -8 61.2000 103.410   1
   5   2  -8 -35.750 85.4400   1
   5  -6  -6 2684.88 267.020   1
   1  -7  10 -40.180 128.970   1
   0 -12   0 3343.28 286.600   1
   0 -12   0 3629.15 442.560   1
   4  -9   5 76.8400 182.730   1
  -2 -11   3 325.200 186.180   1
  -1 -12   0 747.000 200.980   1
;
_shelx_hkl_checksum              49707
_shelx_res_file
;
TITL  ak4cg
CELL  0.71075   6.1037   9.3345  10.4146   83.039   77.139   85.055
ZERR     1.00   0.0004   0.0007   0.0007    0.001    0.009    0.001
LATT   1
SFAC  C    H    CL   N
UNIT  26   20   2    4
MERG   2
OMIT   -2 53.1
FMAP   2
PLAN   20
SIZE     0.01   0.08   0.19
ACTA
BOND   $H
CONF
HTAB
L.S.  20
TEMP  -173.00
WGHT    0.085600    0.524900
FVAR       7.60724
C1    1    0.477062    0.546563    0.437060    11.00000    0.02441    0.03037 =
         0.03196    0.00053   -0.00509   -0.00198
AFIX  13
H1    2    0.315779    0.583802    0.452147    11.00000   -1.20000
AFIX   0
C11   1    0.629926    0.672197    0.397712    11.00000    0.03112    0.03974 =
         0.02248    0.00211   -0.00652   -0.00888
C12   1    0.539268    0.813735    0.401433    11.00000    0.03219    0.03893 =
         0.03289   -0.00354   -0.00343   -0.00609
AFIX  43
H12   2    0.381650    0.831372    0.431785    11.00000   -1.20000
AFIX   0
C13   1    0.675536    0.930160    0.361425    11.00000    0.03881    0.03401 =
         0.04202   -0.00345   -0.00741   -0.00289
AFIX  43
H13   2    0.612658    1.026691    0.364807    11.00000   -1.20000
AFIX   0
C14   1    0.903999    0.902366    0.316730    11.00000    0.03947    0.03518 =
         0.03864    0.00607   -0.00765   -0.01029
CL14  3    1.077259    1.046848    0.266813    11.00000    0.04299    0.03648 =
         0.07785    0.01172   -0.00778   -0.01320
C15   1    0.998045    0.762404    0.310723    11.00000    0.03073    0.03768 =
         0.03721    0.00271   -0.00641   -0.00438
AFIX  43
H15   2    1.155270    0.745159    0.278523    11.00000   -1.20000
AFIX   0
C16   1    0.860376    0.647593    0.352198    11.00000    0.03389    0.03113 =
         0.03382    0.00166   -0.00826   -0.00254
AFIX  43
H16   2    0.924225    0.551237    0.349464    11.00000   -1.20000
AFIX   0
N1    4    0.526563    0.452566    0.328994    11.00000    0.03112    0.03144 =
         0.02923    0.00109   -0.00588   -0.00600
N2    4    0.370224    0.458098    0.270077    11.00000    0.03508    0.03028 =
         0.03442    0.00193   -0.00520   -0.00791
C21   1    0.413339    0.368720    0.162716    11.00000    0.04396    0.03094 =
         0.03230    0.00270   -0.00613   -0.01583
C22   1    0.606272    0.275556    0.132384    11.00000    0.04425    0.03395 =
         0.03531   -0.00097   -0.00510   -0.00971
AFIX  43
H22   2    0.720796    0.269206    0.181792    11.00000   -1.20000
AFIX   0
C23   1    0.624521    0.192959    0.027904    11.00000    0.05835    0.03748 =
         0.04917   -0.00450   -0.00066   -0.01197
AFIX  43
H23   2    0.751884    0.127496    0.006080    11.00000   -1.20000
AFIX   0
C24   1    0.458068    0.205422   -0.044753    11.00000    0.06235    0.03487 =
         0.02193   -0.00510   -0.00169   -0.02456
AFIX  43
H24   2    0.474418    0.149129   -0.116814    11.00000   -1.20000
AFIX   0
C25   1    0.273038    0.295783   -0.015490    11.00000    0.07074    0.05438 =
         0.03755    0.00879   -0.02489   -0.03195
AFIX  43
H25   2    0.160512    0.302541   -0.066339    11.00000   -1.20000
AFIX   0
C26   1    0.248188    0.379658    0.090621    11.00000    0.04398    0.04017 =
         0.04408    0.00663   -0.01102   -0.01144
AFIX  43
H26   2    0.118552    0.443334    0.112387    11.00000   -1.20000
AFIX   0
HKLF 4
REM   ak4cg
REM R1 =  0.0615 for    1919 Fo > 4sig(Fo)  and  0.0748 for all    2397 data
REM    145 parameters refined using      0 restraints
END
WGHT      0.0856      0.5249
REM No hydrogen bonds found for HTAB generation
REM Highest difference peak  0.644,  deepest hole -0.284,  1-sigma level  0.081
Q1    1   1.0022  1.1050  0.3411  11.00000  0.05    0.64
Q2    1   0.6440  0.3606  0.2618  11.00000  0.05    0.57
Q3    1   0.4684  0.3026  0.1000  11.00000  0.05    0.47
Q4    1   0.5000  0.5000  0.5000  10.50000  0.05    0.44
Q5    1   0.4885  0.1967  0.0037  11.00000  0.05    0.44
Q6    1   0.3905  0.2274 -0.0337  11.00000  0.05    0.42
Q7    1   1.0589  1.0382  0.1756  11.00000  0.05    0.41
Q8    1   0.2831  0.4117  0.1509  11.00000  0.05    0.41
Q9    1   0.7167  0.6469  0.3809  11.00000  0.05    0.38
Q10   1   1.0950  1.0262  0.3720  11.00000  0.05    0.37
Q11   1   0.7944  0.8553  0.3726  11.00000  0.05    0.37
Q12   1   0.9612  0.8257  0.3760  11.00000  0.05    0.36
Q13   1   0.6261  0.7439  0.4101  11.00000  0.05    0.36
Q14   1   0.5023  0.1778 -0.0730  11.00000  0.05    0.35
Q15   1   0.5087  0.5018  0.3825  11.00000  0.05    0.34
Q16   1   0.2874  0.3074  0.0515  11.00000  0.05    0.30
Q17   1   1.2216  1.0185  0.2623  11.00000  0.05    0.27
Q18   1   0.4148  0.4088  0.1983  11.00000  0.05    0.27
Q19   1   1.1785  0.9841  0.3038  11.00000  0.05    0.26
Q20   1   0.2443  0.4934  0.2592  11.00000  0.05    0.25
;
_shelx_res_checksum              451
_shelxl_version_number           2.014
loop_
_space_group_symop_operation_xyz
'x, y, z'
'-x, -y, -z'
loop_
_atom_site_type_symbol
_atom_site_label
_atom_site_fract_x
_atom_site_fract_y
_atom_site_fract_z
_atom_site_U_iso_or_equiv
_atom_site_adp_type
_atom_site_calc_flag
_atom_site_occupancy
C C1 0.4771(4) 0.5466(3) 0.4371(2) 0.0294(5) Uani d 1
H H1 0.3158 0.5838 0.4521 0.035 Uiso calc 1
C C11 0.6299(4) 0.6722(3) 0.3977(2) 0.0310(6) Uani d 1
C C12 0.5393(5) 0.8137(3) 0.4014(3) 0.0350(6) Uani d 1
H H12 0.3816 0.8314 0.4318 0.042 Uiso calc 1
C C13 0.6755(5) 0.9302(3) 0.3614(3) 0.0385(6) Uani d 1
H H13 0.6127 1.0267 0.3648 0.046 Uiso calc 1
C C14 0.9040(5) 0.9024(3) 0.3167(3) 0.0382(6) Uani d 1
Cl Cl14 1.07726(13) 1.04685(8) 0.26681(9) 0.0541(3) Uani d 1
C C15 0.9980(5) 0.7624(3) 0.3107(3) 0.0358(6) Uani d 1
H H15 1.1553 0.7452 0.2785 0.043 Uiso calc 1
C C16 0.8604(4) 0.6476(3) 0.3522(3) 0.0332(6) Uani d 1
H H16 0.9242 0.5512 0.3495 0.040 Uiso calc 1
N N1 0.5266(4) 0.4526(2) 0.3290(2) 0.0308(5) Uani d 1
N N2 0.3702(4) 0.4581(2) 0.2701(2) 0.0337(5) Uani d 1
C C21 0.4133(5) 0.3687(3) 0.1627(3) 0.0358(6) Uani d 1
C C22 0.6063(5) 0.2756(3) 0.1324(3) 0.0382(6) Uani d 1
H H22 0.7208 0.2692 0.1818 0.046 Uiso calc 1
C C23 0.6245(6) 0.1930(3) 0.0279(3) 0.0495(8) Uani d 1
H H23 0.7519 0.1275 0.0061 0.059 Uiso calc 1
C C24 0.4581(5) 0.2054(3) -0.0448(3) 0.0394(7) Uani d 1
H H24 0.4744 0.1491 -0.1168 0.047 Uiso calc 1
C C25 0.2730(6) 0.2958(4) -0.0155(3) 0.0516(9) Uani d 1
H H25 0.1605 0.3025 -0.0663 0.062 Uiso calc 1
C C26 0.2482(5) 0.3797(3) 0.0906(3) 0.0429(7) Uani d 1
H H26 0.1186 0.4433 0.1124 0.051 Uiso calc 1
loop_
_atom_site_aniso_label
_atom_site_aniso_U_11
_atom_site_aniso_U_22
_atom_site_aniso_U_33
_atom_site_aniso_U_12
_atom_site_aniso_U_13
_atom_site_aniso_U_23
C1 0.0244(12) 0.0304(12) 0.0320(13) -0.0020(9) -0.0051(10) 0.0005(10)
C11 0.0311(13) 0.0397(14) 0.0225(12) -0.0089(10) -0.0065(9) 0.0021(10)
C12 0.0322(13) 0.0389(14) 0.0329(14) -0.0061(11) -0.0034(10) -0.0035(11)
C13 0.0388(15) 0.0340(14) 0.0420(15) -0.0029(11) -0.0074(12) -0.0035(12)
C14 0.0395(15) 0.0352(14) 0.0386(15) -0.0103(11) -0.0077(12) 0.0061(12)
Cl14 0.0430(5) 0.0365(4) 0.0778(6) -0.0132(3) -0.0078(4) 0.0117(4)
C15 0.0307(13) 0.0377(14) 0.0372(14) -0.0044(11) -0.0064(11) 0.0027(11)
C16 0.0339(13) 0.0311(13) 0.0338(13) -0.0025(10) -0.0083(10) 0.0017(10)
N1 0.0311(11) 0.0314(11) 0.0292(11) -0.0060(8) -0.0059(9) 0.0011(9)
N2 0.0351(12) 0.0303(11) 0.0344(12) -0.0079(9) -0.0052(9) 0.0019(9)
C21 0.0440(15) 0.0309(13) 0.0323(13) -0.0158(11) -0.0061(11) 0.0027(11)
C22 0.0443(16) 0.0340(14) 0.0353(14) -0.0097(11) -0.0051(12) -0.0010(11)
C23 0.058(2) 0.0375(16) 0.0492(18) -0.0120(14) -0.0007(15) -0.0045(13)
C24 0.0623(19) 0.0349(14) 0.0219(12) -0.0246(13) -0.0017(12) -0.0051(10)
C25 0.071(2) 0.0544(19) 0.0376(16) -0.0319(17) -0.0249(15) 0.0088(14)
C26 0.0440(16) 0.0402(16) 0.0441(16) -0.0114(12) -0.0110(13) 0.0066(13)
loop_
_atom_type_symbol
_atom_type_description
_atom_type_scat_dispersion_real
_atom_type_scat_dispersion_imag
_atom_type_scat_source
C C 0.0033 0.0016 'International Tables Vol C Tables 4.2.6.8 and 6.1.1.4'
H H 0.0000 0.0000 'International Tables Vol C Tables 4.2.6.8 and 6.1.1.4'
Cl Cl 0.1484 0.1585 'International Tables Vol C Tables 4.2.6.8 and 6.1.1.4'
N N 0.0061 0.0033 'International Tables Vol C Tables 4.2.6.8 and 6.1.1.4'
loop_
_geom_angle_atom_site_label_1
_geom_angle_atom_site_label_2
_geom_angle_atom_site_label_3
_geom_angle_site_symmetry_1
_geom_angle_site_symmetry_3
_geom_angle
N1 C1 C11 . . 108.29(19)
N1 C1 C1 . 2_666 107.2(2)
C11 C1 C1 . 2_666 111.4(3)
N1 C1 H1 . . 110.0
C11 C1 H1 . . 110.0
C1 C1 H1 2_666 . 110.0
C16 C11 C12 . . 119.0(2)
C16 C11 C1 . . 120.7(2)
C12 C11 C1 . . 120.3(2)
C11 C12 C13 . . 121.1(2)
C11 C12 H12 . . 119.4
C13 C12 H12 . . 119.4
C14 C13 C12 . . 118.6(3)
C14 C13 H13 . . 120.7
C12 C13 H13 . . 120.7
C13 C14 C15 . . 121.4(3)
C13 C14 Cl14 . . 119.2(2)
C15 C14 Cl14 . . 119.4(2)
C14 C15 C16 . . 119.3(3)
C14 C15 H15 . . 120.3
C16 C15 H15 . . 120.3
C15 C16 C11 . . 120.6(3)
C15 C16 H16 . . 119.7
C11 C16 H16 . . 119.7
N2 N1 C1 . . 112.1(2)
N1 N2 C21 . . 113.8(2)
C26 C21 C22 . . 121.3(3)
C26 C21 N2 . . 114.9(3)
C22 C21 N2 . . 123.8(3)
C23 C22 C21 . . 117.9(3)
C23 C22 H22 . . 121.1
C21 C22 H22 . . 121.1
C24 C23 C22 . . 120.4(3)
C24 C23 H23 . . 119.8
C22 C23 H23 . . 119.8
C25 C24 C23 . . 121.5(3)
C25 C24 H24 . . 119.2
C23 C24 H24 . . 119.2
C24 C25 C26 . . 119.5(3)
C24 C25 H25 . . 120.2
C26 C25 H25 . . 120.2
C21 C26 C25 . . 119.4(3)
C21 C26 H26 . . 120.3
C25 C26 H26 . . 120.3
loop_
_geom_bond_atom_site_label_1
_geom_bond_atom_site_label_2
_geom_bond_site_symmetry_2
_geom_bond_distance
C1 N1 . 1.473(3)
C1 C11 . 1.522(3)
C1 C1 2_666 1.549(5)
C1 H1 . 1.0000
C11 C16 . 1.389(4)
C11 C12 . 1.389(4)
C12 C13 . 1.392(4)
C12 H12 . 0.9500
C13 C14 . 1.381(4)
C13 H13 . 0.9500
C14 C15 . 1.384(4)
C14 Cl14 . 1.743(3)
C15 C16 . 1.387(4)
C15 H15 . 0.9500
C16 H16 . 0.9500
N1 N2 . 1.239(3)
N2 C21 . 1.440(4)
C21 C26 . 1.375(4)
C21 C22 . 1.403(4)
C22 C23 . 1.388(4)
C22 H22 . 0.9500
C23 C24 . 1.385(5)
C23 H23 . 0.9500
C24 C25 . 1.351(5)
C24 H24 . 0.9500
C25 C26 . 1.404(5)
C25 H25 . 0.9500
C26 H26 . 0.9500
loop_
_geom_torsion_atom_site_label_1
_geom_torsion_atom_site_label_2
_geom_torsion_atom_site_label_3
_geom_torsion_atom_site_label_4
_geom_torsion_site_symmetry_1
_geom_torsion
N1 C1 C11 C16 . -50.1(3)
C1 C1 C11 C16 2_666 67.6(4)
N1 C1 C11 C12 . 127.1(2)
C1 C1 C11 C12 2_666 -115.2(3)
C16 C11 C12 C13 . -0.5(4)
C1 C11 C12 C13 . -177.7(2)
C11 C12 C13 C14 . 0.5(4)
C12 C13 C14 C15 . 0.3(4)
C12 C13 C14 Cl14 . -179.8(2)
C13 C14 C15 C16 . -0.9(4)
Cl14 C14 C15 C16 . 179.1(2)
C14 C15 C16 C11 . 0.9(4)
C12 C11 C16 C15 . -0.2(4)
C1 C11 C16 C15 . 177.1(2)
C11 C1 N1 N2 . -110.4(2)
C1 C1 N1 N2 2_666 129.3(3)
C1 N1 N2 C21 . 179.38(19)
N1 N2 C21 C26 . -176.2(2)
N1 N2 C21 C22 . 4.4(3)
C26 C21 C22 C23 . -0.8(4)
N2 C21 C22 C23 . 178.6(2)
C21 C22 C23 C24 . 1.2(4)
C22 C23 C24 C25 . -1.0(4)
C23 C24 C25 C26 . 0.2(4)
C22 C21 C26 C25 . 0.0(4)
N2 C21 C26 C25 . -179.4(2)
C24 C25 C26 C21 . 0.2(4)
