#------------------------------------------------------------------------------
#$Date: 2018-01-26 10:18:46 +0200 (Fri, 26 Jan 2018) $
#$Revision: 205711 $
#$URL: file:///home/coder/svn-repositories/cod/cif/2/02/09/2020994.cif $
#------------------------------------------------------------------------------
#
# This file is available in the Crystallography Open Database (COD),
# http://www.crystallography.net/. The original data for this entry
# were provided by IUCr Journals, http://journals.iucr.org/.
#
# The file may be used within the scientific community so long as
# proper attribution is given to the journal article from which the
# data were obtained.
#
data_2020994
loop_
_publ_author_name
'Mac\'ias, Mario A.'
'Castillo, Juan-Carlos'
'Portilla, Jaime'
_publ_section_title
;
 A series of
 (<i>E</i>)-5-(arylideneamino)-1-<i>tert</i>-butyl-1<i>H</i>-pyrrole-3-carbonitriles
 and their reduction products to secondary amines: syntheses and X-ray
 structural studies
;
_journal_coeditor_code           CU3120
_journal_issue                   1
_journal_name_full               'Acta Crystallographica Section C'
_journal_page_first              82
_journal_page_last               93
_journal_paper_doi               10.1107/S2053229617017260
_journal_volume                  74
_journal_year                    2018
_chemical_formula_iupac          'C16 H17 Cl2 N3'
_chemical_formula_moiety         'C16 H17 Cl2 N3'
_chemical_formula_sum            'C16 H17 Cl2 N3'
_chemical_formula_weight         322.22
_chemical_name_systematic
1-<i>tert</i>-Butyl-5-[(2,4-dichlorobenzyl)amino]-1<i>H</i>-pyrrole-3-carbonitrile
_space_group_crystal_system      triclinic
_space_group_IT_number           2
_space_group_name_Hall           '-P 1'
_space_group_name_H-M_alt        'P -1'
_symmetry_space_group_name_Hall  '-P 1'
_symmetry_space_group_name_H-M   'P -1'
_atom_sites_solution_hydrogens   mixed
_atom_sites_solution_primary     iterative
_atom_sites_solution_secondary   difmap
_audit_creation_method           SHELXL-2016/6
_cell_angle_alpha                105.057(12)
_cell_angle_beta                 103.589(12)
_cell_angle_gamma                95.078(11)
_cell_formula_units_Z            2
_cell_length_a                   8.9700(12)
_cell_length_b                   9.3244(12)
_cell_length_c                   10.4645(14)
_cell_measurement_reflns_used    3822
_cell_measurement_temperature    298(2)
_cell_measurement_theta_max      26.4260
_cell_measurement_theta_min      4.1060
_cell_volume                     811.0(2)
_computing_cell_refinement
;
CrysAlis PRO (Agilent, 2014)
;
_computing_data_collection
;
CrysAlis PRO (Agilent, 2014)
;
_computing_data_reduction
;
CrysAlis PRO (Agilent, 2014)
;
_computing_molecular_graphics
;
Mercury (Macrae <i>et al.</i>,  2008)
;
_computing_publication_material
;
SHELXL2014 (Sheldrick, 2015)
;
_computing_structure_refinement
;
SHELXL2014 (Sheldrick, 2015)
;
_computing_structure_solution
;
SUPERFLIP (Palatinus & Chapuis, 2007)
;
_diffrn_ambient_temperature      298(2)
_diffrn_detector_area_resol_mean 5.3072
_diffrn_measured_fraction_theta_full 0.998
_diffrn_measured_fraction_theta_max 0.998
_diffrn_measurement_device       'four-circle diffractometer'
_diffrn_measurement_device_type
'Agilent SuperNova Dual Source diffractometer with an Atlas detector'
_diffrn_measurement_method       '\w scans'
_diffrn_radiation_type           MoK\a
_diffrn_radiation_wavelength     0.71073
_diffrn_reflns_av_R_equivalents  0.0379
_diffrn_reflns_limit_h_max       11
_diffrn_reflns_limit_h_min       -11
_diffrn_reflns_limit_k_max       10
_diffrn_reflns_limit_k_min       -11
_diffrn_reflns_limit_l_max       13
_diffrn_reflns_limit_l_min       -13
_diffrn_reflns_number            10849
_diffrn_reflns_theta_full        25.242
_diffrn_reflns_theta_max         26.372
_diffrn_reflns_theta_min         3.021
_exptl_absorpt_coefficient_mu    0.397
_exptl_absorpt_correction_T_max  1.00000
_exptl_absorpt_correction_T_min  0.78553
_exptl_absorpt_correction_type   multi-scan
_exptl_absorpt_process_details
;
(CrysAlis PRO; Agilent, 2014)
;
_exptl_crystal_colour            yellow
_exptl_crystal_density_diffrn    1.319
_exptl_crystal_density_method    'not measured'
_exptl_crystal_description       parallelepiped
_exptl_crystal_F_000             336
_exptl_crystal_size_max          0.249
_exptl_crystal_size_mid          0.112
_exptl_crystal_size_min          0.095
_refine_diff_density_max         0.221
_refine_diff_density_min         -0.341
_refine_ls_extinction_method     none
_refine_ls_goodness_of_fit_ref   1.023
_refine_ls_hydrogen_treatment    mixed
_refine_ls_matrix_type           full
_refine_ls_number_parameters     196
_refine_ls_number_reflns         3302
_refine_ls_number_restraints     0
_refine_ls_restrained_S_all      1.023
_refine_ls_R_factor_all          0.0663
_refine_ls_R_factor_gt           0.0499
_refine_ls_shift/su_max          0.000
_refine_ls_shift/su_mean         0.000
_refine_ls_structure_factor_coef Fsqd
_refine_ls_weighting_details
'w=1/[\s^2^(Fo^2^)+(0.0519P)^2^+0.4113P] where P=(Fo^2^+2Fc^2^)/3'
_refine_ls_weighting_scheme      calc
_refine_ls_wR_factor_gt          0.1190
_refine_ls_wR_factor_ref         0.1309
_reflns_number_gt                2520
_reflns_number_total             3302
_reflns_threshold_expression     'I > 2\s(I)'
_cod_data_source_file            cu3120sup1.cif
_cod_data_source_block           8b
_cod_original_cell_volume        811.05(19)
_cod_database_code               2020994
_shelx_space_group_comment
;
The symmetry employed for this shelxl refinement is uniquely defined
by the following loop, which should always be used as a source of
symmetry information in preference to the above space-group names.
They are only intended as comments.
;
_shelx_estimated_absorpt_t_min   0.908
_shelx_estimated_absorpt_t_max   0.963
_shelx_hkl_file
;
   0   0   2 150118. 2723.01   4
   0   0  -2 155846. 2712.65   6
   0   0   2 149536. 2799.88   2
   0   0   3 1458.46 88.8970   5
   0   0  -3 1599.54 117.980   6
   0   0   3 1409.35 117.393   4
   0   0   3 1589.89 148.790   2
   0   0   4 6994.46 302.329   4
   0   0   4 7148.79 251.030   5
   0   0  -4 7028.19 295.579   6
   0   0   4 7252.12 306.918   6
   0   0   4 7308.51 378.634   2
   0   0  -5 129.070 22.8138   7
   0   0   5 58.4776 58.7099   2
   0   0  -5 124.970 57.6916   6
   0   0   5 167.462 63.4938   4
   0   0   5 138.533 57.1098   6
   0   0   5 193.719 45.1056   5
   0   0  -6 1816.29 79.7852   7
   0   0   6 2211.76 205.960   6
   0   0   6 1852.96 141.627   5
   0   0   6 1946.20 239.891   2
   0   0  -6 2007.72 190.703   6
   0   0   6 2040.83 198.023   4
   0   0  -7 9058.29 536.007   2
   0   0   7 8245.91 338.339   5
   0   0   7 8861.53 451.174   6
   0   0   7 8316.24 552.568   2
   0   0  -7 8316.39 430.532   6
   0   0   8 1451.56 186.950   6
   0   0   8 1180.76 128.358   5
   0   0  -8 1675.82 241.790   2
   0   0  -9 1155.85 216.610   2
   0   0   9 1081.58 173.788   6
   0   0   9 1126.25 129.127   5
   0   0  10 1563.16 224.570   6
   0   0 -10 1662.99 278.217   2
   0   0  11 35.3041 55.7662   6
   0   0 -11 70.0975 74.2721   2
   0   0  12-101.624 81.2289   6
   0   0 -12 116.252 92.5115   2
   0   1 -12 116.463 98.6563   2
   0  -1  12-45.3690 64.3546   6
   0  -1  11 1253.89 204.765   6
   0   1 -11 1486.33 265.338   2
   0  -1  10 798.171 134.989   5
   0  -1  10 825.808 157.723   6
   0   1 -10 951.916 204.962   2
   0  -1   9 1654.56 174.482   5
   0  -1   9 1904.38 215.384   6
   0   1  -9 2121.99 282.555   2
   0  -1   8 1076.82 159.229   6
   0   1  -8 1077.36 184.983   2
   0  -1   8 977.429 127.936   5
   0   1  -8 1092.27 155.625   6
   0   1  -7 2750.96 225.860   6
   0  -1   7 2824.75 300.468   2
   0  -1   7 3125.13 243.532   6
   0  -1   7 2698.09 197.131   5
   0  -1   7 2942.51 252.942   4
   0   1  -7 2801.69 275.736   2
   0  -1   6 11904.5 458.332   6
   0  -1   6 10928.3 560.877   2
   0  -1   6 11207.8 468.622   4
   0  -1   6 10928.0 410.267   5
   0   1  -6 10898.6 441.232   6
   0   1  -5 109495. 2146.82   6
   0  -1   5 109607. 2151.19   6
   0  -1   5 107532. 2364.53   2
   0  -1   5 111981. 2202.16   4
   0  -1   5 106643. 2125.29   5
   0  -1   4 35135.5 954.044   2
   0  -1   4 36028.7 816.536   5
   0  -1   4 35368.6 812.771   6
   0  -1   4 36665.5 856.770   4
   0   1  -4 34666.6 809.547   6
   0  -1   3 81542.8 1693.58   2
   0   1  -3 84261.2 1561.36   6
   0  -1   3 84442.5 1563.82   6
   0  -1   3 91372.0 1619.25   4
   0  -1   3 85294.8 1588.50   5
   0  -1   2 17688.4 382.213   6
   0  -1   2 17706.1 464.064   2
   0   1   1 76136.0 1455.63   3
   0   1   1 80353.1 1551.22   2
   0  -1  -1 81363.5 1461.63   6
   0   1   2 482422. 8309.22   3
   0   1   2 489425. 8450.32   2
   0  -1  -2 491699. 8314.94   6
   0   1   2 467279. 8283.90   4
   0   1   3 48011.2 1027.02   4
   0   1   3 44813.6 853.511   5
   0  -1  -3 47517.9 1033.23   6
   0   1   3 48267.0 1180.34   2
   0   1   4 40138.8 787.514   5
   0   1   4 39786.2 970.366   4
   0   1   4 40138.0 1136.39   2
   0  -1  -4 38895.1 965.111   6
   0   1   5 53514.1 1056.69   5
   0   1   5 53897.1 1293.62   4
   0  -1  -5 53024.0 1272.83   6
   0   1   5 52970.1 1477.63   2
   0   1   6 2042.05 127.340   5
   0   1   6 2321.30 221.186   4
   0  -1  -6 2230.60 211.152   6
   0   1   6 2140.37 213.256   6
   0   1   6 2286.26 273.066   2
   0  -1  -7 1025.34 189.966   2
   0  -1  -7 1006.54 84.5662   7
   0   1   7 954.440 91.5824   5
   0   1   7 749.017 139.032   6
   0  -1  -8 1533.85 242.411   2
   0   1   8 1582.45 205.872   6
   0   1   8 1420.53 119.931   5
   0  -1  -8 1341.32 97.7926   7
   0   1   9 1423.08 128.383   5
   0  -1  -9 1725.81 277.370   2
   0   1   9 1546.40 217.986   6
   0  -1 -10 250.884 110.813   2
   0   1  10 228.245 93.0123   6
   0  -1 -11 237.562 115.984   2
   0   1  11 270.599 123.475   6
   0   2 -12 622.422 180.280   2
   0  -2  12 501.196 134.667   6
   0  -2  11 76.1999 71.5761   6
   0   2 -11 9.61610 59.1184   2
   0  -2  10 12.5413 54.4567   6
   0   2 -10-150.268 122.950   2
   0  -2   9 1657.06 197.039   6
   0   2  -9 1519.12 225.599   2
   0  -2   9 1224.17 156.531   5
   0   2  -8 359.608 90.4453   6
   0   2  -8 291.500 91.0511   2
   0  -2   8 435.330 92.9768   6
   0  -2   8 405.098 91.3809   5
   0   2  -7 367.268 84.4895   6
   0  -2   7 295.036 90.0430   2
   0   2  -7 373.261 87.3788   2
   0  -2   7 408.315 81.9910   6
   0  -2   7 323.761 76.2516   5
   0  -2   7 419.296 85.6220   4
   0  -2   6 852.744 106.254   6
   0  -2   6 711.343 111.673   4
   0  -2   6 665.128 132.206   2
   0  -2   6 708.290 108.959   5
   0   2  -6 744.192 99.4608   6
   0   2  -5 15422.8 465.341   6
   0  -2   5 15451.1 465.795   6
   0  -2   5 15547.4 514.903   4
   0  -2   5 15751.9 615.947   2
   0  -2   5 15422.9 513.038   5
   0  -2   4 32952.6 725.594   6
   0  -2   4 31520.0 885.117   2
   0   2  -4 33043.5 727.851   6
   0  -2   4 32394.2 810.470   5
   0  -2   4 33722.2 796.250   4
   0  -2   3 64551.0 1372.90   2
   0   2  -3 63514.7 1209.97   6
   0  -2   3 64866.6 1198.40   6
   0  -2   3 64111.4 1319.66   3
   0   2  -2 185399. 3317.61   1
   0   2  -2 183515. 3313.43   3
   0   2  -1 4842.02 171.666   1
   0   2  -1 4686.58 187.702   3
   0   2   0 174435. 3095.08   3
   0  -2   0 172185. 3033.00   6
   0  -2  -1 247788. 4035.72   4
   0   2   1 245082. 4128.81   3
   0  -2  -1 241824. 4101.87   6
   0   2   1 245212. 4054.32   4
   0   2   2 155293. 2918.38   3
   0   2   2 158386. 3093.86   2
   0   2   2 159983. 2876.60   4
   0  -2  -2 153719. 2909.01   6
   0   2   3 15047.4 487.895   3
   0  -2  -3 15452.9 498.399   6
   0   2   3 15023.0 606.703   2
   0   2   3 14950.1 476.608   4
   0   2   4 5661.29 294.883   4
   0  -2  -4 5032.20 290.524   6
   0   2   4 5563.97 383.713   2
   0   2   4 5040.75 278.081   3
   0   2   5 4494.29 274.990   3
   0  -2  -5 4941.23 300.876   6
   0   2   5 4665.61 287.886   4
   0   2   5 4312.28 361.917   2
   0  -2  -6 633.800 141.416   2
   0   2   6 780.472 136.598   4
   0   2   6 758.019 123.171   3
   0   2   6 906.452 144.709   6
   0   2   6 540.378 44.9533   5
   0  -2  -7 3285.23 353.415   2
   0   2   7 3814.43 311.867   6
   0   2   7 2659.60 114.332   5
   0  -2  -8 167.349 70.7195   2
   0   2   8 75.3463 57.3130   6
   0   2   8 86.3442 22.2288   5
   0  -2  -8 76.7768 41.7892   7
   0   2   9-95.2553 84.2525   6
   0  -2  -9-134.459 122.160   2
   0   2  10 31.4706 65.7713   6
   0  -2 -10-51.5746 70.5561   2
   0  -2 -11 228.662 144.557   2
   0   2  11 249.561 127.694   6
   0   3 -12 137.491 103.849   2
   0  -3  12 139.056 90.1801   6
   0   3 -11 21.7541 75.1096   2
   0  -3  11 109.510 75.8317   6
   0  -3  10 4841.84 342.036   6
   0   3 -10 4374.39 408.475   2
   0   3  -9 232.897 81.7199   6
   0   3  -9 351.362 116.913   2
   0  -3   9 185.291 55.9249   6
   0  -3   8 13.0823 32.9606   6
   0  -3   8-28.3551 41.6939   5
   0   3  -8 42.5595 59.6597   2
   0   3  -8 37.6052 33.7191   6
   0   3  -7 6647.71 410.110   2
   0  -3   7 7442.96 339.544   6
   0   3  -7 6389.14 324.732   6
   0  -3   7 6840.84 366.809   4
   0  -3   7 6568.17 367.969   5
   0  -3   7 7428.22 482.060   2
   0  -3   6 588.651 84.2643   6
   0  -3   6 507.439 116.222   2
   0  -3   6 381.796 88.5690   5
   0   3  -6 420.022 70.5372   6
   0  -3   6 454.920 88.6409   4
   0  -3   6 334.807 38.4783   7
   0  -3   5 1850.73 174.132   5
   0  -3   5 1767.90 119.755   6
   0  -3   5 1731.78 161.545   3
   0  -3   5 1782.23 188.827   2
   0  -3   5 1786.51 149.547   4
   0  -3   4 19455.2 595.635   3
   0  -3   4 20275.3 457.927   6
   0  -3   4 18979.5 533.260   4
   0  -3   4 20215.8 651.968   2
   0  -3   3 18684.1 403.168   6
   0   3  -3 21223.9 588.447   1
   0   3  -3 21540.8 594.311   3
   0  -3   3 22319.4 599.101   3
   0  -3   3 22828.2 624.149   2
   0   3  -2 43554.5 967.640   1
   0   3  -2 46327.0 1007.38   3
   0   3  -1 6699.18 189.890   6
   0   3  -1 7031.96 248.164   1
   0  -3   1 6437.28 190.338   6
   0   3  -1 6401.52 264.917   3
   0  -3   0 111943. 2025.20   5
   0   3   0 114516. 2027.66   6
   0  -3   0 110080. 2026.27   6
   0   3   0 114206. 2120.56   3
   0   3   0 103180. 1930.77   4
   0   3   1 50831.4 1018.88   4
   0  -3  -1 50682.4 1091.52   6
   0   3   1 51251.0 1127.78   3
   0  -3  -1 52332.3 1002.29   4
   0  -3  -1 51379.4 975.462   5
   0   3   2 19703.6 528.442   4
   0  -3  -2 18934.6 567.208   6
   0   3   2 19499.9 587.563   3
   0   3   3 97411.8 1966.17   4
   0   3   3 97867.6 2253.14   2
   0   3   3 96862.5 2018.35   3
   0  -3  -3 99155.8 2022.50   6
   0   3   4 16944.4 576.426   4
   0  -3  -4 16423.6 596.986   6
   0   3   4 15492.5 722.016   2
   0   3   4 15998.7 583.982   3
   0  -3  -5 4716.38 319.080   6
   0   3   5 4497.91 405.016   2
   0   3   5 4963.68 316.691   3
   0  -3  -5 4938.56 414.297   2
   0   3   5 4970.12 321.377   4
   0  -3  -6 3033.09 345.535   2
   0   3   6 2601.02 252.259   4
   0   3   6 2966.17 277.602   6
   0   3   7 3282.05 305.215   6
   0  -3  -7 3039.99 364.139   2
   0  -3  -8 160.569 87.1948   2
   0   3   8 200.117 87.2691   6
   0  -3  -9 488.867 165.771   2
   0   3   9 529.439 143.322   6
   0   3  10 152.561 93.3599   6
   0  -3 -10 296.603 174.694   2
   0   4 -12 332.887 131.428   2
   0  -4  12 106.669 71.3589   6
   0  -4  12 220.365 99.4982   3
   0   4 -11 311.158 139.125   2
   0  -4  11 276.449 93.0829   6
   0  -4  11 290.064 122.760   3
   0   4 -10 765.842 167.108   2
   0  -4  10 758.175 155.828   3
   0  -4  10 1036.86 153.736   6
   0  -4   9-0.24563 59.5740   3
   0   4  -9 121.779 69.3417   2
   0  -4   9 146.781 66.3334   6
   0  -4   8 2425.40 244.230   3
   0   4  -8 2290.26 253.406   2
   0  -4   8 2356.64 248.810   1
   0  -4   8 2548.66 199.522   6
   0  -4   7 109.214 55.4268   4
   0  -4   7 131.254 65.4890   5
   0  -4   7 234.550 79.4069   1
   0  -4   7 93.4630 24.1649   7
   0   4  -7 234.544 78.2762   2
   0  -4   7 186.327 53.4608   6
   0  -4   7 220.625 82.6168   3
   0  -4   6 833.720 85.1101   6
   0  -4   6 767.490 121.213   3
   0  -4   6 637.108 96.6584   4
   0  -4   6 687.416 138.262   2
   0  -4   6 544.156 110.010   5
   0  -4   5 31904.5 661.491   6
   0  -4   5 28931.8 772.269   4
   0  -4   5 30995.4 883.082   3
   0  -4   5 29051.8 935.139   2
   0  -4   4 17765.1 393.916   6
   0  -4   4 20595.0 530.247   4
   0  -4   4 22784.5 657.817   3
   0  -4   4 21855.3 686.858   2
   0   4  -3 1338.77 140.750   3
   0   4  -3 1409.00 137.261   1
   0  -4   3 1353.41 137.981   3
   0   4  -2 93386.5 1768.85   1
   0  -4   2 84978.6 1570.90   6
   0   4  -2 91702.6 1816.99   3
   0  -4   1 825.461 96.7705   5
   0   4  -1 884.624 93.3799   1
   0   4  -1 798.316 103.202   3
   0   4  -1 863.209 71.2243   6
   0  -4   1 914.141 76.2492   6
   0   4   0 3618.65 222.227   3
   0  -4   0 3217.40 112.361   4
   0  -4   0 3413.46 179.092   6
   0  -4   0 3498.41 176.443   5
   0   4   0 3737.76 181.956   6
   0   4   0 3456.83 125.387   4
   0   4   1 21514.9 645.665   3
   0   4   1 21613.7 589.524   6
   0  -4  -1 20580.8 588.533   6
   0   4   1 20461.2 501.851   4
   0  -4  -1 20258.7 489.275   5
   0  -4  -2 8887.24 375.199   6
   0   4   2 9447.43 401.437   3
   0  -4  -2 7385.65 208.809   5
   0   4   2 9369.01 332.796   4
   0   4   3 59404.0 1409.29   6
   0   4   3 61426.0 1442.15   3
   0  -4  -3 58312.2 1412.37   6
   0   4   3 62090.9 1359.07   4
   0   4   4 3239.45 241.963   4
   0   4   4 3052.22 250.168   6
   0   4   4 3071.12 249.111   3
   0  -4  -4 3248.00 262.185   6
   0  -4  -5 13055.3 750.774   2
   0   4   5 13579.8 577.446   4
   0   4   5 13466.3 594.685   6
   0  -4  -6 19.1322 78.9591   2
   0   4   6 120.975 79.8033   6
   0  -4  -7 247.552 118.637   2
   0   4   7 217.112 95.9328   6
   0  -4  -8 1369.92 276.890   2
   0   4   8 1370.26 225.165   6
   0  -4  -9 491.597 174.746   2
   0   4   9 474.906 146.442   6
   0   4  10-28.4095 73.4604   6
   0  -4 -10 54.9998 104.338   2
   0  -5  12 29.9954 56.6391   1
   0  -5  12-40.7964 64.4359   3
   0  -5  11 266.426 93.2276   6
   0  -5  11 340.677 134.034   1
   0  -5  11 73.0820 65.2642   3
   0  -5  10 3261.73 250.957   6
   0  -5  10 3001.35 305.964   3
   0  -5  10 2789.48 309.076   1
   0  -5   9 120.931 48.9782   6
   0  -5   9 161.588 93.9649   3
   0  -5   9 0.13748 49.0420   1
   0  -5   9 41.3284 15.7178   7
   0  -5   8 1568.70 201.499   3
   0  -5   8 1549.83 199.516   1
   0  -5   8 1744.87 144.150   6
   0  -5   8 1141.05 99.0574   7
   0  -5   7 828.417 125.814   4
   0  -5   7 966.671 153.456   1
   0  -5   7 944.703 91.1430   6
   0  -5   7 923.028 147.139   3
   0  -5   6 13.6525 44.2617   5
   0  -5   6 23.1066 36.2375   1
   0  -5   6-72.1483 71.4957   2
   0  -5   6 0.28632 37.7319   3
   0  -5   6-8.91903 28.6546   4
   0  -5   6 28.6302 20.4104   6
   0  -5   5 89.4892 54.4690   2
   0  -5   5 131.911 71.9766   3
   0  -5   5 43.3238 13.3623   6
   0  -5   5 90.0947 44.6057   4
   0   5  -4-42.6949 42.0105   1
   0  -5   4-44.9449 49.6883   3
   0   5  -4 11.2126 25.9579   3
   0  -5   4 45.9876 28.5833   4
   0  -5   3 400.321 32.4491   6
   0  -5   3 635.612 105.200   3
   0  -5   3 566.031 55.2205   4
   0   5  -3 636.560 101.140   1
   0   5  -3 669.280 113.057   3
   0  -5   2 21097.2 417.020   6
   0   5  -2 23620.3 604.057   1
   0   5  -2 23562.5 660.213   3
   0  -5   2 22954.2 622.564   5
   0   5  -1 2407.34 175.829   1
   0   5  -1 2577.86 146.938   6
   0   5  -1 2320.43 197.836   3
   0  -5   1 2383.21 144.148   6
   0  -5   1 2247.42 169.649   5
   0   5   0 39886.3 786.726   4
   0  -5   0 39670.0 922.963   5
   0  -5   0 40220.1 944.889   6
   0   5   0 41523.2 1063.86   3
   0   5   0 42050.0 939.874   6
   0   5   1 7214.64 372.800   3
   0  -5  -1 7148.60 332.323   6
   0  -5  -1 6643.19 253.785   5
   0   5   1 7066.06 249.556   4
   0  -5  -2 563.263 55.5388   5
   0  -5  -2 823.845 122.100   6
   0   5   2 612.775 107.300   3
   0   5   2 636.884 82.3212   4
   0   5   3 20965.1 647.071   4
   0   5   3 20982.1 711.836   6
   0  -5  -3 20415.9 743.600   3
   0  -5  -3 20829.2 723.849   6
   0   5   3 21367.2 745.846   3
   0  -5  -3 19270.4 892.254   2
   0  -5  -4 194.559 90.1994   2
   0   5   4 238.626 84.2858   6
   0   5   4 313.408 82.7980   4
   0   5   5 23483.3 860.224   6
   0   5   5 24377.2 831.503   4
   0  -5  -5 22312.7 1071.50   2
   0   5   6 1991.14 246.137   6
   0  -5  -6 2226.52 339.904   2
   0   5   7 2376.65 290.827   6
   0  -5  -7 2277.31 354.205   2
   0  -5  -8 48.5540 97.1163   2
   0   5   8 148.037 92.6021   6
   0   5   9 282.879 125.399   6
   0  -5  -9 291.391 149.964   2
   0  -6  12 195.628 111.716   1
   0  -6  12 79.6542 58.3384   3
   0  -6  11 472.823 137.130   3
   0  -6  11 361.032 137.159   1
   0  -6  10-6.55794 59.6715   3
   0  -6  10 105.669 46.4221   6
   0  -6  10 54.0799 56.3733   1
   0  -6   9 161.734 45.5927   7
   0  -6   9 333.954 122.071   3
   0  -6   9 148.859 50.7791   6
   0  -6   9 206.883 88.1812   1
   0  -6   8 422.483 61.9695   6
   0  -6   8 531.885 130.409   3
   0  -6   8 525.774 130.791   1
   0  -6   7 776.118 139.355   3
   0  -6   7 861.572 140.026   1
   0  -6   7 611.178 54.8102   6
   0  -6   7 671.277 113.016   4
   0  -6   6 1386.86 192.959   3
   0  -6   6 1247.81 161.846   1
   0  -6   6 617.941 98.7449   4
   0  -6   5 4091.83 276.628   1
   0  -6   5 3819.17 293.090   3
   0  -6   5 3556.41 304.511   2
   0   6  -5 3672.98 294.026   3
   0  -6   5 2962.38 189.570   4
   0  -6   4 4552.62 314.120   3
   0  -6   4 4039.59 292.373   5
   0   6  -4 4000.44 299.823   3
   0  -6   4 3408.66 167.225   4
   0   6  -4 4300.17 297.505   1
   0   6  -3 36.8004 40.3530   3
   0   6  -3 48.0059 47.6763   1
   0  -6   3-48.0415 49.8062   3
   0  -6   3-6.23841 13.9734   4
   0  -6   3-3.03032 34.1356   5
   0  -6   3 16.1975 11.8432   4
   0  -6   3 24.4361 15.2105   6
   0  -6   2 20259.1 523.067   6
   0   6  -2 23119.7 695.152   1
   0   6  -2 21826.0 743.145   3
   0   6  -1 2388.19 159.255   6
   0   6  -1 2157.01 208.281   3
   0   6  -1 2260.45 186.286   1
   0  -6   1 2193.65 155.668   6
   0   6   0 30964.9 920.566   3
   0   6   0 32708.5 841.479   1
   0   6   0 31430.1 788.162   6
   0  -6   0 29695.2 789.739   6
   0   6   0 25999.5 578.568   4
   0  -6   0 30304.1 768.552   5
   0  -6  -1 276.955 75.8012   6
   0  -6  -1 308.769 57.8955   5
   0  -6  -1 292.422 104.107   2
   0  -6  -1 229.848 76.9987   3
   0   6   1 309.480 50.2851   4
   0  -6  -2 1469.64 237.790   2
   0  -6  -2 1566.87 107.286   5
   0   6   2 1840.31 188.678   6
   0   6   2 1707.17 140.147   4
   0  -6  -2 1953.12 214.537   3
   0  -6  -2 1727.54 190.320   6
   0  -6  -3 1878.79 221.565   3
   0  -6  -3 1520.86 258.506   2
   0   6   3 1574.09 191.573   6
   0   6   3 1358.66 145.571   4
   0   6   4 9967.55 461.808   4
   0  -6  -4 10975.0 577.546   3
   0  -6  -4 9222.76 674.695   2
   0   6   4 10459.6 536.041   6
   0   6   5 3181.66 308.372   6
   0   6   5 3142.29 270.996   4
   0  -6  -5 2590.67 375.989   2
   0  -6  -6 3138.37 429.206   2
   0   6   6 2951.10 321.454   6
   0   6   7 1660.38 250.874   6
   0  -6  -7 1476.20 302.449   2
   0   6   8-94.8804 85.1900   6
   0  -6  -8 93.9440 120.567   2
   0  -7  11 730.414 185.398   3
   0  -7  11 654.870 180.006   1
   0  -7  10 116.489 100.392   1
   0  -7  10 71.9471 84.4321   3
   0  -7   9 1514.25 221.670   3
   0  -7   9 1460.61 207.450   1
   0  -7   8 2324.58 226.563   4
   0  -7   8 2548.00 275.252   3
   0  -7   8 2219.29 243.497   1
   0  -7   7 1499.11 160.391   4
   0  -7   7 2366.85 242.417   1
   0  -7   7 2485.54 272.798   3
   0  -7   6 1033.66 170.544   3
   0  -7   6 1155.64 162.447   1
   0  -7   6 550.446 87.0875   4
   0  -7   5 1944.08 194.720   1
   0  -7   5 2295.94 248.149   3
   0  -7   5 1472.34 120.143   4
   0  -7   4 745.292 140.075   3
   0  -7   4 605.696 65.3955   4
   0  -7   4 527.094 56.2015   4
   0  -7   4 815.097 122.917   1
   0  -7   3 1645.16 188.611   5
   0  -7   3 1371.27 94.3766   6
   0  -7   3 1875.42 214.113   3
   0  -7   2-43.3270 47.8362   5
   0  -7   2-14.2719 43.3858   3
   0  -7   2-3.02203 22.0260   6
   0   7  -1 4458.11 243.284   6
   0  -7   1 4332.71 324.436   3
   0  -7   1 2997.22 205.740   6
   0  -7   0 1035.25 133.143   6
   0  -7   0 1275.05 182.538   3
   0   7   1 16059.6 591.999   6
   0  -7  -1 15858.4 614.457   6
   0   7   1 15275.2 426.565   4
   0  -7  -1 14609.0 814.576   2
   0  -7  -1 17099.7 703.370   3
   0  -7  -1 15136.4 486.250   5
   0  -7  -2 6284.78 422.619   3
   0   7   2 6374.37 377.593   6
   0  -7  -2 5297.75 490.784   2
   0  -7  -2 5800.88 236.328   5
   0   7   2 5828.82 273.643   4
   0  -7  -3 3905.74 348.518   3
   0   7   3 4031.70 257.426   4
   0  -7  -3 3476.06 416.785   2
   0   7   3 3878.43 314.129   6
   0  -7  -4 745.883 207.696   2
   0  -7  -4 618.786 152.847   3
   0   7   4 713.228 148.524   6
   0   7   4 922.881 141.954   4
   0   7   5 707.849 158.585   6
   0  -7  -5 531.969 192.864   2
   0   7   6 2267.95 288.200   6
   0  -7  -6 1835.16 352.433   2
   0  -7  -7 965.003 273.128   2
   0   7   7 727.447 190.223   6
   0  -8  11 1338.65 236.329   1
   0  -8  11 1618.09 254.740   3
   0  -8  10-97.5248 81.0895   1
   0  -8  10 148.933 106.015   3
   0  -8   9-135.933 80.0290   1
   0  -8   9 32.0579 65.1434   3
   0  -8   8 753.052 154.432   1
   0  -8   8 539.116 143.639   3
   0  -8   7 2640.92 289.802   3
   0  -8   7 2183.57 191.002   4
   0  -8   7 2474.31 255.121   1
   0  -8   6-38.9309 58.2223   1
   0  -8   6-1.66814 30.0669   4
   0  -8   6-53.1393 70.4086   3
   0  -8   5 2867.12 163.019   4
   0  -8   5 3676.35 280.007   1
   0  -8   5 3907.46 338.892   3
   0  -8   5 2729.22 151.888   4
   0  -8   4 18.2886 56.1866   3
   0  -8   3 336.442 100.339   3
   0  -8   3 304.123 50.6499   6
   0  -8   2 7356.57 399.351   5
   0  -8   2 8240.32 482.313   3
   0  -8   1 28.7215 30.0384   6
   0  -8   1 18.1751 39.8976   5
   0  -8   1 27.2490 54.5631   3
   0  -8   0 2066.30 244.871   3
   0   8   0 2044.56 196.180   6
   0  -8   0 1719.24 188.406   6
   0  -8  -1 1894.25 240.455   3
   0   8   1 1812.89 197.961   6
   0   8   1 1158.80 88.6219   4
   0  -8  -1 1366.36 260.397   2
   0  -8  -2 445.635 66.7980   5
   0   8   2 604.415 121.426   6
   0   8   2 417.303 72.5725   4
   0  -8  -2 421.183 126.528   3
   0  -8  -2 224.151 122.595   2
   0  -8  -3 422.222 137.605   3
   0  -8  -3 194.273 147.620   2
   0   8   3 476.255 117.580   6
   0  -8  -4 869.042 237.965   2
   0   8   4 1112.05 195.112   6
   0  -8  -4 1182.39 215.505   3
   0   8   5 307.728 114.589   6
   0  -8  -5 146.822 145.967   2
   0   8   6 408.596 156.641   6
   0  -8  -6 42.4855 98.7722   2
   0  -9  10 72.6517 94.8225   3
   0  -9  10 152.624 91.9399   1
   0  -9   9 341.271 129.523   3
   0  -9   9 305.568 116.411   1
   0  -9   8 358.681 119.049   1
   0  -9   8 175.643 80.8897   3
   0  -9   7 190.503 82.2783   1
   0  -9   7 247.961 123.401   3
   0  -9   6 197.241 105.250   3
   0  -9   6 260.113 101.544   1
   0  -9   5 1544.12 234.085   3
   0  -9   4 778.260 158.245   3
   0  -9   3 333.623 115.524   3
   0  -9   3 262.249 53.1565   6
   0  -9   2 153.654 61.5565   6
   0  -9   2-3.00837 61.2834   3
   0  -9   1 65.1644 51.4929   6
   0  -9   1-74.2019 80.5016   3
   0   9  -1 43.8556 37.0933   6
   0   9   0 290.286 86.2307   6
   0  -9   0 185.776 73.0096   6
   0  -9   0 98.8581 45.4803   5
   0  -9   0 389.855 123.273   3
   0  -9   0 279.957 145.123   2
   0  -9  -1 1541.30 308.022   2
   0   9   1 1792.11 209.895   6
   0  -9  -1 2040.56 271.730   3
   0   9   2 549.062 124.212   6
   0  -9  -2 490.867 142.808   3
   0  -9  -2 375.476 176.851   2
   0   9   3 2265.52 272.131   6
   0  -9  -3 2567.99 324.629   3
   0  -9  -3 2206.23 394.439   2
   0   9   4 107.010 95.9438   6
   0  -9  -4 31.8822 86.6592   2
   0 -10   9 53.6972 51.0575   1
   0 -10   9-19.0976 67.2037   3
   0 -10   8 285.138 115.575   1
   0 -10   8-16.2954 66.4965   3
   0 -10   7 1427.93 248.078   3
   0 -10   6 32.4621 79.4050   3
   0 -10   5 1049.41 205.743   3
   0 -10   4 858.973 192.688   3
   0 -10   3 843.819 177.610   3
   0 -10   2 719.915 170.961   3
   0 -10   1 255.874 104.307   3
   0  10   0 419.098 107.394   6
   0 -10   0 504.927 155.552   3
   0 -10   0 382.705 180.515   2
   0  10   1 21.7187 52.8732   6
   0 -10  -1 0.38450 70.7976   3
   0 -10  -1-14.0805 98.1777   2
   0 -10  -2 758.977 190.780   3
   0 -10  -2 562.090 218.173   2
   0  10   2 741.084 157.921   6
   0 -10  -3 119.891 99.3309   3
   0  10   3 449.262 134.512   6
   0 -11   7 137.903 100.691   3
   0 -11   6 331.806 151.290   3
   0 -11   5 643.257 171.575   3
   0 -11   4 322.620 134.699   3
   0 -11   3 72.4706 94.3254   3
   0 -11   2 573.321 171.826   3
   0 -11   1 37.7304 93.1965   2
   0 -11   1 110.123 97.1094   3
   0 -11   0 300.716 183.419   2
   0 -11   0 313.849 137.459   3
   1 -11   0 197.052 142.781   2
   1 -11   0 122.508 109.542   3
   1 -11   1 133.644 110.461   3
   1 -11   1 178.626 117.920   2
   1 -11   2 20.0477 74.2456   3
   1 -11   3 896.223 197.383   3
   1 -11   4 375.752 144.002   3
   1 -11   5 476.627 149.778   3
   1 -11   6 163.164 107.066   3
   1 -11   7 427.857 150.822   3
   1 -10  -3 11.2751 93.3874   2
  -1  10   3 80.2568 66.5940   6
  -1  10   2-26.9621 69.0974   6
   1 -10  -2 102.016 118.465   2
   1 -10  -2 32.9504 70.0910   3
  -1  10   1 289.910 95.5972   6
   1 -10  -1 336.333 162.922   2
   1 -10  -1 525.126 155.512   3
   1 -10   0-73.3930 71.0323   2
   1 -10   0-19.5073 73.7620   3
   1 -10   1 106.626 83.0381   3
   1 -10   2 23.7698 66.0634   3
   1 -10   3 71.3049 102.050   3
   1 -10   4 148.418 96.3970   3
   1 -10   5 1037.69 206.964   3
   1 -10   6 61.1200 70.1009   3
   1 -10   7 181.459 109.672   3
   1 -10   7 163.169 87.3877   1
   1 -10   8 92.2011 96.6842   3
   1 -10   8 218.845 104.894   1
   1 -10   9 105.420 82.8152   1
   1 -10   9-119.820 111.207   3
  -1   9   5 229.189 108.755   6
   1  -9  -5-10.5322 80.6738   2
  -1   9   4 95.3931 74.8387   6
   1  -9  -4 87.8184 140.042   2
   1  -9  -3 694.235 178.785   3
  -1   9   3 385.722 121.294   6
   1  -9  -3 265.433 158.934   2
  -1   9   2 1425.46 208.467   6
   1  -9  -2 1329.80 230.624   3
   1  -9  -2 1148.46 271.497   2
  -1   9   1 490.025 108.258   6
   1  -9  -1 476.665 133.263   3
   1  -9  -1 676.197 211.495   2
   1  -9   0 1397.02 166.018   5
   1  -9   0 1189.42 270.268   2
   1  -9   0 1081.69 166.877   6
   1  -9   0 1490.15 229.867   3
  -1   9   0 1569.79 187.184   6
   1  -9   1 402.337 91.0428   6
   1  -9   1 649.148 154.334   3
   1  -9   2 151.654 82.6866   3
   1  -9   2 169.454 58.5324   6
   1  -9   3 1391.37 129.877   6
   1  -9   3 1877.09 248.116   3
   1  -9   4-34.5333 69.2319   3
   1  -9   5 1503.21 228.618   3
   1  -9   6 276.667 113.202   3
   1  -9   6 401.526 113.045   1
   1  -9   7 2717.38 273.938   1
   1  -9   7 2720.95 312.858   3
   1  -9   8 268.726 87.7056   1
   1  -9   8 368.733 128.690   3
   1  -9   9-11.9512 55.4361   1
   1  -9   9 143.400 92.8637   3
   1  -9  10 218.955 102.470   1
   1  -9  10-15.9940 64.0838   3
   1  -8  -6 349.169 177.512   2
  -1   8   6 472.296 140.597   6
   1  -8  -5 219.211 147.634   2
  -1   8   5 493.414 137.296   6
  -1   8   4 280.695 106.622   6
   1  -8  -4 301.299 168.776   2
   1  -8  -3 773.972 217.088   2
   1  -8  -3 948.670 190.243   3
  -1   8   3 792.269 154.034   6
  -1   8   2 779.112 137.646   6
   1  -8  -2 686.695 192.347   2
   1  -8  -2 806.143 97.7478   5
   1  -8  -2 990.158 182.257   3
  -1   8   2 510.055 63.9115   4
   1  -8  -1 323.932 112.886   3
  -1   8   1 102.774 58.7937   6
   1  -8  -1 224.018 125.765   2
   1  -8   0 373.567 117.753   3
  -1   8   0 371.981 84.5455   6
   1  -8   0 319.111 78.0747   5
   1  -8   0 184.070 59.4650   6
   1  -8   1 1038.08 140.372   5
   1  -8   1 650.771 107.909   6
   1  -8   1 984.066 166.612   3
   1  -8   2 433.048 113.755   3
   1  -8   2 140.359 40.6572   6
   1  -8   3 101.861 74.2901   3
   1  -8   3 81.4919 35.8850   6
   1  -8   4-30.8283 53.5031   3
   1  -8   4 11.6787 19.1288   6
   1  -8   5 633.975 122.499   1
   1  -8   5 443.624 62.6920   4
   1  -8   5 647.004 144.328   3
   1  -8   6 374.934 120.856   3
   1  -8   6 434.839 82.1848   4
   1  -8   6 513.249 119.652   1
   1  -8   7 1298.35 153.908   4
   1  -8   7 1207.11 194.464   3
   1  -8   7 1272.91 186.578   1
   1  -8   8 718.870 162.427   3
   1  -8   8 735.952 148.871   1
   1  -8   9 392.001 123.051   3
   1  -8   9 504.470 135.357   1
   1  -8  10 566.368 152.277   3
   1  -8  10 478.677 130.308   1
   1  -8  11 242.949 119.503   3
   1  -8  11 15.1269 60.8850   1
   1  -7  -7-44.0115 76.6513   2
  -1   7   7 157.707 89.5974   6
  -1   7   6 107.562 70.1328   6
   1  -7  -6 182.999 117.596   2
   1  -7  -5 103.644 105.690   2
  -1   7   5 98.1680 65.2741   4
  -1   7   5 191.684 79.3034   6
  -1   7   4 3498.57 315.630   6
   1  -7  -4 3104.75 406.179   2
  -1   7   4 3206.96 239.145   4
  -1   7   3 330.934 70.9813   4
   1  -7  -3 228.593 118.159   2
   1  -7  -3 251.722 100.235   3
  -1   7   3 221.472 78.4699   6
   1  -7  -2 822.415 92.3626   5
  -1   7   2 834.972 85.7599   4
  -1   7   2 875.396 138.054   6
   1  -7  -2 811.676 205.791   2
   1  -7  -2 870.081 161.660   3
   1  -7  -1 95.2087 43.2271   6
   1  -7  -1 128.069 42.3901   5
  -1   7   1 97.9373 20.0753   4
  -1   7   1 248.282 73.8560   6
   1  -7  -1 241.169 125.317   2
   1  -7  -1 301.180 102.066   3
   1  -7   0 1099.00 168.409   3
   1  -7   0 977.308 130.055   6
   1  -7   1 1298.33 148.441   5
   1  -7   1 1537.43 194.162   3
   1  -7   1 1014.08 121.108   6
   1  -7   2 60.1847 32.7304   6
   1  -7   2 59.8080 46.1510   3
   1  -7   2 8.85776 32.4219   5
   1  -7   3 514.709 113.814   3
   1  -7   3 515.804 68.6230   6
   1  -7   3 449.580 104.457   5
   1  -7   4 383.985 51.3119   4
   1  -7   4 684.969 117.480   1
   1  -7   4 599.338 124.935   3
   1  -7   4 384.474 49.4070   6
   1  -7   5 602.052 82.8236   4
   1  -7   5 425.067 45.6947   6
   1  -7   5 974.361 162.507   3
   1  -7   5 877.828 135.594   1
   1  -7   5 499.699 49.0515   6
   1  -7   6 784.610 61.1139   6
   1  -7   6 602.645 54.5298   6
   1  -7   6 732.059 106.733   4
   1  -7   6 1248.66 173.082   1
   1  -7   6 1293.76 184.394   3
   1  -7   7 1042.65 84.8243   6
   1  -7   7 1139.42 168.239   1
   1  -7   7 1292.33 156.181   4
   1  -7   7 1388.57 196.258   3
   1  -7   8 961.243 167.221   3
   1  -7   8 671.148 133.431   1
   1  -7   8 1029.69 159.474   4
   1  -7   8 954.487 96.4768   6
   1  -7   9 380.711 126.979   3
   1  -7   9 182.999 78.5894   1
   1  -7  10 701.335 159.419   3
   1  -7  10 605.747 152.682   1
   1  -7  11 59.8768 61.9918   3
   1  -7  11 170.485 101.666   1
   1  -6  -8-116.509 95.2158   2
  -1   6   8-159.187 109.549   6
   1  -6  -7-2.75736 72.6011   2
  -1   6   7-66.7723 71.1887   6
   1  -6  -6 2236.53 359.798   2
  -1   6   6 2132.30 256.934   6
  -1   6   5-62.5635 59.9491   6
   1  -6  -5 14.8211 82.1624   2
  -1   6   5 2.07248 50.7240   4
   1  -6  -4 100.739 98.4397   2
  -1   6   4-12.1429 59.5735   6
  -1   6   4 126.551 58.2143   4
  -1   6   3 36.7273 33.3855   4
   1  -6  -3 32.4609 52.3453   3
  -1   6   3 34.3268 47.0023   6
   1  -6  -3 69.2669 76.6313   2
  -1   6   2 662.220 114.017   6
   1  -6  -2 558.419 112.346   6
  -1   6   2 515.488 69.6926   4
   1  -6  -2 566.603 71.5838   5
   1  -6  -2 472.787 131.238   2
   1  -6  -2 460.287 104.649   3
   1  -6  -1 1095.60 157.989   3
  -1   6   1 716.108 59.2035   4
   1  -6  -1 884.691 190.427   2
   1  -6  -1 994.802 129.128   6
  -1   6   1 1171.38 160.948   3
   1  -6  -1 935.084 99.1872   5
  -1   6   0 1401.03 147.408   1
  -1   6   0 1161.06 156.682   3
   1  -6   0 1118.66 154.099   3
   1  -6   0 1179.70 125.655   5
   1  -6   0 1059.95 119.519   6
  -1   6   0 1214.11 128.639   6
  -1   6  -1 88.8872 48.9467   3
   1  -6   1 108.382 31.1890   6
   1  -6   1 179.440 63.3667   3
  -1   6  -1 188.754 63.7815   1
   1  -6   2-58.5763 46.1904   5
   1  -6   2-45.6354 31.1243   6
  -1   6  -2-22.3484 36.9223   1
  -1   6  -2 22.5197 31.3199   3
   1  -6   2-5.71358 40.2295   3
  -1   6  -3 2750.56 231.414   3
  -1   6  -3 2757.08 223.068   1
   1  -6   3 2662.81 227.695   3
   1  -6   3 2596.06 199.766   1
   1  -6   3 2521.27 135.155   6
   1  -6   3 2817.56 229.254   5
   1  -6   3 1547.69 87.9609   4
   1  -6   4 43.3390 52.1648   5
  -1   6  -4 74.5448 54.8660   3
  -1   6  -4-0.56757 34.9394   1
   1  -6   4-1.33744 28.7128   1
   1  -6   4-3.92873 43.6400   3
   1  -6   4 16.8181 15.0051   6
   1  -6   4 16.8565 24.3813   4
   1  -6   5 3495.23 272.855   3
   1  -6   5 2445.60 133.546   6
   1  -6   5 3122.87 201.475   4
   1  -6   5 3527.73 258.418   1
   1  -6   5 3064.15 278.722   2
  -1   6  -5 3131.94 264.034   3
   1  -6   6-7.05464 59.8022   1
   1  -6   6 39.9287 37.3302   4
   1  -6   6 17.7164 47.8721   3
   1  -6   6 35.5793 22.9061   6
   1  -6   7 295.065 57.0069   6
   1  -6   7 342.494 97.7394   3
   1  -6   7 333.169 96.0348   1
   1  -6   7 297.218 90.0360   4
   1  -6   8 6718.26 435.476   1
   1  -6   8 7363.82 321.240   6
   1  -6   8 6863.65 433.850   3
   1  -6   9 249.750 104.455   3
   1  -6   9 430.164 89.7630   6
   1  -6   9 317.164 105.713   1
   1  -6  10 791.603 173.950   1
   1  -6  10 566.781 139.448   3
   1  -6  10 844.318 125.365   6
   1  -6  11 86.2357 79.5173   3
   1  -6  11 2.86995 73.6328   1
   1  -6  12 312.419 117.650   1
  -1   5   9 247.262 120.340   6
   1  -5  -9 326.166 156.650   2
   1  -5  -8-41.8293 74.7225   2
  -1   5   8 66.7353 75.3792   6
   1  -5  -7 445.860 163.502   2
  -1   5   7 509.023 134.519   6
   1  -5  -6 1007.10 230.928   2
  -1   5   6 771.229 152.861   6
   1  -5  -5 405.865 151.129   2
  -1   5   5 282.188 80.9773   4
  -1   5   5 19.2909 72.5990   6
  -1   5   4 19.6128 55.2628   6
   1  -5  -4 170.158 106.146   2
  -1   5   4 42.4904 41.2627   4
  -1   5   3 178.464 51.0241   4
   1  -5  -3 382.945 128.845   2
  -1   5   3 122.655 53.0827   6
   1  -5  -3 449.165 104.598   3
  -1   5   3 341.485 90.2955   3
   1  -5  -3 243.266 57.0113   6
   1  -5  -2 5399.21 426.044   2
  -1   5   2 5736.92 242.684   4
  -1   5   2 5726.81 335.256   3
   1  -5  -2 5848.39 322.672   6
   1  -5  -2 5546.62 214.275   5
  -1   5   1 4404.21 281.130   3
   1  -5  -1 3902.49 341.619   2
   1  -5  -1 3919.80 194.999   5
   1  -5  -1 4216.73 250.828   6
  -1   5   1 3572.91 147.532   4
  -1   5   0 589.302 101.023   3
  -1   5   0 652.352 85.5003   6
   1  -5   0 604.298 84.2873   6
   1  -5   0 599.955 80.2820   5
  -1   5   0 690.456 91.5519   1
  -1   5  -1 303.500 75.3170   3
  -1   5  -1 347.422 69.0719   1
   1  -5   1 376.795 84.8320   3
   1  -5   1 407.572 74.7930   5
   1  -5   1 337.328 58.2873   6
  -1   5  -2 10145.2 427.456   3
   1  -5   2 9947.68 313.175   6
   1  -5   2 11249.2 448.282   3
  -1   5  -2 10499.1 407.239   1
  -1   5  -3 702.596 112.512   3
   1  -5   3 557.739 58.2561   6
   1  -5   3 509.242 57.1723   4
  -1   5  -3 667.047 105.758   1
   1  -5   3 741.912 114.000   3
   1  -5   4-4.31433 32.9230   3
   1  -5   4-3.61374 22.8698   4
   1  -5   4 46.9300 37.7693   2
  -1   5  -4-36.8045 39.8009   1
  -1   5  -4-20.9041 34.1794   3
   1  -5   5 14.9053 34.9060   3
   1  -5   5 13.8068 31.3020   2
   1  -5   5 27.9684 19.2671   6
   1  -5   5 54.4421 39.2369   1
   1  -5   5 13.4590 27.8695   4
   1  -5   6 2463.16 256.720   2
   1  -5   6 2373.03 200.060   4
   1  -5   6 2437.22 225.214   1
   1  -5   6 2526.06 223.699   3
   1  -5   6 2525.23 160.321   6
   1  -5   7 374.091 91.5872   3
   1  -5   7 367.337 83.8879   4
   1  -5   7 297.205 86.8115   1
   1  -5   7 409.433 76.1894   6
   1  -5   8-73.1372 70.0586   1
   1  -5   8 84.2322 65.3183   6
   1  -5   8-17.2922 46.5712   3
   1  -5   9-91.0285 75.2616   1
   1  -5   9 10.3822 9.34380   7
   1  -5   9-73.6606 66.9108   3
   1  -5  10 2050.19 225.881   6
   1  -5  10 1785.98 228.834   3
   1  -5  10 2108.11 274.314   1
   1  -5  11 45.2631 76.2905   1
   1  -5  11-13.8715 46.6873   6
   1  -5  11 37.4795 67.6641   3
   1  -5  12 84.2867 76.0017   3
   1  -5  12 8.08545 71.0503   1
   1  -4 -10 12.9557 70.1478   2
  -1   4  10 0.38804 60.4346   6
   1  -4  -9-118.211 133.876   2
  -1   4   9-23.7073 60.2254   6
   1  -4  -8 1979.00 320.339   2
  -1   4   8 1899.34 257.160   6
  -1   4   7-38.8664 75.7108   6
   1  -4  -7 34.9188 71.8345   2
  -1   4   6 423.769 97.8957   4
   1  -4  -6 460.459 140.370   2
  -1   4   6 427.192 113.851   6
  -1   4   5 1430.44 174.224   6
  -1   4   5 1687.99 183.627   4
   1  -4  -5 1866.33 270.194   2
  -1   4   4 142.697 55.1854   4
  -1   4   4 39.9226 43.6896   6
   1  -4  -4 99.4298 75.4171   2
   1  -4  -4 63.6369 37.8246   6
  -1   4   4 180.947 75.3939   3
  -1   4   4 288.279 122.562   2
  -1   4   3 26.8622 30.6845   4
   1  -4  -3-32.4580 57.0825   6
  -1   4   3 49.8374 40.8210   3
  -1   4   2-0.77497 21.9214   4
  -1   4   2 17.6412 21.2142   5
   1  -4  -2 8.10970 17.0640   5
  -1   4   2 39.5091 47.4695   3
   1  -4  -2-6.83886 37.5050   6
  -1   4   1 4887.14 269.554   3
  -1   4   1 5093.56 246.932   6
  -1   4   1 4655.81 167.620   4
   1  -4  -1 4805.18 197.883   5
  -1   4   1 5021.87 216.290   5
   1  -4  -1 5105.42 252.080   6
   1  -4   0 2231.54 143.473   5
  -1   4   0 2437.19 149.429   6
  -1   4   0 2179.44 171.263   3
   1  -4   0 2267.69 144.794   6
  -1   4   0 2140.23 149.898   5
  -1   4  -1 4219.31 234.209   3
   1  -4   1 4093.00 215.657   5
   1  -4   1 4316.91 185.849   6
   1  -4   1 4453.28 240.285   3
  -1   4  -1 4410.26 235.656   5
  -1   4  -1 4568.96 222.649   1
  -1   4  -2 642.740 88.6204   1
   1  -4   2 490.801 49.0872   4
  -1   4  -2 496.535 87.4865   5
   1  -4   2 609.530 58.9962   6
  -1   4  -2 525.361 85.9881   3
   1  -4   2 738.796 107.757   3
  -1   4  -3 5898.20 297.752   1
   1  -4   3 5505.71 229.095   4
   1  -4   3 6174.89 292.388   3
  -1   4  -3 5681.21 284.258   3
   1  -4   4 2960.79 207.863   3
   1  -4   4 2910.60 223.997   2
   1  -4   4 2900.71 181.192   4
   1  -4   4 3027.77 154.316   6
   1  -4   5 76.4439 54.6733   3
   1  -4   5-10.9033 45.6959   4
   1  -4   5 19.2578 45.5549   2
   1  -4   5 86.5941 36.1292   6
   1  -4   6 2422.16 208.273   4
   1  -4   6 2539.31 234.819   1
   1  -4   6 2491.61 223.163   5
   1  -4   6 2860.84 229.361   3
   1  -4   6 2675.52 179.870   6
   1  -4   6 2486.95 256.536   2
   1  -4   7 4405.54 333.849   1
   1  -4   7 4377.41 369.068   2
   1  -4   7 4727.10 313.772   4
   1  -4   7 4749.27 268.506   6
  -1   4  -7 4298.69 328.317   2
   1  -4   7 4564.44 308.773   3
  -1   4  -8 4419.96 358.609   2
   1  -4   8 4565.13 354.023   1
   1  -4   8 4575.55 325.693   3
   1  -4   8 4851.12 299.380   6
   1  -4   9 1558.95 188.129   6
   1  -4   9 1111.65 169.062   3
  -1   4  -9 1152.53 191.842   2
   1  -4  10 4374.17 357.102   3
  -1   4 -10 3689.04 371.925   2
   1  -4  10 4561.91 337.451   6
   1  -4  11 71.2944 78.8316   6
   1  -4  11 127.679 92.0235   3
  -1   4 -11 186.625 96.4964   2
   1  -4  12 234.988 110.583   6
  -1   4 -12 130.511 89.2595   2
   1  -4  12 155.691 96.9219   3
  -1   3  11 116.835 96.8896   6
   1  -3 -11 148.114 117.540   2
   1  -3 -10 113.396 76.2329   2
  -1   3  10 191.270 98.5424   6
  -1   3   9 124.644 68.4439   6
   1  -3  -9 214.510 122.177   2
   1  -3  -8 263.416 97.9024   2
  -1   3   8 458.251 122.523   6
   1  -3  -7 4261.36 420.409   2
  -1   3   7 3948.03 327.713   6
   1  -3  -6 1570.56 238.622   2
  -1   3   6 1478.30 179.705   4
  -1   3   6 1166.96 166.253   6
   1  -3  -5 192.501 95.0099   2
  -1   3   5 149.693 79.7272   2
  -1   3   5 119.703 55.2590   3
   1  -3  -5 98.8791 54.4991   6
  -1   3   5 180.653 60.4893   4
  -1   3   4 1645.45 150.164   4
  -1   3   4 1858.41 231.098   2
  -1   3   4 1738.04 174.991   3
   1  -3  -4 1817.85 176.418   6
  -1   3   3 1043.69 100.607   4
   1  -3  -3 1061.07 118.757   6
  -1   3   3 1187.06 132.580   3
  -1   3   3 944.759 56.5831   5
  -1   3   3 1191.45 174.339   2
   1  -3  -2 8129.21 330.486   6
  -1   3   2 8334.95 278.544   4
  -1   3   2 7627.01 223.352   5
  -1   3   2 7904.76 337.114   3
   1  -3  -1 12867.2 336.234   5
  -1   3   1 12288.8 416.551   3
  -1   3   1 13408.2 348.686   5
   1  -3  -1 13111.4 400.701   6
   1  -3   0 95416.4 1809.60   6
   1  -3   0 94361.4 1807.69   5
  -1   3   0 97397.3 1828.47   5
  -1   3   0 99863.0 1816.88   6
  -1   3   0 96083.4 1872.32   3
   1  -3   1 115676. 2199.62   3
  -1   3  -1 120837. 2172.49   1
   1  -3   1 118275. 2111.59   6
  -1   3  -1 116987. 2203.86   5
  -1   3  -1 112371. 2182.71   3
  -1   3  -2 62719.5 1203.00   4
   1  -3   2 65105.1 1306.58   3
  -1   3  -2 62090.5 1295.67   3
  -1   3  -2 66676.7 1322.56   1
   1  -3   2 61550.2 1212.52   4
  -1   3  -2 66041.9 1361.15   5
   1  -3   3 34926.2 820.582   3
  -1   3  -3 35881.0 879.111   5
   1  -3   3 34433.0 860.405   2
  -1   3  -3 33037.4 814.203   3
   1  -3   3 34283.3 782.084   4
   1  -3   4 26336.8 696.422   3
   1  -3   4 25537.9 617.624   6
   1  -3   4 24835.8 748.867   2
   1  -3   4 23914.6 663.222   4
   1  -3   5 1379.77 138.405   3
   1  -3   5 1535.99 129.415   6
   1  -3   5 1445.65 150.800   5
   1  -3   5 1529.48 148.562   4
   1  -3   5 1377.95 166.675   2
   1  -3   6 2928.45 199.221   6
   1  -3   6 2984.98 229.728   5
   1  -3   6 3094.87 279.853   2
   1  -3   6 2719.30 224.541   4
  -1   3  -6 2776.32 240.982   2
   1  -3   7 5467.29 344.960   4
   1  -3   7 5301.62 325.433   5
   1  -3   7 5336.47 410.119   2
  -1   3  -7 4739.43 343.026   2
   1  -3   7 5719.96 310.984   6
  -1   3  -8 1043.44 172.647   2
   1  -3   8 1058.50 143.587   6
   1  -3   9 867.783 144.929   6
  -1   3  -9 639.919 145.633   2
  -1   3 -10 687.367 156.090   2
   1  -3  10 1087.15 175.468   6
   1  -3  11 3461.47 327.802   6
  -1   3 -11 3128.50 368.685   2
  -1   3 -12 913.886 217.290   2
   1  -3  12 1267.07 219.132   6
   1  -2 -11 190.914 143.148   2
  -1   2  11 131.506 97.1140   6
  -1   2  10 139.436 90.8502   6
   1  -2 -10 203.790 117.975   2
   1  -2  -9 3331.76 399.264   2
  -1   2   9 3044.35 313.503   6
  -1   2   8 1024.03 88.1834   5
   1  -2  -8 1274.74 229.283   2
  -1   2   8 1173.65 182.239   6
   1  -2  -7 61.1857 58.6944   2
  -1   2   7 114.506 32.0624   5
  -1   2   7 83.8717 48.8477   6
  -1   2   6 958.374 191.450   2
   1  -2  -6 1011.19 146.210   6
   1  -2  -6 954.483 176.695   2
  -1   2   6 840.588 134.254   4
  -1   2   6 854.206 134.659   6
  -1   2   6 704.187 66.2335   5
  -1   2   6 1055.21 145.692   3
  -1   2   5 18867.0 792.719   2
  -1   2   5 18865.6 629.343   4
  -1   2   5 18429.2 651.425   3
   1  -2  -5 19433.2 656.713   6
  -1   2   4 18412.4 568.095   4
  -1   2   4 17637.2 590.801   3
   1  -2  -4 17806.0 585.041   6
  -1   2   4 17550.4 706.875   2
  -1   2   3 16110.0 622.381   2
   1  -2  -3 16854.2 523.681   6
  -1   2   3 16522.4 525.408   3
  -1   2   2 24934.9 723.087   2
   1  -2  -2 23607.9 595.897   6
  -1   2   2 22618.1 597.681   3
  -1   2   2 21884.7 460.677   5
   1  -2  -1 15476.8 405.552   6
   1  -2  -1 14591.1 344.050   5
  -1   2   1 14582.6 342.677   5
  -1   2   1 15150.2 417.027   3
   1  -2   0 74501.7 1403.98   6
  -1   2   0 72153.8 1419.03   3
  -1   2   0 76698.4 1336.80   4
  -1   2   0 75607.0 1405.18   5
   1  -2   1 365572. 6478.20   4
  -1   2  -1 376669. 6530.26   3
  -1   2  -1 379738. 6533.37   1
   1  -2   1 383568. 6537.83   3
  -1   2  -2 82472.8 1591.22   5
  -1   2  -2 80437.7 1536.18   3
   1  -2   2 80036.7 1534.10   4
   1  -2   2 78231.3 1564.08   2
   1  -2   2 81405.9 1533.11   3
   1  -2   3 11301.2 369.101   4
   1  -2   3 11040.4 400.263   2
   1  -2   3 11185.6 354.805   3
   1  -2   3 11631.6 345.226   6
  -1   2  -3 12046.8 400.900   5
   1  -2   4 1281.40 141.269   2
   1  -2   4 1325.97 125.816   4
  -1   2  -4 1242.58 128.690   5
   1  -2   4 1250.53 122.812   5
   1  -2   4 1326.83 115.220   6
   1  -2   5 17684.8 593.546   4
   1  -2   5 17380.7 557.536   5
   1  -2   5 17390.9 663.737   2
   1  -2   5 17830.8 543.130   6
   1  -2   6 42.1634 33.0918   6
   1  -2   6 77.8484 41.2792   5
   1  -2   6 21.3554 46.6869   2
  -1   2  -6 69.2240 40.5836   6
   1  -2   6 27.4175 36.1148   4
  -1   2  -6 21.7928 34.9979   2
   1  -2   7 4589.03 295.175   6
   1  -2   7 4624.92 284.398   5
  -1   2  -7 4186.21 331.626   2
   1  -2   7 4852.94 394.622   2
  -1   2  -7 4310.69 297.976   6
   1  -2   8 334.904 87.3538   5
  -1   2  -8 284.580 86.0012   6
   1  -2   8 491.629 103.062   6
  -1   2  -8 228.583 73.8714   2
   1  -2   9 2069.49 227.612   6
   1  -2   9 1727.29 192.666   5
  -1   2  -9 1385.55 211.033   2
   1  -2  10 3603.12 330.645   6
  -1   2 -10 2642.60 319.653   2
   1  -2  11 267.691 123.191   6
  -1   2 -11-23.2562 78.6153   2
  -1   2 -12 175.325 109.556   2
   1  -2  12-60.8556 64.1182   6
  -1   1  12 61.9424 88.2262   6
   1  -1 -12 175.844 134.247   2
   1  -1 -11 168.001 124.002   2
  -1   1  11 153.411 82.5654   6
   1  -1 -10 893.713 211.134   2
  -1   1  10 626.084 152.449   6
   1  -1  -9 311.253 128.004   2
  -1   1   9 308.956 62.8599   5
   1  -1  -9 254.231 38.9189   7
  -1   1   9 240.184 98.4816   6
   1  -1  -8 1142.87 210.381   2
  -1   1   8 997.397 107.314   5
  -1   1   8 1083.66 164.917   6
  -1   1   7 5695.29 259.758   5
  -1   1   7 6026.10 364.660   6
   1  -1  -7 6326.43 466.989   2
  -1   1   6 1498.56 168.632   4
  -1   1   6 1434.35 210.807   2
  -1   1   6 1476.69 164.487   6
   1  -1  -6 1385.50 158.010   6
  -1   1   5 3085.08 284.609   2
   1  -1  -5 2693.96 205.580   6
  -1   1   5 2923.72 209.923   4
   1  -1  -4 58824.1 1298.50   6
  -1   1   4 59384.0 1481.10   2
  -1   1   3 237.900 59.3312   2
   1  -1  -3 343.245 61.0911   6
  -1   1   2 2322.56 176.088   2
   1  -1  -2 1970.16 120.543   6
  -1   1   1 36933.5 779.883   3
   1  -1  -1 39618.6 777.033   6
   1  -1   0 79107.4 1421.32   4
   1  -1   1 35946.3 707.003   2
   1  -1   1 38124.3 682.678   3
   1  -1   1 39399.9 741.917   4
   1  -1   2 2361.10 124.966   6
   1  -1   2 2179.56 133.586   2
  -1   1  -2 2378.92 126.164   5
   1  -1   2 2574.28 140.698   4
   1  -1   3 798.962 95.4876   2
  -1   1  -3 949.360 89.9622   5
   1  -1   3 1053.19 103.256   4
   1  -1   3 842.677 86.2142   6
   1  -1   3 952.155 88.0284   5
   1  -1   4 1792.93 151.041   4
   1  -1   4 1862.41 142.476   6
   1  -1   4 1634.10 164.502   2
   1  -1   4 1614.76 72.1536   7
  -1   1  -4 1533.19 131.420   6
   1  -1   4 1728.16 130.483   5
  -1   1  -4 1568.55 134.186   5
   1  -1   5 4447.10 317.028   2
   1  -1   5 4677.38 264.969   6
   1  -1   5 4722.66 281.380   4
   1  -1   5 4467.66 232.693   5
  -1   1  -5 4584.15 259.849   6
   1  -1   6 52.5885 63.9061   2
  -1   1  -6 80.2899 53.9582   2
   1  -1   6 52.7728 50.5862   4
   1  -1   6 19.0371 39.0266   6
  -1   1  -6 13.9925 31.6537   6
   1  -1   6 2.00325 34.4427   5
   1  -1   7 1240.43 206.357   2
  -1   1  -7 1112.76 180.734   2
  -1   1  -7 1358.62 167.646   6
   1  -1   7 1280.94 160.666   6
   1  -1   7 1364.82 139.761   5
  -1   1  -8-11.2792 45.6741   2
   1  -1   8 91.5226 40.3308   5
   1  -1   8 20.4022 39.3518   6
   1  -1   9-14.8330 52.1806   6
  -1   1  -9 80.4675 75.7673   2
   1  -1   9 118.931 54.7862   5
  -1   1 -10 323.122 138.723   2
   1  -1  10 238.128 106.012   6
   1  -1  11-32.4037 75.2236   6
  -1   1 -11 54.4321 72.9946   2
  -1   1 -12 19.7237 78.2981   2
   1  -1  12-2.93768 54.6748   6
  -1   0  12 59.9095 67.5040   6
   1   0 -12 228.599 145.422   2
   1   0 -11 120.123 102.776   2
  -1   0  11 252.818 103.215   6
   1   0 -10 1888.53 290.819   2
  -1   0  10 1885.99 242.960   6
   1   0  -9 313.823 118.586   2
  -1   0   9 147.923 54.0619   5
  -1   0   9 156.121 90.9693   6
   1   0  -8-12.8388 43.8274   2
  -1   0   8 21.0846 33.7059   5
  -1   0   8 36.0923 57.4430   6
  -1   0   7 1816.63 201.435   4
  -1   0   7 1994.81 190.994   6
  -1   0   7 1910.94 253.079   2
   1   0  -7 1961.98 239.785   2
  -1   0   7 1789.57 154.331   5
   1   0  -7 2005.03 195.573   6
  -1   0   6 2723.12 273.898   2
  -1   0   6 2574.01 203.695   6
   1   0  -6 2756.99 211.467   6
  -1   0   6 2859.74 224.340   4
  -1   0   5 3995.45 234.358   6
  -1   0   5 4103.13 308.643   2
   1   0  -5 4166.77 237.216   6
  -1   0   4 662.689 107.776   2
   1   0  -4 693.601 82.2729   6
  -1   0   4 619.109 80.7330   6
   1   0  -3 58603.5 1166.30   6
  -1   0   3 55772.4 1276.95   2
   1   0  -2 77600.8 1447.52   6
  -1   0   2 78389.5 1536.04   2
   1   0   1 233.585 37.9812   4
   1   0   1 175.943 30.5851   2
   1   0   2 190683. 3235.30   5
  -1   0  -2 186219. 3324.22   6
   1   0   2 180914. 3215.55   7
  -1   0  -2 188365. 3234.14   5
   1   0   2 185019. 3335.61   4
   1   0   2 188737. 3379.85   2
  -1   0  -2 177008. 3222.60   7
   1   0   3 3214.27 143.731   5
   1   0   3 2940.63 184.798   4
   1   0   3 3139.22 214.626   2
  -1   0  -3 3141.04 184.397   6
  -1   0  -3 3002.97 127.930   7
  -1   0  -3 3030.98 143.948   5
  -1   0  -4 7548.50 333.763   6
   1   0   4 7648.39 335.686   6
   1   0   4 7416.33 394.471   2
   1   0   4 7579.43 346.264   4
   1   0   4 7653.06 265.595   5
   1   0   5 22989.6 586.703   5
   1   0   5 23355.6 710.137   6
  -1   0  -5 22152.0 698.149   6
   1   0   5 21601.6 815.323   2
   1   0   5 22488.9 729.792   4
   1   0   6 39.3225 50.8663   2
  -1   0  -6 75.7951 69.6916   2
   1   0   6 174.301 69.6555   4
  -1   0  -6 68.7411 46.2295   6
   1   0   6 134.691 63.9436   6
   1   0   6 97.0726 43.3606   5
  -1   0  -7 336.494 107.794   2
   1   0   7 215.342 53.4296   5
   1   0   7 329.904 95.0781   6
  -1   0  -8 268.251 104.216   2
   1   0   8 166.664 49.0477   5
   1   0   8 209.406 73.1593   6
  -1   0  -9-8.49742 48.6875   2
   1   0   9-15.5822 31.2177   5
   1   0   9-110.262 71.5507   6
   1   0  10 86.5100 76.5727   6
  -1   0 -10 225.398 117.843   2
   1   0  11 568.559 157.029   6
  -1   0 -11 493.660 173.258   2
  -1  -1  12 31.1818 70.4322   6
   1   1 -12-83.3218 101.110   2
  -1  -1  11 65.3556 48.5756   6
   1   1 -11 188.803 127.280   2
   1   1 -10 323.525 133.207   2
  -1  -1  10 88.1436 40.8298   5
  -1  -1  10 159.518 67.0109   6
  -1  -1   9 11981.7 513.003   5
   1   1  -9 13324.1 718.564   2
  -1  -1   9 13003.0 579.361   6
   1   1  -8 1814.96 240.351   2
   1   1  -8 2382.35 225.916   6
  -1  -1   8 2219.72 212.673   6
  -1  -1   8 2100.87 193.675   5
   1   1  -7 5876.56 325.921   6
  -1  -1   7 6472.80 458.078   2
  -1  -1   7 6728.08 385.649   4
  -1  -1   7 6095.67 329.301   6
  -1  -1   6 8084.11 473.719   2
   1   1  -6 8280.54 354.367   6
  -1  -1   6 7783.15 347.628   6
  -1  -1   5 20559.3 732.137   2
  -1  -1   5 20884.8 573.966   6
   1   1  -5 19498.7 565.618   6
   1   1  -4 298.553 50.5399   6
   1   1  -4 219.830 26.6166   7
  -1  -1   4 192.784 46.3406   6
  -1  -1   4 177.777 51.9053   2
  -1  -1   3 2198.09 116.489   6
   1   1  -3 2534.37 121.693   6
   1   1  -3 2237.53 95.5549   7
  -1  -1   3 2176.95 160.892   2
  -1  -1   2 2465.07 140.463   2
  -1  -1   2 2237.82 105.215   7
  -1  -1   2 2478.46 98.7666   6
   1   1  -2 2658.25 99.6112   6
  -1  -1   1 86235.0 1558.40   7
   1   1  -1 82700.9 1508.04   1
   1   1  -1 86377.8 1562.36   3
   1   1   0 32722.5 651.175   3
  -1  -1  -1 6124.39 224.709   6
  -1  -1  -1 6313.58 210.963   7
   1   1   1 6321.44 258.517   2
   1   1   1 6042.41 194.542   3
   1   1   1 5988.93 220.968   4
   1   1   2 12.8904 34.2661   4
   1   1   2 2.14776 17.4910   3
  -1  -1  -2 6.63107 22.0607   7
  -1  -1  -2 4.85187 11.5978   5
  -1  -1  -2 19.0211 29.7014   6
   1   1   2 13.7087 29.2468   2
  -1  -1  -3 3391.98 132.203   5
  -1  -1  -3 3693.98 167.045   7
   1   1   3 3666.60 217.028   4
  -1  -1  -3 3589.49 210.304   6
   1   1   3 3344.28 180.369   3
   1   1   3 3567.48 131.317   5
   1   1   3 3395.22 247.181   2
   1   1   4 2121.09 108.467   5
   1   1   4 2192.88 186.108   4
   1   1   4 2006.40 213.094   2
   1   1   4 2044.82 156.828   3
  -1  -1  -4 2120.44 130.027   7
  -1  -1  -4 2106.60 179.904   6
  -1  -1  -5 140.737 68.7544   4
   1   1   5 68.7701 27.3969   5
   1   1   5 53.4379 56.1186   4
   1   1   5 80.1182 43.5376   3
  -1  -1  -5 74.6310 30.8423   7
  -1  -1  -5 69.4546 43.8278   6
   1   1   5 77.3783 75.6317   2
   1   1   6 3845.40 178.849   5
  -1  -1  -6 3716.01 341.579   2
   1   1   6 4008.90 307.819   4
   1   1   6 3763.72 264.633   3
   1   1   6 3663.96 352.453   2
   1   1   6 3804.61 287.637   6
  -1  -1  -6 3795.81 191.959   7
  -1  -1  -6 3583.13 285.905   6
   1   1   7 9547.65 502.298   6
  -1  -1  -7 8109.01 306.874   7
   1   1   7 8985.19 312.662   5
   1   1   7 8938.23 454.145   3
  -1  -1  -7 9381.32 587.443   2
   1   1   8 66.6780 38.9544   5
  -1  -1  -8 116.741 108.735   2
   1   1   8 55.1146 53.3014   6
   1   1   9 67.2094 81.1568   6
  -1  -1  -9-12.5046 66.1276   2
   1   1  10 89.1910 87.9770   6
  -1  -1 -10 101.084 106.761   2
   1   1  11-99.1448 83.6277   6
  -1  -1 -11-16.2017 62.7449   2
   1   2 -12 887.985 216.341   2
  -1  -2  12 510.030 137.226   6
  -1  -2  11-107.197 82.7805   6
   1   2 -11-8.61766 66.5275   2
   1   2 -10 1995.34 278.927   2
  -1  -2  10 1834.95 216.555   6
  -1  -2   9 2001.27 218.132   5
   1   2  -9 1937.22 206.220   6
  -1  -2   9 2429.40 224.808   6
   1   2  -9 1968.98 252.806   2
  -1  -2   8 960.141 148.596   5
  -1  -2   8 1128.81 144.107   6
   1   2  -8 1016.38 145.315   6
   1   2  -8 955.161 165.795   2
  -1  -2   7 11366.8 612.193   2
  -1  -2   7 11102.8 434.559   6
  -1  -2   7 11567.3 502.869   4
   1   2  -7 11119.9 443.315   6
  -1  -2   6 186.557 50.8791   6
  -1  -2   6 219.281 87.1430   2
   1   2  -6 149.837 48.8373   6
   1   2  -5 7769.91 283.823   6
  -1  -2   5 7820.08 411.884   2
  -1  -2   5 7853.42 285.993   6
  -1  -2   4 52148.7 1249.98   2
  -1  -2   4 50138.7 1016.87   7
   1   2  -4 53509.1 1033.53   6
  -1  -2   4 53064.5 1033.56   6
   1   2  -3 17.8708 12.7224   6
  -1  -2   3 18.8886 12.8074   6
  -1  -2   3 18.5893 17.8723   7
  -1  -2   3 3.08114 18.4686   2
   1   2  -2 24656.4 619.203   3
   1   2  -2 25045.1 585.214   1
  -1  -2   1 12824.7 325.918   4
   1   2  -1 12981.6 321.614   1
   1   2  -1 11983.0 355.335   3
   1   2  -1 11394.1 278.290   6
  -1  -2   0 36666.6 793.853   6
   1   2   0 39066.4 796.419   4
  -1  -2   0 38994.1 787.967   4
   1   2   0 39054.5 824.242   3
   1   2   1 73617.3 1450.94   4
  -1  -2  -1 74723.5 1464.23   6
  -1  -2  -1 75231.3 1450.39   4
   1   2   1 73346.2 1453.32   3
   1   2   2 19776.2 657.600   2
   1   2   2 19845.5 545.693   4
  -1  -2  -2 16755.6 358.318   5
  -1  -2  -2 19762.0 548.472   6
  -1  -2  -2 19439.9 528.199   4
   1   2   2 19035.5 515.314   3
  -1  -2  -3 29712.3 798.829   6
   1   2   3 30873.2 814.314   4
   1   2   3 29180.3 760.457   3
   1   2   3 29257.5 940.505   2
  -1  -2  -3 29810.2 774.954   4
  -1  -2  -4 3443.15 245.797   6
  -1  -2  -4 3777.98 247.567   4
   1   2   4 3439.91 247.267   4
   1   2   4 3364.46 222.088   3
   1   2   4 3062.10 293.191   2
  -1  -2  -5 387.235 88.5252   6
   1   2   5 442.061 91.0301   3
  -1  -2  -5 383.730 115.878   2
   1   2   5 304.006 79.2356   4
   1   2   5 373.897 118.494   2
  -1  -2  -5 421.590 71.5707   7
  -1  -2  -6 5130.23 257.706   7
   1   2   6 5437.65 370.314   6
   1   2   6 4989.04 319.789   3
  -1  -2  -6 5148.16 425.888   2
  -1  -2  -7 165.821 52.5370   7
  -1  -2  -7 125.976 71.4896   2
   1   2   7 207.695 81.6829   6
  -1  -2  -8 1788.52 155.779   7
  -1  -2  -8 2110.30 311.563   2
   1   2   8 2564.11 286.763   6
  -1  -2  -9 1723.00 303.353   2
   1   2   9 1862.36 261.479   6
   1   2  10 201.254 108.859   6
  -1  -2 -10 74.5057 86.1775   2
  -1  -3  12 384.992 110.264   6
   1   3 -12 420.273 150.513   2
   1   3 -11 143.124 71.3729   2
  -1  -3  11-118.504 89.0882   6
   1   3 -10 1.35064 54.6099   2
  -1  -3  10 26.9977 52.9202   6
  -1  -3   9 9346.42 439.287   6
   1   3  -9 8776.61 432.629   6
   1   3  -9 9105.69 557.672   2
   1   3  -8 3087.47 219.921   6
  -1  -3   8 3153.51 221.698   6
   1   3  -8 2993.16 291.158   2
  -1  -3   8 2946.35 265.211   5
  -1  -3   7 6389.50 371.015   5
   1   3  -7 6806.60 307.000   6
  -1  -3   7 7288.45 314.217   6
  -1  -3   7 7038.06 465.145   2
  -1  -3   7 6915.13 368.393   4
  -1  -3   6 332.590 56.4715   6
  -1  -3   6 257.254 80.6111   2
   1   3  -6 297.225 56.8158   6
  -1  -3   6 250.902 41.7129   7
  -1  -3   5 2578.12 230.345   2
  -1  -3   5 2399.86 136.850   7
  -1  -3   5 2866.69 138.422   6
   1   3  -5 2674.64 135.062   6
   1   3  -4 1329.79 70.4474   6
  -1  -3   4 1436.84 74.3067   6
  -1  -3   4 1445.13 154.659   2
   1   3  -3 32638.0 844.764   3
   1   3  -3 33445.2 819.077   1
   1   3  -2 25432.6 619.359   1
   1   3  -2 25144.0 678.462   3
   1   3  -1 1070.37 86.8899   1
  -1  -3   1 949.888 74.4973   4
  -1  -3   1 865.517 66.5797   6
   1   3  -1 970.166 69.0117   6
   1   3  -1 976.994 101.139   3
   1   3   0 1090.62 107.984   3
  -1  -3   0 967.827 85.7439   6
   1   3   0 1029.13 84.4299   4
  -1  -3   0 896.694 75.9756   4
   1   3   0 872.452 82.6302   6
   1   3   1 9708.95 328.266   4
  -1  -3  -1 10003.3 330.956   4
  -1  -3  -1 9491.93 348.469   6
   1   3   1 9894.44 365.272   3
   1   3   1 9680.01 352.811   6
   1   3   2-17.7169 35.8718   4
   1   3   2 18.2237 25.9683   3
  -1  -3  -2 16.8683 28.1566   6
  -1  -3  -2 12.2934 30.5173   3
  -1  -3  -2-52.5747 42.5722   4
  -1  -3  -3 25353.1 703.638   4
   1   3   3 24532.9 719.887   3
   1   3   3 23783.0 719.058   4
  -1  -3  -3 24668.8 742.466   6
   1   3   4 5955.40 443.201   2
   1   3   4 5944.61 329.813   3
   1   3   4 6206.54 351.645   4
  -1  -3  -4 6649.76 340.453   4
  -1  -3  -4 5747.17 345.214   6
   1   3   5 375.774 93.9621   3
   1   3   5 425.707 112.342   6
  -1  -3  -5 353.460 127.009   2
   1   3   5 337.367 102.938   4
  -1  -3  -6 2266.20 299.404   2
   1   3   6 2657.85 270.139   6
  -1  -3  -6 2038.67 178.178   7
   1   3   7 1274.22 201.948   6
  -1  -3  -7 1235.99 236.074   2
  -1  -3  -7 1254.51 144.514   7
   1   3   8 1614.72 239.469   6
  -1  -3  -8 1366.49 156.647   7
  -1  -3  -8 1487.37 283.099   2
  -1  -3  -9 40.4355 75.0449   2
   1   3   9 38.9659 62.1577   6
  -1  -3 -10 792.295 225.917   2
   1   3  10 930.774 210.625   6
   1   4 -12 60.3842 56.4056   2
  -1  -4  12-13.6366 50.3911   6
  -1  -4  11 390.530 96.7832   6
   1   4 -11 481.573 151.494   2
   1   4 -10 2469.02 298.767   2
  -1  -4  10 2849.41 235.208   6
   1   4 -10 2091.06 212.302   6
   1   4  -9 281.766 91.3854   2
  -1  -4   9 286.292 96.8892   3
   1   4  -9 248.405 65.5087   6
  -1  -4   9 260.515 71.2727   6
   1   4  -8 5920.21 301.223   6
  -1  -4   8 7143.99 314.599   6
  -1  -4   8 6566.44 417.820   1
  -1  -4   8 6549.30 413.243   3
   1   4  -8 6545.87 439.167   2
  -1  -4   7 7324.30 414.652   3
  -1  -4   7 7015.09 406.231   5
  -1  -4   7 4814.29 226.080   7
  -1  -4   7 7497.53 417.014   1
  -1  -4   7 8221.58 294.374   6
   1   4  -7 7037.77 289.061   6
  -1  -4   6 6571.05 375.423   3
  -1  -4   6 6952.50 427.723   2
  -1  -4   6 7069.96 237.020   6
  -1  -4   6 6081.98 260.141   7
  -1  -4   5 9620.84 241.093   6
  -1  -4   5 12487.6 500.453   3
  -1  -4   5 12247.5 525.253   2
   1   4  -4 16937.2 574.305   1
  -1  -4   4 16677.7 606.481   2
   1   4  -3 8427.45 348.705   1
   1   4  -3 7980.56 370.868   3
  -1  -4   2 1667.69 112.033   4
   1   4  -2 1588.29 76.2121   6
   1   4  -2 1695.86 158.843   3
   1   4  -2 1717.39 134.298   1
  -1  -4   1 6800.68 229.774   4
   1   4  -1 7180.05 282.322   1
   1   4  -1 6950.84 239.750   6
   1   4  -1 6772.36 321.668   3
  -1  -4   1 6595.06 236.975   6
   1   4   0 6150.34 235.632   4
  -1  -4   0 5644.89 249.772   6
  -1  -4   0 5951.26 229.849   4
   1   4   0 6039.04 302.957   3
   1   4   0 6339.36 262.481   6
   1   4   1 14460.6 479.742   6
  -1  -4  -1 13499.3 467.014   6
   1   4   1 14208.0 507.387   3
   1   4   1 13610.8 428.788   4
  -1  -4  -1 13935.7 421.108   4
   1   4   2 43196.0 962.159   4
   1   4   2 42915.6 1030.95   3
  -1  -4  -2 41531.6 1005.81   6
  -1  -4  -2 45720.3 943.253   4
   1   4   3 11761.2 475.396   4
  -1  -4  -3 13588.4 485.539   4
  -1  -4  -3 12659.0 520.288   6
   1   4   3 12636.6 527.715   6
  -1  -4  -3 11880.2 503.870   3
   1   4   3 11948.0 498.600   3
   1   4   4 6537.03 373.624   3
   1   4   4 7006.41 406.689   6
  -1  -4  -4 6007.66 479.989   2
   1   4   4 6114.88 357.102   4
  -1  -4  -5 23046.2 1054.75   2
   1   4   5 25561.0 902.396   6
   1   4   5 24533.0 860.064   4
  -1  -4  -6 72.0846 76.8554   2
   1   4   6 73.9908 75.0605   6
  -1  -4  -7 436.512 99.4597   7
  -1  -4  -7 431.773 157.718   2
   1   4   7 602.987 146.019   6
   1   4   8 126.278 87.2985   6
  -1  -4  -8-52.7175 78.6970   2
  -1  -4  -9 267.233 152.092   2
   1   4   9 93.7054 93.4785   6
  -1  -5  12 364.950 120.046   3
  -1  -5  12 127.039 74.3927   1
  -1  -5  11 118.944 67.8287   6
  -1  -5  11 107.306 77.4186   1
  -1  -5  11 4.26877 54.1948   3
  -1  -5  10 24.5797 65.0226   1
  -1  -5  10 64.7224 50.0631   6
  -1  -5  10 199.629 89.6429   3
  -1  -5   9 1721.36 226.626   1
  -1  -5   9 1762.33 231.645   3
  -1  -5   9 2041.71 163.848   6
  -1  -5   8 3476.18 183.330   6
  -1  -5   8 3398.50 301.366   3
  -1  -5   8 3213.81 285.584   1
  -1  -5   8 2356.27 161.083   7
  -1  -5   7 3683.29 222.261   7
  -1  -5   7 6115.95 332.488   4
  -1  -5   7 6149.72 371.938   1
  -1  -5   7 6026.94 205.161   6
  -1  -5   7 6601.78 407.399   3
  -1  -5   6 1393.64 179.712   3
  -1  -5   6 1451.14 196.952   2
  -1  -5   6 1455.99 186.052   5
  -1  -5   6 1515.05 168.367   1
  -1  -5   5 6159.19 363.243   3
  -1  -5   5 6102.91 384.196   2
   1   5  -4 3455.17 264.705   3
   1   5  -4 3602.08 252.970   1
   1   5  -3 4760.36 304.288   3
   1   5  -3 4266.24 256.335   1
  -1  -5   3 4308.93 203.953   4
  -1  -5   2 22441.9 526.270   6
   1   5  -2 24240.6 678.755   1
   1   5  -2 23361.5 519.505   6
   1   5  -2 24144.3 746.547   3
  -1  -5   2 23785.7 551.490   4
  -1  -5   1 4603.02 215.377   6
  -1  -5   1 4977.49 190.798   4
   1   5  -1 5183.16 261.889   1
   1   5  -1 4509.50 289.067   3
   1   5  -1 4986.13 215.648   6
  -1  -5   0 1643.42 142.943   6
   1   5   0 1597.06 169.569   3
  -1  -5   0 1603.49 112.372   4
   1   5   0 1654.01 118.779   4
   1   5   0 1438.38 128.303   6
  -1  -5   0 1347.07 119.169   5
   1   5   1 2367.77 167.024   4
   1   5   1 2303.19 210.049   3
  -1  -5  -1 2285.42 152.182   4
  -1  -5  -1 2502.49 197.646   6
  -1  -5  -1 2272.62 143.232   5
   1   5   2 3069.15 207.014   4
   1   5   2 3037.27 245.753   3
  -1  -5  -2 2985.08 233.561   6
  -1  -5  -2 2305.83 119.147   5
  -1  -5  -2 2949.46 239.091   3
  -1  -5  -2 2622.78 299.499   2
  -1  -5  -2 3074.62 198.774   4
   1   5   2 3183.21 241.483   6
  -1  -5  -3 1115.66 159.435   6
  -1  -5  -3 1178.43 164.153   3
   1   5   3 1073.45 134.729   4
  -1  -5  -3 918.917 190.218   2
   1   5   3 1043.45 152.978   6
  -1  -5  -3 1253.38 145.563   4
  -1  -5  -4 3557.41 299.948   3
   1   5   4 3534.44 274.032   4
   1   5   4 3700.58 305.861   6
  -1  -5  -4 3449.86 388.732   2
   1   5   5 38.5497 63.6019   6
  -1  -5  -5 279.004 135.492   2
  -1  -5  -6 1351.33 275.425   2
   1   5   6 1100.98 188.199   6
   1   5   7 1306.38 226.047   6
  -1  -5  -7 1575.28 307.321   2
   1   5   8 39.6115 81.9656   6
  -1  -5  -8 48.6985 96.7871   2
  -1  -6  12 312.501 116.499   1
  -1  -6  12 424.602 139.501   3
  -1  -6  11 503.035 147.924   1
  -1  -6  11 373.561 126.276   3
  -1  -6  10 1981.32 256.521   1
  -1  -6  10 2057.07 269.229   3
  -1  -6   9 966.054 168.855   1
  -1  -6   9 938.888 87.5743   6
  -1  -6   9 1015.63 186.529   3
  -1  -6   9 803.687 100.321   7
  -1  -6   8 195.661 53.8083   7
  -1  -6   8 335.808 93.4368   4
  -1  -6   8 293.787 95.9665   3
  -1  -6   8 330.875 100.536   1
  -1  -6   7 408.575 93.7777   1
  -1  -6   7 504.831 116.970   3
  -1  -6   7 355.944 85.8211   4
  -1  -6   6 5564.11 334.913   1
  -1  -6   6 5558.02 374.677   3
  -1  -6   5 971.715 152.717   3
  -1  -6   5 945.141 132.154   1
   1   6  -4 13303.9 584.820   3
   1   6  -4 13867.6 560.753   1
  -1  -6   4 13599.4 498.670   1
  -1  -6   4 13955.1 586.077   3
  -1  -6   4 13191.3 561.496   5
   1   6  -3 175.289 58.4284   1
  -1  -6   3 162.431 57.8819   3
  -1  -6   3 194.750 70.8788   5
   1   6  -3 198.991 61.9158   3
  -1  -6   3 179.884 40.6589   4
  -1  -6   2 1551.76 98.8224   4
  -1  -6   2 1513.89 112.226   6
   1   6  -2 1903.39 174.061   1
   1   6  -2 1588.60 183.008   3
   1   6  -2 1777.90 116.193   6
   1   6  -1 1071.51 127.876   1
   1   6  -1 1116.47 109.425   6
   1   6  -1 843.423 133.975   3
  -1  -6   1 1017.76 109.930   6
  -1  -6   1 1012.65 82.3826   4
  -1  -6   0 1841.53 122.906   4
   1   6   0 1929.43 206.424   3
  -1  -6   0 1884.07 197.632   3
  -1  -6   0 1743.28 154.499   5
  -1  -6   0 2012.80 173.851   6
   1   6   0 2059.26 138.445   4
  -1  -6  -1 255.434 74.6372   6
  -1  -6  -1 84.8930 35.4340   5
   1   6   1 121.249 42.4070   4
  -1  -6  -1 163.587 49.1124   4
  -1  -6  -1 3.82304 53.1939   3
  -1  -6  -1 86.9108 68.0434   2
   1   6   2 1106.04 150.357   6
  -1  -6  -2 1092.10 157.902   6
  -1  -6  -2 925.740 146.623   3
  -1  -6  -2 827.316 74.0367   5
   1   6   2 974.940 121.364   4
  -1  -6  -2 913.428 200.009   2
  -1  -6  -3 529.011 160.837   2
   1   6   3 613.115 122.737   6
   1   6   3 532.300 100.379   4
  -1  -6  -3 529.694 114.075   3
   1   6   4 1597.81 211.350   6
  -1  -6  -4 1678.52 295.274   2
   1   6   4 1977.58 211.686   4
  -1  -6  -4 1754.49 231.982   3
   1   6   5 1551.56 222.701   6
  -1  -6  -5 1894.31 328.028   2
   1   6   6 1358.09 227.841   6
  -1  -6  -6 1038.29 258.504   2
  -1  -6  -7 141.994 123.826   2
   1   6   7 67.6602 62.2838   6
   1   6   8 181.617 123.369   6
  -1  -6  -8 119.420 115.089   2
  -1  -7  12 1.56935 70.9813   3
  -1  -7  12 245.113 122.583   1
  -1  -7  11 146.858 92.7145   1
  -1  -7  11 115.947 104.830   3
  -1  -7  10 68.8433 72.9292   1
  -1  -7  10-76.7768 75.2501   3
  -1  -7   9 1383.30 200.999   1
  -1  -7   9 1480.07 222.567   3
  -1  -7   8-83.6253 87.8146   3
  -1  -7   8-15.9106 50.8525   4
  -1  -7   8 58.0535 53.0825   1
  -1  -7   8 97.3333 57.8091   7
  -1  -7   7 6239.16 432.956   3
  -1  -7   7 6298.73 391.093   1
  -1  -7   7 5218.23 304.474   4
  -1  -7   6 217.417 91.9888   3
  -1  -7   6 243.235 78.5637   1
  -1  -7   6 79.6343 41.1259   4
  -1  -7   5 94.0226 66.7285   3
  -1  -7   5 82.3102 50.3872   1
  -1  -7   4 2866.29 271.156   3
  -1  -7   4 2687.34 159.982   4
  -1  -7   3 1.24250 50.1243   3
  -1  -7   3 116.225 62.3974   5
  -1  -7   3 77.4209 26.3853   4
  -1  -7   2 1051.70 150.622   5
   1   7  -2 1205.18 109.707   6
  -1  -7   2 737.760 60.9141   4
  -1  -7   2 932.072 98.2931   6
  -1  -7   2 1050.73 157.690   3
  -1  -7   1-17.0820 47.9753   3
  -1  -7   1 25.3303 23.6642   6
  -1  -7   1 9.56190 16.4947   4
   1   7  -1-33.6860 30.3775   6
  -1  -7   0 1889.50 121.609   4
  -1  -7   0 1857.29 184.716   6
  -1  -7   0 1906.02 223.075   3
   1   7   0 1819.29 135.868   4
  -1  -7  -1 7.22111 29.4744   5
  -1  -7  -1 109.320 112.501   2
  -1  -7  -1 85.6865 57.7172   6
   1   7   1 118.310 49.0900   4
  -1  -7  -1 19.3568 48.9043   3
   1   7   1 87.7958 57.4536   6
  -1  -7  -2-78.8044 69.6625   3
  -1  -7  -2-77.8618 75.2295   2
  -1  -7  -2 3.10363 19.4256   5
   1   7   2 5.27288 55.5112   6
   1   7   2-55.3224 45.3935   4
   1   7   3 1145.40 176.749   6
  -1  -7  -3 1019.36 226.385   2
  -1  -7  -3 1329.23 201.251   3
   1   7   3 1081.39 144.469   4
   1   7   4 329.261 111.302   6
  -1  -7  -4 188.717 128.289   2
   1   7   4 328.493 97.0597   4
  -1  -7  -4 200.008 79.1804   3
   1   7   5 466.677 133.245   6
  -1  -7  -5 409.822 177.411   2
   1   7   6 1257.58 225.025   6
  -1  -7  -6 1271.81 313.459   2
  -1  -7  -7 309.834 180.015   2
   1   7   7 414.531 144.751   6
  -1  -8  11 222.446 109.198   1
  -1  -8  11 378.266 145.101   3
  -1  -8  10 137.802 77.7303   1
  -1  -8  10 271.868 119.217   3
  -1  -8   9 181.643 85.7751   1
  -1  -8   9 156.309 97.2314   3
  -1  -8   8 445.027 130.916   3
  -1  -8   8 571.285 128.321   1
  -1  -8   7 142.205 79.3578   1
  -1  -8   7-14.6566 44.3292   4
  -1  -8   7 53.9620 57.5055   3
  -1  -8   6 3528.23 332.837   3
  -1  -8   6 2521.47 175.215   4
  -1  -8   6 3296.69 272.494   1
  -1  -8   5 2314.39 266.029   3
  -1  -8   5 1919.45 145.151   4
  -1  -8   5 1597.66 118.689   4
  -1  -8   4 1382.48 96.5158   4
  -1  -8   4 1479.98 92.6436   4
  -1  -8   3 554.264 128.580   3
  -1  -8   2 5131.08 384.372   3
  -1  -8   2 4558.00 316.481   5
  -1  -8   2 2809.54 195.979   6
   1   8  -2 5093.69 250.808   6
  -1  -8   1 88.9107 81.0443   3
  -1  -8   1 174.499 64.8470   6
  -1  -8   1 108.602 59.9499   5
   1   8   0 38.6084 41.0829   6
  -1  -8   0 22.5964 51.1919   6
  -1  -8  -1 32.6819 33.4626   5
   1   8   1 69.7411 38.6377   4
  -1  -8  -1 89.4315 95.5490   2
  -1  -8  -1-26.2357 54.1878   3
   1   8   1 28.3837 43.9199   6
  -1  -8  -2 637.630 154.115   3
  -1  -8  -2 437.441 160.245   2
   1   8   2 559.305 124.347   6
  -1  -8  -3 1055.45 265.742   2
  -1  -8  -3 1150.35 199.561   3
   1   8   3 1175.17 188.587   6
  -1  -8  -4-26.8957 78.6280   2
  -1  -8  -4 110.152 73.2626   3
   1   8   4-68.2815 79.0989   6
  -1  -8  -5 996.474 289.340   2
   1   8   5 847.921 184.593   6
  -1  -9  10 377.957 130.653   1
  -1  -9  10 355.904 145.420   3
  -1  -9   9 611.439 152.253   1
  -1  -9   9 374.426 139.378   3
  -1  -9   8 103.519 84.2060   3
  -1  -9   8 319.382 101.094   1
  -1  -9   7 504.267 99.2978   4
  -1  -9   7 444.514 145.174   3
  -1  -9   7 677.458 141.414   1
  -1  -9   6 146.714 92.3645   3
  -1  -9   6 139.417 46.9889   4
  -1  -9   5 63.7366 66.1743   3
  -1  -9   4 1306.97 214.304   3
  -1  -9   3 176.565 97.4034   3
  -1  -9   2 107.520 85.3777   3
   1   9  -2 42.0043 34.1282   6
  -1  -9   1 0.68584 36.3365   5
  -1  -9   1 83.4245 63.8226   3
  -1  -9   1 181.646 67.5172   6
   1   9  -1 131.508 63.8496   6
  -1  -9   0 836.087 167.966   3
  -1  -9   0 701.976 219.288   2
   1   9   0 903.365 143.034   6
  -1  -9  -1 569.866 193.727   2
   1   9   1 744.973 138.233   6
  -1  -9  -1 868.265 177.867   3
  -1  -9  -2 23.5211 76.1080   2
  -1  -9  -2 103.161 86.4954   3
   1   9   2 65.9830 68.5818   6
  -1  -9  -3 136.797 87.9177   2
   1   9   3 112.080 72.6230   6
  -1  -9  -3 367.202 129.931   3
  -1  -9  -4 21.9921 92.4195   2
  -1  -9  -4 42.1470 89.3359   3
   1   9   4 87.7944 76.4224   6
  -1 -10   9 398.917 122.626   1
  -1 -10   9 248.488 142.662   3
  -1 -10   8 200.857 101.817   1
  -1 -10   8 232.048 123.528   3
  -1 -10   7 491.148 145.728   3
  -1 -10   6 232.442 119.259   3
  -1 -10   5 14.3762 71.8426   3
  -1 -10   4 475.763 145.833   3
  -1 -10   3 864.177 188.147   3
  -1 -10   2 628.621 162.984   3
  -1 -10   1 343.773 126.283   3
   1  10  -1 461.037 97.8159   6
  -1 -10   0 225.992 144.664   2
  -1 -10   0 144.324 87.9167   3
   1  10   0 263.166 83.1938   6
   1  10   1 342.529 105.193   6
  -1 -10  -1 184.232 107.169   3
  -1 -10  -1 326.293 178.375   2
  -1 -10  -2 375.102 146.648   3
   1  10   2 343.681 109.168   6
  -1 -10  -2 290.677 171.249   2
  -1 -11   7 344.058 133.978   3
  -1 -11   6 49.6590 97.5746   3
  -1 -11   5 568.542 172.135   3
  -1 -11   4 117.344 85.7911   3
  -1 -11   3-23.6136 69.5508   3
  -1 -11   2 27.4975 65.3923   3
  -1 -11   1 288.905 128.079   3
  -1 -11   1 91.6414 100.468   2
   2 -11   0 93.5622 153.720   2
   2 -11   0-5.29068 70.3169   3
   2 -11   1 151.178 93.1232   3
   2 -11   1 205.117 151.595   2
   2 -11   2-135.492 114.130   3
   2 -11   3 166.902 122.894   3
   2 -11   4 25.3647 84.5794   3
   2 -11   5 241.033 114.640   3
   2 -11   6 158.217 90.1828   3
   2 -10  -3 197.174 162.735   2
  -2  10   3 298.013 112.767   6
   2 -10  -3 610.344 177.024   3
   2 -10  -2-42.4099 93.4229   3
  -2  10   2-43.8158 58.7584   6
   2 -10  -1 568.752 202.562   2
   2 -10  -1 886.046 196.505   3
   2 -10   0 748.351 180.570   3
   2 -10   0 511.276 206.664   2
   2 -10   1 508.715 143.169   3
   2 -10   2-1.20070 75.2747   3
   2 -10   3 360.618 113.382   3
   2 -10   4 71.3571 78.0776   3
   2 -10   5-6.70279 66.9500   3
   2 -10   6 67.9150 83.1575   3
   2 -10   7-173.862 96.3400   3
   2 -10   7 140.466 78.5532   1
   2 -10   8-52.9184 87.9922   3
   2 -10   8 102.019 85.8941   1
   2  -9  -5 247.019 158.245   2
  -2   9   5-8.30476 64.3461   6
   2  -9  -4 461.954 198.203   2
  -2   9   4 180.857 91.8966   6
   2  -9  -3 360.676 158.332   2
  -2   9   3 336.574 108.259   6
   2  -9  -3 480.726 143.796   3
   2  -9  -2 14.6038 86.6275   2
  -2   9   2 124.450 79.6235   6
   2  -9  -2 303.419 137.852   3
   2  -9  -1 31.3955 63.8778   3
   2  -9  -1 231.376 75.4568   5
   2  -9  -1 105.363 86.8570   2
   2  -9   0-4.96596 83.2010   2
   2  -9   0 126.606 102.741   3
   2  -9   1 2542.45 233.540   6
   2  -9   1 3042.89 319.755   3
   2  -9   2 168.298 90.3512   3
   2  -9   2 93.2704 60.8853   6
   2  -9   3 2717.28 291.596   3
   2  -9   3 2313.18 191.011   6
   2  -9   4 212.618 75.2048   3
   2  -9   5 720.745 155.232   3
   2  -9   6 510.571 134.095   3
   2  -9   6 697.789 144.740   1
   2  -9   7 271.085 97.1835   1
   2  -9   7 212.485 104.317   3
   2  -9   8 355.294 110.980   1
   2  -9   8 247.493 105.361   3
   2  -9   9 46.8182 59.6763   3
   2  -9   9 50.4886 59.6796   1
  -2   8   6 162.611 86.8638   6
   2  -8  -6 56.1028 87.6009   2
  -2   8   5 107.113 69.2554   6
   2  -8  -5 131.856 137.974   2
   2  -8  -4 415.971 169.671   2
  -2   8   4 460.656 118.906   6
   2  -8  -3 382.581 161.594   2
   2  -8  -3 522.949 135.863   3
  -2   8   3 412.280 112.345   6
  -2   8   2 698.635 62.5611   4
  -2   8   2 544.749 50.6435   4
   2  -8  -2 1226.60 202.219   3
   2  -8  -2 988.146 245.878   2
  -2   8   2 1228.80 173.693   6
   2  -8  -1 1569.31 217.368   3
   2  -8  -1 1807.68 172.469   5
   2  -8  -1 1569.56 276.881   2
  -2   8   1 1786.02 200.453   6
   2  -8   0 1725.62 177.741   5
   2  -8   0 1830.86 200.601   6
   2  -8   0 1727.15 224.472   3
   2  -8   1 86.5399 35.5058   6
   2  -8   1 69.8601 75.3784   3
   2  -8   1 40.8704 41.8063   5
   2  -8   2 68.4376 70.6765   3
   2  -8   2 38.5263 33.3949   6
   2  -8   3 1162.24 181.783   3
   2  -8   3 751.808 98.4861   6
   2  -8   4 24.1125 58.3605   3
   2  -8   4 106.651 39.1666   6
   2  -8   5 1312.82 187.055   3
   2  -8   5 1032.53 103.563   4
   2  -8   5 1272.05 172.516   1
   2  -8   5 1016.63 98.9761   6
   2  -8   6 1325.79 183.515   1
   2  -8   6 1458.16 204.086   3
   2  -8   6 1241.70 136.676   4
   2  -8   6 804.182 87.4898   6
   2  -8   6 776.242 83.2305   6
   2  -8   7 198.402 88.3952   3
   2  -8   7 91.4387 39.1315   6
   2  -8   7 89.7658 67.6446   1
   2  -8   8-4.09908 63.7821   1
   2  -8   8 22.0603 57.7033   3
   2  -8   9 882.569 175.800   3
   2  -8   9 818.121 161.331   1
   2  -8  10 151.206 87.5535   3
   2  -8  10 232.000 100.826   1
   2  -7  -7 419.649 179.097   2
  -2   7   7 362.962 131.034   6
  -2   7   6 81.7029 66.7965   6
   2  -7  -6 107.938 112.263   2
  -2   7   5 622.700 116.155   4
  -2   7   5 572.302 139.293   6
   2  -7  -5 660.591 190.962   2
  -2   7   4 120.588 53.6039   4
   2  -7  -4 235.754 135.872   2
  -2   7   4 181.544 74.8323   6
  -2   7   3 1.81018 55.3038   6
   2  -7  -3 49.6555 63.5306   3
  -2   7   3 56.3220 37.6230   4
   2  -7  -3 82.2883 97.7072   2
  -2   7   2 1831.96 196.799   6
  -2   7   2 1468.84 105.393   4
   2  -7  -2 1581.29 144.536   5
   2  -7  -2 1772.25 278.384   2
   2  -7  -2 1970.07 238.210   3
   2  -7  -1 148.109 96.0326   2
   2  -7  -1 80.2254 62.8861   3
  -2   7   1 83.6875 41.5084   6
   2  -7  -1 156.911 59.8168   6
   2  -7   0 1604.78 163.285   5
   2  -7   0 1655.40 172.746   6
   2  -7   0 1756.98 207.900   3
   2  -7   1 9402.82 434.616   5
   2  -7   1 8553.52 382.000   6
   2  -7   1 9270.80 480.218   3
   2  -7   2 760.979 100.337   6
   2  -7   2 1256.56 162.526   5
   2  -7   2 1061.26 158.972   3
   2  -7   3 5548.72 267.605   6
   2  -7   3 9229.86 461.718   3
   2  -7   4 3236.40 246.355   1
   2  -7   4 2624.11 167.549   6
   2  -7   4 2883.39 162.655   4
   2  -7   4 3497.80 283.040   3
   2  -7   5 522.866 115.369   3
   2  -7   5 330.083 67.3996   4
   2  -7   5 312.713 51.7284   6
   2  -7   5 497.698 99.2189   1
   2  -7   6 769.612 136.109   3
   2  -7   6 538.946 97.6432   4
   2  -7   6 642.318 85.6853   6
   2  -7   6 777.845 137.790   1
   2  -7   7 50.1979 49.8537   1
   2  -7   7 147.211 67.3209   4
   2  -7   7 266.155 63.1721   6
   2  -7   7 154.141 78.7761   3
   2  -7   8 110.039 72.2153   3
   2  -7   8 97.8100 74.0398   1
   2  -7   8 129.263 51.3536   6
   2  -7   9-15.5201 68.1645   3
   2  -7   9 86.5132 59.0381   6
   2  -7   9 55.3971 65.2298   1
   2  -7  10 63.1551 80.3934   1
   2  -7  10 97.7225 82.1362   3
   2  -7  11 14.6723 96.1721   1
   2  -7  11 135.085 100.487   3
   2  -6  -9 139.425 126.057   2
  -2   6   9 88.9647 100.133   6
   2  -6  -8-149.994 108.186   2
  -2   6   8 69.9461 78.4097   6
  -2   6   7 158.034 72.2936   6
   2  -6  -7 325.611 144.193   2
  -2   6   6 1804.58 239.718   6
   2  -6  -6 1762.04 317.835   2
  -2   6   5 449.075 99.5295   4
  -2   6   5 629.154 134.402   6
   2  -6  -5 546.352 180.126   2
  -2   6   4 1.00666 47.5420   4
   2  -6  -4 24.3474 60.1278   2
  -2   6   4 45.5019 46.7437   6
  -2   6   3 59.7429 44.3721   6
   2  -6  -3 45.3241 66.8863   2
  -2   6   3-12.3094 40.3637   4
   2  -6  -3 91.6996 68.1156   3
   2  -6  -2 141.635 83.6465   2
  -2   6   2 193.851 43.4011   4
   2  -6  -2 139.789 39.7199   5
   2  -6  -2 169.988 63.5503   3
  -2   6   2 193.380 66.8466   6
   2  -6  -2 155.667 53.9301   6
  -2   6   2 191.403 52.1234   5
   2  -6  -1 5940.29 279.658   5
  -2   6   1 4549.63 173.014   4
  -2   6   1 4257.54 156.051   4
   2  -6  -1 5441.23 435.310   2
   2  -6  -1 5548.56 315.330   6
  -2   6   1 5417.50 345.078   3
  -2   6   1 5824.57 305.665   5
   2  -6  -1 6238.46 371.965   3
   2  -6   0 290.946 77.6907   3
   2  -6   0 201.116 56.3808   6
  -2   6   0 323.751 79.8152   5
  -2   6   0 307.067 64.9402   1
  -2   6   0 249.648 78.2327   3
  -2   6  -1 19457.2 634.324   1
   2  -6   1 18349.6 658.710   3
  -2   6  -1 18281.5 640.197   5
   2  -6   1 17271.1 551.036   6
  -2   6  -1 17430.3 637.737   3
   2  -6   2 13103.4 439.547   6
  -2   6  -2 13290.3 537.276   3
   2  -6   2 14200.2 553.461   3
  -2   6  -2 14174.4 531.707   1
  -2   6  -2 14288.6 575.782   5
   2  -6   2 15031.0 562.073   5
   2  -6   3 3471.18 234.076   1
   2  -6   3 3529.12 266.439   5
   2  -6   3 3554.09 262.118   3
   2  -6   3 3463.29 162.524   4
  -2   6  -3 3537.26 263.021   1
  -2   6  -3 3457.19 275.348   5
  -2   6  -3 3295.33 253.800   3
   2  -6   3 2998.98 178.533   6
   2  -6   4 163.559 71.2426   3
  -2   6  -4 211.975 66.9766   1
   2  -6   4 104.733 29.3254   4
   2  -6   4 232.480 68.2496   1
  -2   6  -4 148.634 51.1692   3
   2  -6   5 2856.53 242.236   3
   2  -6   5 2138.76 180.025   4
   2  -6   5 2591.30 223.328   1
   2  -6   5 2411.31 244.156   2
   2  -6   6 4337.40 246.752   6
   2  -6   6 4649.88 300.124   4
   2  -6   6 5051.45 329.610   3
   2  -6   6 4602.34 318.760   1
   2  -6   7 1602.21 190.119   3
   2  -6   7 1445.34 150.430   6
   2  -6   7 1428.44 192.428   1
   2  -6   7 1398.23 179.302   4
   2  -6   8 1553.58 214.305   1
   2  -6   8 1501.36 199.081   3
   2  -6   8 1541.88 161.202   6
   2  -6   9-25.2729 47.1982   3
   2  -6   9 124.923 63.4953   6
   2  -6   9 154.692 65.3778   1
   2  -6  10 1098.60 158.342   6
   2  -6  10 919.928 166.538   3
   2  -6  10 1016.56 194.601   1
   2  -6  11 1126.79 190.122   3
   2  -6  11 1052.00 210.029   1
   2  -5  -9 97.9580 106.184   2
  -2   5   9 282.161 127.246   6
   2  -5  -8-1.04834 72.1923   2
  -2   5   8 85.3351 74.1377   6
  -2   5   7 885.844 171.627   6
   2  -5  -7 812.940 204.970   2
   2  -5  -6 387.290 148.295   2
  -2   5   6 404.303 113.056   6
   2  -5  -5-66.7415 100.487   2
  -2   5   5-5.46747 37.4721   6
  -2   5   5-1.92554 31.9011   4
  -2   5   4 8675.69 281.131   5
  -2   5   4 8991.14 385.134   4
   2  -5  -4 9785.56 624.504   2
  -2   5   4 9907.43 476.167   6
   2  -5  -3 2597.46 230.579   6
   2  -5  -3 2964.09 259.427   3
  -2   5   3 2710.23 225.349   6
  -2   5   3 3083.77 254.291   3
  -2   5   3 2541.63 173.262   4
   2  -5  -3 2869.15 316.393   2
  -2   5   3 2407.58 149.518   5
   2  -5  -2 6115.24 258.040   5
  -2   5   2 5941.72 266.214   5
  -2   5   2 5818.28 234.760   4
   2  -5  -2 6360.12 339.270   6
  -2   5   2 6175.82 350.874   3
   2  -5  -2 5640.05 424.188   2
   2  -5  -2 6398.60 365.544   3
  -2   5   1 790.453 116.566   3
  -2   5   1 554.539 84.3411   5
   2  -5  -1 743.978 121.445   3
   2  -5  -1 702.768 87.8915   5
   2  -5  -1 648.685 98.2681   6
   2  -5  -1 665.964 139.777   2
  -2   5   0 3692.04 226.865   5
   2  -5   0 4192.88 227.039   5
   2  -5   0 3650.87 215.745   6
  -2   5   0 3952.63 252.025   3
  -2   5   0 4011.41 224.367   1
   2  -5   0 4067.72 257.798   3
  -2   5  -1 798.813 106.843   3
   2  -5   1 860.917 93.1015   6
  -2   5  -1 1043.22 129.939   5
  -2   5  -1 929.179 110.985   1
   2  -5   1 899.267 118.131   3
   2  -5   2 45792.8 1039.43   1
   2  -5   2 44716.1 891.537   4
   2  -5   2 44465.3 989.013   6
  -2   5  -2 46403.9 1090.96   1
  -2   5  -2 40680.9 859.306   4
  -2   5  -2 45467.4 1090.56   3
  -2   5  -2 49505.6 1178.31   5
   2  -5   2 48675.3 1119.65   3
   2  -5   3 45840.9 1105.66   3
  -2   5  -3 42822.2 1082.35   3
  -2   5  -3 44121.9 1122.26   1
  -2   5  -3 43851.7 1166.56   5
   2  -5   3 44866.4 1068.53   1
   2  -5   3 44157.9 965.704   4
  -2   5  -4 7858.03 419.121   5
   2  -5   4 7949.51 372.073   3
   2  -5   4 8055.04 335.317   4
  -2   5  -4 7284.58 358.064   3
   2  -5   4 7536.34 358.238   1
   2  -5   4 7525.47 394.038   2
   2  -5   5 4460.84 291.120   1
   2  -5   5 4516.88 325.842   2
   2  -5   5 4677.22 313.304   5
   2  -5   5 5002.59 297.294   3
   2  -5   5 4428.49 275.896   4
   2  -5   5 4445.85 238.811   6
   2  -5   6 900.343 126.940   3
   2  -5   6 851.002 133.481   1
   2  -5   6 838.968 107.758   6
   2  -5   6 810.165 148.211   2
   2  -5   6 815.969 121.577   4
   2  -5   7 1430.94 169.364   3
   2  -5   7 1268.93 173.634   4
   2  -5   7 1177.79 138.293   6
   2  -5   7 1263.12 179.314   1
   2  -5   8 38.3385 47.9915   1
   2  -5   8 14.3956 46.7353   3
   2  -5   8 20.7579 34.8058   6
   2  -5   9 380.018 120.409   1
   2  -5   9 424.877 113.187   3
   2  -5   9 293.716 98.9079   6
   2  -5  10 671.952 145.407   3
   2  -5  10 818.880 152.068   6
   2  -5  10 816.320 181.110   1
   2  -5  11 373.840 112.456   3
   2  -5  11 261.015 104.896   1
   2  -5  11 412.614 116.542   6
  -2   4  10 196.387 103.367   6
   2  -4 -10 35.4645 79.4385   2
  -2   4   9 291.188 109.975   6
   2  -4  -9 321.363 146.479   2
   2  -4  -8-4.70831 80.1703   2
  -2   4   8 64.3854 67.0735   6
   2  -4  -7 220.473 126.547   2
  -2   4   7 55.4920 57.0066   6
   2  -4  -6 629.493 163.466   2
  -2   4   6 795.046 133.928   4
  -2   4   6 782.299 137.689   6
  -2   4   6 363.591 33.6187   5
   2  -4  -5 3.37936 59.0214   2
  -2   4   5 42.7432 19.2701   5
  -2   4   5 33.6002 34.4988   6
  -2   4   5-15.8661 44.1763   4
   2  -4  -4 241.895 93.3449   2
  -2   4   4 273.601 109.080   2
  -2   4   4 264.271 66.1785   4
  -2   4   4 287.218 44.1719   5
   2  -4  -4 267.031 71.1263   6
  -2   4   4 382.108 89.7857   3
   2  -4  -3 2651.12 215.533   6
  -2   4   3 2571.42 214.931   3
   2  -4  -3 2394.24 265.074   2
  -2   4   3 2386.51 134.842   5
   2  -4  -2 8001.02 280.245   5
  -2   4   2 8147.51 377.241   3
   2  -4  -2 7931.38 455.876   2
   2  -4  -2 8455.28 366.706   6
  -2   4   2 7760.88 283.771   5
  -2   4   1 6841.08 277.378   5
   2  -4  -1 7302.52 281.364   5
  -2   4   1 7289.79 318.286   6
   2  -4  -1 7083.57 312.932   6
   2  -4  -1 7202.07 402.613   2
  -2   4   1 6983.29 327.064   3
   2  -4  -1 7154.57 337.598   3
  -2   4   0 14997.5 467.105   5
  -2   4   0 13495.8 342.698   4
  -2   4   0 15173.4 491.499   3
   2  -4   0 14949.3 458.683   5
   2  -4   0 14419.0 453.885   6
  -2   4   0 15269.0 445.598   1
   2  -4   0 14849.8 492.353   3
  -2   4  -1 50810.7 1108.56   5
   2  -4   1 48310.7 1028.30   6
   2  -4   1 48749.0 1080.44   3
  -2   4  -1 44296.7 900.906   4
  -2   4  -1 47176.3 1068.97   3
   2  -4   1 45551.5 915.600   4
  -2   4  -1 49925.2 1053.86   1
  -2   4  -2 13165.9 450.003   3
   2  -4   2 14700.8 405.005   4
  -2   4  -2 14554.8 389.645   4
  -2   4  -2 15062.2 486.463   1
   2  -4   2 14790.1 453.267   1
   2  -4   2 15404.4 481.339   3
  -2   4  -2 15475.2 521.233   5
  -2   4  -3 1118.01 137.185   5
  -2   4  -3 1109.82 103.522   4
  -2   4  -3 1132.53 125.684   1
   2  -4   3 1085.26 106.435   4
   2  -4   3 957.894 106.382   1
  -2   4  -3 1140.63 119.458   3
   2  -4   3 1106.83 127.996   2
   2  -4   3 1213.37 121.289   3
   2  -4   4 12063.3 496.475   2
   2  -4   4 12164.1 448.057   4
  -2   4  -4 12551.2 430.216   4
   2  -4   4 12227.0 466.386   1
   2  -4   4 12189.2 438.986   3
  -2   4  -4 12353.8 517.709   5
  -2   4  -5 1846.11 198.485   5
   2  -4   5 2135.57 201.305   5
   2  -4   5 2124.50 176.299   3
   2  -4   5 2190.74 170.078   6
   2  -4   5 2128.27 197.153   1
   2  -4   5 2086.97 211.201   2
   2  -4   5 2324.37 195.963   4
   2  -4   6 14625.0 587.134   4
   2  -4   6 14512.0 602.101   1
   2  -4   6 14841.9 591.727   5
   2  -4   6 14657.5 660.294   2
   2  -4   6 14500.1 516.752   6
   2  -4   6 15718.4 559.723   3
  -2   4  -7 96.2008 59.0195   2
   2  -4   7-18.5772 47.5387   3
   2  -4   7 37.9432 39.6643   6
   2  -4   7 136.135 75.5483   2
   2  -4   7 78.8322 54.8949   1
   2  -4   8 1732.17 214.761   1
  -2   4  -8 1718.30 222.149   2
   2  -4   8 1811.09 193.913   6
   2  -4   8 1571.20 184.858   3
   2  -4   9 140.612 64.3025   3
   2  -4   9 196.191 80.1485   6
  -2   4  -9 110.609 65.9801   2
   2  -4  10 183.150 75.8992   3
   2  -4  10 427.842 117.689   6
  -2   4 -10 435.679 129.994   2
  -2   4 -11 153.700 98.1538   2
   2  -4  11 301.868 119.863   6
   2  -4  11 291.868 100.111   3
   2  -3 -11-148.992 97.0855   2
  -2   3  11 174.802 108.826   6
   2  -3 -10 59.9070 106.515   2
  -2   3  10 33.4826 75.3365   6
   2  -3  -9 173.676 114.408   2
  -2   3   9 179.684 78.5007   6
  -2   3   8 24.0247 22.8379   5
  -2   3   8-41.2048 63.0167   6
  -2   3   8-28.9475 20.1017   5
  -2   3   7 7.43786 14.1067   5
   2  -3  -7 5.61468 60.8097   2
  -2   3   7 14.2966 50.4163   6
  -2   3   6 281.022 83.5126   4
   2  -3  -6 202.806 90.9139   2
  -2   3   6 234.993 37.4265   5
  -2   3   6 250.130 67.9853   6
  -2   3   5 3137.83 324.373   2
  -2   3   5 2860.35 242.623   3
   2  -3  -5 3191.17 320.240   2
   2  -3  -5 3199.05 258.375   6
  -2   3   5 2674.69 131.226   5
  -2   3   4 9571.26 287.518   5
   2  -3  -4 10478.7 560.325   2
  -2   3   4 9837.11 440.277   3
  -2   3   4 9839.47 545.175   2
   2  -3  -4 10683.7 455.764   6
  -2   3   3-21.0744 27.2524   3
  -2   3   3 15.0713 19.8363   5
  -2   3   3 12.5148 41.8155   2
   2  -3  -3-1.11056 31.6492   6
   2  -3  -3 23.7461 44.8233   2
  -2   3   2 10496.6 320.182   5
   2  -3  -2 11476.3 409.464   6
  -2   3   2 11307.6 418.512   3
   2  -3  -2 11165.0 491.244   2
   2  -3  -1 10200.1 325.611   5
   2  -3  -1 10305.4 374.597   3
   2  -3  -1 10023.6 425.756   2
   2  -3  -1 10274.6 361.737   6
  -2   3   1 9391.19 356.011   3
  -2   3   1 10352.3 324.061   5
  -2   3   0 8968.30 314.590   5
   2  -3   0 8762.34 320.681   3
  -2   3   0 8741.38 260.827   4
   2  -3   0 8633.96 309.179   6
  -2   3   0 9480.68 290.310   1
  -2   3   0 8459.66 308.107   3
   2  -3   1 53983.9 1068.19   4
   2  -3   1 54209.3 1082.20   1
  -2   3  -1 54376.0 1104.73   1
  -2   3  -1 54970.4 1161.23   5
  -2   3  -1 51262.0 1049.75   4
  -2   3  -1 53360.4 1106.01   3
   2  -3   1 53636.3 1112.47   3
  -2   3  -2 212.887 53.5018   1
   2  -3   2 278.262 50.5946   3
  -2   3  -2 243.072 46.8365   3
   2  -3   2 344.686 59.2408   4
  -2   3  -2 251.500 63.7096   5
  -2   3  -2 291.356 55.1844   4
   2  -3   2 230.612 46.4923   1
   2  -3   3 37368.9 888.346   4
  -2   3  -3 36139.4 861.855   4
  -2   3  -3 37186.0 932.006   5
   2  -3   3 35971.6 884.846   1
   2  -3   3 36361.7 829.000   3
   2  -3   3 36256.5 902.935   2
   2  -3   4 10638.0 433.242   1
   2  -3   4 10786.8 453.821   2
   2  -3   4 10975.8 397.189   6
   2  -3   4 11155.9 438.347   4
  -2   3  -4 10870.2 406.640   4
   2  -3   4 10487.4 375.903   3
  -2   3  -4 10786.5 443.343   5
   2  -3   5 3395.94 249.621   4
   2  -3   5 3459.16 241.004   5
   2  -3   5 3095.27 202.912   3
   2  -3   5 3203.31 212.333   6
   2  -3   5 3182.71 259.807   2
  -2   3  -5 3113.25 244.846   5
   2  -3   6 3502.04 305.826   2
  -2   3  -6 3360.00 263.094   2
   2  -3   6 3710.81 281.806   4
   2  -3   6 3890.56 254.426   6
   2  -3   6 3450.84 233.865   3
   2  -3   6 3713.55 260.860   5
   2  -3   7 1686.72 229.422   2
   2  -3   7 1623.61 178.667   5
   2  -3   7 1583.87 170.447   3
   2  -3   7 1739.41 179.918   6
  -2   3  -7 1590.17 195.778   2
   2  -3   7 1312.05 86.5962   7
   2  -3   8 964.125 144.098   6
  -2   3  -8 849.808 157.714   2
  -2   3  -9 0.92353 52.1457   2
   2  -3   9 1.63932 61.8719   6
   2  -3  10 71.7287 63.7599   6
  -2   3 -10 34.0638 73.5499   2
   2  -3  11 107.329 88.9477   6
  -2   3 -11 97.5420 93.0202   2
   2  -2 -11 105.158 115.285   2
  -2   2  11 239.995 118.906   6
   2  -2 -10 431.313 151.548   2
  -2   2  10 581.414 153.417   6
  -2   2   9 2602.19 284.136   6
   2  -2  -9 3085.79 381.517   2
  -2   2   8 1269.98 189.021   6
   2  -2  -8 1552.97 253.836   2
  -2   2   7 396.232 102.617   6
   2  -2  -7 622.589 156.253   2
   2  -2  -6 648.466 141.734   2
  -2   2   6 583.948 145.541   2
   2  -2  -6 704.851 123.276   6
  -2   2   6 619.664 114.947   6
   2  -2  -5 3448.46 306.042   2
  -2   2   5 3275.03 310.079   2
   2  -2  -5 3449.04 252.490   6
  -2   2   4 8642.25 393.964   3
   2  -2  -4 9223.24 392.390   6
   2  -2  -4 8789.03 464.544   2
  -2   2   4 8734.24 469.734   2
   2  -2  -3 164.380 61.0317   2
  -2   2   3 52.6607 34.1376   3
   2  -2  -3 89.9670 37.3566   6
  -2   2   3 130.595 60.6952   2
   2  -2  -2 30549.9 740.467   6
   2  -2  -2 31210.2 827.692   2
  -2   2   2 30821.3 828.627   2
  -2   2   2 28717.9 731.923   3
  -2   2   2 28560.0 649.774   5
   2  -2  -1 4548.57 207.791   6
  -2   2   1 4529.26 201.550   3
  -2   2   1 4491.00 184.018   5
   2  -2  -1 4444.18 225.495   2
   2  -2   0 114038. 2115.11   3
  -2   2   0 117037. 2146.23   5
   2  -2   0 113726. 2120.62   4
  -2   2   0 114187. 2118.29   4
  -2   2   0 113120. 2109.36   3
  -2   2   0 121745. 2083.78   1
   2  -2   1 609.533 56.2588   1
  -2   2  -1 624.714 75.1167   5
   2  -2   1 686.081 72.7879   4
  -2   2  -1 650.363 64.0203   1
  -2   2  -1 654.884 56.7798   3
   2  -2   1 683.316 56.9994   3
  -2   2  -1 726.798 70.9426   4
  -2   2  -2 89815.4 1750.72   5
   2  -2   2 92155.3 1758.06   4
   2  -2   2 86773.4 1715.99   1
  -2   2  -2 81725.5 1627.29   3
   2  -2   2 88487.0 1706.54   2
   2  -2   2 89157.1 1632.27   3
   2  -2   3 27263.8 726.348   2
   2  -2   3 27513.1 632.455   3
  -2   2  -3 25346.3 674.888   2
  -2   2  -3 28265.7 721.073   5
   2  -2   3 29203.3 747.780   4
   2  -2   4 17513.9 549.281   6
   2  -2   4 18525.2 604.028   4
   2  -2   4 18215.4 560.825   5
   2  -2   4 17311.0 604.304   2
  -2   2  -4 17318.2 554.537   5
  -2   2  -4 15809.5 547.502   2
  -2   2  -5 737.575 109.093   5
   2  -2   5 848.103 114.385   5
   2  -2   5 668.081 116.530   2
   2  -2   5 749.130 108.295   6
   2  -2   5 846.524 127.920   4
   2  -2   6 19140.3 696.742   4
   2  -2   6 16051.8 410.779   7
  -2   2  -6 16611.1 659.593   2
   2  -2   6 17923.9 602.589   5
  -2   2  -6 18408.4 654.215   4
   2  -2   6 18264.8 747.361   2
   2  -2   6 18600.0 635.318   6
  -2   2  -6 17068.6 614.912   5
   2  -2   7 2343.26 205.780   5
   2  -2   7 2301.38 274.735   2
   2  -2   7 2494.81 227.356   6
  -2   2  -7 2123.75 235.988   2
  -2   2  -8 1244.78 194.467   2
   2  -2   8 1413.72 170.380   5
   2  -2   8 1457.36 185.014   6
   2  -2   9 3271.13 305.271   6
  -2   2  -9 2704.22 308.290   2
   2  -2  10 141.537 75.3279   6
  -2   2 -10 56.2321 55.3768   2
   2  -2  11 12.2832 54.8855   6
  -2   2 -11-44.6320 112.397   2
  -2   1  12 987.369 203.567   6
   2  -1 -12 909.582 250.699   2
   2  -1 -11 228.884 123.052   2
  -2   1  11 232.199 124.527   6
  -2   1  10 136.514 83.8396   6
   2  -1 -10 67.2807 65.7464   2
  -2   1   9 2772.21 277.279   6
  -2   1   9 2534.75 195.486   5
   2  -1  -9 2861.34 342.001   2
  -2   1   8 8659.30 474.075   6
   2  -1  -8 9631.84 615.096   2
   2  -1  -7 2134.24 262.690   2
  -2   1   7 1877.18 195.209   6
   2  -1  -7 2073.43 212.427   6
   2  -1  -6 324.157 86.7592   6
  -2   1   6 333.347 80.9817   6
  -2   1   6 516.462 135.905   2
   2  -1  -6 332.047 99.9409   2
  -2   1   5 5852.00 307.834   6
  -2   1   5 6581.30 419.891   2
   2  -1  -5 6577.61 333.373   6
   2  -1  -4 263.533 55.2264   6
  -2   1   4 250.236 81.0628   2
   2  -1  -4 304.002 76.4336   2
   2  -1  -3 10801.7 426.977   2
   2  -1  -3 10607.8 368.705   6
  -2   1   3 10531.9 441.172   2
  -2   1   2 17663.8 521.691   2
   2  -1  -2 17668.6 479.811   6
   2  -1  -2 17060.1 502.065   2
  -2   1   1 110428. 2016.37   2
   2  -1  -1 109420. 2008.30   2
   2  -1   0 5735.72 222.893   4
  -2   1   0 6103.48 217.176   5
  -2   1   0 6076.28 159.501   1
  -2   1   0 5890.50 167.559   3
   2  -1   0 6155.98 150.641   1
  -2   1  -1 168179. 2889.40   5
   2  -1   1 156106. 2802.72   2
   2  -1   1 176151. 2945.95   4
  -2   1  -1 154253. 2779.59   2
  -2   1  -2 25172.3 603.937   2
  -2   1  -2 26007.6 622.454   5
   2  -1   2 26270.6 633.955   2
   2  -1   2 26502.9 633.691   5
   2  -1   2 26291.5 678.522   4
   2  -1   3 20435.9 608.769   4
  -2   1  -3 17753.1 548.571   2
   2  -1   3 19728.9 533.392   5
  -2   1  -3 19147.2 525.395   5
   2  -1   3 19181.6 586.383   2
   2  -1   3 19112.7 571.090   6
  -2   1  -4 6829.02 344.335   2
   2  -1   4 6720.91 240.988   7
  -2   1  -4 7077.31 299.719   5
   2  -1   4 7092.07 368.756   2
   2  -1   4 7385.74 305.637   5
   2  -1   4 7269.42 333.220   6
   2  -1   4 7525.61 370.582   4
  -2   1  -5 81.5237 42.9649   5
   2  -1   5 56.4646 38.1892   6
   2  -1   5 99.2470 59.2604   2
   2  -1   5 93.8789 39.1878   4
   2  -1   5 77.6963 24.0758   7
   2  -1   5 96.4989 37.4601   5
  -2   1  -6 6882.73 385.116   4
   2  -1   6 6820.98 405.163   4
   2  -1   6 6363.22 364.835   6
   2  -1   6 6340.57 313.100   5
  -2   1  -6 6104.88 394.803   2
   2  -1   6 5851.49 415.728   2
  -2   1  -7 4018.66 346.537   2
   2  -1   7 4213.78 384.107   2
   2  -1   7 4592.66 329.141   6
   2  -1   7 4297.01 266.905   5
   2  -1   8 1163.43 142.574   5
  -2   1  -8 996.177 189.126   2
   2  -1   8 1127.23 172.374   6
   2  -1   9 1081.78 145.409   5
  -2   1  -9 951.424 193.030   2
   2  -1   9 1102.30 187.032   6
  -2   1 -10 86.5271 73.8441   2
   2  -1  10-60.5668 80.6905   6
  -2   1 -11 475.892 163.518   2
   2  -1  11 448.256 123.991   6
   2   0 -12 572.079 201.070   2
  -2   0  12 235.473 112.175   6
  -2   0  11 2304.98 283.648   6
   2   0 -11 2669.18 364.600   2
  -2   0  10 82.9445 53.4343   5
   2   0 -10 328.884 130.613   2
  -2   0  10 173.929 93.2550   6
   2   0  -9 1971.42 274.535   2
  -2   0   9 1821.22 218.001   6
   2   0  -8 1164.09 196.630   2
  -2   0   8 1053.65 155.253   6
   2   0  -7 365.569 103.376   2
  -2   0   7 368.279 88.2447   6
  -2   0   7 361.861 107.609   2
   2   0  -7 406.914 92.7670   6
  -2   0   6 921.562 156.891   2
   2   0  -6 896.597 122.758   6
  -2   0   6 816.107 114.453   6
   2   0  -5 544.901 85.0109   6
  -2   0   5 612.394 117.958   2
  -2   0   5 461.212 74.4104   6
  -2   0   4 11391.7 477.619   2
  -2   0   4 10964.9 385.327   6
   2   0  -4 11653.2 465.347   2
   2   0  -4 11536.2 388.403   6
   2   0  -3 1085.41 112.043   2
  -2   0   3 1073.52 95.9612   6
  -2   0   3 1083.54 117.513   2
   2   0  -3 1054.14 96.0439   6
   2   0  -2 11590.0 334.805   6
   2   0  -2 11366.7 345.897   2
  -2   0   2 11443.2 354.176   2
   2   0  -1 8362.37 216.074   2
  -2   0   1 8509.82 226.185   2
   2   0   0 62125.3 1225.32   4
  -2   0   0 53795.7 1072.95   3
  -2   0  -1 21777.0 499.405   5
   2   0   1 19480.7 509.826   7
   2   0   1 20178.6 490.829   2
   2   0   1 21897.8 564.374   4
  -2   0  -1 20551.2 486.196   2
  -2   0  -2 4878.56 231.178   2
  -2   0  -2 4895.49 192.106   5
   2   0   2 4761.01 235.363   2
   2   0   2 4825.06 247.979   4
   2   0   2 4595.71 196.543   7
   2   0   2 4630.20 193.590   5
   2   0   2 4487.77 149.164   3
  -2   0  -3 13524.0 385.048   5
   2   0   3 13145.7 390.001   5
   2   0   3 13153.1 377.657   7
   2   0   3 13337.2 482.219   4
   2   0   3 13569.9 504.258   2
  -2   0  -3 13122.8 480.398   2
   2   0   3 12887.5 363.606   3
  -2   0  -4 18617.8 661.233   2
   2   0   4 19107.2 697.139   2
  -2   0  -4 18489.0 513.859   5
   2   0   4 19021.5 652.028   4
   2   0   4 18810.2 514.264   5
   2   0   5 244.816 65.8699   6
   2   0   5 227.359 52.0958   5
   2   0   5 325.617 95.4896   2
  -2   0  -5 242.901 58.3527   5
   2   0   5 236.015 67.5336   4
  -2   0  -5 226.348 55.2006   6
   2   0   6 4852.19 246.061   5
  -2   0  -6 4549.36 361.191   2
  -2   0  -6 4363.54 323.074   6
  -2   0  -6 4879.00 326.416   4
   2   0   6 4565.69 319.800   6
   2   0   6 4681.87 388.952   2
   2   0   7 4087.68 277.889   3
   2   0   7 2974.45 203.362   5
   2   0   7 4285.85 330.012   6
  -2   0  -7 3842.70 353.088   2
   2   0   8 4171.40 256.595   5
   2   0   8 4405.10 322.782   3
  -2   0  -8 4450.28 411.423   2
   2   0   8 4729.84 369.702   6
  -2   0  -9 2643.88 335.236   2
   2   0   9 2718.58 297.690   6
   2   0  10 145.691 92.5184   6
  -2   0 -10 289.345 112.098   2
   2   0  11 34.2721 76.7702   6
  -2   0 -11-55.2037 93.1305   2
   2   1 -12 37.4184 68.0060   2
  -2  -1  12 178.934 97.3553   6
   2   1 -11 2808.68 361.838   2
  -2  -1  11 2394.61 275.694   6
   2   1 -10 96.7124 75.6104   2
  -2  -1  10 78.5413 62.4235   5
  -2  -1  10 59.6402 56.2091   6
   2   1  -9 104.279 78.4503   2
  -2  -1   9-2.18837 46.4912   6
   2   1  -8 509.953 130.872   2
   2   1  -8 423.923 92.5847   6
  -2  -1   8 489.596 108.148   6
  -2  -1   7 5952.80 321.375   6
   2   1  -7 5621.37 195.794   7
  -2  -1   7 6522.71 455.764   2
   2   1  -7 5941.91 326.752   6
   2   1  -7 6139.78 411.420   2
  -2  -1   6 3279.58 216.114   6
   2   1  -6 3651.60 226.549   6
  -2  -1   6 3736.50 313.603   2
   2   1  -6 3386.58 152.162   7
   2   1  -5 16.4360 14.1031   7
   2   1  -5 12.7401 22.6882   6
  -2  -1   5-4.26658 22.0170   6
  -2  -1   5-8.93803 41.5248   2
   2   1  -4 12030.9 355.973   7
  -2  -1   4 12530.5 387.122   6
  -2  -1   4 13027.3 496.922   2
   2   1  -4 12964.8 384.059   6
  -2  -1   3 4554.97 238.448   2
   2   1  -3 4416.71 191.879   7
   2   1  -3 4351.21 181.875   6
   2   1  -3 4381.43 222.476   2
  -2  -1   2 14624.0 408.936   2
  -2  -1   2 14871.2 359.626   1
   2   1  -1 36762.1 782.976   4
  -2  -1   1 34418.9 774.104   7
   2   1  -1 32170.8 631.904   1
  -2  -1   0 23319.8 510.954   3
   2   1   0 23556.8 520.069   3
  -2  -1   0 24757.4 606.015   7
   2   1   0 24054.5 601.388   4
   2   1   1 61895.9 1306.28   4
  -2  -1  -1 65424.5 1293.04   7
   2   1   1 64227.4 1277.66   7
   2   1   1 60658.0 1178.72   3
  -2  -1  -1 64774.0 1327.44   2
  -2  -1  -1 60578.7 1174.09   3
  -2  -1  -2 58173.0 1174.26   3
   2   1   2 59617.2 1310.47   4
  -2  -1  -2 61386.0 1253.85   7
   2   1   2 59430.1 1355.34   2
  -2  -1  -2 61738.4 1368.64   2
   2   1   2 57652.6 1165.33   3
  -2  -1  -2 59930.4 1151.26   5
  -2  -1  -3 34505.2 738.715   5
  -2  -1  -3 34615.2 823.274   7
  -2  -1  -3 35108.2 982.581   2
   2   1   3 34768.3 921.302   4
   2   1   3 33171.9 782.747   3
   2   1   3 34124.0 979.715   2
  -2  -1  -3 35205.9 914.688   6
  -2  -1  -4 3538.28 170.670   5
   2   1   4 3497.55 258.879   4
  -2  -1  -4 3538.05 252.009   6
  -2  -1  -4 3537.78 202.508   7
   2   1   4 3316.07 286.150   2
   2   1   4 3482.78 203.220   3
  -2  -1  -5 6173.06 283.688   7
   2   1   5 6333.41 389.869   4
  -2  -1  -5 6442.73 358.056   4
  -2  -1  -5 6306.50 421.329   2
   2   1   5 6236.96 429.342   2
   2   1   5 6359.61 309.160   3
   2   1   5 6738.66 379.220   6
   2   1   5 5873.83 241.100   5
  -2  -1  -5 6296.23 375.873   6
  -2  -1  -5 6340.23 257.430   5
   2   1   6-0.23408 33.9214   3
   2   1   6-1.81754 21.3246   5
  -2  -1  -6-16.1460 45.8647   2
   2   1   6-5.81023 42.9555   2
   2   1   6 3.23524 47.8323   6
  -2  -1  -6-88.9249 80.9766   4
   2   1   7 266.274 96.4110   6
   2   1   7 285.044 83.0861   3
   2   1   7 191.112 48.9975   5
  -2  -1  -7 210.756 93.6363   2
  -2  -1  -8 265.373 108.779   2
   2   1   8 284.718 60.7880   5
   2   1   8 339.502 114.382   6
  -2  -1  -9 1387.28 257.793   2
   2   1   9 1229.26 213.117   6
  -2  -1 -10 115.557 106.955   2
   2   1  10 151.716 94.5864   6
   2   2 -12 1742.52 295.430   2
  -2  -2  12 1405.38 218.794   6
   2   2 -11 56.1066 72.6654   2
  -2  -2  11 115.118 81.1477   6
   2   2 -10 1013.28 199.087   2
  -2  -2  10 1171.08 170.455   6
  -2  -2   9 5093.92 328.107   6
   2   2  -9 4479.47 392.686   2
   2   2  -9 4412.36 309.646   6
   2   2  -8 474.469 93.0040   6
  -2  -2   8 574.209 103.841   6
   2   2  -8 410.543 99.5523   2
   2   2  -7 3462.39 295.149   2
  -2  -2   7 3455.24 227.870   6
   2   2  -7 3804.00 233.447   6
  -2  -2   7 4219.14 358.497   2
  -2  -2   6 144.892 69.9045   2
   2   2  -6 140.985 49.1289   6
  -2  -2   6 92.9493 38.5375   6
  -2  -2   5 6545.28 262.804   6
   2   2  -5 6696.86 262.963   6
  -2  -2   5 6763.80 381.490   2
  -2  -2   4 1854.83 173.608   2
   2   2  -4 1960.63 128.933   7
  -2  -2   4 1862.51 130.728   7
   2   2  -4 1932.15 114.840   6
   2   2  -3 14779.5 425.245   7
  -2  -2   3 14173.5 430.357   7
  -2  -2   3 14110.1 409.915   1
   2   2  -3 14347.9 359.727   6
  -2  -2   3 14709.8 478.665   2
   2   2  -2 16634.1 431.745   1
  -2  -2   2 17125.1 493.949   4
  -2  -2   2 17044.2 489.169   7
  -2  -2   2 17285.8 417.265   1
  -2  -2   1 34442.1 817.712   7
   2   2  -1 35994.1 813.014   4
  -2  -2   1 34075.9 795.710   4
   2   2  -1 34914.9 803.450   3
   2   2  -1 34737.3 708.291   1
   2   2   0 45127.0 1005.35   4
  -2  -2   0 45530.9 956.922   3
   2   2   0 44455.4 959.939   3
  -2  -2   0 47009.7 1024.95   7
  -2  -2   0 44855.4 987.271   4
  -2  -2  -1 18841.4 535.292   4
   2   2   1 18234.8 540.782   4
  -2  -2  -1 18898.8 618.729   2
  -2  -2  -1 18197.8 534.133   7
   2   2   1 18565.1 494.527   3
  -2  -2  -1 17338.1 479.159   3
  -2  -2  -2 17084.3 416.716   5
  -2  -2  -2 18848.5 568.531   4
  -2  -2  -2 17080.7 638.634   2
  -2  -2  -2 18557.1 578.631   6
  -2  -2  -2 17700.8 533.838   7
   2   2   2 17305.8 559.878   4
   2   2   2 17337.5 492.962   3
  -2  -2  -2 16452.7 488.488   3
  -2  -2  -3 619.684 55.2257   5
  -2  -2  -3 645.815 89.8712   7
  -2  -2  -3 528.442 92.5808   6
   2   2   3 549.944 91.6761   4
   2   2   3 686.329 90.5186   3
  -2  -2  -3 543.801 90.2665   4
   2   2   3 579.414 122.280   2
  -2  -2  -4 34473.8 889.169   7
   2   2   4 35853.8 1013.88   4
  -2  -2  -4 37177.6 991.717   4
   2   2   4 35369.9 1147.99   2
  -2  -2  -4 34439.5 991.281   6
   2   2   4 35155.4 901.762   3
  -2  -2  -4 33998.6 725.595   5
   2   2   5 1868.94 257.072   2
   2   2   5 1879.58 207.729   4
  -2  -2  -5 1790.25 191.542   4
  -2  -2  -5 1850.16 164.112   7
  -2  -2  -5 1994.59 253.961   2
   2   2   5 2005.15 184.100   3
   2   2   5 1910.34 211.923   6
   2   2   6 17827.2 725.020   6
  -2  -2  -6 15804.4 799.580   2
  -2  -2  -6 17685.5 698.620   4
  -2  -2  -6 15796.9 558.308   7
   2   2   6 16635.2 626.595   3
   2   2   7 242.205 99.9243   6
  -2  -2  -7 293.244 109.520   2
  -2  -2  -7 229.173 62.5874   7
  -2  -2  -8-2.18996 81.9784   2
   2   2   8-87.9085 81.5533   6
   2   2   9 29.4078 80.4658   6
  -2  -2  -9 47.6099 81.3555   2
  -2  -2 -10 37.4767 78.5481   2
   2   2  10 126.362 101.222   6
   2   3 -13 284.218 144.791   2
  -2  -3  13 181.612 107.708   6
   2   3 -12 38.9885 52.7908   2
  -2  -3  12 239.966 108.747   6
   2   3 -11 1100.43 218.751   2
  -2  -3  11 1009.05 168.152   6
   2   3 -10 3273.75 344.704   2
   2   3 -10 3616.12 282.291   6
  -2  -3  10 3500.73 274.485   6
   2   3  -9 50.5300 54.6280   2
   2   3  -9 5.01994 39.0065   6
  -2  -3   9-39.8967 70.0424   6
   2   3  -8 1902.83 164.251   6
  -2  -3   8 1967.97 167.381   6
   2   3  -8 2000.15 238.323   2
   2   3  -7 4854.56 243.765   6
  -2  -3   7 4941.33 386.483   2
  -2  -3   7 5149.86 255.854   6
   2   3  -7 4733.57 345.786   2
  -2  -3   6 387.651 60.9166   6
   2   3  -6 367.048 59.7429   6
  -2  -3   6 433.868 105.723   2
  -2  -3   5 5.86752 21.5096   7
   2   3  -5 26.0086 18.9665   6
  -2  -3   5 41.6901 43.1213   2
  -2  -3   4 245.904 68.7603   2
  -2  -3   4 242.744 56.6325   1
  -2  -3   4 227.944 51.1556   7
   2   3  -4 257.414 35.6094   6
   2   3  -3 2898.02 179.856   1
  -2  -3   3 2753.11 178.468   7
  -2  -3   3 2911.75 162.381   1
  -2  -3   2 10924.4 327.597   1
   2   3  -2 11397.1 418.591   3
  -2  -3   2 11028.7 395.895   7
  -2  -3   2 10944.8 377.261   4
   2   3  -2 10840.8 341.742   1
   2   3  -1 5549.46 249.674   4
   2   3  -1 5511.95 212.082   1
  -2  -3   1 5158.66 258.486   7
   2   3  -1 5057.47 253.306   3
  -2  -3   1 5135.44 236.089   4
   2   3  -1 5170.73 215.252   6
   2   3   0 7307.06 295.143   6
   2   3   0 7354.72 307.624   3
   2   3   0 7502.48 307.734   4
  -2  -3   0 7588.58 325.251   7
  -2  -3   0 7123.59 300.320   3
  -2  -3   0 7443.44 295.592   4
   2   3   1 33381.1 831.432   6
   2   3   1 29648.3 807.276   4
  -2  -3  -1 34163.7 828.508   4
  -2  -3  -1 32130.0 979.159   2
  -2  -3  -1 32528.7 836.693   7
  -2  -3  -1 32315.8 832.532   6
  -2  -3  -1 31446.2 799.589   3
   2   3   1 32268.2 811.248   3
  -2  -3  -2 13505.1 475.328   3
   2   3   2 14212.2 483.310   3
   2   3   2 13708.8 505.460   4
  -2  -3  -2 14979.9 510.832   4
  -2  -3  -2 13981.5 494.546   7
  -2  -3  -2 14636.2 525.528   6
  -2  -3  -3 8396.87 237.938   5
  -2  -3  -3 9936.74 445.454   6
   2   3   3 10030.2 450.063   4
  -2  -3  -3 10308.3 435.916   4
  -2  -3  -3 9837.92 403.980   7
   2   3   3 9693.07 398.904   3
  -2  -3  -4 757.351 164.710   2
   2   3   4 999.686 133.288   3
   2   3   4 958.869 143.732   4
  -2  -3  -4 986.266 150.218   6
  -2  -3  -4 919.122 119.480   7
  -2  -3  -4 801.301 127.889   4
   2   3   4 936.706 143.399   6
   2   3   4 967.417 186.125   2
  -2  -3  -4 447.054 40.6077   5
  -2  -3  -5 150.571 87.0585   2
  -2  -3  -5 349.806 96.1824   4
   2   3   5 273.682 76.5057   3
  -2  -3  -5 176.090 54.6869   7
   2   3   5 164.553 68.7047   6
  -2  -3  -6-125.430 82.4191   4
  -2  -3  -6-44.1055 35.0235   7
  -2  -3  -6-45.7407 72.7111   2
   2   3   6-20.1929 45.5312   6
  -2  -3  -7 494.830 155.607   2
  -2  -3  -7 421.134 88.0871   7
   2   3   7 647.792 153.443   6
  -2  -3  -8 1620.85 298.184   2
   2   3   8 1990.27 282.022   6
  -2  -3  -9 649.615 210.236   2
   2   3   9 747.283 184.145   6
   2   4 -13 278.515 151.867   2
   2   4 -12-9.44663 52.7915   2
  -2  -4  12 118.557 63.5541   6
   2   4 -11-2.42584 54.9399   2
  -2  -4  11 91.0658 72.8400   6
   2   4 -10 425.888 125.348   2
  -2  -4  10 613.988 109.288   6
   2   4 -10 364.498 79.8064   6
  -2  -4  10 494.257 128.257   1
  -2  -4   9 813.425 109.427   6
   2   4  -9 895.789 174.658   2
  -2  -4   9 847.918 159.968   1
   2   4  -9 815.064 115.005   6
  -2  -4   8 1913.25 220.314   1
  -2  -4   8 2222.37 163.154   6
  -2  -4   8 2324.21 248.829   3
   2   4  -8 1916.16 150.407   6
   2   4  -7 1006.65 96.9098   6
  -2  -4   7 1138.25 158.697   1
  -2  -4   7 1235.24 104.614   6
  -2  -4   7 1201.21 176.370   3
  -2  -4   7 1111.20 114.510   7
  -2  -4   6 4.48274 28.5114   7
   2   4  -6 19.4680 19.7329   6
  -2  -4   6 56.0121 53.5481   3
  -2  -4   6 41.2914 43.9705   1
  -2  -4   6-46.7128 66.6254   2
  -2  -4   5 13198.4 546.107   2
  -2  -4   5 11997.9 419.730   7
   2   4  -5 9533.40 241.854   6
   2   4  -4 6327.89 319.454   1
  -2  -4   4 6582.30 360.274   2
  -2  -4   4 6020.54 295.592   7
   2   4  -3 1465.20 159.308   3
  -2  -4   3 1388.75 135.923   7
  -2  -4   3 1589.96 137.598   4
   2   4  -3 1655.62 141.873   1
   2   4  -3 1183.18 67.0251   6
  -2  -4   3 1501.24 124.040   1
  -2  -4   2 3890.03 208.556   4
   2   4  -2 4007.09 168.077   6
   2   4  -2 4227.83 262.908   3
   2   4  -2 4273.40 217.044   1
   2   4  -1 8000.21 321.491   4
   2   4  -1 7594.36 282.779   6
   2   4  -1 7744.07 295.292   1
  -2  -4   1 7529.33 300.079   4
   2   4  -1 7913.48 361.289   3
   2   4   0 53.6310 30.1935   3
   2   4   0 140.147 48.2417   6
   2   4   0 55.4103 36.7280   4
  -2  -4   0 87.2353 41.1147   4
  -2  -4   0 41.3221 29.5296   6
  -2  -4  -1 7866.68 336.378   4
   2   4   1 7063.72 334.814   4
  -2  -4  -1 7275.83 350.917   6
   2   4   1 7543.73 355.549   3
  -2  -4  -2 2734.73 221.091   6
   2   4   2 2726.46 213.967   4
  -2  -4  -2 2655.69 200.300   4
  -2  -4  -2 2587.54 281.981   2
   2   4   2 2661.49 212.586   3
   2   4   3 3243.96 253.535   4
  -2  -4  -3 3081.23 230.637   4
  -2  -4  -3 2104.32 93.4671   5
  -2  -4  -3 2674.19 309.081   2
  -2  -4  -3 2792.42 225.995   3
  -2  -4  -3 2885.37 247.420   6
   2   4   3 3115.82 240.946   3
   2   4   3 3063.08 256.939   6
   2   4   4 10761.8 531.977   6
   2   4   4 10098.1 501.605   4
  -2  -4  -4 9953.75 636.717   2
  -2  -4  -4 10484.5 481.892   4
  -2  -4  -4 9868.41 456.968   7
   2   4   4 10218.1 477.059   3
  -2  -4  -5 104.952 57.4802   7
  -2  -4  -5 96.0563 87.8657   2
   2   4   5 111.945 68.3865   6
  -2  -4  -5 90.5569 68.0322   4
  -2  -4  -6 1311.93 169.796   7
  -2  -4  -6 1161.07 233.063   2
   2   4   6 1296.08 209.622   6
  -2  -4  -7 30.3160 73.4985   2
   2   4   7 1.68362 87.7334   6
  -2  -4  -8 276.443 134.901   2
   2   4   8 209.373 101.314   6
   2   4   9 209.818 95.7116   6
  -2  -4  -9 86.1297 69.5098   2
  -2  -5  12-31.6074 71.6389   1
  -2  -5  12-26.5468 70.0263   3
  -2  -5  11 87.7225 89.0368   3
  -2  -5  11 184.456 80.4785   1
  -2  -5  10 2900.58 302.788   1
   2   5 -10 2392.21 195.955   6
  -2  -5  10 2494.10 290.571   3
  -2  -5  10 2855.73 205.519   6
  -2  -5   9 1139.50 187.786   3
   2   5  -9 1020.30 111.692   6
  -2  -5   9 1220.86 185.735   1
  -2  -5   9 1406.00 124.577   6
  -2  -5   8 11845.3 547.076   1
  -2  -5   8 11428.6 570.237   3
  -2  -5   7 189.660 65.2630   1
  -2  -5   7 183.693 84.6024   3
  -2  -5   7 99.6374 43.8521   7
  -2  -5   6 1513.82 151.595   7
  -2  -5   6 1621.09 172.618   1
  -2  -5   6 1619.48 196.394   3
  -2  -5   5 6310.69 322.334   1
  -2  -5   5 6174.11 321.325   7
  -2  -5   5 6442.05 396.370   2
   2   5  -4 7067.24 401.044   3
   2   5  -4 7537.77 373.974   1
  -2  -5   4 7499.29 334.500   1
  -2  -5   3 1455.65 132.501   4
   2   5  -3 1595.07 177.471   3
   2   5  -3 1557.67 149.511   1
   2   5  -3 1237.90 73.4280   6
   2   5  -2 729.617 119.942   3
  -2  -5   2 653.245 82.8035   4
   2   5  -2 791.625 101.438   1
   2   5  -2 774.556 75.7679   6
   2   5  -1 13448.8 458.150   4
  -2  -5   1 13098.8 429.999   4
   2   5  -1 13687.5 461.397   1
   2   5  -1 13556.6 431.571   6
   2   5  -1 13867.3 542.896   3
   2   5   0 2894.23 203.060   4
  -2  -5   0 3412.88 205.855   4
   2   5   0 3232.08 213.179   6
  -2  -5   0 3154.29 215.723   6
   2   5   0 3044.06 241.030   3
  -2  -5   0 3056.05 235.124   3
  -2  -5  -1 3741.04 259.159   6
   2   5   1 3605.48 238.798   4
  -2  -5  -1 3998.99 238.711   4
  -2  -5  -1 3579.43 343.659   2
   2   5   1 3493.75 267.756   3
  -2  -5  -1 3561.56 260.380   3
  -2  -5  -2 60.9180 49.2599   2
   2   5   2 248.293 74.7999   3
  -2  -5  -2 75.5370 46.1196   3
  -2  -5  -2 158.075 65.4539   6
   2   5   2 209.795 67.9006   4
  -2  -5  -2 20.6520 45.3668   4
   2   5   2 122.727 48.3885   6
  -2  -5  -3 585.149 42.8969   5
  -2  -5  -3 910.317 192.462   2
  -2  -5  -3 960.153 144.497   3
   2   5   3 936.429 137.451   4
  -2  -5  -3 993.748 138.249   4
   2   5   3 1172.33 169.433   6
  -2  -5  -4 141.179 89.0621   2
  -2  -5  -4-17.8523 65.8661   3
   2   5   4-48.5046 77.5456   4
  -2  -5  -4 14.6323 50.1360   4
   2   5   4 61.3517 56.0127   6
  -2  -5  -5 341.694 154.202   2
   2   5   5 359.672 118.982   6
  -2  -5  -6 533.840 176.706   2
   2   5   6 417.954 118.837   6
  -2  -5  -7 459.228 188.789   2
   2   5   7 342.922 126.605   6
   2   5   8 322.953 140.503   6
  -2  -5  -8 545.202 209.419   2
  -2  -6  12 59.8922 97.3370   1
  -2  -6  12 273.114 133.530   3
  -2  -6  11 5899.30 470.072   1
  -2  -6  11 5686.69 475.200   3
  -2  -6  10 1696.91 249.342   3
  -2  -6  10 1758.34 241.990   1
  -2  -6   9 996.558 168.495   1
  -2  -6   9 1009.55 180.214   3
  -2  -6   9 773.349 110.787   7
  -2  -6   8-51.1215 74.8648   3
  -2  -6   8 58.7454 41.4691   7
  -2  -6   8-35.3689 53.5902   1
  -2  -6   7 6520.25 355.251   7
  -2  -6   7 7909.84 419.894   1
  -2  -6   7 7631.05 463.029   3
  -2  -6   6 962.933 137.715   1
  -2  -6   6 1082.03 168.650   3
  -2  -6   6 781.961 119.659   7
  -2  -6   5 6166.82 392.891   3
  -2  -6   5 6146.43 331.530   1
  -2  -6   4 326.770 92.6755   3
  -2  -6   4 348.580 74.2065   4
   2   6  -4 376.915 88.0909   1
  -2  -6   4 337.238 74.2765   1
   2   6  -3 255.471 68.7975   1
   2   6  -3 288.753 91.3739   3
  -2  -6   3 325.942 61.8572   4
  -2  -6   3 240.193 79.4184   3
   2   6  -3 197.252 34.4390   6
  -2  -6   2 7794.40 312.264   4
   2   6  -2 7958.92 297.692   6
   2   6  -2 9200.11 404.849   1
   2   6  -2 8175.14 444.192   3
  -2  -6   2 8326.80 435.819   3
   2   6  -1 186.730 53.0003   1
  -2  -6   1 256.510 59.3737   4
  -2  -6   1 213.431 76.3641   3
   2   6  -1 191.981 75.2961   3
   2   6  -1 306.770 67.1058   6
   2   6   0 1014.32 121.389   4
  -2  -6   0 1161.67 154.727   3
  -2  -6   0 1092.32 118.391   4
  -2  -6   0 1169.87 142.937   6
   2   6   1 3690.97 249.135   4
  -2  -6  -1 3615.44 236.607   4
   2   6   1 3933.63 278.173   6
  -2  -6  -1 3319.22 364.550   2
  -2  -6  -1 3379.90 277.795   3
  -2  -6  -1 3473.04 268.785   6
  -2  -6  -2 3336.10 284.103   3
  -2  -6  -2 3356.10 240.483   4
   2   6   2 3653.33 292.642   6
  -2  -6  -2 3017.43 358.363   2
   2   6   2 3327.14 256.008   4
  -2  -6  -2 2579.45 152.883   5
  -2  -6  -3 451.997 154.735   2
  -2  -6  -3 372.878 98.5100   3
   2   6   3 503.780 106.323   4
  -2  -6  -3 475.043 100.782   4
   2   6   3 353.117 102.098   6
  -2  -6  -4 2874.28 256.330   4
  -2  -6  -4 2604.60 365.766   2
   2   6   4 2906.88 300.190   6
  -2  -6  -4 2491.41 269.434   3
  -2  -6  -5 604.601 207.730   2
   2   6   5 624.964 150.839   6
  -2  -6  -6 345.687 164.583   2
   2   6   6 184.169 86.5021   6
  -2  -6  -7 387.071 173.975   2
   2   6   7 323.496 132.960   6
  -2  -7  12 302.996 144.770   3
  -2  -7  12 403.606 137.419   1
  -2  -7  11 99.8890 87.4083   3
  -2  -7  11 345.745 122.344   1
  -2  -7  10 2517.78 281.654   1
  -2  -7  10 2572.08 312.359   3
  -2  -7   9 878.694 181.356   3
  -2  -7   9 466.649 100.005   7
  -2  -7   9 895.051 159.782   1
  -2  -7   8 736.776 137.940   1
  -2  -7   8 709.557 157.343   3
  -2  -7   8 558.119 109.540   7
  -2  -7   7 359.358 104.253   3
  -2  -7   7 390.607 95.0548   7
  -2  -7   7 472.859 110.372   1
  -2  -7   6 33.9377 65.5237   3
  -2  -7   6-33.3823 48.9631   1
  -2  -7   5 1346.35 160.225   1
  -2  -7   5 1423.78 199.940   3
  -2  -7   5 1096.16 130.741   4
  -2  -7   4 1116.51 119.049   4
  -2  -7   4 1136.22 177.387   3
  -2  -7   3 363.267 64.3482   4
  -2  -7   3 193.077 68.4799   3
   2   7  -3 335.545 50.2353   6
  -2  -7   2 293.402 90.1644   3
  -2  -7   2 82.2137 37.1177   4
   2   7  -2 197.340 47.9370   6
  -2  -7   1 3277.52 195.531   4
  -2  -7   1 2928.57 229.896   5
  -2  -7   1 3427.33 291.192   3
  -2  -7   0-8.25860 46.6595   3
  -2  -7   0 20.4754 35.9175   4
   2   7   0 45.9542 38.0630   4
  -2  -7   0-22.7192 32.3637   6
   2   7   0 35.1813 36.1515   6
  -2  -7  -1 2255.11 248.072   3
   2   7   1 1937.13 184.977   4
  -2  -7  -1 1958.95 222.946   6
  -2  -7  -1 2335.00 184.985   4
   2   7   1 2149.67 216.184   6
  -2  -7  -1 1769.58 299.085   2
  -2  -7  -1 2016.23 162.331   5
  -2  -7  -2 78.1747 88.2865   2
   2   7   2 54.0584 49.1285   4
  -2  -7  -2 99.5478 31.5833   5
  -2  -7  -2 92.1672 68.9717   3
  -2  -7  -2 117.698 52.9963   4
   2   7   2 122.802 61.0717   6
  -2  -7  -3 147.871 114.480   2
  -2  -7  -3 180.867 84.3395   3
   2   7   3 324.842 95.8582   4
   2   7   3 248.581 90.3133   6
  -2  -7  -4 38.2638 62.0672   3
  -2  -7  -4 22.0192 104.349   2
   2   7   4 52.2381 64.2338   6
   2   7   5 14.9690 55.8585   6
  -2  -7  -5 126.141 131.925   2
  -2  -7  -6 118.795 145.672   2
   2   7   6-12.7842 60.4721   6
  -2  -8  11 176.143 78.8622   1
  -2  -8  11 301.031 129.027   3
  -2  -8  10 681.042 150.837   1
  -2  -8  10 670.122 167.601   3
  -2  -8   9 55.4254 68.1734   1
  -2  -8   9 161.810 87.6161   3
  -2  -8   8 13.6393 63.4445   3
  -2  -8   8 130.246 65.1917   1
  -2  -8   7 1331.12 210.119   3
  -2  -8   7 1608.32 195.650   1
  -2  -8   6 45.9681 78.4539   3
  -2  -8   6 115.493 61.6482   1
  -2  -8   6-19.7424 46.7392   4
  -2  -8   5 1092.03 188.631   3
  -2  -8   5 863.348 111.306   4
  -2  -8   4 312.942 97.8451   3
  -2  -8   4 217.190 55.4127   4
  -2  -8   3 640.367 145.879   3
  -2  -8   3 244.464 52.0456   4
   2   8  -3 379.030 58.0450   6
  -2  -8   2 1621.03 219.916   3
  -2  -8   2 1283.46 111.772   4
   2   8  -2 1717.27 149.470   6
  -2  -8   1 828.461 133.105   5
  -2  -8   1 945.672 165.362   3
  -2  -8   1 964.706 98.9867   4
  -2  -8   0 158.167 69.6936   3
  -2  -8   0 275.784 96.9603   6
  -2  -8   0 304.102 59.7237   4
   2   8   0 326.655 84.7678   6
  -2  -8  -1-112.858 75.8235   3
  -2  -8  -1-39.0705 42.4234   4
  -2  -8  -1-15.4487 83.7025   2
   2   8   1 19.4188 51.0961   6
  -2  -8  -2 2510.97 289.168   3
  -2  -8  -2 2013.79 345.880   2
   2   8   2 2563.21 265.712   6
  -2  -8  -3-1.80391 64.9204   3
  -2  -8  -3-27.8285 70.0041   2
   2   8   3 159.282 93.3435   6
  -2  -8  -4 273.175 158.745   2
  -2  -8  -4 328.600 109.354   3
   2   8   4 491.019 156.883   6
  -2  -8  -5-50.2192 96.1091   2
   2   8   5 142.325 91.6599   6
  -2  -9  10 70.9167 73.1354   1
  -2  -9  10 113.171 98.9494   3
  -2  -9   9 464.025 138.855   3
  -2  -9   9 647.077 150.457   1
  -2  -9   8 1767.80 263.845   3
  -2  -9   8 1620.22 212.385   1
  -2  -9   8 1681.41 202.216   4
  -2  -9   7 56.3342 69.4508   3
  -2  -9   7 62.0687 61.0811   1
  -2  -9   7 125.494 60.8117   4
  -2  -9   6 498.629 137.634   3
  -2  -9   6 592.637 98.5592   4
  -2  -9   5 1097.48 201.395   3
  -2  -9   5 481.702 72.8653   4
  -2  -9   4 161.536 98.1631   3
  -2  -9   3 505.170 145.603   3
   2   9  -3 203.347 44.0720   6
  -2  -9   2-157.628 91.0237   3
  -2  -9   1-113.279 105.900   3
   2   9  -1 30.2024 43.7135   6
   2   9   0 167.597 64.2144   6
  -2  -9   0 308.589 148.739   2
  -2  -9   0 73.7102 63.4571   3
   2   9   1 1160.65 178.423   6
  -2  -9  -1 1204.82 214.606   3
  -2  -9  -1 807.971 235.528   2
  -2  -9  -2 353.456 180.466   2
   2   9   2 386.629 117.065   6
  -2  -9  -2 318.163 126.044   3
  -2  -9  -3 113.340 108.795   2
   2   9   3-47.0459 69.7270   6
  -2  -9  -3 80.9648 91.0668   3
  -2 -10   9 286.283 116.917   3
  -2 -10   9 158.653 94.5613   1
  -2 -10   8 281.373 126.651   3
  -2 -10   7 504.931 156.900   3
  -2 -10   6-71.0745 87.2234   3
  -2 -10   5 336.765 133.039   3
  -2 -10   4 1157.31 222.158   3
  -2 -10   3 560.186 161.041   3
  -2 -10   2 96.3748 79.7998   3
  -2 -10   1 622.468 175.173   3
   2  10  -1 479.767 108.107   6
  -2 -10   0 42.8965 81.5411   3
   2  10   0 48.1542 57.1450   6
  -2 -10   0 10.8506 101.418   2
  -2 -10  -1-38.2467 72.1003   3
   2  10   1 268.469 98.9771   6
  -2 -10  -1 66.5365 144.218   2
  -2 -11   6 114.591 89.9769   3
  -2 -11   5 343.403 148.583   3
  -2 -11   4 339.512 138.572   3
  -2 -11   3-65.2020 72.0096   3
  -2 -11   2 813.665 210.027   3
   3 -11   0 1171.71 243.155   3
   3 -11   0 580.964 235.199   2
   3 -11   1-13.7383 66.6163   3
   3 -11   1 4.26716 106.482   2
   3 -11   2-110.523 98.3937   3
   3 -11   3 171.162 116.034   3
   3 -11   4 71.0954 84.8741   3
   3 -11   5 139.076 103.843   3
   3 -10  -3 356.652 184.983   2
   3 -10  -2 243.525 163.093   2
   3 -10  -2 415.314 157.571   3
   3 -10  -1 1047.48 272.787   2
   3 -10  -1 1597.87 267.081   3
   3 -10   0 903.878 206.456   3
   3 -10   0 817.047 261.964   2
   3 -10   1 1603.63 254.186   3
   3 -10   2 523.936 151.459   3
   3 -10   3 132.709 82.7543   3
   3 -10   4 255.178 114.627   3
   3 -10   5 167.834 95.5644   3
   3 -10   6-33.8396 80.9964   3
   3 -10   7 286.189 108.164   1
   3 -10   7 83.0700 77.5348   3
   3 -10   8 158.331 81.2874   1
   3  -9  -5 21.0916 100.211   2
  -3   9   5 81.1047 65.5694   6
   3  -9  -4 787.923 247.817   2
  -3   9   4 924.336 186.573   6
   3  -9  -3 6.05960 73.9970   2
  -3   9   3 30.9580 57.7097   6
   3  -9  -2 232.197 113.154   2
   3  -9  -2 453.449 150.743   3
   3  -9  -1 2338.61 292.004   3
   3  -9  -1 1703.12 317.883   2
   3  -9   0 980.567 239.743   2
   3  -9   0 1334.11 220.828   3
   3  -9   1 3386.97 281.878   6
   3  -9   1 3997.06 369.105   3
   3  -9   2 996.165 189.853   3
   3  -9   2 736.339 123.168   6
   3  -9   3 165.456 58.1686   6
   3  -9   3 335.930 120.347   3
   3  -9   4 120.212 70.3002   3
   3  -9   5 49.2749 77.1860   3
   3  -9   6 73.2911 51.3448   3
   3  -9   6 217.916 100.561   1
   3  -9   7 116.965 76.2699   1
   3  -9   7-90.8705 65.1072   3
   3  -9   8-32.0061 81.3267   3
   3  -9   8 43.6608 64.2585   1
   3  -9   9 513.570 145.858   1
   3  -9   9 173.897 59.9852   3
   3  -8  -6 237.483 158.340   2
  -3   8   6 37.7982 54.2441   6
  -3   8   5 524.932 139.412   6
   3  -8  -5 481.914 205.437   2
   3  -8  -4 4729.24 533.383   2
  -3   8   4 4909.10 400.345   6
   3  -8  -3 99.9492 103.678   2
  -3   8   3 52.1036 49.1406   6
   3  -8  -2 210.614 124.261   2
   3  -8  -2-1.68785 71.6271   3
  -3   8   2 67.5450 19.8686   4
  -3   8   2 49.3671 19.3697   4
   3  -8  -2 208.003 67.6833   5
  -3   8   1 1286.07 175.256   5
   3  -8  -1 1221.97 156.640   5
   3  -8  -1 1292.20 204.799   3
   3  -8  -1 1170.26 244.686   2
   3  -8   0 119.961 87.2550   3
   3  -8   0-90.0031 76.6889   2
  -3   8   0 81.2402 61.8835   5
   3  -8   0 49.0523 43.2477   6
   3  -8   1 2000.39 198.109   6
   3  -8   1 2755.27 279.477   3
  -3   8  -1 2477.69 259.243   5
   3  -8   2 161.761 85.3235   3
  -3   8  -2 114.291 76.2257   5
   3  -8   2 155.568 63.2106   6
  -3   8  -3 12195.3 618.680   5
   3  -8   3 10545.3 444.596   6
   3  -8   3 13918.5 625.256   3
   3  -8   4 1081.93 92.8343   4
   3  -8   4 1340.74 186.405   3
   3  -8   4 1143.79 130.843   6
   3  -8   5 362.536 100.705   3
   3  -8   5 355.178 73.1972   4
   3  -8   5 270.900 67.1026   6
   3  -8   5 522.642 118.996   1
   3  -8   6 48.6532 67.1688   1
   3  -8   6 3.41514 29.8382   6
   3  -8   6 34.2080 46.2711   3
   3  -8   7 14.5498 46.8626   3
   3  -8   7 58.9219 38.0874   6
   3  -8   7-15.6174 57.6421   1
   3  -8   8 127.102 65.4093   3
   3  -8   8 33.4702 60.1059   1
   3  -8   9-49.1580 65.9467   1
   3  -8   9-16.4228 61.2664   3
   3  -8  10 227.494 98.9765   3
   3  -8  10 36.0927 56.2985   1
   3  -7  -8-134.393 123.363   2
  -3   7   8 23.6076 79.6228   6
   3  -7  -7 87.5975 89.3644   2
  -3   7   7-49.2627 83.5932   6
   3  -7  -6 543.217 200.125   2
  -3   7   6 325.445 120.769   6
  -3   7   5 4.78650 39.1372   4
  -3   7   5-33.7694 59.5230   6
  -3   7   4 1043.43 122.395   4
   3  -7  -4 941.051 226.503   2
  -3   7   4 1043.95 118.037   5
  -3   7   4 1044.09 172.434   6
  -3   7   3 2385.43 168.520   4
   3  -7  -3 2396.03 336.758   2
  -3   7   3 2771.97 266.227   6
  -3   7   3 2645.29 204.673   5
  -3   7   2 11856.2 543.034   6
  -3   7   2 9754.88 352.530   4
  -3   7   2 9526.16 318.494   4
   3  -7  -2 10395.9 675.189   2
   3  -7  -2 12843.7 619.655   3
  -3   7   2 11482.3 473.247   5
   3  -7  -1 2665.27 319.900   2
   3  -7  -1 3218.02 259.106   6
   3  -7  -1 3440.39 239.009   5
   3  -7  -1 3206.21 285.991   3
  -3   7   1 3238.17 253.439   5
  -3   7   0 97.4868 57.9999   5
   3  -7   0 211.986 77.6778   5
   3  -7   0 134.360 75.6184   3
   3  -7   0 113.559 59.5795   6
   3  -7   1 9400.68 448.951   5
   3  -7   1 9198.13 480.725   3
  -3   7  -1 8898.28 474.673   5
   3  -7   1 8177.35 395.230   6
  -3   7  -2 514.314 116.668   3
   3  -7   2 611.476 127.525   3
  -3   7  -2 628.793 138.868   5
   3  -7   2 503.122 87.8619   6
  -3   7  -3 239.436 102.359   5
  -3   7  -3 659.191 128.754   3
   3  -7   3 326.873 54.3739   4
   3  -7   3 562.302 122.734   3
   3  -7   3 285.706 63.6657   6
   3  -7   4 1282.65 164.423   1
   3  -7   4 848.898 130.418   3
  -3   7  -4 945.314 148.994   3
  -3   7  -4 718.312 147.134   5
   3  -7   4 700.352 80.8150   4
   3  -7   4 593.011 89.5268   6
  -3   7  -5 1064.14 158.315   3
   3  -7   5 1067.14 149.990   3
  -3   7  -5 1028.84 183.633   5
   3  -7   5 1290.57 166.274   1
   3  -7   5 770.635 111.755   4
   3  -7   6 120.317 65.0234   3
   3  -7   6 40.9961 46.0647   6
   3  -7   6 155.940 69.4791   4
   3  -7   6 40.2789 51.4478   1
   3  -7   7 819.724 147.436   3
   3  -7   7 655.023 111.164   6
   3  -7   7 683.034 136.157   1
   3  -7   7 685.004 129.305   4
   3  -7   8 223.159 111.043   3
   3  -7   8-6.89430 65.0136   1
   3  -7   8 146.112 60.8189   6
   3  -7   9 293.079 103.584   3
   3  -7   9 437.675 126.559   1
   3  -7   9 276.923 85.4288   6
   3  -7  10 59.9199 54.5412   3
   3  -7  10 53.2973 76.4974   1
   3  -6  -9 92.4179 139.439   2
  -3   6   9 69.6528 85.0002   6
   3  -6  -8 100.415 101.159   2
  -3   6   8 9.78799 58.3447   6
   3  -6  -7-33.4122 80.9580   2
  -3   6   7 19.1142 63.3171   6
   3  -6  -6 830.163 216.454   2
  -3   6   6 895.214 164.940   6
  -3   6   5 506.566 70.3903   5
   3  -6  -5 493.347 174.632   2
  -3   6   5 444.266 94.8280   4
  -3   6   5 575.147 130.759   6
  -3   6   4 1638.45 201.246   6
   3  -6  -4 1533.22 260.374   2
  -3   6   4 1534.36 151.450   4
  -3   6   4 1355.39 124.405   5
  -3   6   3 3824.08 216.391   4
  -3   6   3 3726.83 293.511   6
   3  -6  -3 3266.55 359.465   2
  -3   6   3 3458.31 219.505   5
  -3   6   2 413.620 84.3791   5
   3  -6  -2 359.156 99.6924   3
  -3   6   2 484.211 104.523   6
   3  -6  -2 180.426 91.2059   2
   3  -6  -2 468.552 105.529   6
  -3   6   1 5163.08 290.307   1
  -3   6   1 4468.19 196.864   4
   3  -6  -1 4797.60 392.602   2
   3  -6  -1 4801.58 303.785   6
  -3   6   1 4770.93 288.354   5
  -3   6   1 4769.78 320.279   3
   3  -6  -1 4944.43 333.649   3
   3  -6   0 459.898 94.2064   5
  -3   6   0 534.556 108.353   3
   3  -6   0 670.189 120.351   3
  -3   6   0 332.609 41.4168   4
  -3   6   0 471.291 88.4786   1
  -3   6   0 494.305 102.316   5
   3  -6   0 563.623 100.188   6
  -3   6  -1 9925.04 417.758   1
   3  -6   1 10551.5 446.583   5
   3  -6   1 10337.6 456.908   3
  -3   6  -1 6763.29 222.048   4
   3  -6   1 9296.27 391.596   6
  -3   6  -1 9344.93 432.456   3
  -3   6  -1 9818.35 453.711   5
  -3   6  -2 219.564 91.2763   5
  -3   6  -2 113.204 57.4221   3
   3  -6   2 104.332 61.9878   5
   3  -6   2 41.6409 54.6246   3
   3  -6   2 63.0826 31.3278   4
   3  -6   2-9.30719 37.3199   6
  -3   6  -2 36.6951 26.1992   4
  -3   6  -2 51.7520 53.3067   1
   3  -6   3 17018.9 563.291   1
   3  -6   3 11877.6 436.843   4
  -3   6  -3 15515.0 575.907   3
  -3   6  -3 16309.7 618.814   1
  -3   6  -3 15209.2 440.202   4
   3  -6   3 17500.7 601.892   3
  -3   6  -3 16764.8 673.129   5
   3  -6   4 853.874 127.352   1
   3  -6   4 663.051 125.689   2
  -3   6  -4 486.496 124.339   5
   3  -6   4 486.499 86.6735   4
  -3   6  -4 682.034 111.941   3
  -3   6  -4 530.258 80.5538   4
   3  -6   4 575.107 96.6211   3
   3  -6   5 488.813 107.319   3
   3  -6   5 300.622 87.3311   2
  -3   6  -5 179.951 84.8704   5
   3  -6   5 40.8111 64.5085   4
   3  -6   5 297.250 77.0048   1
   3  -6   6 223.322 65.6531   1
  -3   6  -6 173.961 85.1535   5
   3  -6   6 324.634 93.1666   3
   3  -6   6 126.543 65.5706   4
   3  -6   6 284.027 83.8050   6
   3  -6   7 401.089 95.2269   3
   3  -6   7 388.720 94.1108   6
   3  -6   7 453.186 109.425   1
   3  -6   8 55.9523 44.2593   3
   3  -6   8 51.4758 56.3617   1
   3  -6   8 60.5642 41.0602   6
   3  -6   9 293.207 98.2306   1
   3  -6   9 178.707 59.2085   6
   3  -6   9 343.464 95.2079   3
   3  -6  10-9.50285 53.6646   3
   3  -6  10 110.486 78.0663   6
   3  -6  10 63.1696 89.5577   1
   3  -6  11 141.721 94.2028   1
   3  -5  -9 211.273 90.6116   2
  -3   5   9 140.482 83.6042   6
   3  -5  -8-46.7819 77.7862   2
  -3   5   8 100.253 85.4104   6
  -3   5   7 2679.02 296.971   6
   3  -5  -7 2728.03 367.409   2
  -3   5   6 161.923 38.1165   5
   3  -5  -6 274.074 125.801   2
  -3   5   6 211.484 87.1940   6
  -3   5   5 52.1785 34.5380   5
   3  -5  -5 1.71188 58.5274   2
  -3   5   5 53.1165 47.5185   4
  -3   5   5 70.7330 60.1885   6
  -3   5   4 9291.93 338.044   5
  -3   5   4 9474.26 478.026   6
   3  -5  -4 9832.23 615.649   2
  -3   5   3 8749.84 343.459   5
  -3   5   3 9313.28 449.141   6
   3  -5  -3 8967.39 557.253   2
   3  -5  -3 9189.99 453.300   6
  -3   5   3 9445.19 466.051   3
   3  -5  -2 7155.07 396.586   3
   3  -5  -2 6904.68 455.515   2
  -3   5   2 7026.13 370.185   6
   3  -5  -2 6889.65 366.985   6
  -3   5   2 6781.57 307.458   5
  -3   5   2 7226.83 382.547   3
  -3   5   1 17737.1 575.060   5
   3  -5  -1 19377.7 664.542   3
   3  -5  -1 18685.6 749.073   2
   3  -5  -1 19119.0 629.463   6
  -3   5   1 18951.9 514.500   4
  -3   5   1 18926.2 640.323   3
  -3   5   0 48.5922 41.7182   3
  -3   5   0 44.3725 27.5020   4
   3  -5   0 63.4414 51.7847   3
  -3   5   0 81.8754 28.5102   1
  -3   5   0 12.5596 29.1784   5
   3  -5   0 20.3934 31.1655   6
   3  -5   1 461.420 77.9436   3
  -3   5  -1 548.583 93.9001   5
  -3   5  -1 495.494 80.2461   3
  -3   5  -1 616.095 90.9671   1
  -3   5  -1 616.302 63.7841   4
   3  -5   1 657.623 95.4335   6
  -3   5  -2 33123.9 937.457   5
  -3   5  -2 31336.3 849.859   3
   3  -5   2 33301.5 828.914   1
   3  -5   2 32524.0 780.234   4
  -3   5  -2 31948.7 752.698   4
  -3   5  -2 33154.3 888.145   1
   3  -5   2 35158.0 884.080   3
  -3   5  -3 5187.81 311.577   1
  -3   5  -3 5101.15 249.600   4
  -3   5  -3 5255.21 282.030   3
   3  -5   3 5447.39 273.234   4
   3  -5   3 5195.86 281.504   1
   3  -5   3 5062.57 275.637   3
  -3   5  -3 5660.54 342.741   5
   3  -5   4 2433.13 223.632   5
   3  -5   4 2167.66 187.114   4
  -3   5  -4 1909.60 160.973   4
   3  -5   4 2092.52 200.353   2
   3  -5   4 1895.96 179.118   1
  -3   5  -4 1882.05 168.759   3
  -3   5  -4 2073.79 221.613   5
   3  -5   4 2436.00 194.856   3
   3  -5   5 4900.27 282.883   3
   3  -5   5 4793.94 306.776   4
   3  -5   5 4740.33 334.780   2
   3  -5   5 5113.48 316.044   1
  -3   5  -5 4527.26 348.285   5
   3  -5   6 360.924 87.8558   3
   3  -5   6 238.236 68.5879   6
   3  -5   6 417.192 118.896   2
   3  -5   6 351.427 104.370   1
   3  -5   6 383.407 102.852   4
  -3   5  -6 197.951 74.5584   5
   3  -5   7 4410.12 299.448   6
   3  -5   7 4434.32 340.966   1
   3  -5   7 4486.40 296.871   3
   3  -5   8 297.508 84.6860   3
   3  -5   8 113.123 70.9212   1
   3  -5   8 142.800 65.9024   6
   3  -5   9 181.089 80.3628   3
   3  -5   9 162.690 93.6702   1
   3  -5   9 200.939 76.2347   6
   3  -5  10 153.004 85.4706   1
   3  -5  10 206.707 80.2667   3
   3  -5  10 127.880 53.4719   6
   3  -5  11 395.461 120.852   6
   3  -5  11 275.133 111.269   1
   3  -4 -10 49.4013 76.0875   2
  -3   4  10 40.7327 68.2378   6
  -3   4   9 3920.78 381.088   6
   3  -4  -9 4598.23 506.673   2
  -3   4   8 169.737 34.0755   5
   3  -4  -8 170.901 77.8892   2
  -3   4   8 382.072 124.613   6
  -3   4   7 1139.91 91.7586   5
   3  -4  -7 1649.33 273.421   2
  -3   4   7 1525.51 206.420   6
   3  -4  -6 2393.36 304.378   2
  -3   4   6 2016.87 128.283   5
  -3   4   6 2580.68 254.201   6
  -3   4   5-14.5860 34.7079   5
   3  -4  -5 48.0315 58.9532   2
  -3   4   5 43.0514 53.1479   6
  -3   4   4 288.640 51.9307   5
   3  -4  -4 366.319 125.172   2
   3  -4  -4 346.382 85.6565   6
  -3   4   4 330.258 83.7497   3
  -3   4   4 442.109 129.876   2
  -3   4   4 439.121 98.8432   6
  -3   4   3 7272.05 293.669   5
   3  -4  -3 7754.77 476.183   2
   3  -4  -3 8076.93 397.606   6
  -3   4   3 8295.47 401.462   3
  -3   4   2 4214.79 221.700   5
   3  -4  -2 3998.42 312.000   2
   3  -4  -2 4256.75 266.897   6
  -3   4   2 4428.47 269.967   3
   3  -4  -1 60495.3 1311.27   5
   3  -4  -1 59446.5 1357.02   6
  -3   4   1 59651.0 1302.75   5
  -3   4   1 61279.2 1272.60   4
   3  -4  -1 58110.8 1472.58   2
  -3   4   1 60407.9 1353.72   3
   3  -4  -1 61955.8 1384.26   3
  -3   4   0 4768.84 256.686   5
  -3   4   0 4619.87 223.521   1
  -3   4   0 4463.37 205.874   4
   3  -4   0 4788.92 255.949   5
   3  -4   0 4593.93 251.619   6
  -3   4   0 4629.15 245.894   3
   3  -4   0 5003.95 261.922   3
  -3   4  -1 80211.0 1663.11   5
   3  -4   1 77650.5 1549.94   4
  -3   4  -1 74821.5 1518.83   4
  -3   4  -1 78204.3 1585.62   1
  -3   4  -1 74536.7 1578.71   3
   3  -4   1 82818.3 1615.80   3
  -3   4  -2 13683.7 507.148   5
   3  -4   2 13837.2 450.093   4
  -3   4  -2 13710.7 474.727   1
  -3   4  -2 13180.9 422.747   4
  -3   4  -2 12419.9 421.838   3
   3  -4   2 13969.9 437.813   1
   3  -4   2 13594.3 436.023   3
  -3   4  -3 8353.66 401.031   5
   3  -4   3 9090.99 335.732   3
   3  -4   3 8859.76 371.942   4
  -3   4  -3 8335.11 345.253   4
   3  -4   3 8153.91 341.617   1
  -3   4  -3 7399.45 313.391   3
   3  -4   3 8520.85 364.653   2
  -3   4  -4 8922.24 436.314   5
   3  -4   4 8868.67 406.933   4
   3  -4   4 8858.52 396.566   1
   3  -4   4 8248.89 405.576   2
   3  -4   4 9290.09 353.971   3
  -3   4  -5 301.647 81.3668   5
   3  -4   5 337.136 88.0046   5
   3  -4   5 358.741 82.3656   1
   3  -4   5 302.027 84.9775   2
   3  -4   5 360.357 69.2715   3
  -3   4  -5 212.258 64.9795   4
   3  -4   5 279.056 79.5784   6
   3  -4   5 247.317 76.7757   4
   3  -4   6 2318.88 230.217   1
   3  -4   6 2485.77 243.538   4
  -3   4  -6 2287.66 212.713   4
   3  -4   6 2290.60 209.743   6
   3  -4   6 2244.33 245.598   2
   3  -4   6 2597.16 197.919   3
  -3   4  -6 2439.41 243.783   5
   3  -4   7 66.2071 47.1468   3
   3  -4   7 23.6693 52.9218   1
  -3   4  -7-59.8265 41.7605   2
   3  -4   7-46.5922 51.9161   2
   3  -4   7-34.3030 61.1634   6
  -3   4  -7-32.0126 76.2973   5
   3  -4   8 445.862 98.6503   3
  -3   4  -8 375.316 101.368   2
   3  -4   8 297.435 56.9444   7
   3  -4   8 552.531 120.586   6
   3  -4   8 515.353 130.226   1
   3  -4   9 1179.47 163.403   3
  -3   4  -9 934.313 171.513   2
   3  -4   9 1139.81 170.191   6
   3  -4   9 1147.48 207.015   1
  -3   4 -10 307.394 111.457   2
   3  -4  10 236.794 91.9920   3
   3  -4  10 480.692 132.126   6
  -3   4 -11 194.696 107.891   2
   3  -4  11 339.465 125.336   6
   3  -3 -11 103.676 111.797   2
  -3   3  11 384.423 131.855   6
   3  -3 -10 649.077 188.012   2
  -3   3  10 769.913 174.168   6
  -3   3   9 1171.27 199.492   6
   3  -3  -9 1099.14 247.073   2
   3  -3  -8 4215.43 438.691   2
  -3   3   8 3555.47 325.384   6
   3  -3  -7 22533.4 999.679   2
  -3   3   7 20026.1 790.956   6
  -3   3   6 5253.50 351.195   6
   3  -3  -6 5379.63 437.543   2
  -3   3   5-51.6914 64.4406   2
  -3   3   5 38.7764 26.0477   5
   3  -3  -5 29.7621 54.2264   2
  -3   3   5 71.1177 58.4531   3
   3  -3  -5-22.3352 43.5128   6
  -3   3   5-29.2684 45.8274   6
   3  -3  -4 25124.4 769.794   6
  -3   3   4 22457.7 603.580   5
  -3   3   4 24860.4 910.635   2
   3  -3  -4 24875.1 891.393   2
  -3   3   4 24489.9 770.528   3
  -3   3   3 8697.50 319.359   5
  -3   3   3 8539.71 464.666   2
   3  -3  -3 8724.98 462.357   2
   3  -3  -3 8571.13 387.569   6
  -3   3   3 8924.09 396.253   3
  -3   3   2 8770.57 323.267   5
  -3   3   2 8908.15 369.193   3
   3  -3  -2 9161.21 426.471   2
   3  -3  -2 9046.60 378.172   6
  -3   3   1 10105.8 354.591   5
   3  -3  -1 9973.98 357.094   5
  -3   3   1 10483.2 366.888   4
   3  -3  -1 9766.71 405.106   2
   3  -3  -1 10360.5 386.363   6
  -3   3   1 9012.35 351.561   3
  -3   3   0 13744.0 448.004   5
   3  -3   0 13583.7 426.753   4
  -3   3   0 13876.4 428.785   4
  -3   3   0 15280.5 409.897   1
  -3   3   0 13913.3 417.855   3
   3  -3   0 13922.6 429.529   3
  -3   3  -1 7811.65 326.422   5
   3  -3   1 7489.72 302.608   4
  -3   3  -1 7207.87 286.417   4
  -3   3  -1 7512.29 281.742   1
  -3   3  -1 7437.38 263.910   3
   3  -3   1 7547.25 259.897   1
   3  -3   1 7581.02 270.792   3
  -3   3  -2 16041.0 518.760   5
   3  -3   2 15528.5 450.044   1
  -3   3  -2 14721.9 477.825   4
   3  -3   2 15902.0 505.760   4
  -3   3  -2 14120.9 402.741   3
   3  -3   2 15430.6 447.252   2
   3  -3   2 15369.0 412.200   3
  -3   3  -3 19063.3 612.045   5
   3  -3   3 18660.9 487.331   3
   3  -3   3 18932.2 606.728   4
  -3   3  -3 18374.4 581.511   4
   3  -3   3 19341.7 573.939   1
   3  -3   3 18593.4 573.421   2
  -3   3  -4 5524.64 311.139   5
   3  -3   4 5894.77 321.209   5
   3  -3   4 5552.38 314.437   2
   3  -3   4 5382.13 303.041   1
   3  -3   4 5508.55 322.083   4
   3  -3   4 5289.56 234.403   3
  -3   3  -5 41.9209 40.0749   5
   3  -3   5 65.1219 59.2716   5
   3  -3   5 53.1173 37.9230   3
   3  -3   5 55.8267 53.4854   6
   3  -3   5 85.5848 44.3073   2
  -3   3  -5-33.9973 49.8436   4
   3  -3   5 45.5892 49.9688   4
   3  -3   6 597.651 91.9160   3
  -3   3  -6 582.548 112.943   5
  -3   3  -6 615.856 114.564   2
   3  -3   6 688.333 126.652   5
   3  -3   6 600.145 123.409   2
   3  -3   6 724.495 138.948   4
   3  -3   6 446.229 87.1517   6
  -3   3  -6 715.181 116.084   4
   3  -3   7 282.855 72.6463   3
  -3   3  -7 206.502 81.2571   2
   3  -3   7 200.900 43.7557   7
   3  -3   7 150.271 51.7336   2
   3  -3   7 121.878 47.5256   6
  -3   3  -7 53.5772 82.1865   4
  -3   3  -7 30.1257 55.3120   5
  -3   3  -8 299.867 94.6129   2
   3  -3   8 362.556 94.5931   3
   3  -3   8 410.370 108.876   6
  -3   3  -9 360.175 119.856   2
   3  -3   9 426.783 117.789   6
   3  -3   9 378.217 98.4961   3
  -3   3 -10 877.888 186.228   2
   3  -3  10 969.023 163.032   3
   3  -3  10 1255.35 198.825   6
  -3   3 -11 323.444 120.933   2
   3  -3  11 201.224 87.5909   6
   3  -2 -11 661.102 199.276   2
  -3   2  11 719.541 169.726   6
   3  -2 -10 62.7536 104.703   2
  -3   2  10 141.412 87.5550   6
   3  -2  -9 554.549 163.270   2
  -3   2   9 465.844 125.121   6
  -3   2   8 2060.00 239.146   6
   3  -2  -8 2485.02 322.234   2
   3  -2  -7 828.867 180.602   2
  -3   2   7 726.851 142.049   6
  -3   2   6 2987.02 250.189   6
   3  -2  -6 3076.81 311.638   2
  -3   2   6 3118.64 326.475   2
   3  -2  -6 2679.54 244.884   6
  -3   2   5 14.9054 39.8057   2
   3  -2  -5 26.6268 65.2403   2
   3  -2  -5 66.5413 63.4954   6
   3  -2  -4 16316.6 644.571   2
  -3   2   4 15874.1 655.036   2
   3  -2  -4 16456.8 572.265   6
   3  -2  -3 1296.58 150.358   2
  -3   2   3 1233.00 154.209   2
   3  -2  -3 1405.02 141.769   6
  -3   2   2 16012.1 498.423   3
  -3   2   2 16096.8 469.507   5
   3  -2  -2 16164.4 532.416   2
  -3   2   2 16710.7 550.933   2
   3  -2  -2 16426.6 515.134   6
  -3   2   1 85365.9 1703.26   5
  -3   2   1 85897.6 1734.39   4
   3  -2  -1 88210.2 1701.50   2
  -3   2   1 85063.2 1671.08   3
  -3   2   0 41086.0 928.072   5
  -3   2   0 39490.6 930.621   4
   3  -2   0 39388.4 936.518   4
  -3   2   0 41433.6 816.267   1
  -3   2   0 41423.7 841.536   3
  -3   2  -1 70897.4 1311.95   3
  -3   2  -1 73082.2 1476.65   5
   3  -2   1 71771.7 1353.52   1
  -3   2  -1 70488.4 1468.65   4
   3  -2   1 70004.9 1495.25   4
   3  -2   1 72852.0 1322.22   3
   3  -2   1 70179.7 1326.47   2
  -3   2  -2 13507.4 447.179   5
   3  -2   2 13472.8 473.664   4
   3  -2   2 13455.6 409.441   1
   3  -2   2 13461.5 396.272   2
   3  -2   2 13207.6 310.474   3
   3  -2   3 8582.96 368.649   5
   3  -2   3 8973.05 394.939   4
  -3   2  -3 8495.44 352.864   5
   3  -2   3 8870.27 357.693   2
   3  -2   3 8506.46 249.170   3
  -3   2  -3 8138.59 310.047   2
  -3   2  -4 4906.46 277.103   5
   3  -2   4 5256.81 288.309   5
   3  -2   4 4770.69 203.289   3
  -3   2  -4 4387.55 257.143   2
   3  -2   4 4848.75 288.199   6
   3  -2   4 4540.16 283.548   2
   3  -2   4 4824.68 311.944   4
  -3   2  -5 326.701 75.2933   5
   3  -2   5 271.390 67.0207   5
  -3   2  -5 267.811 66.2259   4
   3  -2   5 317.596 90.2692   2
   3  -2   5 308.064 77.5811   4
   3  -2   5 317.090 76.7335   6
   3  -2   6 1433.47 164.109   5
  -3   2  -6 1272.51 161.373   5
   3  -2   6 1332.91 160.784   6
   3  -2   6 1418.69 200.367   2
   3  -2   6 1348.37 114.668   7
  -3   2  -6 1271.73 161.777   4
  -3   2  -6 1348.92 170.633   2
   3  -2   7 691.765 116.522   5
   3  -2   7 545.266 140.023   2
  -3   2  -7 414.310 99.9707   4
   3  -2   7 690.569 134.098   6
  -3   2  -7 462.343 121.551   2
  -3   2  -7 396.163 93.4679   5
   3  -2   8 105.271 63.0632   6
  -3   2  -8 28.2321 73.4670   2
  -3   2  -9 793.173 166.639   2
   3  -2   9 991.302 176.379   6
   3  -2  10 94.4524 63.8887   6
  -3   2 -10-53.8990 87.5988   2
   3  -2  11 184.705 82.0063   6
  -3   2 -11-25.9758 84.8996   2
   3  -1 -12 300.667 144.396   2
  -3   1  12 194.824 86.9480   6
   3  -1 -11 1821.62 314.707   2
  -3   1  11 1438.91 230.369   6
   3  -1 -10 441.484 145.529   2
  -3   1  10 389.423 125.179   6
   3  -1  -9 1573.48 250.768   2
  -3   1   9 1351.68 200.530   6
   3  -1  -8 5400.84 444.291   2
  -3   1   8 4531.54 337.434   6
   3  -1  -7 955.810 153.087   6
   3  -1  -7 974.837 183.660   2
  -3   1   7 931.886 144.184   6
  -3   1   6 48537.2 1442.63   2
   3  -1  -6 49397.9 1394.72   2
   3  -1  -6 47697.6 1218.23   6
  -3   1   6 44876.5 1198.01   6
   3  -1  -5 3213.28 231.020   6
  -3   1   5 3494.63 300.331   2
  -3   1   5 3387.61 237.193   6
   3  -1  -5 3480.68 282.544   2
  -3   1   4 10694.1 489.701   2
   3  -1  -4 11312.6 481.781   2
   3  -1  -4 10724.9 419.471   6
  -3   1   3 44392.9 1100.52   2
   3  -1  -3 43845.4 1064.49   2
   3  -1  -3 44475.4 1033.64   6
   3  -1  -2 19589.3 569.722   6
   3  -1  -2 21766.9 562.605   2
  -3   1   2 21612.3 580.801   2
   3  -1  -1 3971.35 220.904   4
  -3   1   1 4447.58 168.405   2
   3  -1  -1 4360.96 156.546   2
   3  -1   0 22.8575 11.5064   1
  -3   1   0 8.53132 24.2569   5
  -3   1   0 8.61427 12.6058   3
   3  -1   0 33.3712 33.5417   4
   3  -1   1 1770.80 151.590   4
   3  -1   1 1426.79 80.0310   2
  -3   1  -1 1794.26 134.722   5
  -3   1  -1 1416.17 69.1360   2
  -3   1  -2 35561.6 846.436   5
   3  -1   2 36183.0 869.037   5
   3  -1   2 35494.7 932.458   4
   3  -1   2 36756.1 821.808   2
  -3   1  -2 35868.4 785.303   2
   3  -1   3 592.184 96.5847   6
  -3   1  -3 536.499 79.7030   5
   3  -1   3 554.223 87.0274   2
   3  -1   3 665.474 106.930   4
  -3   1  -3 461.027 74.7656   2
   3  -1   3 662.204 93.8111   5
  -3   1  -4 31428.9 819.697   5
   3  -1   4 31832.4 838.517   5
   3  -1   4 32919.0 943.327   2
   3  -1   4 33443.6 962.599   4
   3  -1   4 30108.8 770.551   7
   3  -1   4 33318.0 914.265   6
  -3   1  -4 31604.2 881.791   2
  -3   1  -5 33.8138 34.9046   5
   3  -1   5-3.83266 36.3473   2
   3  -1   5-7.65490 33.9069   5
   3  -1   5 32.3889 19.2101   7
   3  -1   5-22.0307 56.7654   4
   3  -1   5-31.4476 51.5620   6
  -3   1  -6 125.222 58.9945   5
  -3   1  -6 126.301 62.7889   2
   3  -1   6 152.850 57.3325   5
   3  -1   6 173.586 79.2254   2
   3  -1   6 83.3936 47.0336   6
  -3   1  -6 170.177 70.4237   4
  -3   1  -7 780.283 150.056   4
  -3   1  -7 715.503 125.416   5
   3  -1   7 754.965 123.604   5
  -3   1  -7 623.294 145.569   2
   3  -1   7 691.846 142.703   6
   3  -1   8 531.797 101.430   5
  -3   1  -8 894.098 179.762   4
  -3   1  -8 949.552 192.149   2
   3  -1   8 667.021 148.188   6
  -3   1  -9 1007.64 200.254   2
   3  -1   9 971.342 184.381   6
  -3   1 -10 445.384 143.778   2
   3  -1  10 389.555 123.773   6
  -3   1 -11 474.669 170.324   2
   3  -1  11 170.199 101.836   6
   3   0 -12 1043.95 250.646   2
  -3   0  12 990.323 208.439   6
   3   0 -11 2835.61 376.839   2
  -3   0  11 2422.36 289.764   6
   3   0 -10 115.193 33.0451   7
  -3   0  10 247.491 98.9187   6
   3   0 -10 144.074 98.4600   2
  -3   0   9 2238.04 242.288   6
   3   0  -9 2592.89 315.246   2
  -3   0   8 1489.45 180.052   6
   3   0  -8 1355.77 216.550   2
   3   0  -7 2452.70 268.326   2
   3   0  -7 2398.87 225.358   6
  -3   0   7 2293.45 212.569   6
  -3   0   7 2560.94 289.354   2
  -3   0   6 28570.5 983.647   2
   3   0  -6 26949.2 797.586   6
  -3   0   6 26873.4 797.638   6
   3   0  -6 28121.8 937.867   2
  -3   0   5 2497.87 237.638   2
  -3   0   5 2189.73 182.828   6
   3   0  -5 2241.09 181.125   6
   3   0  -5 2620.71 228.610   2
   3   0  -4 60634.7 1351.13   6
  -3   0   4 65039.2 1491.44   2
   3   0  -4 66001.0 1455.56   2
   3   0  -3 12312.1 414.280   2
  -3   0   3 11474.1 420.857   2
   3   0  -3 11497.1 390.485   6
  -3   0   2 177.352 39.1220   2
   3   0  -2 159.109 33.6140   2
  -3   0   1 26185.0 545.573   2
   3   0  -1 26836.5 702.432   4
   3   0   0 4277.93 231.318   4
  -3   0   0 3701.89 124.992   3
  -3   0  -1 19080.4 520.754   5
   3   0   1 18911.5 588.020   4
   3   0   1 18459.8 544.357   7
  -3   0  -1 18919.1 468.948   2
  -3   0  -2 21713.0 561.185   5
   3   0   2 21012.0 586.027   7
   3   0   2 21548.9 660.734   4
   3   0   2 21285.1 599.125   2
  -3   0  -2 21974.7 587.989   2
   3   0   2 19599.1 421.674   3
  -3   0  -3 19900.8 541.169   5
   3   0   3 18692.8 542.304   5
   3   0   3 19106.5 555.265   7
   3   0   3 19350.0 658.311   4
   3   0   3 18941.9 632.654   2
  -3   0  -3 20300.0 631.981   2
   3   0   3 18459.3 444.299   3
   3   0   4 115.479 56.6047   2
  -3   0  -4 82.0522 38.8285   5
   3   0   4 107.217 71.2947   4
   3   0   4 66.9868 30.8215   3
  -3   0  -4 98.7032 44.3037   2
   3   0   4 45.1374 28.5390   7
   3   0   4 95.4099 46.9452   5
   3   0   5 956.889 114.076   5
   3   0   5 1078.84 172.369   2
   3   0   5 998.831 145.556   6
  -3   0  -5 1078.32 119.863   5
  -3   0  -5 1087.11 154.088   4
   3   0   5 859.095 142.297   4
   3   0   5 1005.40 105.352   3
  -3   0  -6 410.863 86.9820   5
   3   0   6 359.970 106.716   2
   3   0   6 548.352 94.8101   5
   3   0   6 797.678 147.924   6
   3   0   6 347.719 72.8978   3
  -3   0  -6 657.925 141.497   2
  -3   0  -6 375.148 101.010   4
   3   0   7 4508.50 276.758   5
   3   0   7 6501.03 426.442   6
  -3   0  -7 6218.88 416.551   4
  -3   0  -7 6016.36 450.164   2
   3   0   7 5843.98 325.557   3
  -3   0  -8 290.853 110.456   2
   3   0   8 185.707 57.6913   5
   3   0   8 207.353 73.6287   3
  -3   0  -8 441.391 136.607   4
   3   0   8 352.293 122.865   6
   3   0   9 45.5532 63.5786   6
  -3   0  -9 223.401 121.384   2
  -3   0 -10 22.5761 90.5165   2
   3   0  10 24.7563 73.2740   6
  -3  -1  12 50.3483 81.3367   6
   3   1 -12 67.0353 86.5751   2
   3   1 -11 2575.14 336.835   2
  -3  -1  11 2203.86 261.102   6
  -3  -1  10 761.811 147.660   6
   3   1 -10 727.401 159.554   2
   3   1  -9 10047.8 316.208   7
   3   1  -9 10337.2 620.750   2
  -3  -1   9 10616.5 512.912   6
   3   1  -8 4172.51 356.274   2
   3   1  -8 4205.09 205.633   7
   3   1  -8 4470.13 300.797   6
  -3  -1   8 4339.27 299.595   6
   3   1  -7 106.859 61.7333   6
  -3  -1   7 54.5806 59.0594   2
   3   1  -7 0.90653 30.2630   7
   3   1  -7 33.4433 41.7105   2
  -3  -1   7 136.572 59.0526   6
   3   1  -6 21500.3 592.042   7
  -3  -1   6 23123.5 850.470   2
   3   1  -6 21934.6 655.231   6
  -3  -1   6 21405.7 661.916   6
   3   1  -6 22377.3 785.749   2
   3   1  -5 2547.36 214.049   2
   3   1  -5 2383.81 162.032   7
  -3  -1   5 2536.38 229.863   2
   3   1  -5 2893.72 188.752   6
  -3  -1   5 2662.98 191.009   6
   3   1  -4 66736.7 1455.75   2
   3   1  -4 62936.3 1379.13   7
  -3  -1   4 67560.5 1508.33   2
   3   1  -4 66866.3 1372.49   6
  -3  -1   3 11084.6 404.784   2
   3   1  -3 11400.6 386.985   2
  -3  -1   2 9213.09 307.660   2
  -3  -1   2 8687.14 222.638   1
   3   1  -1 118087. 2243.84   4
   3   1  -1 107793. 1973.46   1
  -3  -1   1 111300. 2095.88   3
  -3  -1   0 16520.9 404.459   3
   3   1   0 15964.7 527.730   4
   3   1   0 17563.8 429.212   3
  -3  -1  -1 598.151 86.9205   2
   3   1   1 647.416 89.3120   7
   3   1   1 601.104 97.1283   4
  -3  -1  -1 682.349 95.5837   7
   3   1   1 562.318 58.7468   3
  -3  -1  -1 629.445 59.1559   3
  -3  -1  -2 12423.1 451.099   7
  -3  -1  -2 12176.4 385.706   5
   3   1   2 12633.4 434.629   7
  -3  -1  -2 12782.0 489.963   2
   3   1   2 12320.2 489.001   4
   3   1   2 12157.2 476.231   2
   3   1   2 11794.0 337.785   3
  -3  -1  -2 11810.6 342.694   3
  -3  -1  -3 3202.80 174.052   5
   3   1   3 3557.24 260.434   4
   3   1   3 3238.70 261.655   2
  -3  -1  -3 3234.49 217.377   7
  -3  -1  -3 3417.04 265.239   2
   3   1   3 3125.02 165.688   3
  -3  -1  -4 7244.25 286.113   5
   3   1   4 7398.22 416.918   4
  -3  -1  -4 7349.38 391.712   4
   3   1   4 7129.45 436.891   2
   3   1   4 7007.04 292.951   3
   3   1   5 8819.66 467.109   6
  -3  -1  -5 8002.67 487.046   2
  -3  -1  -5 8420.57 451.388   4
   3   1   5 7659.01 496.872   2
   3   1   5 8250.64 351.692   3
  -3  -1  -5 7930.35 320.771   5
   3   1   6 236.793 114.924   2
   3   1   6 230.827 70.9968   6
  -3  -1  -6 156.473 51.0574   5
   3   1   6 224.436 66.7868   3
  -3  -1  -6 275.753 102.269   2
  -3  -1  -6 316.895 93.0298   4
   3   1   7 1174.25 150.811   3
  -3  -1  -7 1190.99 210.268   2
   3   1   7 1115.33 188.348   6
  -3  -1  -7 1248.78 194.507   4
  -3  -1  -8 252.138 113.109   2
   3   1   8 329.133 122.917   6
   3   1   9 1578.62 254.695   6
  -3  -1  -9 1332.27 250.320   2
  -3  -1 -10 77.6585 93.4992   2
   3   1  10 229.214 120.856   6
   3   2 -13 175.879 96.9275   2
   3   2 -12 96.5010 69.2242   2
  -3  -2  12 110.138 82.6463   6
   3   2 -11 477.775 145.039   2
  -3  -2  11 499.595 135.146   6
   3   2 -10 1319.59 227.032   2
  -3  -2  10 1481.55 191.669   6
   3   2  -9 1114.63 155.037   6
   3   2  -9 830.318 154.720   2
  -3  -2   9 1138.66 153.412   6
   3   2  -8 3060.90 231.245   6
  -3  -2   8 2788.76 224.188   6
   3   2  -8 2473.28 267.349   2
   3   2  -7 112.068 62.5107   2
   3   2  -7 117.664 43.8448   7
  -3  -2   7 48.6236 51.2585   2
   3   2  -7 97.4480 48.6365   6
  -3  -2   7 78.9093 45.5672   6
   3   2  -6 25404.5 673.004   7
   3   2  -6 25910.7 694.291   6
  -3  -2   6 27336.9 927.483   2
   3   2  -6 25795.0 842.301   2
  -3  -2   5 38000.5 1064.70   2
   3   2  -5 36147.0 882.025   7
   3   2  -5 36348.7 854.592   6
   3   2  -5 38080.6 1012.03   2
  -3  -2   4 87562.0 1785.23   1
  -3  -2   4 92023.8 1926.21   2
   3   2  -4 90015.5 1819.83   7
   3   2  -4 90483.5 1742.16   6
  -3  -2   3 34484.1 884.361   4
  -3  -2   3 32560.7 843.816   7
  -3  -2   3 32169.1 716.835   1
  -3  -2   3 33237.3 836.493   2
  -3  -2   2 32507.9 832.817   7
  -3  -2   2 32074.1 825.935   4
   3   2  -2 31673.1 683.728   1
  -3  -2   2 29834.3 639.543   1
  -3  -2   2 30957.0 772.214   3
   3   2  -1 9879.69 395.020   4
  -3  -2   1 10542.1 397.150   4
  -3  -2   1 10522.2 412.148   7
   3   2  -1 10310.1 361.916   3
  -3  -2   1 9701.58 336.697   3
   3   2  -1 10265.0 277.480   1
   3   2   0 26523.8 740.820   4
  -3  -2   0 25492.7 714.405   4
  -3  -2   0 27373.6 751.051   7
   3   2   0 25888.9 646.994   3
  -3  -2   0 25689.1 628.184   3
   3   2   1 14757.7 539.132   4
  -3  -2  -1 15241.2 522.351   4
  -3  -2  -1 14991.4 559.545   2
  -3  -2  -1 15671.4 532.898   7
   3   2   1 14217.4 430.109   3
  -3  -2  -1 14483.7 423.319   3
  -3  -2  -2 3705.93 186.468   5
   3   2   2 4018.34 271.665   4
  -3  -2  -2 3956.98 251.532   7
  -3  -2  -2 3973.40 261.866   4
  -3  -2  -2 3733.39 283.479   2
  -3  -2  -2 3643.34 196.686   3
   3   2   2 3684.20 198.340   3
  -3  -2  -3 7852.77 278.433   5
   3   2   3 8560.14 432.310   4
  -3  -2  -3 8795.80 423.760   4
  -3  -2  -3 7856.44 372.794   7
   3   2   3 7465.99 314.091   3
  -3  -2  -4 13174.9 394.932   5
   3   2   4 13787.7 604.742   4
  -3  -2  -4 14409.4 587.705   4
   3   2   4 13561.8 665.014   2
  -3  -2  -4 13563.9 658.942   2
  -3  -2  -4 13989.5 533.154   7
   3   2   4 14921.0 618.479   6
   3   2   4 13308.7 472.355   3
  -3  -2  -5 14326.0 556.216   7
  -3  -2  -5 14888.9 630.267   4
   3   2   5 14613.8 740.453   2
  -3  -2  -5 13824.0 708.593   2
   3   2   5 15902.8 668.517   6
   3   2   5 13907.7 521.675   3
  -3  -2  -5 13446.4 413.789   5
   3   2   6 1169.38 147.264   3
  -3  -2  -6 1341.66 161.777   7
  -3  -2  -6 1333.11 226.913   2
   3   2   6 1362.08 200.977   6
  -3  -2  -6 1302.48 182.734   4
   3   2   7 192.373 90.4165   6
   3   2   7 218.887 76.0207   3
  -3  -2  -7 46.8724 64.7762   2
  -3  -2  -7 201.020 100.667   4
  -3  -2  -8 87.5305 64.2926   2
   3   2   8 26.7816 64.1394   6
  -3  -2  -9 434.378 157.112   2
   3   2   9 599.682 171.718   6
   3   3 -13 214.102 127.414   2
  -3  -3  13 218.779 96.1661   6
   3   3 -12 12.4210 54.0909   2
  -3  -3  12-23.3779 69.0447   6
   3   3 -11 54.0157 70.9817   2
  -3  -3  11 139.129 77.6668   6
  -3  -3  10 11458.3 518.561   6
   3   3 -10 10163.8 489.058   6
   3   3 -10 11374.3 659.134   2
   3   3  -9 14865.9 565.296   6
  -3  -3   9 16218.4 592.157   6
   3   3  -9 15351.4 738.156   2
  -3  -3   8 22062.4 671.963   6
   3   3  -8 20294.2 643.521   6
   3   3  -8 21621.5 843.105   2
  -3  -3   7 18222.3 671.222   1
   3   3  -7 18184.4 556.097   6
  -3  -3   7 20298.9 830.679   2
   3   3  -7 18940.8 750.007   2
   3   3  -6 3893.06 199.601   6
  -3  -3   6 4136.90 324.464   2
  -3  -3   5 3138.85 214.003   7
  -3  -3   5 3128.56 258.910   2
   3   3  -5 3144.63 164.167   6
  -3  -3   4 10.7542 31.3286   2
  -3  -3   4 29.8906 31.4550   7
   3   3  -4-6.88216 17.3508   6
  -3  -3   4-0.53727 26.2726   1
  -3  -3   3 111891. 2207.23   4
  -3  -3   3 106101. 2190.85   7
   3   3  -3 109608. 2096.74   1
  -3  -3   3 105135. 2024.85   1
  -3  -3   2 6260.20 305.018   4
  -3  -3   2 6488.34 304.027   3
  -3  -3   2 6690.22 332.937   7
   3   3  -2 6342.99 245.729   1
   3   3  -2 6474.04 318.227   3
   3   3  -1 21408.3 649.801   4
   3   3  -1 21497.8 596.689   6
  -3  -3   1 21263.0 633.894   4
  -3  -3   1 21349.6 670.803   7
   3   3  -1 21840.3 636.504   3
  -3  -3   1 21471.1 612.388   3
   3   3  -1 20905.4 521.513   1
  -3  -3   0 35384.3 957.384   7
   3   3   0 35729.4 941.634   4
  -3  -3   0 36010.5 918.218   4
   3   3   0 36175.5 889.714   3
   3   3   0 38622.1 921.941   6
  -3  -3   0 34575.9 867.157   3
   3   3   1 12594.7 501.969   4
  -3  -3  -1 13177.9 487.111   4
  -3  -3  -1 11978.5 556.522   2
  -3  -3  -1 12702.1 499.810   7
  -3  -3  -1 12167.5 430.756   3
   3   3   1 12611.7 441.611   3
  -3  -3  -2 242.939 65.8791   7
   3   3   2 226.857 54.9596   3
  -3  -3  -2 258.801 78.1240   4
   3   3   2 264.883 73.7703   6
  -3  -3  -2 161.072 50.7784   3
   3   3   2 229.549 79.4511   4
  -3  -3  -3 5231.69 213.489   5
   3   3   3 6108.78 365.740   6
   3   3   3 5504.18 353.931   4
  -3  -3  -3 6118.40 355.185   4
   3   3   3 5672.24 301.823   3
  -3  -3  -3 5252.89 320.509   7
  -3  -3  -3 5339.98 409.813   2
  -3  -3  -4 606.394 150.091   2
   3   3   4 827.182 114.491   3
  -3  -3  -4 682.166 67.6900   5
  -3  -3  -4 847.262 142.951   4
  -3  -3  -4 671.608 115.636   7
   3   3   4 802.430 137.641   6
  -3  -3  -5 1309.78 96.3760   5
  -3  -3  -5 1639.97 254.669   2
  -3  -3  -5 1683.77 210.274   4
  -3  -3  -5 1608.28 182.907   7
   3   3   5 1825.00 225.678   6
   3   3   5 1672.52 181.533   3
  -3  -3  -6 265.975 83.1365   7
  -3  -3  -6 449.449 147.316   2
   3   3   6 345.341 106.019   6
  -3  -3  -6 295.455 112.181   4
  -3  -3  -7 1887.44 211.311   7
  -3  -3  -7 2233.69 330.742   2
  -3  -3  -7 2660.32 308.935   4
   3   3   7 2705.94 316.522   6
   3   3   8 11.1010 66.0818   6
  -3  -3  -8-4.83969 81.1936   2
   3   3   9 455.513 155.963   6
  -3  -3  -9 93.4093 80.1391   2
   3   4 -13 553.074 175.915   2
  -3  -4  13 407.258 146.665   1
   3   4 -12 635.771 172.186   2
  -3  -4  12 449.723 139.908   1
  -3  -4  12 524.829 117.424   6
   3   4 -11 297.106 133.925   2
  -3  -4  11 194.150 78.3289   1
  -3  -4  11 319.648 82.4582   6
  -3  -4  10 517.358 131.583   1
   3   4 -10 607.260 144.305   2
   3   4 -10 481.853 90.9629   6
  -3  -4  10 533.795 95.7938   6
  -3  -4   9 10507.3 560.611   1
   3   4  -9 8473.99 379.606   6
  -3  -4   9 9823.67 563.438   3
  -3  -4   8 21942.5 786.063   1
   3   4  -8 19110.9 574.570   6
  -3  -4   8 21618.6 828.202   3
  -3  -4   7 1438.61 193.689   3
  -3  -4   7 1479.08 173.666   1
   3   4  -7 1471.48 117.243   6
  -3  -4   6 46572.0 1142.71   1
  -3  -4   6 44693.3 1119.34   7
   3   4  -6 43309.2 931.466   6
  -3  -4   6 47705.6 1327.15   2
  -3  -4   5-3.14460 47.2334   2
  -3  -4   5 14.2554 30.9023   7
   3   4  -5 64.3846 26.0776   6
  -3  -4   4 21899.4 700.535   4
   3   4  -4 22387.5 678.531   1
  -3  -4   4 22070.0 703.903   7
  -3  -4   4 22622.5 754.728   2
  -3  -4   3 20794.9 658.342   4
   3   4  -3 21708.2 620.210   1
  -3  -4   3 21187.6 694.072   7
   3   4  -3 22538.8 729.369   3
   3   4  -2 1294.90 155.479   3
  -3  -4   2 1220.64 135.251   4
  -3  -4   2 1190.02 146.696   7
   3   4  -2 1179.69 110.777   1
   3   4  -2 1387.87 116.117   6
  -3  -4   1 57438.8 1401.85   7
   3   4  -1 60305.2 1373.53   4
  -3  -4   1 58688.3 1330.25   4
   3   4  -1 60756.4 1296.02   6
   3   4  -1 59601.2 1377.69   3
   3   4  -1 58030.1 1237.72   1
   3   4   0 1857.31 178.481   4
  -3  -4   0 2168.29 181.347   4
  -3  -4   0 1948.55 190.958   7
   3   4   0 2010.66 184.367   3
   3   4   1 3416.69 252.575   4
  -3  -4  -1 3462.69 246.833   4
  -3  -4  -1 3048.60 298.249   2
   3   4   1 3140.99 234.273   3
  -3  -4  -1 3390.07 257.251   7
  -3  -4  -2 2830.14 239.248   7
   3   4   2 2551.68 235.115   4
  -3  -4  -2 2970.16 240.569   4
  -3  -4  -2 2228.90 267.833   2
   3   4   2 2608.56 233.670   6
   3   4   2 2970.24 229.284   3
  -3  -4  -3 1947.30 120.024   5
  -3  -4  -3 2225.54 203.010   3
  -3  -4  -3 2080.78 211.286   7
   3   4   3 2155.31 228.457   4
  -3  -4  -3 1799.27 189.779   4
   3   4   3 2328.19 212.590   3
  -3  -4  -3 1855.85 259.309   2
   3   4   3 2276.80 232.168   6
  -3  -4  -4 118.064 26.2843   5
  -3  -4  -4 157.434 95.6691   2
   3   4   4 240.439 77.0995   3
  -3  -4  -4 168.622 93.3954   4
   3   4   4 270.793 96.2200   6
  -3  -4  -5 3085.88 383.058   2
  -3  -4  -5 3323.76 296.751   4
   3   4   5 3783.91 350.996   6
  -3  -4  -6 13.5950 57.9122   2
  -3  -4  -6 12.7146 68.2689   4
   3   4   6 48.1634 67.5622   6
  -3  -4  -7 305.632 150.179   2
   3   4   7 411.837 141.171   6
  -3  -4  -8 80.4155 82.6301   2
   3   4   8 92.0221 109.833   6
  -3  -5  12 167.332 97.3025   3
  -3  -5  12 183.749 99.9902   1
  -3  -5  11 604.614 161.393   3
  -3  -5  11 540.988 145.552   1
  -3  -5  10 160.856 90.4015   3
  -3  -5  10 234.307 94.3450   1
   3   5  -9 802.214 91.9153   6
  -3  -5   9 1092.28 171.698   1
  -3  -5   9 1117.10 190.367   3
  -3  -5   8 6434.86 388.070   1
   3   5  -8 5136.34 211.750   6
  -3  -5   8 6498.07 433.248   3
  -3  -5   7 395.907 107.161   3
  -3  -5   7 301.748 76.5866   7
   3   5  -7 310.313 41.0064   6
  -3  -5   7 319.603 79.2589   1
  -3  -5   6 21872.5 646.063   1
  -3  -5   6 20311.2 656.763   7
  -3  -5   6 21925.7 763.126   3
  -3  -5   5 14038.3 526.236   7
  -3  -5   5 14768.9 482.907   1
  -3  -5   5 14824.6 581.793   3
  -3  -5   5 14467.6 603.223   2
  -3  -5   4 4638.41 246.090   1
  -3  -5   4 4689.22 286.889   4
   3   5  -4 4921.86 291.367   1
  -3  -5   4 4677.71 300.461   7
   3   5  -4 3528.72 148.873   6
  -3  -5   4 5058.69 330.336   3
  -3  -5   3 11573.7 457.523   4
   3   5  -3 11929.3 450.233   1
  -3  -5   3 11493.0 505.223   7
   3   5  -3 11334.6 350.014   6
  -3  -5   3 11333.8 500.400   3
   3   5  -3 12223.3 539.827   3
  -3  -5   2 451.036 97.2095   3
   3   5  -2 417.372 100.163   3
  -3  -5   2 508.902 111.013   7
  -3  -5   2 301.508 68.4190   4
   3   5  -2 397.995 67.4900   6
   3   5  -2 420.355 75.0139   1
   3   5  -1 7089.41 315.014   1
   3   5  -1 6955.50 361.791   4
  -3  -5   1 7009.26 334.612   4
   3   5  -1 6931.19 318.294   6
   3   5  -1 7056.96 384.543   3
  -3  -5   1 6845.05 386.001   7
  -3  -5   1 6966.32 370.454   3
  -3  -5   0 779.522 110.317   4
   3   5   0 723.504 121.832   3
  -3  -5   0 622.598 108.194   3
   3   5   0 563.488 109.331   4
  -3  -5   0 696.080 123.298   7
   3   5   1 3325.04 263.501   4
  -3  -5  -1 3322.30 247.857   4
  -3  -5  -1 2884.11 324.999   2
   3   5   1 3164.77 255.692   3
   3   5   1 3388.45 259.350   6
  -3  -5  -1 2864.66 236.707   3
   3   5   2 4801.12 332.280   4
  -3  -5  -2 5109.44 323.060   4
  -3  -5  -2 4071.14 398.750   2
   3   5   2 5272.72 350.576   6
   3   5   2 4644.97 320.930   3
  -3  -5  -2 4207.98 298.564   3
  -3  -5  -3 4164.04 179.432   5
   3   5   3 5199.38 370.378   4
  -3  -5  -3 5476.00 358.422   4
  -3  -5  -3 4340.14 426.172   2
   3   5   3 5676.25 392.388   6
  -3  -5  -3 4803.93 330.619   3
  -3  -5  -4-2.71030 60.8667   3
   3   5   4 120.183 59.1243   6
  -3  -5  -4 124.862 74.5069   2
  -3  -5  -4 220.042 88.5554   4
  -3  -5  -5 7.37674 83.9566   2
  -3  -5  -5-65.7613 70.2170   4
   3   5   5-37.2749 68.2004   6
  -3  -5  -6-44.5328 84.0303   2
  -3  -5  -6 102.918 84.1477   4
   3   5   6 31.5435 69.4630   6
  -3  -5  -7 341.583 182.622   2
   3   5   7 209.210 114.317   6
  -3  -6  12 240.233 118.902   3
  -3  -6  12 230.402 101.355   1
  -3  -6  11 265.851 122.333   3
  -3  -6  11 270.506 116.600   1
  -3  -6  10 648.483 160.327   3
  -3  -6  10 615.330 143.219   1
  -3  -6   9 670.298 162.824   3
  -3  -6   9 454.645 102.457   7
  -3  -6   9 608.424 133.608   1
  -3  -6   8 112.806 62.0599   3
  -3  -6   8 39.0950 45.9525   1
  -3  -6   8 49.2946 38.3675   7
  -3  -6   7 8980.33 519.815   3
  -3  -6   7 7855.62 427.261   7
  -3  -6   7 8566.28 435.034   1
  -3  -6   6 15144.9 618.244   7
  -3  -6   6 15658.8 588.242   1
  -3  -6   6 15893.7 687.874   3
  -3  -6   5 1789.89 215.840   3
  -3  -6   5 1819.35 201.786   7
  -3  -6   5 1759.27 188.329   4
  -3  -6   5 1617.29 164.108   1
  -3  -6   4 9378.84 408.846   4
   3   6  -4 9848.07 446.365   1
  -3  -6   4 9333.90 482.123   3
   3   6  -4 6855.80 218.184   6
  -3  -6   3 16422.8 563.779   4
  -3  -6   3 16578.7 661.862   3
   3   6  -3 16642.1 590.659   1
   3   6  -3 16145.1 453.946   6
  -3  -6   2 43.2669 56.8622   3
  -3  -6   2 5.40417 35.5417   4
   3   6  -2-28.4963 49.4224   1
   3   6  -2 32.7303 37.6348   6
   3   6  -1 15967.6 584.619   4
  -3  -6   1 15644.5 545.665   4
  -3  -6   1 14065.2 601.065   3
   3   6  -1 15942.8 552.218   1
   3   6   0 5971.94 345.531   4
  -3  -6   0 6072.97 331.587   4
   3   6   0 6786.04 363.432   6
  -3  -6   0 5806.05 367.031   3
   3   6   1 4810.44 319.035   4
  -3  -6  -1 4927.86 309.229   4
   3   6   1 5000.07 331.783   6
  -3  -6  -1 3814.72 397.132   2
  -3  -6  -1 4275.34 318.791   3
  -3  -6  -2 548.859 163.899   2
  -3  -6  -2 454.861 107.059   4
   3   6   2 392.281 105.097   6
  -3  -6  -2 488.098 118.558   3
   3   6   2 427.549 104.452   4
  -3  -6  -3 754.347 206.579   2
  -3  -6  -3 588.141 58.6067   5
  -3  -6  -3 786.429 148.276   3
  -3  -6  -3 493.845 104.433   4
   3   6   3 819.285 154.636   6
  -3  -6  -3 408.059 52.1142   5
  -3  -6  -4 200.232 86.3409   2
  -3  -6  -4 124.903 59.0833   4
  -3  -6  -4 108.480 69.2789   3
   3   6   4 55.2626 73.4316   6
  -3  -6  -5 67.5052 102.703   2
  -3  -6  -5 11.5606 71.8853   4
   3   6   5-13.4588 61.9999   6
  -3  -6  -6-103.284 79.2839   2
   3   6   6 16.3827 68.5038   6
  -3  -7  12 106.476 105.103   3
  -3  -7  12 186.456 95.9736   1
  -3  -7  11 660.467 174.250   3
  -3  -7  11 722.814 156.132   1
  -3  -7  10-97.8136 66.8614   3
  -3  -7  10-62.7810 73.0920   1
  -3  -7   9 150.290 97.4164   3
  -3  -7   9-69.6634 62.0236   1
  -3  -7   8 2329.72 242.621   1
  -3  -7   8 2280.69 277.663   3
  -3  -7   7 278.691 98.7599   3
  -3  -7   7 316.354 89.9867   1
  -3  -7   6 1518.22 215.493   3
  -3  -7   6 1444.42 176.561   4
  -3  -7   6 1697.37 188.755   1
  -3  -7   5 20865.9 707.730   4
  -3  -7   5 23144.2 869.356   3
  -3  -7   4 3582.04 244.939   4
   3   7  -4 2545.12 114.076   6
  -3  -7   4 4054.91 330.924   3
   3   7  -3 2880.01 169.232   6
  -3  -7   3 2735.76 203.239   4
  -3  -7   3 2830.07 274.319   3
  -3  -7   2 445.527 114.785   3
  -3  -7   2 349.459 74.8974   4
   3   7  -2 635.044 97.0805   6
  -3  -7   1 3543.72 242.718   4
  -3  -7   1 3342.26 295.226   3
  -3  -7   0 118.066 66.5920   3
   3   7   0 164.530 67.2033   4
  -3  -7   0 196.844 76.2837   4
   3   7   0 249.042 78.4673   6
  -3  -7  -1 1734.70 295.584   2
   3   7   1 1741.27 196.376   4
  -3  -7  -1 2101.23 201.558   4
   3   7   1 1936.93 218.546   6
  -3  -7  -1 1755.59 220.366   3
   3   7   2 4087.12 318.059   4
  -3  -7  -2 3862.36 291.063   4
  -3  -7  -2 2940.49 394.072   2
   3   7   2 4220.45 348.506   6
  -3  -7  -2 3470.60 322.209   3
  -3  -7  -3 890.065 227.869   2
  -3  -7  -3 1025.62 184.706   3
  -3  -7  -3 1122.96 169.259   4
   3   7   3 1249.20 202.447   6
  -3  -7  -4 202.479 116.578   2
  -3  -7  -4-6.91981 60.4431   3
  -3  -7  -4-8.83564 55.7172   4
   3   7   4 69.9093 72.0314   6
  -3  -7  -5-30.3228 79.8108   2
   3   7   5-37.4108 65.6434   6
  -3  -8  11 120.128 100.058   3
  -3  -8  11-3.15919 66.5494   1
  -3  -8  10 612.536 175.041   3
  -3  -8  10 509.981 132.751   1
  -3  -8   9 754.103 151.868   1
  -3  -8   9 817.694 190.466   3
  -3  -8   8 397.591 133.293   3
  -3  -8   8 335.850 99.5635   4
  -3  -8   8 531.671 123.032   1
  -3  -8   7 343.587 114.495   3
  -3  -8   7 187.073 69.2661   4
  -3  -8   7 385.721 97.9174   1
  -3  -8   6 145.045 74.0276   3
  -3  -8   6 175.283 69.4805   4
  -3  -8   5 7798.39 388.270   4
  -3  -8   5 8749.41 536.802   3
   3   8  -4 1152.56 71.2693   6
  -3  -8   4 1682.50 159.578   4
   3   8  -3 10805.1 372.482   6
  -3  -8   3 9475.61 402.563   4
  -3  -8   3 10555.4 583.871   3
  -3  -8   2 755.490 105.985   4
  -3  -8   2 899.142 166.380   3
  -3  -8   1 366.401 81.5996   4
  -3  -8   1 227.023 86.8474   3
   3   8  -1 468.531 98.9870   6
  -3  -8   0 2593.05 212.496   4
  -3  -8   0 2010.59 333.480   2
   3   8   0 2874.37 257.972   6
  -3  -8   0 2299.54 267.988   3
  -3  -8   0 2495.76 216.456   5
  -3  -8  -1 72.7748 57.6873   3
  -3  -8  -1 60.2678 55.9265   4
   3   8   1-10.7102 57.0301   6
  -3  -8  -1 117.846 87.6709   2
  -3  -8  -2 665.606 217.964   2
  -3  -8  -2 790.688 165.452   3
  -3  -8  -2 865.847 145.519   4
   3   8   2 775.413 160.751   6
  -3  -8  -3 66.0276 88.7378   2
  -3  -8  -3-22.5683 64.4875   3
  -3  -8  -3 105.371 69.4058   4
   3   8   3 45.3428 60.0913   6
  -3  -8  -4 235.404 111.806   3
  -3  -8  -4 78.1363 126.043   2
   3   8   4 287.182 115.084   6
  -3  -9  10 490.533 153.688   3
  -3  -9  10 351.007 121.143   1
  -3  -9   9 185.910 91.2508   3
  -3  -9   9 287.557 107.430   1
  -3  -9   8 839.955 192.563   3
  -3  -9   8 766.101 150.072   4
  -3  -9   8 762.068 147.547   1
  -3  -9   7-55.3317 77.4891   3
  -3  -9   7 33.9910 41.8705   4
  -3  -9   6 50.3848 78.9361   3
  -3  -9   6 41.3119 43.6102   4
  -3  -9   5 946.379 189.113   3
  -3  -9   5 799.442 110.800   4
  -3  -9   4 3237.01 343.783   3
   3   9  -3 11210.7 396.254   6
  -3  -9   3 11036.0 635.734   3
  -3  -9   2 39.7514 67.9704   3
   3   9  -1 2850.03 250.709   6
  -3  -9   1 2953.84 322.992   3
  -3  -9   0 171.115 92.0041   3
   3   9   0 110.940 72.9344   6
  -3  -9   0 11.4489 102.198   2
  -3  -9  -1 326.845 177.292   2
  -3  -9  -1 373.240 134.844   3
   3   9   1 581.778 132.464   6
  -3  -9  -2 139.428 109.524   2
  -3  -9  -2 161.991 101.574   3
   3   9   2 148.212 71.7906   6
  -3 -10   8 2400.78 331.692   3
  -3 -10   7 397.538 161.501   3
  -3 -10   6 1819.94 278.318   3
  -3 -10   5-10.1191 59.5171   3
  -3 -10   4-31.1879 58.5527   3
  -3 -10   3 174.383 106.850   3
  -3 -10   2 2066.19 298.056   3
  -3 -10   1 1997.08 290.254   3
  -3 -10   1 1507.51 331.522   2
   3  10   0 136.952 80.6347   6
  -3 -10   0 251.807 126.945   3
  -3 -10   0 84.1936 142.577   2
   4 -11   1 250.639 121.538   3
   4 -11   1 191.937 134.706   2
   4 -11   2 51.7304 77.9306   3
   4 -11   3 128.695 109.404   3
   4 -11   4 797.356 194.217   3
   4 -10  -3-74.8233 131.449   2
   4 -10  -2 365.719 143.079   3
   4 -10  -2 259.392 165.324   2
   4 -10  -1 1870.47 352.198   2
   4 -10  -1 2173.21 308.110   3
   4 -10   0 110.496 92.6998   3
   4 -10   0-62.7480 105.388   2
   4 -10   1 1482.89 244.079   3
   4 -10   1 1038.06 261.084   2
   4 -10   2 73.0285 84.6710   3
   4 -10   3 395.332 138.491   3
   4 -10   4-26.2952 59.8634   3
   4 -10   5 290.467 127.173   3
   4 -10   6 606.317 154.788   3
   4 -10   7 55.2105 66.8574   3
   4 -10   7 188.694 104.687   1
   4  -9  -5 346.540 156.885   2
  -4   9   5 91.9893 68.3419   6
   4  -9  -4-58.2226 92.7560   2
   4  -9  -3 402.080 160.564   2
   4  -9  -2-2.02993 75.4966   2
   4  -9  -2-100.821 86.3704   3
  -4   9   2 67.3067 69.0384   5
   4  -9  -1 253.747 118.890   2
   4  -9  -1 23.0203 66.1280   3
  -4   9   1 240.861 104.147   5
  -4   9   0 895.219 167.617   5
   4  -9   0 1318.56 227.482   3
   4  -9   0 863.339 227.451   2
   4  -9   1 3736.53 354.389   3
  -4   9  -1 3542.97 339.025   5
  -4   9  -2 667.452 166.516   5
   4  -9   2 587.352 149.205   3
   4  -9   3 1421.14 213.447   3
  -4   9  -3 1366.26 222.428   5
   4  -9   4 1928.89 246.960   3
   4  -9   5 125.169 92.2610   3
   4  -9   6 383.908 106.810   3
   4  -9   6 546.479 131.907   1
   4  -9   7 40.8915 69.9884   3
   4  -9   7 30.1778 49.3865   1
   4  -9   8 38.4012 58.3996   3
   4  -9   8 125.197 78.6785   1
   4  -8  -6 118.114 118.364   2
  -4   8   6 63.1771 66.8005   6
   4  -8  -5 132.528 129.551   2
  -4   8   5 59.4600 82.2142   6
  -4   8   4 35.2338 36.9860   5
   4  -8  -4 92.4352 118.374   2
   4  -8  -3 582.917 176.708   2
  -4   8   3 600.877 101.382   4
  -4   8   3 697.803 124.324   5
   4  -8  -2 68.3192 89.9546   2
  -4   8   2 25.2577 54.4844   5
  -4   8   2-16.5866 18.4013   4
   4  -8  -1 2999.56 371.040   2
   4  -8  -1 3413.07 324.017   3
  -4   8   1 3168.82 276.056   5
   4  -8   0 1957.25 293.069   2
   4  -8   0 2663.36 278.377   3
  -4   8   0 2581.73 262.659   5
   4  -8   1 3995.01 336.519   3
  -4   8  -1 3506.56 324.308   5
  -4   8  -2 608.126 155.391   5
   4  -8   2 758.385 156.571   3
   4  -8   2 614.685 113.395   6
  -4   8  -3-8.48559 62.1800   5
   4  -8   3 136.481 88.2281   3
   4  -8   3 44.8014 51.5942   6
  -4   8  -4 1339.34 222.668   5
   4  -8   4 1071.67 119.634   4
   4  -8   4 1498.07 196.675   3
   4  -8   4 1004.10 135.212   6
   4  -8   5 102.873 65.1592   1
   4  -8   5 147.642 79.3232   3
   4  -8   5 36.0543 32.2910   6
  -4   8  -5 31.7211 71.9706   5
   4  -8   6 1568.33 198.354   3
   4  -8   6 1603.15 202.167   1
   4  -8   7 629.716 139.045   1
   4  -8   7 657.807 135.585   3
   4  -8   7 436.247 104.665   6
   4  -8   8 811.812 153.771   3
   4  -8   8 1032.70 190.018   1
   4  -8   9 11.7664 55.6192   1
   4  -7  -7-56.9346 95.3581   2
  -4   7   7 78.5701 85.9860   6
   4  -7  -6 749.379 219.230   2
  -4   7   6 779.812 167.598   6
   4  -7  -5 1947.41 325.888   2
  -4   7   5 1954.70 248.437   6
  -4   7   5 1853.62 162.231   5
  -4   7   4 47.9505 37.8357   5
   4  -7  -4 4.43265 61.7401   2
  -4   7   4-44.5443 38.1957   4
  -4   7   4-126.680 86.7599   6
  -4   7   3 16.0145 38.3237   5
   4  -7  -3 25.1764 65.8512   2
  -4   7   3 128.706 52.8702   4
   4  -7  -2 684.501 173.665   2
  -4   7   2 644.327 110.171   5
   4  -7  -2 839.330 157.072   3
  -4   7   2 642.126 90.1283   4
   4  -7  -1 78.8678 41.4486   5
   4  -7  -1-143.141 85.3697   3
  -4   7   1-17.1850 25.0018   4
  -4   7   1-76.3225 57.7304   5
   4  -7  -1 56.4728 79.8252   2
  -4   7   0 1824.03 112.087   4
   4  -7   0 2915.61 328.086   2
   4  -7   0 2905.14 245.918   6
   4  -7   0 3052.48 273.092   3
  -4   7   0 2955.35 257.258   5
  -4   7  -1 1965.12 117.489   4
   4  -7   1 2192.98 206.313   6
   4  -7   1 3160.95 273.190   3
  -4   7  -1 2725.70 253.752   5
  -4   7  -2 21284.9 567.298   4
  -4   7  -2 26438.1 831.683   3
   4  -7   2 22829.5 750.887   6
   4  -7   2 28367.1 874.804   3
  -4   7  -2 27215.8 906.799   5
   4  -7   3 16742.2 610.820   6
  -4   7  -3 18498.7 508.219   4
  -4   7  -3 20210.4 696.833   3
   4  -7   3 23038.5 742.915   3
  -4   7  -3 21230.8 808.984   5
   4  -7   4 2027.18 200.571   1
   4  -7   4 1162.19 137.240   4
  -4   7  -4 1527.17 179.438   3
   4  -7   4 1525.26 203.623   2
   4  -7   4 1836.18 202.262   3
  -4   7  -4 1822.95 247.029   5
  -4   7  -5-52.7390 79.8210   5
   4  -7   5 78.9312 66.0326   3
   4  -7   5 16.3731 49.0593   1
   4  -7   5 16.5332 38.9984   4
  -4   7  -6-74.1527 64.7129   5
   4  -7   6 4.03485 39.7711   3
   4  -7   6-52.5436 53.5549   1
   4  -7   6 85.6841 62.5536   4
   4  -7   7 801.976 134.256   3
   4  -7   7 815.882 151.890   1
   4  -7   7 688.983 132.031   6
   4  -7   8-78.8474 60.3588   1
   4  -7   8 85.2544 63.5669   3
   4  -7   8-11.2787 38.4324   6
   4  -7   9 815.487 171.488   1
   4  -7   9 810.815 155.147   6
  -4   6   9 94.2937 85.9447   6
   4  -6  -8 1194.91 279.032   2
  -4   6   8 1222.46 221.238   6
   4  -6  -7 621.987 188.947   2
  -4   6   7 768.218 169.331   6
  -4   6   6 463.094 75.9102   5
   4  -6  -6 307.119 134.551   2
  -4   6   6 417.457 111.807   6
  -4   6   5-0.17509 45.4115   5
   4  -6  -5-41.6363 64.4101   2
  -4   6   5 35.3322 61.3244   6
  -4   6   4 135.970 53.6099   5
   4  -6  -4 109.911 63.8512   2
  -4   6   4 149.348 65.6086   6
  -4   6   3 7916.03 367.481   5
  -4   6   3 8514.42 408.353   4
   4  -6  -3 8257.36 563.874   2
   4  -6  -2 145.468 75.4016   2
  -4   6   2 169.577 65.3809   5
  -4   6   2 132.492 43.4808   4
  -4   6   1 4224.54 280.077   5
  -4   6   1 4315.05 267.523   1
  -4   6   1 4067.91 221.836   4
   4  -6  -1 3734.53 349.521   2
   4  -6  -1 4110.52 291.210   6
   4  -6  -1 4159.04 276.946   5
  -4   6   1 4366.89 305.426   3
   4  -6  -1 4273.63 314.336   3
  -4   6   0 1560.62 176.258   5
  -4   6   0 1194.09 106.981   4
   4  -6   0 1284.29 198.304   2
   4  -6   0 1526.79 174.175   3
   4  -6   0 1555.87 167.503   6
  -4   6   0 1698.73 166.191   1
  -4   6   0 1443.36 165.330   3
   4  -6   0 1723.02 182.787   5
  -4   6  -1 393.199 92.1250   5
  -4   6  -1 382.172 83.7272   3
   4  -6   1 667.882 121.036   5
   4  -6   1 659.342 122.949   3
   4  -6   1 530.704 96.3011   6
  -4   6  -1 369.458 55.9668   4
  -4   6  -1 565.277 100.659   1
  -4   6  -2 3993.18 302.406   5
   4  -6   2 2553.52 184.455   4
  -4   6  -2 3885.70 212.189   4
  -4   6  -2 4194.91 287.361   1
   4  -6   2 3580.28 250.513   6
  -4   6  -2 3829.50 257.608   3
   4  -6   2 4469.20 285.104   3
   4  -6   3 5572.50 304.511   1
  -4   6  -3 5171.20 341.345   1
   4  -6   3 3588.17 243.181   4
  -4   6  -3 5260.34 266.095   4
  -4   6  -3 4961.17 296.418   3
   4  -6   3 5699.60 320.302   3
  -4   6  -3 5900.44 391.841   5
   4  -6   4 25104.8 751.882   1
  -4   6  -4 21187.3 695.292   3
   4  -6   4 21225.5 755.655   2
   4  -6   4 23955.8 718.650   3
  -4   6  -4 24748.4 876.838   5
   4  -6   5 1796.19 198.045   4
  -4   6  -5 1585.72 169.997   4
   4  -6   5 1532.92 177.170   1
   4  -6   5 1244.68 177.485   2
   4  -6   5 1604.84 165.156   3
  -4   6  -5 1662.72 228.576   5
   4  -6   6 4368.95 321.180   1
  -4   6  -6 4794.92 320.126   4
   4  -6   6 4123.90 304.577   6
   4  -6   6 4537.58 293.359   3
  -4   6  -6 4809.22 395.234   5
   4  -6   7 250.397 84.1664   3
   4  -6   7 143.796 65.9019   6
  -4   6  -7 123.892 97.1507   5
   4  -6   7 147.642 74.6399   1
   4  -6   8 207.972 96.8340   1
   4  -6   8 132.208 68.9069   3
   4  -6   8 126.754 68.6580   6
   4  -6   9 470.319 113.355   3
   4  -6   9 584.375 152.085   1
   4  -6   9 396.529 120.595   6
   4  -6  10 32.4703 57.2069   6
   4  -6  10 131.131 97.1407   1
  -4   5   9 625.694 164.556   6
   4  -5  -9 707.286 224.042   2
   4  -5  -8 140.273 126.519   2
  -4   5   8 246.111 100.637   6
  -4   5   7 57.9912 28.8536   5
   4  -5  -7 35.6922 98.7718   2
  -4   5   7 62.9686 59.8521   6
  -4   5   6 4493.73 236.786   5
  -4   5   6 4879.12 379.371   6
   4  -5  -6 5683.94 500.555   2
  -4   5   5 6.59222 31.3178   5
   4  -5  -5-90.6796 78.5683   2
  -4   5   5-41.0247 53.7439   6
  -4   5   4 2121.00 165.514   5
  -4   5   4 2479.74 243.543   6
   4  -5  -4 2272.19 288.923   2
   4  -5  -3 4.00981 53.9381   2
  -4   5   3-0.24953 31.0371   5
  -4   5   2 1962.04 171.666   5
  -4   5   2 1891.84 175.951   4
   4  -5  -2 1923.77 197.150   6
   4  -5  -2 1807.97 224.927   2
  -4   5   2 1820.80 190.258   3
   4  -5  -1 11406.5 491.227   3
   4  -5  -1 10602.5 441.405   5
  -4   5   1 10601.8 401.079   4
   4  -5  -1 9874.24 520.482   2
  -4   5   1 10118.6 430.179   5
   4  -5  -1 10699.9 470.006   6
  -4   5   1 10611.7 455.936   3
  -4   5   1 11293.6 413.840   1
  -4   5   0 3671.51 253.238   5
   4  -5   0 3872.84 264.405   5
  -4   5   0 3848.97 251.539   3
  -4   5   0 3621.78 207.484   4
   4  -5   0 3681.33 252.981   6
  -4   5   0 3809.64 231.333   1
   4  -5   0 3703.97 251.419   3
  -4   5  -1 6352.13 349.025   5
   4  -5   1 6925.89 365.777   5
   4  -5   1 5517.10 276.640   4
  -4   5  -1 5318.72 258.154   4
  -4   5  -1 5831.93 299.103   1
  -4   5  -1 5817.06 296.474   3
   4  -5   1 6348.21 317.884   3
   4  -5   2 22963.1 744.341   5
   4  -5   2 19931.1 591.216   1
   4  -5   2 20131.4 624.914   4
  -4   5  -2 21157.4 673.986   1
  -4   5  -2 19725.9 593.461   4
  -4   5  -2 20665.2 713.950   5
  -4   5  -2 18822.5 598.459   3
   4  -5   2 21283.6 629.660   3
  -4   5  -3-32.6136 30.3551   3
   4  -5   3 12.7108 33.3482   1
   4  -5   3 29.7469 34.0677   3
   4  -5   3 92.8167 62.5120   4
   4  -5   3 52.2451 41.3856   2
  -4   5  -3 70.2820 57.1111   5
   4  -5   4 22503.4 753.039   4
   4  -5   4 21886.4 692.115   1
   4  -5   4 19898.1 713.969   2
   4  -5   4 21972.8 636.829   3
  -4   5  -4 22158.0 794.055   5
  -4   5  -5 978.004 179.375   5
   4  -5   5 841.030 112.850   3
   4  -5   5 831.878 150.375   4
  -4   5  -5 925.055 141.597   4
   4  -5   5 623.833 125.856   2
   4  -5   5 688.248 107.419   1
  -4   5  -6 2673.43 249.033   4
   4  -5   6 2919.07 255.987   1
   4  -5   6 2725.25 249.777   6
   4  -5   6 2686.12 277.673   2
   4  -5   6 3028.77 214.211   3
  -4   5  -6 2795.14 294.254   5
  -4   5  -7 230.318 102.745   5
   4  -5   7 382.697 80.5803   3
   4  -5   7 440.347 112.254   1
  -4   5  -7 506.869 122.392   4
   4  -5   7 455.898 111.759   6
   4  -5   8 58.0835 41.6857   3
   4  -5   8-26.7566 58.0452   1
   4  -5   8-18.1212 47.0117   6
   4  -5   9 77.6831 67.3585   3
   4  -5   9 29.2457 58.1349   1
   4  -5   9 81.6897 67.2364   6
   4  -5  10-18.5351 59.8372   6
   4  -5  10 46.9079 71.2755   1
   4  -4 -10 81.8980 115.895   2
  -4   4  10 194.464 105.702   6
   4  -4  -9 131.272 123.918   2
  -4   4   9 26.4176 54.2049   6
  -4   4   8 53.3035 36.2898   5
   4  -4  -8-21.3682 75.8095   2
  -4   4   8 48.0904 47.1460   6
  -4   4   7 2310.41 166.192   5
   4  -4  -7 2966.45 358.017   2
  -4   4   7 2719.62 281.080   6
  -4   4   6 144.710 46.6097   5
   4  -4  -6 58.4071 72.1852   2
  -4   4   6 57.7759 43.0711   6
  -4   4   5 1819.13 150.955   5
  -4   4   5 2186.46 287.065   2
   4  -4  -5 2101.30 263.680   2
  -4   4   5 2186.77 228.720   6
  -4   4   4 91.4958 36.5765   5
   4  -4  -4 64.7718 56.6223   2
  -4   4   4 46.2170 34.0100   3
  -4   4   4-16.8908 64.1133   2
  -4   4   4 15.6957 36.7180   6
  -4   4   3 176.982 54.6264   5
   4  -4  -3 16.3471 47.7460   2
  -4   4   3 148.816 59.9958   3
   4  -4  -3 86.2780 45.6218   6
  -4   4   2 21060.3 641.316   5
  -4   4   2 23518.6 702.798   4
   4  -4  -2 22897.1 791.933   2
   4  -4  -2 22452.2 728.740   6
  -4   4   2 22951.8 710.057   3
  -4   4   1 2891.80 203.686   5
  -4   4   1 3133.76 209.505   4
   4  -4  -1 2819.96 234.396   2
   4  -4  -1 3120.51 227.804   6
  -4   4   1 2949.55 206.590   3
  -4   4   1 3081.96 177.356   1
  -4   4   0 5158.92 239.432   1
  -4   4   0 5242.00 267.461   4
  -4   4   0 5244.96 291.539   5
  -4   4   0 4953.12 255.623   3
   4  -4   0 5657.24 283.584   3
  -4   4  -1 4922.80 290.503   5
   4  -4   1 4561.94 260.814   4
  -4   4  -1 4632.14 250.373   4
  -4   4  -1 4850.62 249.394   1
  -4   4  -1 4485.88 227.827   3
   4  -4   1 4842.12 242.206   3
  -4   4  -2 5636.31 320.502   5
   4  -4   2 5365.42 300.471   4
  -4   4  -2 5181.24 277.685   4
   4  -4   2 5731.35 260.992   1
  -4   4  -2 5195.18 236.802   3
   4  -4   2 5217.46 252.972   2
   4  -4   2 5488.29 248.239   3
  -4   4  -3 1040.14 147.854   5
   4  -4   3 789.664 101.864   1
   4  -4   3 993.263 134.475   4
  -4   4  -3 910.964 95.7217   3
   4  -4   3 757.706 102.798   2
   4  -4   3 954.185 95.3834   3
  -4   4  -4 5681.18 354.864   5
   4  -4   4 5813.31 359.591   4
  -4   4  -4 5634.65 323.492   4
   4  -4   4 5767.71 312.007   1
   4  -4   4 5319.60 319.806   2
   4  -4   4 5837.05 254.050   3
   4  -4   5 13592.0 602.054   4
  -4   4  -5 13268.4 554.265   4
   4  -4   5 13706.3 560.190   1
   4  -4   5 12510.2 570.259   2
   4  -4   5 13582.2 436.034   3
  -4   4  -5 12923.6 581.989   5
   4  -4   6 14645.0 622.777   1
  -4   4  -6 14752.8 607.914   4
   4  -4   6 14795.5 615.891   6
   4  -4   6 14427.0 670.833   2
   4  -4   6 14635.0 486.700   3
  -4   4  -6 15293.1 662.274   5
  -4   4  -7 678.724 150.338   5
   4  -4   7 530.402 92.3191   3
   4  -4   7 614.025 131.700   1
   4  -4   7 233.261 64.4478   2
  -4   4  -7 768.991 143.350   4
   4  -4   7 614.895 131.170   6
   4  -4   8 1034.47 133.059   3
   4  -4   8 1206.40 193.531   1
  -4   4  -8 856.789 155.272   2
   4  -4   8 894.248 110.111   7
  -4   4  -8 1140.09 182.060   4
   4  -4   8 1183.34 178.279   6
  -4   4  -8 889.232 170.705   5
   4  -4   9 1060.69 146.717   3
  -4   4  -9 1001.33 184.591   2
   4  -4   9 1032.37 200.402   1
   4  -4   9 1114.16 181.239   6
  -4   4 -10 22.8029 58.6882   2
   4  -4  10 14.5936 58.8688   1
   4  -4  10-1.69825 58.9429   6
   4  -3 -11 37.0672 96.6966   2
  -4   3  11 27.1643 83.0198   6
   4  -3 -10-25.7811 70.7466   2
  -4   3  10 136.572 90.5727   6
   4  -3  -9 628.700 173.812   2
  -4   3   9 673.057 150.953   6
  -4   3   8 375.950 113.437   6
   4  -3  -8 585.685 172.263   2
   4  -3  -7 197.087 97.7535   2
  -4   3   7-37.6747 53.3825   6
   4  -3  -6 778.865 165.382   2
  -4   3   6 716.808 129.333   6
   4  -3  -5 11607.6 601.651   2
  -4   3   5 10123.8 396.680   5
  -4   3   5 10658.3 505.567   6
  -4   3   5 10989.3 616.273   2
  -4   3   5 11315.3 524.174   3
  -4   3   4-0.98979 26.3087   5
   4  -3  -4 35.3010 51.8004   2
  -4   3   4 46.3579 50.1688   3
   4  -3  -4-0.70119 28.2910   6
  -4   3   4 0.60127 34.6976   2
  -4   3   3 1846.23 153.453   5
  -4   3   3 2068.04 217.893   2
   4  -3  -3 2137.05 210.722   2
   4  -3  -3 1994.48 185.874   6
  -4   3   3 2034.84 182.100   3
  -4   3   2 1318.57 133.153   5
  -4   3   2 1305.94 145.005   4
   4  -3  -2 1460.18 159.558   2
   4  -3  -2 1285.62 144.172   6
  -4   3   2 1426.46 141.214   3
  -4   3   1 7532.64 332.980   5
  -4   3   1 7157.51 335.794   4
   4  -3  -1 7104.86 324.068   2
  -4   3   1 7229.53 306.570   3
  -4   3   1 7529.39 257.206   1
  -4   3   0 51604.1 1211.15   5
   4  -3   0 52511.2 1222.61   4
  -4   3   0 52890.0 1219.37   4
   4  -3   0 52758.1 1150.66   2
  -4   3   0 52499.0 1084.94   1
  -4   3   0 54263.6 1119.46   3
  -4   3  -1 848.932 108.613   5
  -4   3  -1 1008.54 102.321   1
   4  -3   1 1039.87 128.172   4
  -4   3  -1 859.427 109.801   4
  -4   3  -1 988.332 82.0383   3
   4  -3   1 1096.22 89.7253   1
   4  -3   1 951.504 90.7808   3
  -4   3  -2 21258.4 666.229   5
   4  -3   2 21375.4 686.488   4
   4  -3   2 21118.2 560.645   1
  -4   3  -2 19383.6 486.405   3
   4  -3   2 20917.4 552.016   2
   4  -3   2 21512.3 499.040   3
  -4   3  -3 1398.40 156.273   5
   4  -3   3 1488.62 167.733   5
   4  -3   3 1449.63 163.228   4
   4  -3   3 1414.85 138.545   1
   4  -3   3 1358.52 133.071   2
   4  -3   3 1367.96 90.3475   3
  -4   3  -4 18291.2 653.345   5
   4  -3   4 19503.1 680.692   5
   4  -3   4 18254.4 461.161   3
   4  -3   4 18484.3 621.775   1
   4  -3   4 18012.9 691.638   4
  -4   3  -4 18369.8 653.010   4
   4  -3   4 18836.2 644.445   2
  -4   3  -5 3311.54 266.267   5
   4  -3   5 3988.13 293.202   5
   4  -3   5 2961.58 244.833   1
   4  -3   5 3798.40 311.748   4
  -4   3  -5 3636.27 279.517   4
   4  -3   5 3381.53 269.143   6
   4  -3   5 3621.11 286.162   2
   4  -3   5 3440.74 177.297   3
   4  -3   6 3429.95 195.505   3
  -4   3  -6 3430.30 282.167   4
   4  -3   6 3353.31 301.661   2
   4  -3   6 3301.08 286.347   6
  -4   3  -6 3075.06 255.820   2
  -4   3  -6 3426.78 283.879   5
   4  -3   7 4961.68 263.509   7
  -4   3  -7 5691.48 389.862   4
   4  -3   7 5286.58 421.189   2
   4  -3   7 5313.56 375.768   6
   4  -3   7 4956.49 269.222   3
  -4   3  -7 4731.99 345.523   2
  -4   3  -7 5092.90 373.207   5
   4  -3   8-17.4926 48.9129   3
  -4   3  -8-91.7000 85.2070   2
   4  -3   8 30.2596 34.4267   7
  -4   3  -8-53.9642 75.6542   4
   4  -3   8 45.2036 70.9417   6
  -4   3  -8-30.7769 54.0295   5
  -4   3  -9-65.7027 71.1722   2
   4  -3   9-15.1545 43.4383   3
   4  -3   9 4.82432 49.9156   6
  -4   3 -10 75.0461 52.7023   2
   4  -3  10 33.6741 57.5484   6
   4  -2 -11 245.959 142.838   2
  -4   2  11 38.7100 68.3708   6
   4  -2 -10 86.7146 109.110   2
  -4   2  10 78.2173 80.9447   6
   4  -2  -9 271.403 111.789   2
  -4   2   9 212.384 102.888   6
   4  -2  -8 1819.79 268.307   2
  -4   2   8 1138.15 179.297   6
   4  -2  -7 1257.19 212.316   2
  -4   2   7 1129.40 169.495   6
  -4   2   6 787.513 167.432   2
   4  -2  -6 771.766 151.861   2
  -4   2   6 715.086 122.977   6
  -4   2   5 412.573 117.955   2
   4  -2  -5 300.656 89.8353   2
   4  -2  -5 331.859 81.0857   6
  -4   2   5 304.276 76.0239   6
  -4   2   4 2028.66 217.359   2
   4  -2  -4 2261.05 215.346   2
   4  -2  -4 1929.31 185.176   6
  -4   2   3 2358.60 208.552   2
   4  -2  -3 2446.47 200.322   2
   4  -2  -3 2180.54 188.833   6
  -4   2   2 3692.17 215.809   3
  -4   2   2 3741.93 222.164   5
  -4   2   2 3690.91 248.409   4
  -4   2   2 4206.11 243.584   2
   4  -2  -2 3904.69 220.104   2
   4  -2  -2 3886.16 242.584   6
  -4   2   1 2660.20 189.278   5
  -4   2   1 2889.11 121.453   1
  -4   2   1 2640.28 202.075   4
   4  -2  -1 2836.50 149.457   2
  -4   2   1 2747.32 162.234   3
  -4   2   0 12441.4 437.559   5
   4  -2   0 11566.6 455.725   4
  -4   2   0 12455.8 326.534   1
  -4   2   0 11854.7 450.809   4
   4  -2   0 10015.9 276.734   2
  -4   2   0 12435.8 330.684   3
  -4   2  -1 4254.19 244.509   5
   4  -2   1 4095.51 266.127   4
  -4   2  -1 4088.03 247.224   4
   4  -2   1 4436.07 168.770   1
   4  -2   1 2985.74 123.975   2
  -4   2  -1 3696.85 125.960   3
  -4   2  -2 48295.7 1132.74   5
   4  -2   2 47485.1 1204.52   4
   4  -2   2 47861.5 1036.64   1
   4  -2   2 45877.1 992.266   2
  -4   2  -3 281.496 53.9332   2
   4  -2   3 333.723 80.4274   5
  -4   2  -3 267.121 74.0868   5
   4  -2   3 195.201 53.6395   2
   4  -2   3 407.125 101.575   4
  -4   2  -4 3310.55 237.080   5
   4  -2   4 3507.76 252.810   5
   4  -2   4 3374.95 263.455   6
   4  -2   4 3235.29 270.697   4
  -4   2  -4 3794.18 276.653   4
   4  -2   4 2998.78 128.025   3
  -4   2  -4 3052.30 209.131   2
   4  -2   4 3298.56 243.695   2
  -4   2  -5 15326.0 581.958   5
   4  -2   5 16479.1 614.732   5
  -4   2  -5 16069.6 636.362   4
   4  -2   5 14462.0 520.934   7
   4  -2   5 15691.6 647.884   2
   4  -2   5 15222.2 427.569   3
   4  -2   5 15882.6 635.984   6
  -4   2  -6 2849.98 267.954   4
   4  -2   6 2424.36 262.653   2
   4  -2   6 2363.45 180.734   7
   4  -2   6 2625.00 249.782   6
   4  -2   6 2851.52 249.695   5
   4  -2   6 2237.18 153.407   3
  -4   2  -6 2218.05 224.775   2
  -4   2  -6 2767.37 244.592   5
   4  -2   7 5967.50 471.784   2
  -4   2  -7 6447.24 424.044   4
   4  -2   7 5674.13 275.465   7
   4  -2   7 6596.62 438.112   6
  -4   2  -7 5511.76 390.168   2
  -4   2  -7 6507.62 397.881   5
  -4   2  -8 6317.43 444.720   4
  -4   2  -8 5109.17 413.425   2
   4  -2   8 5914.32 421.652   6
  -4   2  -8 5766.64 385.868   5
   4  -2   9 567.054 147.636   6
  -4   2  -9 472.877 128.601   2
   4  -2  10 141.534 74.8678   6
  -4   2 -10 11.6772 81.1861   2
   4  -1 -12 418.829 174.263   2
  -4   1  12 496.035 148.955   6
   4  -1 -11 37.0785 70.7661   2
  -4   1  11-55.9049 78.0301   6
   4  -1 -10 810.359 196.810   2
  -4   1  10 597.065 145.263   6
   4  -1  -9 145.633 102.230   2
  -4   1   9 268.124 82.2606   6
   4  -1  -8 3117.81 331.437   2
  -4   1   8 3079.14 276.881   6
   4  -1  -7 606.320 137.278   2
  -4   1   7 501.320 100.148   6
   4  -1  -6 622.164 129.258   2
  -4   1   6 594.199 138.079   2
   4  -1  -6 476.467 91.4345   6
  -4   1   6 409.789 88.3313   6
  -4   1   5 960.306 152.655   2
   4  -1  -5 1013.50 151.125   2
   4  -1  -5 801.431 116.156   6
  -4   1   4 2782.68 237.861   2
   4  -1  -4 3063.85 229.728   2
   4  -1  -4 2602.87 205.367   6
   4  -1  -3 1387.86 139.696   6
  -4   1   3 1423.44 147.902   2
   4  -1  -3 1491.71 138.995   2
  -4   1   2 3855.56 200.693   2
   4  -1  -2 3967.38 186.939   2
  -4   1   1 9444.14 370.017   5
   4  -1  -1 9019.89 398.298   4
  -4   1   0 14523.0 488.911   5
   4  -1   0 13758.8 516.623   4
   4  -1   0 14749.0 301.588   1
  -4   1  -1 167.668 61.8224   5
   4  -1   1 32.9011 18.3568   1
   4  -1   1 104.256 76.2125   4
  -4   1  -2 24093.7 682.333   5
   4  -1   2 25210.1 791.731   4
   4  -1   2 24093.9 605.438   2
  -4   1  -2 23702.6 567.736   2
   4  -1   3 16.1997 30.6129   2
  -4   1  -3 28.6048 40.3498   5
   4  -1   3 16.7251 37.6816   5
   4  -1   3 118.829 80.6777   4
   4  -1   3-37.2528 52.0936   7
  -4   1  -3 19.1993 25.3726   2
  -4   1  -4 4791.81 275.662   5
   4  -1   4 4938.96 291.153   5
   4  -1   4 5645.18 342.196   6
   4  -1   4 4986.23 352.072   4
   4  -1   4 4587.10 261.713   7
   4  -1   4 5130.08 319.819   2
  -4   1  -4 4977.96 287.953   2
   4  -1   4 4183.04 154.456   3
  -4   1  -5 3457.68 243.942   5
   4  -1   5 3422.03 247.909   5
  -4   1  -5 3678.08 294.198   4
   4  -1   5 3314.69 290.145   2
   4  -1   5 3178.61 215.062   7
   4  -1   5 3794.29 297.177   6
   4  -1   5 2152.09 134.291   3
   4  -1   6 1834.79 187.434   5
  -4   1  -6 2172.41 239.171   4
   4  -1   6 2048.18 257.155   2
   4  -1   6 1743.96 152.907   7
   4  -1   6 1232.88 116.097   3
   4  -1   6 2046.93 231.100   6
  -4   1  -6 1913.76 221.447   2
  -4   1  -6 1855.66 187.335   5
   4  -1   7 14523.2 602.873   5
  -4   1  -7 14883.0 707.462   2
  -4   1  -7 16407.7 711.318   4
   4  -1   7 16723.8 729.201   6
   4  -1   7 14967.8 514.017   3
  -4   1  -7 15111.7 614.542   5
  -4   1  -8 1405.91 223.777   4
  -4   1  -8 970.347 195.653   2
   4  -1   8 940.277 178.987   6
   4  -1   9 3082.16 339.990   6
  -4   1  -9 2870.11 347.753   2
  -4   1 -10 612.654 184.965   2
   4  -1  10 891.430 195.789   6
   4   0 -12 510.272 163.421   2
  -4   0  12 398.365 125.589   6
   4   0 -11 109.098 83.7638   2
  -4   0  11-77.7580 77.9127   6
   4   0 -10 6.28088 23.6793   7
  -4   0  10-8.35605 47.0875   6
   4   0  -9 2178.81 282.882   2
  -4   0   9 1627.92 206.411   6
   4   0  -8 907.833 181.678   2
  -4   0   8 762.027 134.570   6
  -4   0   7 141.472 73.6604   2
   4   0  -7 251.681 88.3115   2
   4   0  -7 307.895 86.3168   6
  -4   0   7 271.237 64.4827   6
  -4   0   6 9602.54 527.459   2
   4   0  -6 8693.90 413.534   6
   4   0  -6 9720.05 495.613   2
   4   0  -5 7407.42 356.611   6
  -4   0   5 7717.72 427.051   2
   4   0  -5 7861.46 402.437   2
  -4   0   4 34266.5 948.627   2
   4   0  -4 33518.8 887.142   6
   4   0  -4 35850.6 917.898   2
  -4   0   3 13264.5 458.226   2
   4   0  -3 13009.4 424.642   2
  -4   0   2 765.270 77.9403   2
  -4   0   1 22.3453 14.4237   2
   4   0  -1 123.835 63.2633   4
   4   0   0 5211.60 302.989   4
  -4   0   0 4274.37 148.409   2
  -4   0   0 4473.83 150.180   3
  -4   0  -1 39828.9 952.055   5
   4   0   1 38812.2 1047.49   4
   4   0   1 37156.7 979.991   7
  -4   0  -1 38454.4 823.142   2
  -4   0  -2 33116.0 837.682   5
   4   0   2 33121.8 968.638   4
   4   0   2 33058.7 823.021   2
   4   0   2 31787.8 870.790   7
  -4   0  -2 32821.8 808.926   2
  -4   0  -3 13896.0 470.210   5
   4   0   3 14259.6 506.218   7
   4   0   3 14112.6 592.241   4
   4   0   3 12456.2 317.209   3
   4   0   3 14831.0 542.852   2
  -4   0  -3 14389.6 515.622   2
  -4   0  -4 39445.3 971.002   5
   4   0   4 41664.5 1194.86   4
  -4   0  -4 40252.4 1130.81   4
   4   0   4 39682.3 1134.58   2
   4   0   4 39015.4 991.319   7
   4   0   4 41082.8 1139.73   6
  -4   0  -4 40225.8 1102.75   2
   4   0   4 36168.4 808.219   3
   4   0   5 6.11400 48.0849   2
  -4   0  -5 21.1686 49.7609   5
   4   0   5 23.1419 25.5826   3
  -4   0  -5 149.889 84.7514   4
   4   0   5 92.0476 75.5475   6
  -4   0  -6 3709.87 318.789   4
   4   0   6 3319.97 339.944   2
   4   0   6 4228.62 345.786   6
  -4   0  -6 3509.39 321.154   2
   4   0   6 2197.60 170.866   3
  -4   0  -6 3340.34 236.792   5
  -4   0  -7 72.2632 59.3678   5
   4   0   7-211.348 67.4254   3
  -4   0  -7 40.8239 62.3222   2
  -4   0  -7 209.046 111.854   4
   4   0   7 120.551 86.8364   6
  -4   0  -8 2140.46 276.159   4
  -4   0  -8 1731.05 263.470   2
   4   0   8 1744.90 243.683   6
   4   0   9 2581.01 324.491   6
  -4   0  -9 2247.32 323.244   2
  -4   0 -10 469.444 165.654   2
   4   0  10 400.098 161.532   6
   4   1 -12 1165.23 243.106   2
  -4  -1  12 688.189 162.569   6
   4   1 -11 98.4883 106.689   2
  -4  -1  11-48.4111 62.2436   6
   4   1 -10 28.6314 30.4314   7
   4   1 -10-47.4756 72.2149   2
  -4  -1  10-16.9487 57.6484   6
   4   1  -9 13451.6 468.380   7
  -4  -1   9 13255.0 596.729   6
   4   1  -9 13969.9 726.477   2
   4   1  -8 9304.65 387.456   7
   4   1  -8 10125.2 484.290   6
   4   1  -8 10252.7 574.495   2
  -4  -1   8 9425.28 466.681   6
  -4  -1   7 1315.60 204.073   2
   4   1  -7 1146.90 127.773   7
   4   1  -7 1361.62 152.414   6
   4   1  -7 1227.72 178.703   2
   4   1  -6 6986.93 335.114   7
  -4  -1   6 7152.43 440.275   2
   4   1  -6 6608.98 334.119   6
   4   1  -6 7256.67 410.025   2
   4   1  -5 21498.3 669.520   7
  -4  -1   5 23550.3 797.536   2
   4   1  -5 21680.9 659.023   6
   4   1  -5 24068.0 738.952   2
   4   1  -4 2921.80 193.241   6
   4   1  -4 2788.69 206.014   7
  -4  -1   4 3071.39 226.594   2
   4   1  -4 2926.08 202.594   2
  -4  -1   3 7162.43 226.135   1
  -4  -1   3 7750.68 327.521   2
  -4  -1   2 39556.3 919.786   3
  -4  -1   2 40496.4 887.868   2
   4   1  -1 1691.59 170.129   4
   4   1  -1 1540.16 66.1776   1
  -4  -1   1 1630.30 115.844   3
   4   1   0 12370.0 499.985   4
  -4  -1   0 12787.5 413.355   2
  -4  -1   0 12149.4 337.235   3
  -4  -1  -1 28222.5 747.162   5
   4   1   1 29533.4 875.914   4
   4   1   1 29366.9 817.883   7
  -4  -1  -1 29345.0 767.216   2
   4   1   1 28266.2 633.940   3
  -4  -1  -1 27056.6 606.390   3
  -4  -1  -2 4288.41 234.957   5
   4   1   2 4256.48 262.863   7
   4   1   2 4333.29 304.585   4
  -4  -1  -2 4230.16 270.918   2
   4   1   2 4032.25 173.924   3
  -4  -1  -3 14462.0 475.278   5
  -4  -1  -3 14840.0 596.959   2
   4   1   3 15236.5 544.954   7
   4   1   3 15863.3 647.165   4
  -4  -1  -3 15106.6 608.157   4
   4   1   3 14343.7 411.672   3
  -4  -1  -4 5.07228 28.5859   5
   4   1   4-26.4381 27.9307   3
   4   1   4 92.1336 74.6677   6
   4   1   4-6.24863 45.0335   2
  -4  -1  -5 13775.7 466.875   5
  -4  -1  -5 13930.6 662.615   2
  -4  -1  -5 14345.1 632.019   4
   4   1   5 13722.0 682.338   2
   4   1   5 15473.8 671.021   6
  -4  -1  -6 173.005 55.0821   5
   4   1   6 212.825 57.1628   3
  -4  -1  -6 164.055 75.1702   2
  -4  -1  -6 335.413 103.771   4
   4   1   6 358.139 111.166   6
  -4  -1  -7 2230.74 268.245   4
  -4  -1  -7 1697.09 250.231   2
   4   1   7 2258.44 273.289   6
   4   1   7 1878.35 184.500   3
  -4  -1  -7 1820.94 176.800   5
  -4  -1  -8-67.0088 100.198   2
  -4  -1  -8 361.341 132.474   4
   4   1   8 153.701 104.762   6
  -4  -1  -9 204.285 117.010   2
   4   1   9 373.825 132.455   6
   4   2 -12 401.343 150.258   2
  -4  -2  12 299.624 104.520   6
   4   2 -11 901.220 199.402   2
  -4  -2  11 932.705 165.109   6
   4   2 -10 183.994 97.6380   2
  -4  -2  10 91.0623 60.4075   6
   4   2  -9 1756.08 146.041   7
   4   2  -9 2112.65 211.716   6
  -4  -2   9 2076.86 208.218   6
   4   2  -9 2263.07 274.126   2
   4   2  -8 5011.20 272.537   7
   4   2  -8 5626.47 328.460   6
   4   2  -8 5540.59 400.631   2
   4   2  -7 7226.33 341.245   7
  -4  -2   7 7780.94 501.663   2
   4   2  -7 7297.11 352.971   6
   4   2  -7 7632.35 446.452   2
  -4  -2   6 1403.32 187.470   2
   4   2  -6 1380.45 134.940   6
   4   2  -6 1314.86 165.449   2
  -4  -2   5 6802.87 306.935   1
  -4  -2   5 6781.86 385.544   2
   4   2  -5 6510.76 298.946   6
  -4  -2   4 305.132 82.1211   4
  -4  -2   4 315.715 54.4715   1
  -4  -2   4 351.321 77.2413   2
  -4  -2   3 25504.0 778.504   4
  -4  -2   3 24366.1 705.295   3
  -4  -2   3 24758.6 552.487   1
  -4  -2   3 23175.4 683.632   2
  -4  -2   2-0.15838 23.1603   3
   4   2  -2 17.8582 19.5432   1
  -4  -2   2-14.3777 33.6933   4
   4   2  -1 73.1141 23.0274   1
  -4  -2   1 41.3953 25.9261   3
   4   2  -1 10.1290 29.3813   4
  -4  -2   1 18.6747 43.2009   4
  -4  -2   1 30.0630 24.0187   7
   4   2   0 1266.69 158.193   4
  -4  -2   0 1374.11 153.960   4
  -4  -2   0 1360.08 157.815   7
   4   2   0 1374.51 123.076   3
  -4  -2   0 1219.25 104.869   3
   4   2   1 3990.15 287.864   4
  -4  -2  -1 3905.84 267.073   4
  -4  -2  -1 3586.72 264.521   2
  -4  -2  -1 4292.11 289.082   7
   4   2   1 3910.52 262.836   7
   4   2   1 3898.62 203.544   3
  -4  -2  -1 3815.62 192.759   3
  -4  -2  -2 91.9163 60.9773   2
   4   2   2 41.0155 28.4131   3
  -4  -2  -2-52.4507 56.9197   4
  -4  -2  -2 5.51961 34.5467   5
  -4  -2  -2 9.46906 29.8603   3
   4   2   2-32.8440 58.8312   4
  -4  -2  -2 1.07977 31.2023   7
  -4  -2  -3 1331.04 122.670   5
   4   2   3 1277.04 177.809   4
  -4  -2  -3 1398.08 165.115   7
  -4  -2  -3 1290.24 168.844   4
   4   2   3 1529.70 186.971   6
   4   2   3 1352.33 124.467   3
  -4  -2  -4 8793.03 339.480   5
  -4  -2  -4 10191.4 479.790   7
  -4  -2  -4 10190.4 514.686   4
  -4  -2  -4 10026.1 559.790   2
   4   2   4 11450.1 554.663   6
  -4  -2  -5 4718.79 241.462   5
  -4  -2  -5 5322.76 384.104   4
   4   2   5 4654.49 421.590   2
  -4  -2  -5 4841.23 412.641   2
   4   2   5 5321.63 392.502   6
   4   2   5 3065.27 225.050   3
  -4  -2  -6 3140.09 356.660   2
  -4  -2  -6 2855.66 299.128   4
   4   2   6 3559.74 340.575   6
   4   2   6 2758.53 224.126   3
  -4  -2  -6 2746.52 189.627   5
  -4  -2  -7 1129.63 221.830   2
  -4  -2  -7 1408.25 225.135   4
   4   2   7 1251.41 216.773   6
   4   2   8 1336.26 244.120   6
  -4  -2  -8 948.600 228.983   2
  -4  -2  -8 1363.06 237.773   4
  -4  -2  -9-59.4980 79.7371   2
   4   2   9 176.333 117.005   6
   4   3 -12-58.6376 82.7766   2
  -4  -3  12 10.2060 53.6631   6
   4   3 -11 162.216 90.7986   2
  -4  -3  11 217.853 81.8590   6
   4   3 -10 1145.80 203.595   2
   4   3 -10 1067.45 148.759   6
   4   3  -9 469.165 117.052   2
   4   3  -9 297.008 71.0736   6
   4   3  -8-63.0465 72.9692   2
  -4  -3   8 53.7583 61.8281   1
   4   3  -8 65.1858 38.0896   6
  -4  -3   7 2149.35 206.100   1
   4   3  -7 2093.40 169.594   6
  -4  -3   6 311.883 97.0489   2
   4   3  -6 230.724 50.8450   6
  -4  -3   5-28.7963 41.2991   3
  -4  -3   5 65.3255 39.9565   1
  -4  -3   5 7.31234 35.3621   2
   4   3  -5 27.4126 27.3664   6
  -4  -3   4 5234.11 316.998   7
  -4  -3   4 5514.10 338.715   4
  -4  -3   4 5540.27 242.459   1
  -4  -3   4 5486.26 323.469   2
  -4  -3   3 2571.44 219.716   4
   4   3  -3 2588.55 167.146   1
  -4  -3   3 2536.19 219.275   7
   4   3  -2 2570.43 224.789   4
  -4  -3   2 2737.90 221.468   4
  -4  -3   2 2739.21 231.485   7
   4   3  -2 2484.42 145.067   1
  -4  -3   2 2469.12 186.427   3
   4   3  -1 22597.0 738.957   4
  -4  -3   1 22568.3 716.678   4
  -4  -3   1 22220.2 744.916   7
   4   3  -1 22999.6 677.106   3
  -4  -3   1 21045.1 625.627   3
   4   3  -1 21331.6 537.064   1
   4   3   0 4293.56 296.541   4
  -4  -3   0 4278.86 282.880   4
  -4  -3   0 4374.82 299.468   7
   4   3   0 4450.06 255.709   3
  -4  -3   0 3968.64 226.746   3
   4   3   1-16.0196 28.1045   3
  -4  -3  -1 35.8202 26.7971   3
   4   3   1 36.4791 39.0256   4
  -4  -3  -1-52.8344 57.3086   4
  -4  -3  -1-31.4012 49.8989   7
   4   3   1 42.6012 42.1016   6
  -4  -3  -2 12564.1 436.184   5
   4   3   2 13665.9 604.790   4
  -4  -3  -2 14047.9 581.765   4
   4   3   2 14041.3 586.720   6
  -4  -3  -2 13681.6 577.854   7
   4   3   2 12938.6 470.469   3
  -4  -3  -2 12533.5 461.620   3
  -4  -3  -3 439.528 102.120   7
  -4  -3  -3 468.651 132.282   2
   4   3   3 503.601 90.9460   3
  -4  -3  -3 378.016 65.6055   5
  -4  -3  -3 652.965 132.351   4
   4   3   3 594.042 128.317   6
  -4  -3  -4 4602.12 225.011   5
  -4  -3  -4 5356.72 375.894   4
  -4  -3  -4 5718.39 376.160   7
  -4  -3  -4 4937.48 431.331   2
   4   3   4 5789.20 403.251   6
   4   3   4 5446.15 311.659   3
  -4  -3  -5 3252.25 185.284   5
  -4  -3  -5 4111.15 349.448   4
  -4  -3  -5 3674.72 388.381   2
   4   3   5 4300.09 365.878   6
   4   3   5 4109.56 285.648   3
  -4  -3  -6 174.392 44.8947   5
  -4  -3  -6 169.151 101.165   2
  -4  -3  -6 152.624 79.6293   4
   4   3   6 318.954 124.743   6
  -4  -3  -7 274.799 145.970   2
  -4  -3  -7 299.900 130.250   4
   4   3   7 306.167 122.768   6
  -4  -3  -8-50.1313 76.2941   2
  -4  -3  -8 135.151 118.038   4
   4   3   8 152.767 101.557   6
  -4  -4  12 192.386 106.379   1
   4   4 -12 111.098 73.7642   2
  -4  -4  11 234.004 92.0590   1
   4   4 -11 491.187 139.554   2
  -4  -4  10-137.803 97.1245   1
   4   4 -10 0.66901 28.1302   6
  -4  -4   9 1474.62 199.889   1
   4   4  -9 1387.44 146.546   6
  -4  -4   9 1584.33 225.275   3
  -4  -4   8 317.952 100.479   3
  -4  -4   8 445.069 107.694   1
   4   4  -8 290.374 48.1927   6
  -4  -4   7 896.334 155.503   3
  -4  -4   7 1191.31 148.099   1
   4   4  -7 849.978 98.8180   6
  -4  -4   6 3538.33 264.942   7
  -4  -4   6 3541.50 236.308   1
   4   4  -6 3279.18 187.440   6
  -4  -4   6 3561.24 294.522   3
  -4  -4   6 3730.63 320.907   2
  -4  -4   5 2080.38 216.295   4
  -4  -4   5 1951.17 198.465   7
   4   4  -5 1873.59 138.138   6
  -4  -4   5 1967.91 208.075   3
  -4  -4   5 2135.24 220.432   2
   4   4  -4 4270.81 260.174   1
  -4  -4   4 4410.48 305.093   4
  -4  -4   4 4265.06 300.149   7
  -4  -4   4 4310.29 295.993   3
  -4  -4   4 4320.54 299.309   2
  -4  -4   3 4178.05 283.887   4
   4   4  -3 4295.88 237.327   1
  -4  -4   3 3947.13 290.513   7
  -4  -4   3 4167.78 274.422   3
   4   4  -2 200.843 64.0152   3
   4   4  -2 204.498 46.8894   1
  -4  -4   2 141.606 42.2070   4
  -4  -4   2 201.104 69.1660   7
   4   4  -2 142.837 42.7154   6
   4   4  -1 6670.92 380.508   4
  -4  -4   1 6814.29 361.352   4
  -4  -4   1 6716.13 394.217   7
   4   4  -1 6462.42 360.126   3
   4   4  -1 6728.39 277.753   1
   4   4   0 255.838 76.1320   3
   4   4   0 242.146 88.5142   4
  -4  -4   0 237.891 73.9558   4
  -4  -4   0 147.230 69.8530   7
   4   4   1 5381.76 362.488   4
  -4  -4  -1 5437.07 336.277   4
  -4  -4  -1 4981.07 394.507   2
   4   4   1 5620.80 342.964   6
   4   4   1 4897.27 299.970   3
  -4  -4  -2 28.6973 65.1225   2
   4   4   2-29.1532 30.3782   3
  -4  -4  -2-48.8690 44.2865   3
   4   4   2-22.3992 46.2051   4
  -4  -4  -2-25.9482 44.7790   4
   4   4   2-45.3445 62.0135   6
   4   4   3 1335.36 193.187   6
  -4  -4  -3 1212.10 112.898   5
  -4  -4  -3 1213.66 215.925   2
   4   4   3 1098.21 149.256   3
  -4  -4  -3 1182.14 150.335   3
  -4  -4  -3 1367.26 188.072   4
  -4  -4  -4 2852.86 160.534   5
  -4  -4  -4 2642.04 345.790   2
  -4  -4  -4 3588.27 314.745   4
   4   4   4 3934.76 344.291   6
   4   4   4 3358.20 271.511   3
  -4  -4  -5 967.593 210.767   2
  -4  -4  -5 949.149 174.823   4
   4   4   5 1126.11 201.550   6
  -4  -4  -5 608.259 68.8125   5
  -4  -4  -6 452.236 156.547   2
  -4  -4  -6 944.951 184.737   4
   4   4   6 603.337 161.361   6
   4   4   7 2156.64 308.717   6
  -4  -4  -7 1807.11 324.949   2
  -4  -4  -7 2791.31 323.188   4
  -4  -5  12 357.824 133.379   3
  -4  -5  12 250.206 107.664   1
  -4  -5  11 156.682 98.5920   3
  -4  -5  11 297.059 118.744   1
  -4  -5  10 2981.33 300.477   1
  -4  -5  10 2661.36 314.858   3
  -4  -5   9 3714.09 310.296   1
   4   5  -9 2993.67 188.107   6
  -4  -5   9 3301.70 332.209   3
  -4  -5   8 104.697 71.5390   3
   4   5  -8 204.253 48.5864   6
  -4  -5   8 207.856 72.5750   1
  -4  -5   7 760.688 159.745   3
  -4  -5   7 455.700 93.9351   7
  -4  -5   7 710.845 115.676   1
   4   5  -7 699.754 75.8904   6
  -4  -5   6 2852.54 268.267   4
  -4  -5   6 2656.10 243.396   7
   4   5  -6 2390.50 138.621   6
  -4  -5   6 2807.43 217.746   1
  -4  -5   6 2830.80 275.789   3
  -4  -5   5 58.7573 46.3572   1
  -4  -5   5-14.8277 52.5567   4
  -4  -5   5-16.5443 53.2762   7
   4   5  -5 21.1988 26.4321   6
  -4  -5   4 9760.07 495.680   7
  -4  -5   4 10682.9 481.529   4
   4   5  -4 10124.1 439.150   1
   4   5  -4 8801.50 327.533   6
  -4  -5   4 9727.00 480.555   3
  -4  -5   3 1678.67 179.467   4
   4   5  -3 1974.90 148.743   6
   4   5  -3 1782.96 161.978   1
  -4  -5   3 1661.12 185.308   3
   4   5  -3 1748.20 202.997   3
  -4  -5   2 9615.12 442.228   4
   4   5  -2 9277.25 384.346   1
   4   5  -2 10269.9 500.006   3
   4   5  -2 9955.88 395.352   6
  -4  -5   2 9138.63 444.027   3
   4   5  -1 10516.1 499.367   4
  -4  -5   1 10563.9 466.164   4
   4   5  -1 10742.4 504.615   3
  -4  -5   1 9929.49 463.564   3
   4   5  -1 10764.5 404.425   1
   4   5   0 546.789 107.523   3
  -4  -5   0 529.598 101.306   3
   4   5   0 495.450 113.697   4
  -4  -5   0 512.682 105.567   4
   4   5   0 395.661 91.5776   6
   4   5   1 172.992 67.8305   3
  -4  -5  -1 89.6726 58.1414   4
   4   5   1 134.383 59.0020   6
  -4  -5  -1 48.5371 57.1036   3
   4   5   1 47.5581 58.7489   4
  -4  -5  -1 35.1640 73.6157   2
  -4  -5  -2-60.7556 70.6266   2
  -4  -5  -2 13.6855 39.6570   3
  -4  -5  -2 77.1595 71.6600   4
   4   5   2 38.8102 57.7173   6
  -4  -5  -3 127.571 102.458   2
  -4  -5  -3 29.4324 25.9741   5
  -4  -5  -3-90.4718 57.3262   3
  -4  -5  -3 26.9873 60.6567   4
   4   5   3-1.05485 49.6140   6
  -4  -5  -4 94.9914 28.7957   5
  -4  -5  -4 142.776 111.706   2
  -4  -5  -4 184.031 91.6037   4
   4   5   4 120.315 76.0780   6
  -4  -5  -5-13.2402 72.6344   2
  -4  -5  -5 112.791 74.2436   4
   4   5   5 99.1676 84.8969   6
  -4  -5  -6 231.235 121.751   2
  -4  -5  -6 466.625 143.863   4
   4   5   6 431.181 139.341   6
  -4  -5  -7 590.511 222.026   2
   4   5   7 581.299 172.632   6
  -4  -6  12 101.523 96.4209   3
  -4  -6  12 33.2318 76.2839   1
  -4  -6  11 308.176 132.051   3
  -4  -6  11 63.7505 84.9555   1
  -4  -6  10 423.532 136.644   3
  -4  -6  10 571.537 136.114   1
  -4  -6   9 313.332 105.000   3
  -4  -6   9 110.315 53.7582   1
  -4  -6   8 230.941 95.0345   3
  -4  -6   8 180.982 50.2307   1
  -4  -6   7 514.814 139.580   3
  -4  -6   7 652.889 148.773   4
  -4  -6   7 351.383 90.4968   1
  -4  -6   6 240.601 79.6334   1
  -4  -6   6-83.9984 75.2223   3
  -4  -6   6 245.294 96.6668   4
   4   6  -6 72.3137 18.9778   6
   4   6  -6 79.5034 17.8904   6
  -4  -6   5 535.310 122.054   3
  -4  -6   5 556.865 118.499   4
   4   6  -5 489.405 55.3387   6
   4   6  -5 438.518 54.5647   6
  -4  -6   4 2179.06 213.919   4
   4   6  -4 2307.55 216.185   1
   4   6  -4 2020.53 138.119   6
  -4  -6   4 2318.21 239.871   3
  -4  -6   3 3874.73 281.342   4
   4   6  -3 4110.63 270.304   1
   4   6  -3 3887.61 222.235   6
  -4  -6   3 4206.61 320.759   3
  -4  -6   2 42.6382 46.1490   3
  -4  -6   2 1.72774 44.9436   4
   4   6  -2 57.7783 39.4382   1
  -4  -6   1 625.141 120.658   3
   4   6  -1 703.668 129.356   4
  -4  -6   1 595.820 101.527   4
   4   6  -1 563.520 101.745   6
   4   6   0 9739.35 504.194   4
  -4  -6   0 10010.6 478.351   4
   4   6   0 10437.0 487.658   6
  -4  -6   0 9238.68 480.027   3
   4   6   1 3271.95 295.638   4
  -4  -6  -1 3557.36 289.514   4
  -4  -6  -1 2815.92 357.386   2
   4   6   1 3408.90 295.842   6
  -4  -6  -1 3289.97 283.737   3
  -4  -6  -2 5130.86 362.232   4
  -4  -6  -2 3704.57 418.748   2
   4   6   2 5596.12 399.069   6
  -4  -6  -2 4551.89 346.129   3
  -4  -6  -3 151.576 109.143   2
  -4  -6  -3 63.6338 27.2999   5
  -4  -6  -3 79.5403 60.0933   3
  -4  -6  -3 219.767 98.1350   4
   4   6   3 74.2627 64.0165   6
  -4  -6  -4 23.2957 78.8963   2
  -4  -6  -4-52.4184 63.0956   4
   4   6   4-16.1728 61.7276   6
  -4  -6  -5 2.61539 99.2293   2
  -4  -6  -5 23.8526 52.9064   4
   4   6   5 116.269 88.2502   6
  -4  -6  -6-181.044 156.342   2
  -4  -6  -6 130.000 73.8195   4
   4   6   6-63.2940 106.878   6
  -4  -7  11-58.6065 72.7777   3
  -4  -7  11 20.4458 83.0508   1
  -4  -7  10 740.034 180.610   3
  -4  -7  10 681.981 144.208   1
  -4  -7   9 1098.60 211.917   3
  -4  -7   9 1075.88 170.650   1
  -4  -7   8 6181.40 449.020   4
  -4  -7   8 5963.45 385.553   1
  -4  -7   8 6615.12 481.237   3
  -4  -7   7 187.979 86.3902   3
  -4  -7   7 327.693 98.9654   1
  -4  -7   7 298.712 112.779   4
  -4  -7   6 33.7851 58.3453   3
  -4  -7   6-67.2689 63.1648   4
  -4  -7   5 4483.32 313.100   4
  -4  -7   5 5105.93 384.109   3
  -4  -7   4 691.275 153.440   3
  -4  -7   4 450.923 99.8573   4
   4   7  -4 521.251 71.7877   6
  -4  -7   3 11198.9 498.926   4
   4   7  -3 12567.8 443.088   6
  -4  -7   3 12272.4 602.157   3
  -4  -7   2 1427.52 159.829   4
  -4  -7   2 1944.19 227.631   3
   4   7  -1 803.598 142.950   4
  -4  -7   1 772.183 139.749   3
  -4  -7   1 776.844 129.421   4
   4   7  -1 1034.07 144.400   6
  -4  -7   0 912.303 145.732   4
  -4  -7   0 923.317 162.779   3
   4   7   0 908.372 149.033   4
  -4  -7   0 603.664 159.341   2
   4   7   0 770.290 141.621   6
  -4  -7  -1 130.062 70.7228   4
  -4  -7  -1-39.2812 56.8499   3
   4   7   1 43.7409 52.4221   6
  -4  -7  -1 65.5480 60.2526   2
  -4  -7  -2 33.3125 101.430   2
  -4  -7  -2 52.5161 59.7630   3
  -4  -7  -2 161.984 83.8506   4
   4   7   2 243.696 102.565   6
  -4  -7  -3 67.3473 114.862   2
  -4  -7  -3 49.2523 63.1949   3
  -4  -7  -3 66.0712 83.7672   4
   4   7   3 151.571 94.2838   6
  -4  -7  -4 441.700 194.103   2
  -4  -7  -4 513.023 151.587   3
  -4  -7  -4 420.545 115.105   4
   4   7   4 373.100 134.326   6
  -4  -8  10 67.5554 79.3936   3
  -4  -8  10 294.070 108.605   1
  -4  -8   9 304.684 120.908   3
  -4  -8   9 209.519 100.033   4
  -4  -8   9 107.522 62.8886   1
  -4  -8   8 324.647 120.278   3
  -4  -8   8 388.473 117.452   4
  -4  -8   8 385.374 103.344   1
  -4  -8   7 4834.33 365.849   4
  -4  -8   7 5303.46 436.998   3
  -4  -8   6 1696.68 240.165   3
  -4  -8   6 1598.54 194.420   4
  -4  -8   5 464.584 144.084   3
  -4  -8   5 417.022 101.021   4
  -4  -8   4 1519.13 222.428   3
  -4  -8   4 1489.79 173.806   4
   4   8  -4 1208.89 103.752   6
  -4  -8   3 1425.93 210.450   3
  -4  -8   3 1291.61 159.453   4
  -4  -8   2 206.352 83.7371   3
  -4  -8   2 102.068 51.1007   4
   4   8  -2 410.827 94.5747   6
  -4  -8   1 2988.12 255.653   4
   4   8  -1 3657.09 286.947   6
  -4  -8   1 3034.79 309.629   3
  -4  -8   0 49.7751 53.8365   4
  -4  -8   0 305.798 111.819   3
   4   8   0 108.146 77.1179   6
  -4  -8   0 125.454 117.941   2
  -4  -8  -1 228.353 100.665   3
  -4  -8  -1 319.697 89.3470   4
   4   8   1 549.189 134.613   6
  -4  -8  -1 203.318 147.260   2
  -4  -8  -2 1226.69 283.292   2
  -4  -8  -2 2157.49 239.197   4
   4   8   2 2359.79 286.433   6
  -4  -8  -2 1980.72 270.873   3
  -4  -8  -3 150.409 121.211   2
  -4  -8  -3-21.9913 64.3710   3
   4   8   3-34.0294 66.0385   6
  -4  -9   9 377.080 115.189   1
  -4  -9   9 467.857 158.174   3
  -4  -9   8 663.312 181.362   3
  -4  -9   7 373.194 135.212   3
  -4  -9   6-85.1832 81.2992   3
  -4  -9   5 84.3047 55.9091   3
  -4  -9   4-14.9591 95.6655   3
  -4  -9   3-47.3026 74.3156   3
  -4  -9   2 463.205 142.774   3
   4   9  -2 225.924 74.5379   6
  -4  -9   1 436.578 132.370   3
   4   9  -1 289.437 87.4578   6
  -4  -9   0 366.000 136.631   3
   4   9   0 288.410 95.4440   6
  -4  -9   0 165.739 110.494   2
  -4  -9  -1-68.1978 111.464   2
  -4  -9  -1 64.7282 59.5304   3
   4   9   1-39.1598 52.3097   6
  -4 -10   7 936.163 215.542   3
  -4 -10   6-55.5147 81.2471   3
  -4 -10   5 320.745 109.729   3
  -4 -10   4 975.481 207.714   3
  -4 -10   3 303.494 129.338   3
  -4 -10   2 788.109 187.766   3
   5 -10  -2 108.796 90.4228   2
  -5  10   2 30.2529 51.1028   5
   5 -10  -1 41.0401 92.6993   2
   5 -10  -1-25.9561 79.1498   3
  -5  10   1 56.0034 70.2671   5
  -5  10   0 244.739 97.6284   5
   5 -10   0 542.489 162.077   3
   5 -10   0 355.462 147.467   2
  -5  10  -1-20.3056 68.8021   5
   5 -10   1 113.908 98.1209   3
   5 -10   1-103.349 112.597   2
  -5  10  -2 840.749 185.914   5
   5 -10   2 708.567 165.261   3
   5 -10   3 363.604 136.458   3
  -5  10  -3 482.898 155.402   5
   5 -10   4 315.020 124.197   3
   5 -10   5 443.571 139.914   3
   5  -9  -4 8.96934 100.380   2
  -5   9   3 663.927 141.008   5
   5  -9  -3 836.054 248.975   2
   5  -9  -2 70.3966 73.7110   2
  -5   9   2 210.181 72.9743   5
   5  -9  -1 137.101 103.492   2
  -5   9   1-17.4498 62.7643   5
   5  -9  -1-2.43729 60.1479   3
  -5   9   0 74.1288 56.6094   5
   5  -9   0 191.912 89.9535   3
   5  -9   0 44.1736 81.6306   2
  -5   9  -1 167.680 92.6687   5
   5  -9   1 405.762 114.678   3
   5  -9   1 239.176 108.738   2
  -5   9  -2 1105.81 208.257   5
   5  -9   2 1472.31 211.383   3
   5  -9   3 2476.27 279.596   3
  -5   9  -3 2327.90 310.102   5
   5  -9   4 4264.10 357.543   3
  -5   9  -4 3776.08 393.212   5
  -5   9  -5 585.257 163.736   5
   5  -9   5 515.995 138.550   3
   5  -9   6 97.4118 74.8550   3
   5  -9   6 120.691 70.2059   1
   5  -9   7 65.4203 75.8503   1
   5  -8  -6 144.270 133.341   2
   5  -8  -5 590.783 202.569   2
  -5   8   4 201.035 79.8167   5
   5  -8  -4 323.151 139.079   2
  -5   8   3 853.858 142.892   5
   5  -8  -3 865.204 214.394   2
   5  -8  -2 546.470 180.347   2
  -5   8   2 698.806 135.384   5
  -5   8   2 535.260 84.1612   4
   5  -8  -1 2149.41 260.831   3
   5  -8  -1 1943.10 294.535   2
  -5   8   1 1349.43 111.674   4
  -5   8   1 1730.81 210.605   5
  -5   8   0 77.8396 53.7569   5
   5  -8   0 152.002 70.6017   3
  -5   8   0 96.4228 29.3283   4
   5  -8   0 100.802 83.3337   2
  -5   8  -1 66.8063 60.8079   5
   5  -8   1 35.3749 50.7996   3
  -5   8  -1 73.1724 31.4746   4
  -5   8  -2 104.179 79.4701   5
   5  -8   2 15.4755 52.8693   3
  -5   8  -2 16.2718 32.7832   4
  -5   8  -3 326.990 111.303   5
   5  -8   3 456.021 113.407   3
  -5   8  -3 279.993 61.9315   4
  -5   8  -4 11.4783 63.6645   5
   5  -8   4 65.7114 66.2251   3
   5  -8   5 1799.84 216.909   1
  -5   8  -5 1807.06 277.608   5
   5  -8   5 1785.21 214.763   3
  -5   8  -6 314.023 133.671   5
   5  -8   6 118.687 81.6169   1
   5  -8   6 258.764 96.3153   3
   5  -8   7 50.4068 65.0655   1
   5  -8   7 44.5452 66.3882   6
  -5   8  -7 69.7869 74.0321   5
   5  -8   8-38.8411 56.2909   1
   5  -7  -7 16.1583 109.329   2
  -5   7   7 56.4853 58.3181   6
   5  -7  -6 244.311 143.052   2
  -5   7   5 161.821 58.3529   5
   5  -7  -5 319.654 151.137   2
  -5   7   4 15.4369 40.7784   5
   5  -7  -4-10.7326 84.2789   2
  -5   7   4 65.3117 62.8826   4
  -5   7   3 382.793 92.6889   5
   5  -7  -3 442.462 144.773   2
   5  -7  -2 404.868 141.944   2
  -5   7   2 452.698 104.762   5
  -5   7   2 375.018 85.5415   4
  -5   7   1 1828.35 210.594   5
   5  -7  -1 1588.89 250.756   2
  -5   7   1 1776.47 150.227   4
   5  -7  -1 1581.24 199.968   3
  -5   7   0 1407.52 184.721   5
  -5   7   0 1406.25 125.719   4
   5  -7   0 1472.53 191.191   3
   5  -7   0 1471.42 230.992   2
  -5   7  -1 188.289 52.9692   5
  -5   7  -1 416.056 89.9698   3
   5  -7   1 440.450 99.3421   3
  -5   7  -1 350.347 65.0374   4
  -5   7  -2 1379.57 192.472   5
  -5   7  -2 1649.35 149.958   4
   5  -7   2 1949.67 214.176   3
  -5   7  -2 1732.27 195.225   3
  -5   7  -3 693.839 119.211   3
  -5   7  -3 715.275 159.288   5
   5  -7   3 709.719 132.374   2
   5  -7   3 851.747 137.280   3
   5  -7   3 633.243 106.817   4
  -5   7  -4 49.2502 50.5962   3
  -5   7  -4 85.4773 82.8056   5
   5  -7   4 111.741 66.2147   1
   5  -7   4 112.790 63.3405   3
   5  -7   4 17.1132 50.2286   4
   5  -7   4 98.5840 68.3688   2
   5  -7   5 2096.24 230.330   4
  -5   7  -5 2257.53 204.929   4
   5  -7   5 1650.42 224.749   2
   5  -7   5 2321.27 229.828   1
   5  -7   5 2250.03 214.670   3
  -5   7  -5 2101.93 275.055   5
  -5   7  -6 168.475 107.384   5
   5  -7   6 106.669 59.5548   3
  -5   7  -6 293.321 95.4001   4
   5  -7   6 205.416 76.1549   1
  -5   7  -7-19.3429 72.1130   5
   5  -7   7 62.8706 41.5727   3
   5  -7   7-66.5308 77.4607   1
   5  -7   7-18.6564 55.0130   6
   5  -7   8 149.602 74.5630   1
   5  -7   8 110.677 76.3631   6
   5  -7   9 69.7416 84.3697   6
   5  -7   9-48.5914 59.1814   1
   5  -6  -8-98.5054 86.6669   2
  -5   6   8-13.5347 69.2998   6
   5  -6  -7 965.940 237.097   2
  -5   6   7 1009.12 197.425   6
  -5   6   6 1990.03 178.012   5
   5  -6  -6 2195.65 332.966   2
  -5   6   5 648.586 104.893   5
   5  -6  -5 977.841 217.664   2
  -5   6   4 9.82338 37.9681   5
   5  -6  -4 1.12863 56.1876   2
  -5   6   4 84.4227 73.7951   4
  -5   6   3 5555.43 326.320   5
   5  -6  -3 6112.56 477.364   2
   5  -6  -2 121.883 85.3000   2
  -5   6   2 174.771 70.9548   5
  -5   6   2 119.917 58.4877   1
   5  -6  -1 443.092 117.666   2
  -5   6   1 560.034 95.3116   1
  -5   6   1 536.049 108.039   5
  -5   6   1 585.387 112.954   3
  -5   6   1 472.318 84.4271   4
  -5   6   0 4649.18 321.614   5
  -5   6   0 4656.98 259.999   4
   5  -6   0 4668.61 359.007   2
  -5   6   0 4770.53 287.416   1
  -5   6   0 4981.56 311.492   3
   5  -6   0 5011.73 327.354   3
  -5   6  -1 434.577 106.856   5
  -5   6  -1 320.310 72.8947   3
   5  -6   1 316.490 79.3281   3
   5  -6   1 355.504 89.8973   6
  -5   6  -1 251.405 47.6208   4
  -5   6  -1 313.957 82.9586   1
  -5   6  -2 247.659 74.2890   3
  -5   6  -2 46.9470 52.9693   5
  -5   6  -2 175.750 65.9333   1
   5  -6   2 171.594 65.4728   3
   5  -6   2 33.7567 39.7434   4
  -5   6  -3 143.738 55.8375   3
   5  -6   3 99.1511 44.5536   2
  -5   6  -3 1.52611 65.2772   5
   5  -6   3 294.388 84.8656   1
   5  -6   3 109.387 57.3441   3
   5  -6   3 162.612 65.7983   4
  -5   6  -4 14.9467 72.3628   5
   5  -6   4 39.1830 49.8636   3
   5  -6   4 4.66343 38.2962   1
   5  -6   4 99.8505 72.9388   4
  -5   6  -4-15.1890 47.7308   4
  -5   6  -4 68.0220 41.8193   3
   5  -6   4-54.9197 44.7363   2
  -5   6  -5 139.215 89.2944   5
   5  -6   5 149.209 54.1045   3
   5  -6   5 227.513 86.2539   1
   5  -6   5 104.348 55.6017   2
  -5   6  -5 258.455 79.7139   4
  -5   6  -6 273.459 107.567   5
   5  -6   6 205.965 98.2601   2
   5  -6   6 309.357 76.1821   3
   5  -6   6 162.118 60.1768   1
   5  -6   6 211.977 100.484   6
  -5   6  -6 332.635 96.8874   4
   5  -6   7 1397.96 190.767   1
  -5   6  -7 1289.34 225.981   5
  -5   6  -7 1436.31 196.571   4
   5  -6   7 1327.60 194.197   6
   5  -6   7 1345.37 157.512   3
   5  -6   8 126.153 81.9309   6
   5  -6   8 55.3949 51.8928   1
  -5   6  -8 92.3722 74.5463   5
   5  -6   9 94.6207 74.7984   1
   5  -6   9 71.7105 79.4406   6
   5  -5  -9 220.590 171.578   2
  -5   5   9 94.9875 89.0946   6
   5  -5  -8 3.68959 78.2197   2
  -5   5   8-73.3795 90.9902   6
  -5   5   7 6.93547 35.5450   5
   5  -5  -7 108.880 91.2975   2
  -5   5   7-26.0857 48.3133   6
  -5   5   6 121.346 44.8242   5
   5  -5  -6 176.959 110.664   2
  -5   5   5 2278.93 189.508   5
   5  -5  -5 2815.71 330.544   2
  -5   5   4 637.249 97.6783   5
   5  -5  -4 542.783 146.389   2
  -5   5   3 4467.04 279.975   5
   5  -5  -3 5234.06 403.029   2
  -5   5   2 2135.73 195.751   5
  -5   5   2 2239.36 172.012   1
   5  -5  -2 2181.29 239.973   2
  -5   5   2 2106.87 203.712   3
  -5   5   1 6757.87 313.027   1
  -5   5   1 6699.33 362.834   5
   5  -5  -1 6282.06 389.551   2
   5  -5  -1 6376.87 375.108   6
  -5   5   1 6652.79 352.999   3
  -5   5   0 6593.99 368.476   5
   5  -5   0 6381.57 368.355   6
   5  -5   0 6033.14 363.032   2
  -5   5   0 6210.02 304.232   1
  -5   5   0 6914.25 341.368   3
   5  -5   0 6631.91 374.879   5
  -5   5  -1 452.978 104.168   5
  -5   5  -1 444.442 79.7590   3
  -5   5  -1 472.361 89.4288   1
   5  -5   1 484.964 84.2872   3
   5  -5   1 357.015 76.4756   4
  -5   5  -2 9518.66 470.363   5
   5  -5   2 9083.07 429.689   4
  -5   5  -2 8485.69 340.943   3
   5  -5   2 9307.13 366.379   3
  -5   5  -3 99.6363 40.2647   3
  -5   5  -3 88.9804 58.0947   5
   5  -5   3 143.364 49.5899   3
   5  -5   3 75.7162 43.8775   1
   5  -5   3 139.565 62.4193   4
  -5   5  -3 185.647 75.9766   4
   5  -5   3 12.3908 27.5759   2
  -5   5  -4-86.6208 92.5959   5
  -5   5  -4 16.9225 46.7940   4
   5  -5   4 60.8383 30.5841   3
   5  -5   4-33.4242 82.4025   4
   5  -5   4 12.4924 34.7540   1
   5  -5   4 25.2565 27.4847   2
  -5   5  -5 1498.96 207.056   5
  -5   5  -5 1385.41 175.236   4
   5  -5   5 1599.99 178.957   1
   5  -5   5 1468.61 186.080   2
   5  -5   5 1338.93 128.136   3
  -5   5  -6 1436.22 214.881   5
   5  -5   6 1015.76 174.689   2
  -5   5  -6 1315.91 181.633   4
   5  -5   6 1315.76 174.870   1
   5  -5   6 1159.12 180.548   6
   5  -5   6 1183.80 125.715   3
  -5   5  -7 48.8409 62.9660   5
   5  -5   7-28.0925 39.6412   3
   5  -5   7 61.2088 73.7352   1
  -5   5  -7 3.53664 69.1008   4
   5  -5   7 37.4673 60.8231   6
  -5   5  -8-91.9058 86.9659   5
   5  -5   8-10.1712 63.7263   1
  -5   5  -8 1.79553 63.4776   4
   5  -5   8 110.917 82.0044   6
   5  -5   9 305.870 112.601   1
   5  -5   9 128.706 91.6234   6
   5  -4 -10-66.6681 96.0336   2
  -5   4  10-70.4779 85.0499   6
   5  -4  -9 380.607 159.505   2
  -5   4   9 181.337 76.8280   6
  -5   4   8 925.223 119.840   5
   5  -4  -8 1485.75 271.784   2
  -5   4   8 870.426 170.824   6
  -5   4   7 2402.18 196.284   5
   5  -4  -7 2659.67 337.519   2
  -5   4   7 2490.23 278.567   6
  -5   4   6 1557.24 157.280   5
   5  -4  -6 1572.54 244.408   2
  -5   4   5 8499.85 390.786   5
   5  -4  -5 9917.65 579.809   2
  -5   4   5 9501.50 599.220   2
  -5   4   4 176.679 61.0337   5
   5  -4  -4 136.382 68.2941   2
  -5   4   3 5554.19 312.467   5
  -5   4   3 5707.03 342.149   3
   5  -4  -3 5802.07 381.441   2
  -5   4   2 1423.56 155.361   5
   5  -4  -2 1600.34 185.013   2
   5  -4  -2 1521.91 177.291   6
  -5   4   2 1570.32 161.610   3
  -5   4   1 4275.37 278.243   5
   5  -4  -1 4460.65 283.909   2
  -5   4   1 5016.40 237.185   1
   5  -4  -1 4762.41 310.064   6
  -5   4   1 4910.17 272.431   3
  -5   4   0 2978.14 235.266   5
   5  -4   0 3048.37 234.750   5
   5  -4   0 2938.70 227.932   4
  -5   4   0 2992.96 183.659   1
   5  -4   0 2645.55 200.225   2
  -5   4   0 3030.85 194.035   3
  -5   4  -1 18.1767 29.3712   1
  -5   4  -1 40.5242 27.1566   3
  -5   4  -1 78.5677 49.7196   5
   5  -4   1-61.7193 54.1231   5
   5  -4   1 48.2410 38.5514   4
  -5   4  -2 2856.59 240.013   5
  -5   4  -2 2554.28 151.549   3
   5  -4   2 2875.58 242.891   4
   5  -4   2 1931.04 146.307   2
   5  -4   2 2916.51 181.988   1
   5  -4   2 2876.07 166.504   3
  -5   4  -3 412.291 100.781   5
   5  -4   3 357.131 54.1317   3
   5  -4   3 388.587 74.9031   1
   5  -4   3 197.277 65.4960   4
  -5   4  -3 446.167 99.9002   4
   5  -4   3 295.904 65.2059   2
  -5   4  -4 231.442 84.3666   5
   5  -4   4 133.902 36.0494   3
  -5   4  -4 374.774 103.820   4
   5  -4   4 166.971 57.8428   4
   5  -4   4 190.395 63.1560   2
   5  -4   4 246.097 64.2269   1
  -5   4  -5 2.36434 84.2545   5
   5  -4   5 53.2813 27.1162   3
   5  -4   5 9.01015 50.4027   2
   5  -4   5-2.73918 51.0252   1
  -5   4  -5-105.912 95.8938   4
  -5   4  -6 424.828 116.196   5
   5  -4   6 371.714 62.5085   3
   5  -4   6 452.765 99.3180   1
   5  -4   6 508.113 116.546   2
  -5   4  -6 586.805 131.100   4
   5  -4   6 432.371 106.516   6
  -5   4  -7 1690.60 230.929   5
   5  -4   7 1787.39 222.238   1
   5  -4   7 1274.84 195.830   2
  -5   4  -7 1773.29 224.627   4
   5  -4   7 1830.64 223.934   6
   5  -4   7 1443.58 121.097   3
  -5   4  -8 315.095 101.816   5
   5  -4   8 315.741 113.177   1
  -5   4  -8 400.326 124.696   4
   5  -4   8 398.596 120.516   6
   5  -4   9 893.453 188.568   1
  -5   4  -9 868.711 193.756   4
   5  -4   9 917.452 179.377   6
   5  -3 -11 347.472 177.027   2
  -5   3  11 272.599 116.201   6
   5  -3 -10 220.730 101.161   2
  -5   3  10 69.9923 68.4296   6
   5  -3  -9 125.630 77.6577   2
  -5   3   9 203.168 84.9955   6
   5  -3  -8 1111.57 223.055   2
  -5   3   8 977.027 178.017   6
   5  -3  -7 976.695 194.817   2
  -5   3   7 858.751 154.678   6
   5  -3  -6 1541.58 222.152   2
  -5   3   5 840.693 167.087   2
  -5   3   5 775.060 111.923   5
   5  -3  -5 839.103 151.859   2
  -5   3   4-8.58146 34.4315   5
   5  -3  -4 80.3782 54.2311   2
  -5   3   4 85.9293 57.2705   3
  -5   3   4 64.2832 56.0066   2
  -5   3   3 23282.4 725.988   5
   5  -3  -3 24770.2 780.544   2
   5  -3  -3 23518.0 782.381   6
  -5   3   3 23541.3 739.930   3
  -5   3   2 12607.9 494.566   5
   5  -3  -2 12724.3 475.767   2
   5  -3  -2 12157.0 515.660   6
  -5   3   2 12829.1 475.012   3
  -5   3   1 8334.12 389.856   5
   5  -3  -1 8331.04 327.588   2
  -5   3   1 8030.29 270.860   1
  -5   3   1 8657.78 342.381   3
  -5   3   0 21040.1 677.409   5
   5  -3   0 20601.0 694.995   4
  -5   3   0 20870.0 535.088   1
   5  -3   0 18304.4 501.178   2
  -5   3   0 21797.8 548.937   3
  -5   3  -1 1034.17 134.882   5
   5  -3   1 1061.99 144.251   4
   5  -3   1 804.724 67.2052   2
  -5   3  -1 1008.52 77.9399   3
   5  -3   1 1075.71 92.0180   1
  -5   3  -2 21133.1 704.110   5
   5  -3   2 22637.4 747.434   5
   5  -3   2 21372.1 752.281   4
  -5   3  -2 19815.8 685.846   4
   5  -3   2 22157.6 570.979   1
   5  -3   2 18559.4 519.875   2
   5  -3   3 429.817 76.3711   1
  -5   3  -3 403.410 96.6563   5
   5  -3   3 338.635 86.9869   5
   5  -3   3 187.558 45.3849   2
   5  -3   3 326.086 85.4433   4
  -5   3  -3 517.250 110.176   4
  -5   3  -4 7378.12 400.151   5
   5  -3   4 7477.91 367.220   1
  -5   3  -4 7287.37 411.490   4
   5  -3   4 4876.95 303.489   2
  -5   3  -5 1781.65 200.637   5
   5  -3   5 1739.86 192.619   1
   5  -3   5 1112.53 156.078   2
  -5   3  -5 1620.69 201.453   4
   5  -3   5 1700.66 197.539   6
   5  -3   5 1286.13 73.2683   3
  -5   3  -6 1253.58 175.461   5
  -5   3  -6 1117.69 149.215   2
   5  -3   6 1179.59 180.321   1
   5  -3   6 1076.36 174.338   2
   5  -3   6 900.531 130.964   7
  -5   3  -6 1194.67 174.159   4
   5  -3   6 1080.49 171.157   6
   5  -3   6 921.456 75.4010   3
   5  -3   7 4652.17 369.129   6
  -5   3  -7 4618.92 368.382   4
   5  -3   7 4000.55 271.466   7
   5  -3   7 3871.46 373.876   2
   5  -3   7 3850.35 199.501   3
  -5   3  -7 4344.59 329.084   2
  -5   3  -7 4290.09 347.141   5
  -5   3  -8 3394.10 327.541   4
   5  -3   8 3327.58 332.737   6
  -5   3  -8 2765.58 285.076   2
  -5   3  -8 3101.78 311.729   5
  -5   3  -9-39.7818 70.4410   2
  -5   3  -9 83.6826 91.4413   4
   5  -3   9-10.0081 60.3778   6
   5  -2 -11 1934.31 332.759   2
  -5   2  11 1863.84 271.529   6
   5  -2 -10 103.076 89.4468   2
  -5   2  10-114.961 88.1634   6
   5  -2  -9 145.854 84.3332   2
  -5   2   9-20.9122 58.9101   6
   5  -2  -8-24.8065 68.7939   2
  -5   2   8 95.5234 46.6903   6
   5  -2  -7 11205.1 631.960   2
  -5   2   6 63.2097 70.1615   2
   5  -2  -6 64.1183 56.2559   2
  -5   2   5 28354.8 1011.06   2
   5  -2  -5 31097.1 988.974   2
  -5   2   4 37.2443 50.3827   2
   5  -2  -4 60.9542 48.0018   2
   5  -2  -4 56.3850 55.7582   6
  -5   2   3 14907.0 552.924   2
   5  -2  -3 14786.2 518.996   2
   5  -2  -3 13616.0 548.332   6
  -5   2   2 655.335 102.844   5
  -5   2   2 633.664 95.9991   3
   5  -2  -2 588.142 74.4324   2
  -5   2   1 7310.06 356.929   5
   5  -2  -1 6893.42 370.930   4
  -5   2   1 6597.92 201.586   1
   5  -2  -1 5699.33 183.252   2
  -5   2   1 7196.57 279.723   3
  -5   2   0 11182.5 460.033   5
   5  -2   0 11030.9 495.402   4
  -5   2   0 11665.1 323.162   3
  -5   2  -1 6831.53 350.871   5
   5  -2   1 6473.04 380.295   4
   5  -2   1 7326.50 238.452   1
   5  -2   2 0.85307 14.5888   2
  -5   2  -2-5.31539 43.1007   5
   5  -2   2-3.99763 29.0092   1
  -5   2  -2 29.2172 38.6338   4
  -5   2  -3 7359.58 377.333   5
   5  -2   3 7288.59 391.939   5
   5  -2   3 7812.74 347.011   1
   5  -2   3 7308.90 438.716   4
  -5   2  -3 7286.16 409.275   4
   5  -2   3 6775.42 313.421   2
  -5   2  -4 28.8842 31.9987   2
  -5   2  -4 20.1070 35.7381   5
   5  -2   4-5.22529 34.1085   2
   5  -2   4 8.78586 57.5708   5
  -5   2  -4 110.261 80.0885   4
  -5   2  -5 8228.13 424.437   5
  -5   2  -5 8014.05 466.299   4
   5  -2   5 5370.01 377.678   2
   5  -2   5 7498.95 387.695   7
   5  -2   5 8228.30 470.700   6
  -5   2  -6 3197.73 268.086   5
  -5   2  -6 3563.12 310.113   4
   5  -2   6 3466.99 326.687   2
   5  -2   6 3239.27 244.800   7
   5  -2   6 3631.97 315.343   6
   5  -2   6 2702.45 138.115   3
  -5   2  -6 3076.18 262.003   2
   5  -2   6 2480.35 126.139   3
   5  -2   7 109.299 48.7798   3
  -5   2  -7 54.3922 72.5773   5
   5  -2   7 127.098 87.5240   2
   5  -2   7-9.10501 43.9545   7
  -5   2  -7 210.183 105.957   4
   5  -2   7 83.1934 85.6280   6
  -5   2  -7-34.2196 70.7762   2
  -5   2  -8 363.075 122.810   5
  -5   2  -8 278.320 109.098   4
   5  -2   8 382.440 125.735   6
  -5   2  -8 192.421 68.6512   2
  -5   2  -9 1427.31 240.406   4
   5  -2   9 1448.34 235.959   6
  -5   2  -9 953.172 191.490   2
   5  -1 -12 64.0491 108.658   2
  -5   1  12-25.0151 82.7416   6
   5  -1 -11 175.949 119.421   2
  -5   1  11 49.0145 77.7262   6
   5  -1 -10 230.706 108.841   2
  -5   1  10 77.0009 65.7769   6
   5  -1  -9 66.1250 64.7051   2
  -5   1   9 16.2860 52.7133   6
   5  -1  -8 9370.95 583.110   2
  -5   1   8 8330.23 489.834   6
   5  -1  -7 1228.76 193.772   2
  -5   1   6 1025.92 177.884   2
   5  -1  -6 1186.22 174.885   2
  -5   1   5 1889.22 215.523   2
   5  -1  -5 1755.31 188.965   6
   5  -1  -5 1881.72 195.276   2
  -5   1   4 12097.9 524.854   2
   5  -1  -4 11009.2 484.806   6
   5  -1  -4 12516.9 482.537   2
  -5   1   3 35607.6 924.553   2
   5  -1  -3 35843.4 864.342   2
  -5   1   2 35614.7 726.841   2
   5  -1  -2 34750.8 659.844   2
  -5   1   1 19869.5 641.611   5
   5  -1  -1 18689.3 679.087   4
  -5   1   0 24502.1 726.566   5
   5  -1   0 22780.9 769.882   4
  -5   1   0 21925.7 503.671   3
  -5   1  -1 2539.37 205.307   5
   5  -1   1 2456.05 238.304   4
   5  -1   1 2575.98 128.721   1
  -5   1  -2 18090.4 604.815   5
   5  -1   2 18149.7 707.054   4
  -5   1  -2 16668.7 426.270   2
  -5   1  -3 131.496 57.4151   5
   5  -1   3 199.969 87.1906   4
   5  -1   3 75.8091 44.6975   7
  -5   1  -3 117.316 39.9447   2
  -5   1  -3 226.684 86.1666   4
   5  -1   3 174.506 59.1440   2
   5  -1   4 703.125 117.298   2
  -5   1  -4 972.894 137.213   5
  -5   1  -4 1082.86 164.194   4
   5  -1   4 873.281 125.346   7
  -5   1  -4 1041.79 131.849   2
   5  -1   4 1107.71 161.574   6
   5  -1   5 35.2046 14.8830   3
   5  -1   5 36.6103 35.6302   2
  -5   1  -5 128.737 63.2597   5
   5  -1   5 10.0417 8.50923   3
  -5   1  -5-112.541 88.2216   4
   5  -1   5 6.64542 44.6497   7
   5  -1   5 120.551 69.7683   6
   5  -1   6 127.863 94.9768   2
  -5   1  -6-136.510 93.2577   5
   5  -1   6 80.5172 25.2468   3
  -5   1  -6 11.9720 73.5350   4
  -5   1  -6 63.5024 61.8529   2
   5  -1   6 21.5675 31.7977   7
   5  -1   6 85.5127 80.9396   6
  -5   1  -7 201.858 73.3800   5
  -5   1  -7 70.2903 69.7415   4
  -5   1  -7 284.296 108.021   2
   5  -1   7 422.658 138.832   6
  -5   1  -8 46.8373 74.4996   5
  -5   1  -8 151.752 89.9412   2
  -5   1  -8 183.082 101.718   4
   5  -1   8-22.1896 93.0397   6
  -5   1  -9 220.026 133.182   4
  -5   1  -9 103.374 84.6927   2
   5  -1   9 124.332 105.388   6
   5   0 -12-8.31907 69.7355   2
  -5   0  12-140.852 112.513   6
   5   0 -11 385.816 148.665   2
  -5   0  11 235.408 75.0604   6
   5   0 -10 2.70528 56.3893   2
  -5   0  10-21.6297 78.9889   6
   5   0  -9 383.093 115.233   2
   5   0  -8-11.7598 58.6013   2
  -5   0   7 5298.55 425.333   2
   5   0  -7 5745.82 401.889   2
  -5   0   6 3983.04 333.805   2
   5   0  -6 3721.55 274.053   6
   5   0  -6 4094.12 308.730   2
  -5   0   5 14640.7 610.070   2
   5   0  -5 13489.7 540.667   6
   5   0  -5 14694.7 564.870   2
  -5   0   4 101.987 35.3336   2
   5   0  -4 70.2146 39.4251   6
   5   0  -4 158.468 52.4314   2
  -5   0   3 3555.52 214.199   2
  -5   0   2 39570.0 867.254   2
   5   0  -1 2148.38 218.595   4
  -5   0   1 1412.37 80.4797   2
  -5   0   1 1853.78 125.044   3
  -5   0   0 22664.4 661.950   5
   5   0   0 22529.0 738.201   4
   5   0   0 20528.3 672.798   7
  -5   0   0 19368.8 413.668   3
  -5   0  -1 1891.68 174.602   5
   5   0   1 2019.02 216.768   4
   5   0   1 1841.47 185.179   7
  -5   0  -1 1466.89 101.246   2
  -5   0  -2 11754.5 468.030   5
   5   0   2 11586.1 563.184   4
   5   0   2 11660.8 496.822   7
  -5   0  -2 11893.0 405.881   2
  -5   0  -3-11.2992 45.3988   4
  -5   0  -3 15.6139 33.0117   5
  -5   0  -3 8.25329 27.3542   2
   5   0   3-13.3218 37.8637   7
   5   0   3-107.713 82.7514   6
   5   0   4 20.0071 14.9960   3
  -5   0  -4 5.23729 38.3361   5
   5   0   4 22.1108 46.0561   7
  -5   0  -4 83.5727 73.6770   4
   5   0   4 51.3713 55.2799   6
   5   0   4 8.70742 27.9751   2
  -5   0  -5 4684.98 290.240   5
  -5   0  -5 4761.70 368.149   4
   5   0   5 4386.16 357.856   2
   5   0   5 4651.44 300.519   7
   5   0   5 5125.39 383.341   6
   5   0   5 3898.09 176.549   3
  -5   0  -6-169.897 86.3273   5
   5   0   6 107.110 36.3770   3
  -5   0  -6 50.5748 39.9072   2
  -5   0  -6-55.8196 81.0302   4
   5   0   6 142.127 77.2747   6
   5   0   6 151.193 85.6266   2
  -5   0  -7 232.549 76.4780   5
  -5   0  -7 270.483 120.216   4
  -5   0  -7 321.578 118.364   2
   5   0   7 92.0919 73.1760   6
  -5   0  -8 554.472 157.326   2
  -5   0  -8 673.127 163.725   4
   5   0   8 489.535 140.222   6
  -5   0  -8 600.465 126.465   5
  -5   0  -9 346.851 145.957   4
  -5   0  -9 246.298 136.950   2
   5   0   9 266.633 114.021   6
   5   1 -12 173.340 112.355   2
  -5  -1  12 104.455 71.8447   6
   5   1 -11 356.898 112.708   2
   5   1 -10 482.911 134.289   2
   5   1  -9 4566.27 398.294   2
   5   1  -8-60.1189 59.6114   2
  -5  -1   7 5072.47 404.322   2
   5   1  -7 4503.30 304.018   6
   5   1  -7 4955.77 360.972   2
   5   1  -6 17.6785 37.0410   2
  -5  -1   6 37.7829 47.5549   2
   5   1  -6 89.9349 58.3629   6
  -5  -1   5 14739.0 609.235   2
   5   1  -5 13884.2 527.665   6
   5   1  -5 15762.6 569.116   2
  -5  -1   4 5947.82 227.665   1
  -5  -1   4 6318.09 338.180   2
  -5  -1   3 36130.0 879.975   2
  -5  -1   3 33681.9 659.420   1
   5   1  -2 5670.38 351.071   4
  -5  -1   2 5526.19 262.340   3
  -5  -1   2 5526.60 242.404   2
   5   1  -1 5120.01 330.711   4
   5   1  -1 3672.77 109.989   1
  -5  -1   1 4536.89 206.723   3
   5   1   0 45002.9 1213.14   4
  -5  -1   0 42119.3 990.208   2
   5   1   0 45250.6 1168.69   7
  -5  -1   0 41991.6 886.900   3
  -5  -1  -1 2160.10 188.970   5
   5   1   1 2081.71 224.176   4
  -5  -1  -1 2139.40 175.536   2
   5   1   1 2168.23 206.949   7
  -5  -1  -1 1857.32 107.577   3
  -5  -1  -2 2311.83 192.383   5
   5   1   2 2509.75 239.300   6
   5   1   2 2298.11 245.552   4
  -5  -1  -2 2134.99 219.506   4
   5   1   2 2239.01 207.385   7
  -5  -1  -2 2396.10 202.701   2
   5   1   2 2015.81 121.000   3
  -5  -1  -3 5769.41 304.337   5
  -5  -1  -3 6217.41 365.541   2
   5   1   3 6277.41 358.138   7
  -5  -1  -3 6122.67 397.125   4
   5   1   3 6539.52 406.327   6
   5   1   3 4774.16 205.460   3
  -5  -1  -4 1683.44 161.858   5
   5   1   4 1885.07 228.269   6
  -5  -1  -4 1778.82 223.951   4
   5   1   4 1568.79 117.007   3
  -5  -1  -5 1121.45 137.888   5
   5   1   5 932.132 180.846   2
  -5  -1  -5 1101.67 188.016   2
  -5  -1  -5 1081.46 177.993   4
   5   1   5 1357.78 205.599   6
   5   1   5 790.143 93.6121   3
  -5  -1  -6 209.811 68.2145   5
  -5  -1  -6 232.583 94.1276   2
  -5  -1  -6 176.685 88.5391   4
   5   1   6 182.509 79.2729   6
  -5  -1  -7 662.848 113.051   5
  -5  -1  -7 605.579 160.292   2
  -5  -1  -7 652.694 154.192   4
   5   1   7 602.160 145.392   6
  -5  -1  -8 71.5230 120.662   2
  -5  -1  -8 236.645 115.091   4
   5   1   8 271.615 114.819   6
   5   2 -12-33.1634 78.4710   2
   5   2 -11-0.96987 71.7486   2
   5   2 -10 404.074 127.792   2
   5   2  -9 2209.02 268.920   2
   5   2  -8 11833.1 508.838   7
   5   2  -8 13527.1 547.963   6
   5   2  -8 14887.7 678.468   2
   5   2  -7 463.681 111.123   2
   5   2  -7 418.079 90.6777   7
  -5  -2   7 473.026 126.826   2
   5   2  -7 400.213 74.6533   6
  -5  -2   6 541.403 119.998   2
   5   2  -6 447.176 95.3317   7
   5   2  -6 553.097 96.4169   6
  -5  -2   5 8017.87 457.854   4
  -5  -2   5 8078.28 316.902   1
   5   2  -5 7748.91 401.186   7
  -5  -2   5 7863.43 427.224   2
   5   2  -5 7732.48 357.245   6
  -5  -2   4 1730.74 201.826   4
  -5  -2   4 1535.99 105.641   1
   5   2  -4 1543.29 172.726   7
  -5  -2   4 1693.73 173.620   2
  -5  -2   3 350.629 94.0266   4
  -5  -2   3 430.978 75.6311   2
   5   2  -2 37253.9 1074.28   4
   5   2  -2 36440.8 761.215   1
  -5  -2   2 36314.2 1054.13   4
  -5  -2   2 34583.2 887.427   3
  -5  -2   1 606.093 83.2198   3
   5   2  -1 565.847 118.643   4
  -5  -2   1 570.502 113.616   4
   5   2  -1 626.128 58.2736   1
   5   2   0 5131.98 352.999   4
  -5  -2   0 5294.31 338.884   4
  -5  -2   0 5050.70 303.997   2
   5   2   0 5355.04 337.359   7
  -5  -2   0 5245.04 238.032   3
   5   2   1 665.450 87.2464   3
  -5  -2  -1 701.481 122.432   2
  -5  -2  -1 674.521 80.3983   3
   5   2   1 795.336 147.208   4
  -5  -2  -1 737.588 134.822   4
   5   2   1 847.485 135.153   7
   5   2   1 552.330 114.803   6
  -5  -2  -2 15115.7 526.677   5
  -5  -2  -2 15469.5 630.202   4
   5   2   2 16148.4 647.524   6
  -5  -2  -2 14727.4 440.478   3
   5   2   3 344.991 65.9928   3
  -5  -2  -3 615.818 92.6670   5
  -5  -2  -3 878.892 153.524   4
   5   2   3 659.633 133.083   6
  -5  -2  -4 1771.52 158.765   5
  -5  -2  -4 1899.25 248.197   2
  -5  -2  -4 2336.26 257.950   4
   5   2   4 2221.76 254.095   6
   5   2   4 1169.84 125.265   3
  -5  -2  -5 2317.54 186.157   5
  -5  -2  -5 2615.61 287.339   4
   5   2   5 2652.17 294.155   6
  -5  -2  -5 2549.79 304.594   2
   5   2   5 2408.37 190.887   3
  -5  -2  -6 47.2455 38.6154   5
  -5  -2  -6 100.102 76.2063   2
   5   2   6-14.3696 63.8708   6
  -5  -2  -7-31.4302 99.4073   2
  -5  -2  -7 67.2424 88.3913   4
   5   2   7-23.7608 63.3837   6
  -5  -2  -8 7.79485 69.9821   2
   5   2   8 79.0325 89.0293   6
   5   3 -12 118.766 94.3341   2
   5   3 -11 831.135 192.286   2
   5   3 -10-13.5860 49.5216   2
  -5  -3  10-74.8527 80.1043   1
  -5  -3   9 1351.72 189.365   1
   5   3  -9 1597.08 229.868   2
   5   3  -9 1366.24 167.912   6
  -5  -3   8 15.1828 47.9833   1
   5   3  -8-9.34695 44.0813   7
   5   3  -8 21.4213 28.1493   6
  -5  -3   7 2345.97 207.799   1
   5   3  -7 2422.42 220.939   7
   5   3  -7 2203.66 188.338   6
  -5  -3   6 730.608 131.780   3
   5   3  -6 1034.53 145.582   7
   5   3  -6 913.457 116.853   6
  -5  -3   6 944.554 157.172   2
  -5  -3   5 12475.5 588.837   4
   5   3  -5 12721.9 534.887   7
  -5  -3   5 12267.6 407.727   1
  -5  -3   5 12472.7 547.470   3
   5   3  -5 11596.7 450.430   6
  -5  -3   5 12983.5 569.196   2
   5   3  -4 1966.49 202.088   7
  -5  -3   4 1712.89 204.954   4
  -5  -3   4 1718.13 183.959   3
  -5  -3   4 1752.33 182.597   2
  -5  -3   4 1756.33 121.161   1
   5   3  -3 8870.04 334.032   1
  -5  -3   3 8396.72 449.473   4
   5   3  -3 9336.49 457.060   7
  -5  -3   3 8898.40 406.561   2
   5   3  -2 18765.8 713.432   4
  -5  -3   2 18272.6 690.810   4
   5   3  -2 17608.7 482.630   1
  -5  -3   2 18631.8 713.512   7
  -5  -3   1 327.874 95.5553   7
   5   3  -1 252.189 46.2228   1
   5   3  -1 273.236 83.2965   4
  -5  -3   1 254.573 88.5680   4
   5   3  -1 408.904 106.774   7
   5   3  -1 281.630 73.3405   3
   5   3   0 39419.8 1163.73   4
  -5  -3   0 37636.3 1097.90   4
  -5  -3   0 42521.7 1198.63   7
   5   3   0 40114.0 1094.64   6
   5   3   0 39096.4 996.508   3
  -5  -3   0 35690.0 923.306   3
   5   3   1 261.378 61.5228   3
  -5  -3  -1 185.911 54.1851   3
  -5  -3  -1 253.866 89.1727   4
   5   3   1 384.324 100.799   6
  -5  -3  -2 1936.29 171.443   5
  -5  -3  -2 1616.31 218.193   2
  -5  -3  -2 1792.12 212.916   4
   5   3   2 1085.68 125.737   3
   5   3   2 1976.24 223.878   6
   5   3   3 192.448 55.8278   3
  -5  -3  -3 323.615 74.5936   5
  -5  -3  -3 338.198 113.034   2
  -5  -3  -3 435.206 121.310   4
   5   3   3 431.178 113.083   6
   5   3   4 99.5130 48.7938   3
  -5  -3  -4-8.21327 45.0962   5
  -5  -3  -4 119.416 70.0132   2
  -5  -3  -4 51.0709 67.3528   4
   5   3   4 133.286 75.7157   6
  -5  -3  -5-27.9003 34.8936   5
  -5  -3  -5 45.4088 68.1792   2
  -5  -3  -5-64.2896 61.7039   4
   5   3   5 41.2825 63.0441   6
  -5  -3  -6 64.3914 70.7502   2
  -5  -3  -6 69.8730 70.9310   4
   5   3   6 284.702 107.849   6
  -5  -3  -7-41.5621 89.0500   2
  -5  -3  -7 101.227 76.6271   4
   5   3   7 140.446 92.0445   6
  -5  -4  12 96.6653 69.8419   1
  -5  -4  11 518.932 140.378   1
  -5  -4  11 638.313 165.491   3
  -5  -4  10 679.091 143.581   1
  -5  -4  10 655.024 158.138   3
  -5  -4   9-74.4335 82.7089   3
  -5  -4   9-10.0037 51.3574   1
   5   4  -9 55.3803 47.6726   6
  -5  -4   8 702.384 138.235   3
  -5  -4   8 749.961 124.796   1
   5   4  -8 628.962 97.7079   6
  -5  -4   7 10820.2 454.434   1
   5   4  -7 9539.79 393.845   6
  -5  -4   7 10375.7 553.246   3
  -5  -4   6 2382.21 262.196   4
  -5  -4   6 2108.17 173.183   1
   5   4  -6 2029.37 172.167   6
  -5  -4   6 2345.47 245.195   3
  -5  -4   5 1849.31 217.744   4
  -5  -4   5 1947.74 215.879   7
  -5  -4   5 1909.08 212.548   3
  -5  -4   5 1969.27 215.523   2
  -5  -4   4 560.770 111.603   3
  -5  -4   4 393.483 95.7037   2
  -5  -4   4 401.298 100.981   4
  -5  -4   3 7229.63 416.077   4
   5   4  -3 7260.45 321.190   1
  -5  -4   3 6820.67 369.788   3
   5   4  -2 117.610 31.9068   1
  -5  -4   2 215.460 68.7345   3
   5   4  -2 161.920 70.0342   4
  -5  -4   2 94.0822 50.0297   4
   5   4  -2 198.406 73.3307   3
   5   4  -1 1911.16 224.388   4
  -5  -4   1 2008.33 212.066   4
   5   4  -1 2122.60 203.395   6
   5   4  -1 2008.54 202.842   3
   5   4  -1 1998.02 146.147   1
   5   4   0 5429.35 382.943   4
  -5  -4   0 5793.75 368.914   4
  -5  -4   0 4848.82 383.165   2
   5   4   0 5872.57 360.595   6
   5   4   0 5506.17 332.969   3
  -5  -4  -1 6254.47 395.643   4
  -5  -4  -1 5053.23 415.068   2
   5   4   1 6067.76 388.175   6
   5   4   1 5564.56 328.296   3
  -5  -4  -2 2984.98 216.023   5
  -5  -4  -2 3329.18 305.131   4
  -5  -4  -2 2994.98 333.347   2
   5   4   2 3512.88 307.530   6
   5   4   2 2950.30 238.929   3
  -5  -4  -2 3035.77 234.854   3
  -5  -4  -3 6511.64 314.722   5
  -5  -4  -3 7681.14 477.110   4
  -5  -4  -3 7117.51 546.277   2
   5   4   3 8129.09 504.820   6
   5   4   3 6592.26 373.744   3
  -5  -4  -3 6709.96 375.369   3
  -5  -4  -4 2878.50 190.285   5
  -5  -4  -4 3559.34 328.849   4
  -5  -4  -4 3032.94 376.529   2
   5   4   4 3685.16 350.755   6
   5   4   4 2513.64 231.638   3
  -5  -4  -5 830.767 206.136   2
  -5  -4  -5 755.362 171.436   4
   5   4   5 989.407 196.545   6
  -5  -4  -6 304.842 126.984   2
  -5  -4  -6 96.7335 69.7204   4
   5   4   6 283.437 131.743   6
  -5  -4  -7 28.8657 77.0162   2
   5   4   7 218.003 114.394   6
  -5  -5  12 231.059 113.064   3
  -5  -5  12 134.451 97.9586   1
  -5  -5  11 461.423 148.217   3
  -5  -5  11 421.052 131.731   1
  -5  -5  10 296.901 117.006   3
  -5  -5  10 274.684 94.8311   1
  -5  -5   9 1055.74 185.931   3
  -5  -5   9 1033.06 162.312   1
  -5  -5   8 4964.37 321.760   1
   5   5  -8 4688.82 246.996   6
  -5  -5   8 5227.60 416.138   3
  -5  -5   7 3321.38 320.810   4
  -5  -5   7 3378.32 250.189   1
   5   5  -7 2748.72 181.105   6
  -5  -5   7 3465.24 324.068   3
  -5  -5   6 443.253 118.809   3
  -5  -5   6 273.486 95.0489   4
  -5  -5   6 297.978 69.5869   1
   5   5  -6 186.600 50.4031   6
  -5  -5   5 12303.7 589.186   4
  -5  -5   5 12441.7 579.002   3
  -5  -5   4 9411.02 491.628   4
   5   5  -4 9313.30 424.601   1
  -5  -5   4 8946.67 468.076   3
  -5  -5   3 4434.47 327.658   4
   5   5  -3 4436.01 262.699   1
  -5  -5   3 4426.06 314.554   3
  -5  -5   2 16963.7 665.310   4
   5   5  -2 15942.3 534.915   1
   5   5  -2 17678.5 697.180   3
  -5  -5   2 15915.1 624.311   3
   5   5  -1 1419.82 202.824   4
  -5  -5   1 1269.14 170.450   4
   5   5  -1 1665.06 186.362   6
   5   5  -1 1445.85 187.659   3
   5   5  -1 1371.08 134.434   1
  -5  -5   1 1399.84 168.270   3
   5   5   0 50.8211 50.9432   3
  -5  -5   0 80.8622 49.2207   3
  -5  -5   0 37.9296 49.6522   2
  -5  -5   0-55.4869 66.2619   4
   5   5   0 7.32671 39.6887   6
  -5  -5  -1 3257.31 291.055   4
  -5  -5  -1 2515.67 315.872   2
   5   5   1 3321.17 296.424   6
   5   5   1 2605.90 247.372   3
  -5  -5  -1 2676.05 237.643   3
  -5  -5  -2 1525.96 256.687   2
  -5  -5  -2 1678.76 160.267   5
  -5  -5  -2 2025.67 238.404   4
   5   5   2 2020.24 242.103   6
  -5  -5  -2 1890.44 205.108   3
  -5  -5  -3 111.902 110.572   2
  -5  -5  -3 69.2145 29.3706   5
  -5  -5  -3 17.5184 51.2778   3
  -5  -5  -3 134.464 86.9854   4
   5   5   3 69.7942 81.9392   6
  -5  -5  -4 173.383 119.273   2
  -5  -5  -4 269.522 96.3094   4
   5   5   4 240.626 102.604   6
  -5  -5  -5 110.193 69.0065   2
  -5  -5  -5 356.509 132.119   4
   5   5   5 424.437 137.035   6
  -5  -5  -6 14.4139 100.234   2
  -5  -5  -6 136.554 92.9665   4
   5   5   6 9.82060 88.1722   6
  -5  -6  11 288.500 124.287   3
  -5  -6  11 237.200 90.0933   1
  -5  -6  10 374.647 132.087   3
  -5  -6  10 152.468 72.1914   1
  -5  -6   9 78.6280 78.7805   3
  -5  -6   9-35.9661 65.6163   1
  -5  -6   8 231.541 93.0632   3
  -5  -6   8 152.321 87.2308   4
  -5  -6   8 137.747 67.0978   1
  -5  -6   7 6198.41 440.234   4
   5   6  -7 4654.54 208.584   6
  -5  -6   7 6261.90 446.545   3
  -5  -6   7 6231.58 344.712   1
  -5  -6   6 2823.30 216.849   1
  -5  -6   6 2968.99 292.970   4
   5   6  -6 1808.95 130.686   6
   5   6  -6 2314.87 150.837   6
  -5  -6   6 2888.36 287.219   3
  -5  -6   5 65.5381 50.1235   3
  -5  -6   5-52.8031 61.6772   4
   5   6  -5-34.1130 22.3609   6
  -5  -6   4 771.529 144.835   3
   5   6  -4 630.838 119.226   1
  -5  -6   4 758.791 155.979   4
   5   6  -4 646.648 91.3945   6
  -5  -6   3-108.089 65.6019   3
  -5  -6   3-41.9298 55.8540   4
   5   6  -3 96.9527 65.1787   1
  -5  -6   2 4058.59 310.499   4
   5   6  -2 4006.51 265.178   1
   5   6  -2 4388.44 287.667   6
  -5  -6   2 3796.74 303.631   3
  -5  -6   1-19.3873 45.1757   3
  -5  -6   1-127.050 81.3766   4
   5   6  -1-34.5533 38.9607   6
  -5  -6   0 6210.32 398.239   4
  -5  -6   0 4892.51 461.498   2
   5   6   0 6149.97 392.830   6
  -5  -6   0 5527.67 369.555   3
  -5  -6  -1 286.284 112.740   2
  -5  -6  -1 196.989 85.2413   3
  -5  -6  -1 301.935 89.4056   4
   5   6   1 256.494 92.3089   6
  -5  -6  -2 12.7900 82.7770   2
  -5  -6  -2 18.5145 48.3889   3
  -5  -6  -2 203.862 98.6066   4
   5   6   2 191.154 92.6098   6
  -5  -6  -3 1903.93 327.750   2
  -5  -6  -3 2678.16 292.714   4
   5   6   3 2611.88 304.543   6
  -5  -6  -3 2034.34 243.757   3
  -5  -6  -4 80.2959 98.8848   2
  -5  -6  -4 177.590 97.6209   4
   5   6   4-18.6428 57.4847   6
  -5  -6  -5 494.592 193.627   2
  -5  -6  -5 353.610 110.140   4
   5   6   5 466.472 150.638   6
  -5  -7  11 587.260 183.874   3
  -5  -7  11 410.302 118.313   1
  -5  -7  10 186.001 81.4607   1
  -5  -7  10 516.237 150.705   3
  -5  -7   9 164.876 72.7681   1
  -5  -7   9 245.492 109.554   3
  -5  -7   9 401.929 156.335   4
  -5  -7   8 1764.71 255.246   3
  -5  -7   8 1881.11 252.067   4
  -5  -7   8 1940.89 210.627   1
  -5  -7   7 158.752 84.7738   3
  -5  -7   7 99.1131 83.3814   4
  -5  -7   7 190.889 77.7487   1
  -5  -7   6 13.1287 52.8002   3
  -5  -7   6-79.6062 68.8319   4
   5   7  -6-4.24116 15.4908   6
  -5  -7   5 4944.02 361.826   4
   5   7  -5 4211.78 213.043   6
  -5  -7   5 4805.14 389.607   3
  -5  -7   4 1792.01 212.468   4
   5   7  -4 2146.31 168.885   6
  -5  -7   4 2274.21 258.051   3
  -5  -7   3 1939.73 214.120   4
  -5  -7   3 2243.98 251.078   3
  -5  -7   2 9.56605 66.7672   3
  -5  -7   2 41.8645 51.6264   4
   5   7  -2 110.399 59.2397   6
  -5  -7   1 355.524 107.815   3
  -5  -7   1 318.319 87.6658   4
   5   7  -1 306.846 87.1834   6
  -5  -7   0 90.1957 73.0230   3
  -5  -7   0 9.16203 53.1985   4
   5   7   0 56.5553 55.3652   6
  -5  -7   0-34.0317 70.0194   2
  -5  -7  -1 155.644 90.3971   2
  -5  -7  -1 258.170 89.0166   3
  -5  -7  -1 548.801 133.194   4
   5   7   1 515.049 131.006   6
  -5  -7  -2 25.3012 71.3780   2
  -5  -7  -2 55.6411 68.8485   3
  -5  -7  -2 175.988 95.1554   4
   5   7   2-35.3736 68.4391   6
  -5  -7  -3 489.176 191.873   2
  -5  -7  -3 538.291 145.043   3
  -5  -7  -3 509.119 147.993   4
   5   7   3 398.626 137.961   6
  -5  -8  10 194.104 78.8260   3
  -5  -8  10-7.34543 94.3239   4
  -5  -8  10-3.54564 57.9413   1
  -5  -8   9-99.4800 101.700   3
  -5  -8   9-122.180 91.3554   4
  -5  -8   9 20.6445 61.7189   1
  -5  -8   8 1318.60 181.658   1
  -5  -8   8 937.996 206.119   3
  -5  -8   8 878.111 181.774   4
  -5  -8   7 160.250 104.917   3
  -5  -8   7 12.2059 55.6310   4
  -5  -8   6 829.664 175.838   3
  -5  -8   6 839.262 164.488   4
  -5  -8   5 350.791 122.760   3
  -5  -8   5 167.001 68.3391   4
  -5  -8   4-49.0333 86.3179   3
  -5  -8   4-15.8013 47.8048   4
  -5  -8   3 62.3150 68.4271   3
  -5  -8   3 109.975 68.7374   4
   5   8  -3 70.5028 48.4122   6
  -5  -8   2 2758.80 259.306   4
   5   8  -2 3379.63 269.481   6
  -5  -8   2 2605.16 290.047   3
  -5  -8   1 148.601 97.8744   3
  -5  -8   1 192.539 80.6663   4
   5   8  -1 128.445 66.1433   6
  -5  -8   0 673.202 155.124   3
  -5  -8   0 1111.91 183.178   4
   5   8   0 1163.47 181.868   6
  -5  -8   0 566.559 196.519   2
  -5  -8  -1 27.5224 111.685   2
  -5  -8  -1 19.4542 54.9914   3
  -5  -8  -1 30.9825 55.3640   4
   5   8   1 3.01332 60.8519   6
  -5  -8  -2 80.3512 107.990   2
  -5  -8  -2 8.22233 78.5456   3
  -5  -8  -2 132.570 97.2577   4
   5   8   2 91.1903 88.1580   6
  -5  -9   8 49.5731 74.2483   3
  -5  -9   7 1635.96 266.667   3
  -5  -9   6 258.949 112.759   3
  -5  -9   5 931.595 192.020   3
  -5  -9   4 45.2614 70.3672   3
  -5  -9   3 228.438 91.0202   3
  -5  -9   2-27.3586 70.7130   3
  -5  -9   1 51.8319 56.1476   3
   5   9  -1 221.629 88.6450   6
  -5  -9   1 277.204 151.121   2
  -5  -9   0 135.840 95.7482   3
   5   9   0 106.195 67.1679   6
  -5  -9   0 132.278 123.751   2
   6 -10  -1 201.609 153.126   2
  -6  10   1 18.3874 47.4492   5
   6 -10   0 73.4479 95.2828   2
  -6  10   0 18.6829 59.2415   5
  -6  10  -1 388.435 138.590   5
   6 -10   1 294.652 114.370   3
   6 -10   1 387.818 171.386   2
  -6  10  -2 66.7834 64.2050   5
   6 -10   2 79.9462 72.7300   3
   6 -10   2 126.166 102.288   2
  -6  10  -3 581.733 167.350   5
   6 -10   3 570.917 154.519   3
  -6  10  -4 76.9769 105.663   5
   6  -9  -4 108.228 102.934   2
  -6   9   3 494.545 130.798   5
   6  -9  -3 491.507 184.971   2
  -6   9   2 96.4322 65.1891   5
   6  -9  -2 35.9067 85.6238   2
   6  -9  -1 90.0577 93.8289   2
  -6   9   1 6.54636 46.6389   5
   6  -9   0 8.60743 69.5092   2
  -6   9   0-30.1802 67.4450   5
  -6   9  -1-125.082 85.4077   5
   6  -9   1-145.611 105.604   3
   6  -9   1 85.1482 83.1433   2
  -6   9  -2-88.3796 89.5266   5
   6  -9   2 28.5141 63.0570   3
  -6   9  -3 176.371 111.691   5
   6  -9   3 30.4140 76.8643   3
  -6   9  -4 321.298 149.591   5
   6  -9   4 206.203 98.8477   3
  -6   9  -5 408.488 148.974   5
  -6   9  -6 149.487 86.6016   5
   6  -8  -5 826.195 219.010   2
  -6   8   4-7.88898 60.3306   5
   6  -8  -4-96.2519 114.879   2
  -6   8   3 48.1030 63.2155   5
   6  -8  -3 85.2142 109.312   2
   6  -8  -2 102.760 86.5049   2
  -6   8   2 36.9216 40.1749   5
   6  -8  -1 674.721 171.695   2
  -6   8   1 619.548 138.031   5
   6  -8   0 18.9531 64.3637   2
  -6   8   0 34.8872 57.1366   5
  -6   8   0 24.4840 28.5208   4
  -6   8  -1 497.603 124.457   5
   6  -8   1 624.258 135.088   3
   6  -8   1 723.234 170.146   2
  -6   8  -2 84.8401 70.9356   5
   6  -8   2 84.2547 48.7113   3
  -6   8  -3 1087.87 195.212   5
   6  -8   3 1209.73 171.616   3
  -6   8  -4 53.8914 65.2563   5
   6  -8   4 101.008 69.9023   3
  -6   8  -4 105.663 60.9302   4
  -6   8  -5 113.998 98.1313   5
  -6   8  -5 87.9216 57.0752   4
  -6   8  -6 91.1413 85.5395   5
   6  -8   6 275.617 104.467   1
  -6   8  -6 36.3668 61.0969   4
  -6   8  -7 137.351 109.606   5
   6  -8   7 102.832 64.8837   1
   6  -8   7 76.8055 71.2669   6
   6  -7  -7 25.3349 94.3126   2
  -6   7   6 821.362 168.432   4
   6  -7  -6 829.828 221.515   2
  -6   7   5 48.1145 56.8189   5
   6  -7  -5 100.617 95.7563   2
  -6   7   5-25.9351 52.4324   4
  -6   7   4 28.3105 42.5224   5
   6  -7  -4-30.0909 77.1551   2
  -6   7   4 34.4327 46.3421   4
  -6   7   3 666.513 126.888   5
   6  -7  -3 849.179 197.407   2
  -6   7   3 860.490 142.493   4
   6  -7  -2 170.476 106.804   2
  -6   7   2 24.0524 43.4145   5
   6  -7  -1 220.964 96.8837   2
  -6   7   1 119.012 73.5888   5
  -6   7   0-8.43869 61.1439   5
   6  -7   0 83.0401 75.3721   2
  -6   7  -1 249.424 85.0239   5
  -6   7  -1 229.201 77.5058   3
   6  -7   1 272.396 87.3923   3
   6  -7   1 289.908 116.768   2
  -6   7  -2 45.0157 50.7525   3
  -6   7  -2-1.47366 58.4413   5
   6  -7   2 112.756 67.5769   4
   6  -7   2 99.4904 53.6646   3
   6  -7   3 48.0903 43.8942   2
  -6   7  -3 35.8402 47.3667   3
  -6   7  -3 70.4442 63.7356   5
   6  -7   3 6.90156 41.8591   3
   6  -7   3 52.6987 53.0337   4
  -6   7  -3 65.5681 40.7143   4
  -6   7  -4 395.975 125.122   5
   6  -7   4 613.194 113.115   3
  -6   7  -4 401.105 87.3425   4
   6  -7   4 574.431 114.876   1
  -6   7  -5 591.815 160.654   5
   6  -7   5 752.880 129.286   1
   6  -7   5 478.555 98.6858   3
  -6   7  -5 588.262 117.749   4
  -6   7  -6 78.4386 67.9319   5
   6  -7   6 129.391 74.4329   1
  -6   7  -6 113.079 61.6239   4
  -6   7  -7-87.6330 81.7396   5
  -6   7  -7-29.9537 71.9404   4
   6  -7   7 41.7554 44.1476   1
   6  -7   7 130.653 70.4024   6
  -6   7  -8 447.110 160.473   5
   6  -7   8 156.065 70.7871   1
   6  -7   8 250.941 116.514   6
   6  -6  -8 133.092 101.453   2
  -6   6   7 457.470 95.1591   5
   6  -6  -7 571.217 188.202   2
  -6   6   6 206.702 80.4096   5
   6  -6  -6 133.182 98.6145   2
  -6   6   5 617.544 118.688   5
   6  -6  -5 436.782 147.551   2
  -6   6   5 733.365 140.643   4
  -6   6   4 293.756 84.7493   5
   6  -6  -4 300.366 109.190   2
  -6   6   4 311.221 103.527   4
  -6   6   3 2209.95 221.781   5
  -6   6   3 2498.61 242.889   4
   6  -6  -3 2079.34 276.004   2
  -6   6   2 85.7273 53.1307   5
   6  -6  -2 18.6716 58.2964   2
  -6   6   2 60.9324 43.2581   1
  -6   6   2 8.55122 44.4703   4
   6  -6  -1 451.964 125.551   2
  -6   6   1 372.168 93.6573   5
  -6   6   1 381.976 93.8731   3
  -6   6   1 493.173 89.2713   1
   6  -6   0 373.621 103.904   2
  -6   6   0 690.632 135.512   5
  -6   6   0 466.220 90.5742   3
  -6   6   0 458.161 96.4648   1
  -6   6  -1 411.567 108.451   5
  -6   6  -1 391.240 89.1220   3
  -6   6  -1 460.562 99.7553   1
   6  -6   1 284.876 86.4766   2
   6  -6   2 50.3838 43.7830   2
  -6   6  -2 154.439 57.0720   3
  -6   6  -2 76.4482 59.0871   5
   6  -6   2 98.9479 52.4037   3
   6  -6   2 210.966 85.0591   4
  -6   6  -2 43.6976 43.5021   4
  -6   6  -3 3214.09 307.292   5
   6  -6   3 2991.24 278.120   4
  -6   6  -3 3194.07 257.268   4
  -6   6  -3 2590.17 199.285   3
   6  -6   3 2511.34 216.334   2
   6  -6   3 2962.65 222.384   3
  -6   6  -4 465.939 130.580   5
   6  -6   4 469.574 83.1990   3
  -6   6  -4 350.769 84.2382   4
   6  -6   4 325.919 87.2305   2
   6  -6   4 491.074 102.930   1
  -6   6  -5 1648.64 239.018   5
  -6   6  -5 1484.75 194.451   4
   6  -6   5 1715.09 196.668   1
   6  -6   5 1350.64 133.625   3
  -6   6  -6 160.574 93.5767   5
   6  -6   6 238.268 92.8330   1
   6  -6   6 281.152 112.509   6
  -6   6  -6 319.808 98.3647   4
  -6   6  -7 16.1018 65.8539   5
   6  -6   7-20.5345 65.5195   1
  -6   6  -7-13.9042 53.9471   4
   6  -6   7 84.3250 69.8477   6
  -6   6  -8-17.9540 79.5524   5
  -6   6  -8-58.1953 62.7547   4
   6  -6   8-27.5895 51.7372   6
   6  -6   8 2.57183 50.1403   1
   6  -5  -9 945.321 238.723   2
  -6   5   8 86.9275 67.4983   5
   6  -5  -8 40.5072 111.766   2
  -6   5   7 4634.36 302.097   5
   6  -5  -7 5385.81 504.126   2
  -6   5   6 1695.87 179.980   5
   6  -5  -6 2313.01 310.907   2
  -6   5   5 2205.19 207.434   5
  -6   5   5 2134.74 244.784   4
   6  -5  -5 2747.50 316.720   2
  -6   5   4 224.697 71.1694   5
   6  -5  -4 215.449 92.2540   2
  -6   5   4 220.330 90.6958   4
  -6   5   3 39.1349 49.5542   5
   6  -5  -3 40.0645 48.5245   2
  -6   5   3-8.68417 46.0236   4
  -6   5   2 581.703 111.617   5
   6  -5  -2 493.066 115.720   2
  -6   5   2 616.852 115.923   3
  -6   5   2 696.029 96.3412   1
  -6   5   2 678.802 123.931   4
   6  -5  -1 748.338 129.249   2
  -6   5   1 592.799 110.243   5
  -6   5   1 601.377 86.1173   1
  -6   5   1 640.545 107.331   3
  -6   5   1 660.130 119.965   4
   6  -5   0 71.8391 45.9560   2
  -6   5   0 69.1135 49.7238   5
  -6   5   0 1.96604 40.9644   3
  -6   5   0 20.6148 35.2283   1
  -6   5   0 13.8175 40.1922   4
  -6   5  -1 586.254 87.6620   3
  -6   5  -1 511.990 106.239   5
  -6   5  -1 555.680 99.0407   1
   6  -5   1 542.206 115.859   4
   6  -5   1 487.103 90.7312   2
  -6   5  -1 621.404 111.493   4
  -6   5  -2 0.34794 25.0429   3
  -6   5  -2-20.6759 53.1253   5
   6  -5   2-26.0018 44.4747   4
  -6   5  -2 53.8653 58.1746   4
   6  -5   2 6.26718 19.3354   2
  -6   5  -3 1083.97 171.757   5
  -6   5  -3 1097.94 160.907   4
   6  -5   3 629.740 99.1151   2
   6  -5   3 1239.00 139.661   1
  -6   5  -4 238.464 91.6331   5
   6  -5   4 189.467 48.8429   3
   6  -5   4 217.430 66.3013   2
  -6   5  -4 262.141 91.7248   4
   6  -5   4 266.917 74.1881   1
  -6   5  -5-32.7924 58.3495   5
   6  -5   5-80.4556 63.8655   1
   6  -5   5 44.9653 25.4657   3
   6  -5   5 59.7449 64.5027   2
  -6   5  -5 100.457 54.1706   4
  -6   5  -6 3393.51 314.027   4
   6  -5   6 3612.18 290.763   1
   6  -5   6 3200.86 317.371   6
  -6   5  -6 3681.03 352.378   5
  -6   5  -7 1761.47 261.958   5
   6  -5   7 1713.53 215.292   1
  -6   5  -7 1396.10 215.437   4
   6  -5   7 1530.54 226.094   6
  -6   5  -8 1578.45 253.707   5
   6  -5   8 1450.96 214.199   1
  -6   5  -8 1707.16 248.337   4
   6  -5   8 1443.49 228.056   6
   6  -4 -10 1247.90 274.863   2
  -6   4   9 42.5257 51.5407   5
   6  -4  -9-127.098 122.970   2
  -6   4   8 25.1844 44.7876   5
   6  -4  -8 21.5392 66.0477   2
  -6   4   7 1235.49 155.378   5
   6  -4  -7 1456.25 248.405   2
  -6   4   6 1743.48 186.763   5
   6  -4  -6 1929.21 259.640   2
  -6   4   5 4068.05 287.922   5
  -6   4   5 4022.83 340.657   4
  -6   4   5 4727.20 410.646   2
   6  -4  -5 4505.22 377.568   2
  -6   4   4 2269.23 211.174   5
   6  -4  -4 2525.70 262.076   2
  -6   4   4 2292.12 250.035   4
  -6   4   3 3990.56 283.148   5
   6  -4  -3 4204.39 309.534   2
  -6   4   3 4103.04 319.654   4
  -6   4   3 4095.43 289.303   3
  -6   4   2 507.793 100.060   5
   6  -4  -2 642.484 109.747   2
  -6   4   2 617.412 100.917   3
  -6   4   2 665.025 120.080   4
  -6   4   2 721.238 84.1196   1
  -6   4   1 1049.89 143.102   5
   6  -4  -1 937.879 114.308   2
  -6   4   1 955.095 146.627   4
  -6   4   1 925.433 99.6376   1
  -6   4   1 963.924 120.761   3
   6  -4   0 20.9858 29.4046   2
  -6   4   0 29.9095 23.0341   1
  -6   4   0 13.6166 49.0039   5
  -6   4   0 28.3783 31.4840   3
   6  -4   0 88.2151 63.8057   4
  -6   4   0-45.9735 49.9053   4
  -6   4  -1 338.857 55.3545   3
  -6   4  -1 228.620 60.3942   5
   6  -4   1 344.540 99.0664   4
  -6   4  -1 363.757 90.5133   4
   6  -4   1 241.026 41.5081   2
   6  -4   1 218.977 46.0259   2
  -6   4  -2 312.644 46.0798   3
  -6   4  -2 423.995 98.7596   4
  -6   4  -2 658.119 126.560   5
   6  -4   2 508.266 77.2018   1
   6  -4   2 367.688 111.849   4
   6  -4   2 326.461 54.7535   2
  -6   4  -3 6847.76 415.429   5
  -6   4  -3 6729.69 408.346   4
   6  -4   3 5461.18 275.435   2
   6  -4   3 7190.82 331.241   1
   6  -4   4 342.556 78.4580   1
  -6   4  -4 333.791 97.6535   5
   6  -4   4 176.544 50.3300   2
  -6   4  -4 391.229 109.710   4
  -6   4  -5 193.615 85.4758   5
   6  -4   5 190.843 69.3710   2
   6  -4   5 355.261 94.2801   1
  -6   4  -5 170.375 75.6757   4
  -6   4  -6 32.2077 58.4472   5
   6  -4   6-24.1852 43.4157   1
  -6   4  -6 70.6255 73.6063   4
   6  -4   6-25.2232 60.7924   6
  -6   4  -7 1302.05 210.744   5
   6  -4   7 1294.09 199.004   1
   6  -4   7 1228.21 170.991   7
  -6   4  -7 1516.25 219.884   4
   6  -4   7 1184.59 205.086   6
  -6   4  -8-11.9125 76.1349   5
   6  -4   8-52.0633 71.9019   1
  -6   4  -8 120.147 108.394   4
   6  -4   8 23.3903 53.2205   6
   6  -4   9 1.88476 62.5111   1
  -6   4  -9 164.179 116.595   4
   6  -4   9 45.3771 57.6085   6
  -6   4  -9 170.760 95.1897   5
   6  -3 -10 117.324 92.6748   2
   6  -3  -9 607.429 162.563   2
   6  -3  -8-2.52191 68.5356   2
   6  -3  -7 4163.90 395.257   2
  -6   3   6 109.248 82.4110   2
  -6   3   6 310.657 85.7332   5
   6  -3  -6 148.054 66.3079   2
  -6   3   5 5326.87 335.006   5
  -6   3   5 4659.49 370.757   4
  -6   3   5 5321.00 411.340   2
   6  -3  -5 6108.57 407.627   2
  -6   3   4 9.17174 44.0788   5
  -6   3   4 20.1748 39.6995   3
  -6   3   4-86.6269 75.4621   4
   6  -3  -4-138.749 82.3202   2
  -6   3   4-49.8685 60.4286   2
  -6   3   3 1167.98 163.236   5
  -6   3   3 878.103 128.705   3
  -6   3   3 850.358 152.041   4
   6  -3  -3 736.133 110.953   2
  -6   3   2 6142.35 360.218   5
  -6   3   2 6115.43 383.331   4
   6  -3  -2 6291.73 287.580   2
  -6   3   2 6232.97 234.587   1
  -6   3   2 6158.82 316.429   3
  -6   3   1 42.2657 42.5198   5
  -6   3   1 82.5438 29.2216   1
  -6   3   1 114.069 39.9679   3
   6  -3  -1 43.0200 20.3463   2
  -6   3   1 26.9938 50.1609   4
  -6   3   0 3367.02 262.569   5
   6  -3   0 3176.30 275.440   4
  -6   3   0 3272.82 272.338   4
  -6   3   0 3578.61 180.382   3
  -6   3  -1 232.441 32.8632   3
  -6   3  -1 250.630 72.0345   5
   6  -3   1 238.810 85.0033   4
  -6   3  -1 302.278 78.1248   4
  -6   3  -2 49.1314 45.0337   5
   6  -3   2 187.584 81.5598   4
   6  -3   2 97.3739 39.6274   1
  -6   3  -2-0.41565 66.6522   4
  -6   3  -3 812.713 142.162   5
   6  -3   3 244.048 60.4312   2
  -6   3  -3 484.898 122.924   4
   6  -3   3 710.743 100.670   1
  -6   3  -4-33.9382 53.8138   5
   6  -3   4-30.1649 31.7765   2
   6  -3   4-2.16119 38.9909   1
  -6   3  -4-38.6045 77.9048   4
  -6   3  -5 367.006 94.0022   5
   6  -3   5 452.940 111.635   2
   6  -3   5 361.457 93.7607   1
  -6   3  -5 301.831 98.8905   4
   6  -3   5 54.5992 68.5590   6
  -6   3  -6 2115.83 245.822   5
   6  -3   6 2479.03 251.910   1
   6  -3   6 2054.02 245.017   2
   6  -3   6 2314.97 230.938   7
  -6   3  -6 1982.13 244.893   4
   6  -3   6 2513.87 278.543   6
   6  -3   7 114.093 58.8304   1
  -6   3  -7 376.648 111.510   5
  -6   3  -7 436.435 109.524   2
   6  -3   7 285.909 82.5207   7
  -6   3  -7 277.747 107.650   4
   6  -3   7 312.098 100.613   6
  -6   3  -8 1080.15 195.232   5
  -6   3  -8 1142.51 182.910   2
   6  -3   8 566.767 136.854   1
  -6   3  -8 935.646 193.841   4
   6  -3   8 1015.23 191.061   6
  -6   3  -9 191.809 96.1162   2
   6  -3   9 97.2125 55.6287   1
  -6   3  -9 278.259 135.319   4
   6  -3   9 206.316 99.4463   6
  -6   3  -9 72.8551 76.0900   5
   6  -2 -11 66.7293 69.4661   2
   6  -2 -10 673.506 190.967   2
   6  -2  -9 435.564 141.963   2
   6  -2  -8 269.839 110.290   2
   6  -2  -7 5543.75 428.064   2
  -6   2   6 6923.54 486.449   2
   6  -2  -6 7917.41 474.080   2
  -6   2   5 9795.17 540.490   4
  -6   2   5 10985.8 569.446   2
   6  -2  -5 11170.1 527.294   2
  -6   2   4 5466.51 381.128   4
  -6   2   4 5676.93 355.167   2
   6  -2  -4 6129.48 338.988   2
  -6   2   3 5927.23 353.535   5
  -6   2   3 5938.49 391.489   4
  -6   2   3 6212.52 323.286   2
   6  -2  -3 6344.81 291.606   2
  -6   2   2 4030.69 287.264   5
  -6   2   2 3907.82 307.318   4
  -6   2   2 3276.73 125.816   1
   6  -2  -2 3613.65 156.299   2
  -6   2   2 4202.49 245.811   3
  -6   2   1-16.2315 34.2503   5
  -6   2   1 26.7325 24.2759   3
   6  -2  -1-19.9706 35.6285   4
  -6   2   1 63.3843 47.9136   4
  -6   2   0 143.872 50.9512   5
  -6   2   0 184.187 31.4343   3
   6  -2   0 56.2760 44.2497   4
  -6   2   0 115.374 62.1718   4
  -6   2  -1 1469.26 169.831   5
   6  -2   1 1291.81 186.699   4
  -6   2  -1 1448.99 185.340   4
   6  -2   1 1630.85 95.1706   1
  -6   2  -2 442.976 96.2003   5
  -6   2  -2 487.148 108.688   4
   6  -2   2 710.542 80.7693   1
  -6   2  -3-15.4390 49.0128   5
   6  -2   3-7.70911 29.6619   1
  -6   2  -3 34.4232 50.0765   4
   6  -2   3-24.3658 26.0882   2
   6  -2   4 700.351 108.831   2
   6  -2   4 971.876 146.535   7
  -6   2  -4 917.559 148.605   5
   6  -2   4 1079.35 141.763   1
  -6   2  -4 907.077 155.609   4
   6  -2   5 126.967 61.4522   2
  -6   2  -5 123.337 56.7164   5
   6  -2   5 32.5290 39.3511   7
  -6   2  -5 147.111 64.9386   4
   6  -2   5 58.7384 59.3591   6
   6  -2   6 33.6271 58.6233   2
  -6   2  -6 71.2901 49.2805   5
   6  -2   6 90.2921 46.4116   7
  -6   2  -6 35.9619 77.7807   4
   6  -2   6 140.902 89.9159   6
  -6   2  -6 71.8445 47.2620   2
  -6   2  -7 568.512 124.459   5
  -6   2  -7 470.691 134.352   4
   6  -2   7 628.343 150.634   6
  -6   2  -7 577.727 124.028   2
   6  -2   7 468.673 101.864   7
  -6   2  -8 148.836 82.8350   5
  -6   2  -8 291.722 121.605   4
   6  -2   8 301.775 125.687   6
  -6   2  -8 199.225 79.3232   2
   6  -1 -11 299.266 126.091   2
   6  -1 -10 964.848 209.847   2
   6  -1  -9 3443.02 372.371   2
   6  -1  -8 7824.07 523.700   2
  -6   1   7 1182.99 206.852   2
   6  -1  -7 1405.38 203.007   2
  -6   1   6 3704.54 344.143   2
   6  -1  -6 3652.37 299.632   2
  -6   1   5 396.137 103.285   2
  -6   1   5 371.373 94.6595   4
   6  -1  -5 518.759 110.311   2
  -6   1   4 18583.9 754.756   4
  -6   1   4 18985.1 682.527   2
   6  -1  -4 18926.7 699.121   6
   6  -1  -4 20744.4 632.447   2
  -6   1   3 3246.39 285.020   4
  -6   1   3 3524.18 221.661   2
   6  -1  -3 3694.16 190.143   2
  -6   1   2 32564.1 1003.03   4
  -6   1   2 29301.9 652.272   2
  -6   1   1 1300.70 160.338   5
   6  -1  -1 1067.38 168.743   4
  -6   1   1 1214.30 166.922   4
  -6   1   0 215.115 30.0320   3
  -6   1   0 372.268 85.5956   5
  -6   1   0 233.616 32.8786   3
   6  -1   0 329.580 99.7502   4
  -6   1   0 349.323 95.8092   4
  -6   1  -1 1498.95 171.352   5
   6  -1   1 1565.75 209.967   4
   6  -1   1 1599.81 93.1530   1
  -6   1  -1 1373.97 176.238   4
  -6   1  -2 443.350 94.4031   5
   6  -1   2 273.879 54.8138   1
  -6   1  -2 437.801 106.608   4
   6  -1   2 313.417 85.0842   7
  -6   1  -2 293.766 34.6781   2
  -6   1  -3 5593.60 342.390   5
  -6   1  -3 6116.79 409.903   4
   6  -1   3 6181.53 382.178   7
  -6   1  -3 5123.39 244.470   2
  -6   1  -4 374.390 93.8001   5
   6  -1   4 182.664 61.5936   7
   6  -1   4 190.750 69.2561   2
  -6   1  -4 217.264 85.7172   4
   6  -1   4 146.949 70.7464   6
  -6   1  -4 188.332 61.3238   2
  -6   1  -5 119.999 64.9505   5
  -6   1  -5 120.441 59.9890   4
   6  -1   5 92.8697 46.2662   7
   6  -1   5 22.9619 67.3544   6
   6  -1   5 127.802 62.0698   2
  -6   1  -6 1253.45 170.728   5
   6  -1   6 1559.70 183.239   7
  -6   1  -6 1251.77 200.054   4
   6  -1   6 1346.19 209.012   6
  -6   1  -6 1315.93 183.430   2
   6  -1   6 1013.01 183.766   2
  -6   1  -7 28.7003 48.4390   5
  -6   1  -7-41.4903 80.5081   4
  -6   1  -7 27.1313 61.2731   2
  -6   1  -8 26.1098 55.6647   5
   6  -1   8-28.8630 57.4027   6
  -6   1  -8 62.9270 49.7058   2
   6   0 -12 28.9762 81.4848   2
   6   0 -11 84.6967 64.5754   2
   6   0 -10 194.416 74.4191   7
   6   0 -10 263.210 114.882   2
   6   0  -9 3261.75 275.364   7
   6   0  -9 3991.86 383.370   2
   6   0  -8 2972.20 307.675   2
  -6   0   7 23280.2 958.988   2
   6   0  -7 24707.1 897.595   2
  -6   0   6 232.943 82.9692   2
   6   0  -6 156.584 71.9484   2
   6   0  -5 881.197 123.003   2
  -6   0   5 876.701 143.473   2
  -6   0   5 683.183 130.839   4
   6   0  -5 678.463 117.429   6
  -6   0   4 4051.64 330.239   4
  -6   0   4 3460.32 247.364   2
  -6   0   3 211.798 48.1330   2
  -6   0   2 1159.55 92.0536   2
   6   0  -1 1463.37 195.381   4
   6   0  -1 1553.34 188.501   7
  -6   0   1 1446.57 110.275   3
  -6   0   0 4256.50 295.522   5
   6   0   0 3714.44 313.665   4
  -6   0   0 3668.46 298.054   4
   6   0   0 4027.54 309.985   7
  -6   0   0 3506.18 137.791   3
  -6   0  -1 3077.67 249.208   5
  -6   0  -1 3011.43 266.751   4
   6   0   1 3239.73 270.634   7
  -6   0  -1 2074.98 112.186   2
  -6   0  -2 319.319 83.3529   5
  -6   0  -2 204.989 72.8570   4
   6   0   2 196.167 65.1252   7
  -6   0  -2 176.879 46.3266   2
  -6   0  -3 907.064 133.307   5
  -6   0  -3 825.068 115.198   2
  -6   0  -3 1002.31 175.429   4
   6   0   3 970.420 146.645   7
   6   0   3 1035.57 173.572   6
  -6   0  -4 376.497 95.1517   5
   6   0   4 336.090 89.5882   7
  -6   0  -4 330.712 98.5610   4
   6   0   4 335.817 102.755   6
  -6   0  -5 9.93713 46.2548   5
  -6   0  -5-68.7591 103.086   4
  -6   0  -5-9.70384 40.9250   2
   6   0   5 6.85169 47.1250   7
   6   0   5 19.9815 60.4891   6
  -6   0  -6-39.8692 67.7761   5
  -6   0  -6 140.308 66.4323   4
  -6   0  -6 134.313 84.0820   2
   6   0   6 29.4137 55.7063   6
  -6   0  -7-28.8452 49.8824   5
  -6   0  -7 59.7138 79.7687   4
  -6   0  -7-23.3936 54.9355   2
   6   0   7-82.8554 90.7038   6
  -6   0  -8 215.827 87.6656   5
  -6   0  -8 188.012 114.912   4
  -6   0  -8 255.113 109.926   2
   6   0   8 89.6141 84.5522   6
   6   1 -12 177.463 110.533   2
   6   1 -11 7.25640 62.5208   2
   6   1 -11 22.3064 38.2383   7
   6   1 -10 1228.33 211.618   2
   6   1 -10 960.168 141.864   7
   6   1  -9 1032.66 183.896   2
   6   1  -9 1066.95 152.084   7
   6   1  -8 33.2549 46.4251   2
   6   1  -8 48.7474 37.1459   7
   6   1  -7 7020.30 411.239   7
  -6  -1   7 7702.62 508.918   2
   6   1  -7 7813.86 455.422   2
   6   1  -6 407.999 101.371   2
  -6  -1   6 288.491 99.2537   4
  -6  -1   6 301.275 85.8152   2
   6   1  -6 281.919 81.5564   7
   6   1  -6 375.425 87.8469   6
  -6  -1   5 222.680 46.5929   1
  -6  -1   5 153.347 48.7369   4
   6   1  -5 235.785 73.3627   7
  -6  -1   5 239.339 79.9401   2
   6   1  -5 212.499 67.7872   6
  -6  -1   4 7144.46 214.509   1
  -6  -1   4 7277.58 453.577   4
   6   1  -4 7552.66 423.445   7
  -6  -1   4 7862.41 387.470   2
  -6  -1   3 779.315 141.127   4
   6   1  -3 807.075 137.102   7
  -6  -1   3 747.404 100.983   2
   6   1  -2 7701.99 456.912   4
  -6  -1   2 7412.17 446.281   4
  -6  -1   2 7321.40 321.399   3
  -6  -1   2 7272.62 290.701   2
   6   1  -1 6781.29 428.475   4
  -6  -1   1 6325.64 400.101   4
   6   1  -1 6456.28 390.326   7
  -6  -1   1 6014.35 253.475   3
  -6  -1   1 5761.39 230.646   2
  -6  -1   0 1138.73 113.697   2
  -6  -1   0 1024.52 157.940   4
   6   1   0 1109.09 159.117   7
  -6  -1   0 1186.85 90.6791   3
  -6  -1  -1 523.834 90.0423   2
  -6  -1  -1 423.009 94.2557   5
  -6  -1  -1 332.490 44.0472   3
  -6  -1  -1 257.878 75.1116   4
   6   1   1 424.200 103.990   7
  -6  -1  -2 602.656 110.975   5
  -6  -1  -2 574.662 100.482   2
  -6  -1  -2 526.393 117.798   4
   6   1   2 684.856 127.094   7
   6   1   2 579.815 124.979   6
  -6  -1  -3 291.168 71.1121   5
  -6  -1  -3 205.742 68.7592   2
  -6  -1  -3 139.438 67.1359   4
   6   1   3 268.532 80.1822   7
   6   1   3 216.266 82.4163   6
  -6  -1  -4 4955.15 305.025   5
  -6  -1  -4 5429.36 407.583   4
   6   1   4 5524.90 361.976   7
   6   1   4 5508.64 412.295   6
  -6  -1  -5 740.895 123.107   5
  -6  -1  -5 744.402 158.326   2
  -6  -1  -5 746.299 167.239   4
   6   1   5 763.061 162.075   6
  -6  -1  -6-52.1048 59.6923   5
  -6  -1  -6 2.63910 46.0447   2
  -6  -1  -6-99.8881 89.3833   4
   6   1   6-105.534 85.0207   6
  -6  -1  -7 34.5184 37.7940   5
  -6  -1  -7 28.5128 64.1844   2
  -6  -1  -7-24.5862 63.5230   4
   6   1   7-86.3654 94.5246   6
  -6  -1  -8 23.4651 87.0727   2
  -6  -1  -8 158.706 92.1103   4
   6   1   8 149.846 102.765   6
   6   2 -12 1571.11 277.868   2
   6   2 -11 102.961 86.3281   2
   6   2 -11 104.184 66.5233   7
   6   2 -10 208.659 98.6124   2
   6   2 -10 281.912 73.2714   7
   6   2  -9 1469.22 217.438   2
   6   2  -9 1168.75 157.608   7
   6   2  -8 1108.56 183.496   2
  -6  -2   8 1112.54 154.229   1
   6   2  -8 1073.55 159.053   7
  -6  -2   7 411.450 131.327   2
   6   2  -7 262.868 84.3628   7
   6   2  -7 335.507 91.1175   6
  -6  -2   6 19864.8 834.536   4
  -6  -2   6 20962.2 599.080   1
   6   2  -6 20187.9 744.884   7
  -6  -2   6 20209.1 806.688   2
   6   2  -6 18881.8 675.941   6
  -6  -2   5 17089.0 740.414   4
  -6  -2   5 16383.1 453.891   1
   6   2  -5 17507.3 681.241   7
  -6  -2   5 16972.6 670.009   2
   6   2  -5 16273.3 601.741   6
  -6  -2   4 483.339 101.050   3
  -6  -2   4 461.698 117.188   4
   6   2  -4 396.651 101.359   7
  -6  -2   4 436.318 90.2164   2
  -6  -2   3 158.976 80.5025   4
   6   2  -3 80.3192 53.9235   7
  -6  -2   3 77.1923 36.1922   2
  -6  -2   2 4184.08 328.159   4
   6   2  -2 4076.32 312.566   7
  -6  -2   2 3805.60 231.508   3
  -6  -2   2 3805.30 223.071   2
  -6  -2   1 787.905 94.7286   3
  -6  -2   1 896.299 156.336   4
   6   2  -1 491.866 49.1013   1
   6   2  -1 658.017 126.566   7
  -6  -2   0 78.9846 34.9127   3
  -6  -2   0 35.6884 55.6827   4
   6   2   0 29.5068 39.7774   7
  -6  -2   0 68.0805 44.5504   2
  -6  -2  -1-55.2054 60.8454   2
  -6  -2  -1 35.2405 35.9449   5
  -6  -2  -1-49.2248 41.6173   3
  -6  -2  -1-44.4092 82.4517   4
   6   2   1-8.36430 40.9745   7
   6   2   1 29.6341 42.3348   6
   6   2   2 69.8238 36.2585   3
  -6  -2  -2 116.548 55.4426   5
  -6  -2  -2 77.7823 37.6282   3
  -6  -2  -2 9.37876 69.4213   4
   6   2   2 87.7158 63.3608   7
   6   2   2 112.247 73.0528   6
   6   2   3 424.090 69.9775   3
  -6  -2  -3 516.182 98.4256   5
  -6  -2  -3 477.739 125.306   4
   6   2   3 494.851 122.523   6
  -6  -2  -4 1559.98 168.043   5
  -6  -2  -4 1686.52 237.007   4
  -6  -2  -4 1727.99 234.378   2
   6   2   4 2203.26 267.705   6
  -6  -2  -5 969.472 134.268   5
  -6  -2  -5 1077.03 199.385   2
  -6  -2  -5 1090.70 206.291   4
   6   2   5 1027.90 197.685   6
  -6  -2  -6 172.576 54.4131   5
  -6  -2  -6 46.1441 58.3059   2
  -6  -2  -6 153.446 86.6532   4
   6   2   6 101.482 79.3349   6
  -6  -2  -7 239.191 144.967   2
  -6  -2  -7 188.785 109.329   4
   6   2   7 253.290 116.474   6
   6   3 -12 21.9651 83.5725   2
  -6  -3  12-129.066 112.769   1
  -6  -3  11 425.219 125.533   1
  -6  -3  10 863.699 163.137   1
  -6  -3   9 1405.66 183.589   1
   6   3  -9 1470.66 182.574   7
  -6  -3   8 4.27839 39.4013   1
   6   3  -8 47.6684 50.2439   7
   6   3  -8 37.5815 44.8796   6
  -6  -3   7 10052.3 592.448   4
  -6  -3   7 10064.5 421.378   1
   6   3  -7 10316.6 505.841   7
  -6  -3   7 9948.23 550.861   3
   6   3  -7 8820.56 431.031   6
  -6  -3   6 117.070 72.2630   3
  -6  -3   6 167.037 80.0741   4
   6   3  -6 154.392 57.7351   7
  -6  -3   6 119.761 70.8935   2
   6   3  -6 153.024 60.9688   6
  -6  -3   5 221.092 79.3730   3
  -6  -3   5 368.097 113.416   4
  -6  -3   5 311.338 55.6746   1
   6   3  -5 262.488 84.9886   7
  -6  -3   5 429.022 105.541   2
  -6  -3   4 8730.80 500.720   4
   6   3  -4 9114.17 479.966   7
  -6  -3   4 8961.78 444.212   3
  -6  -3   4 8546.41 433.090   2
  -6  -3   3 1665.35 212.409   4
   6   3  -3 1955.89 222.161   7
  -6  -3   3 1975.43 187.086   3
  -6  -3   3 1860.61 180.022   2
   6   3  -2 871.394 85.2940   1
  -6  -3   2 1277.06 181.919   4
   6   3  -2 1275.30 181.953   7
  -6  -3   1 4406.41 337.453   4
   6   3  -1 4098.29 319.055   7
   6   3  -1 2845.65 160.112   1
  -6  -3   0 5413.25 382.097   4
   6   3   0 5473.42 370.758   6
   6   3   1 85.2647 46.8067   3
  -6  -3  -1 361.484 118.662   4
   6   3   1 318.033 98.3271   6
   6   3   2 95.4617 47.0040   3
  -6  -3  -2 59.0759 49.4439   2
  -6  -3  -2 137.166 53.9851   5
  -6  -3  -2 194.963 75.3894   4
   6   3   2 107.706 55.0169   6
   6   3   3 118.946 37.3895   3
  -6  -3  -3 323.734 82.4929   5
  -6  -3  -3 197.997 111.113   2
  -6  -3  -3 156.923 82.2544   4
   6   3   3 281.472 99.7552   6
  -6  -3  -4 690.006 113.400   5
  -6  -3  -4 794.872 165.796   4
  -6  -3  -4 718.978 172.156   2
   6   3   4 855.476 177.915   6
  -6  -3  -5 635.261 109.620   5
  -6  -3  -5 752.108 182.329   2
  -6  -3  -5 793.396 180.095   4
   6   3   5 826.956 183.259   6
  -6  -3  -6 80.9260 73.0440   2
  -6  -3  -6 380.765 138.754   4
   6   3   6 151.921 100.098   6
  -6  -4  12 1573.03 236.580   1
  -6  -4  12 1719.38 280.510   3
  -6  -4  11 251.592 96.8579   1
  -6  -4  11 407.905 145.144   3
  -6  -4  10 695.188 169.752   3
  -6  -4  10 1057.94 173.414   1
  -6  -4   9 3196.06 272.090   1
   6   4  -9 2672.78 226.380   6
  -6  -4   9 2782.36 317.692   3
  -6  -4   8 366.845 127.141   3
  -6  -4   8 289.604 116.749   4
   6   4  -8 267.785 72.6867   6
  -6  -4   8 392.039 92.5184   1
  -6  -4   7 79.1640 65.9296   3
  -6  -4   7 40.1872 34.8492   1
  -6  -4   7 34.1432 59.0702   4
   6   4  -7 80.4150 43.2003   6
  -6  -4   6 6855.17 472.215   4
   6   4  -6 6720.39 345.934   6
  -6  -4   6 7172.58 449.918   3
  -6  -4   5 2756.08 292.117   4
  -6  -4   5 2674.85 256.933   3
  -6  -4   5 2406.62 251.345   2
  -6  -4   4 2002.05 235.939   4
  -6  -4   4 1611.28 188.891   3
  -6  -4   4 1729.67 198.158   2
  -6  -4   3 2491.99 266.702   4
   6   4  -3 1523.78 140.491   1
  -6  -4   3 2187.71 208.992   3
  -6  -4   2 812.805 121.467   3
  -6  -4   2 572.981 120.199   4
   6   4  -2 471.081 69.5531   1
  -6  -4   1 5178.63 369.921   4
   6   4  -1 5199.09 350.101   6
   6   4  -1 3167.73 196.135   1
  -6  -4   1 5010.50 297.875   3
   6   4   0 213.495 77.8398   3
  -6  -4   0 96.9549 56.0944   3
  -6  -4   0 97.8020 67.6527   4
   6   4   0 203.167 77.6677   6
  -6  -4   0 70.9746 74.2252   2
  -6  -4  -1 1534.63 240.879   2
  -6  -4  -1 1743.23 223.178   4
   6   4   1 1807.36 223.497   6
   6   4   1 1631.18 182.566   3
  -6  -4  -1 1537.70 164.860   3
  -6  -4  -2 1732.52 179.914   5
  -6  -4  -2 1761.42 270.275   2
  -6  -4  -2 1938.14 249.154   4
   6   4   2 1846.99 238.673   6
   6   4   2 1543.05 177.379   3
  -6  -4  -2 1649.05 175.193   3
  -6  -4  -3 77.9889 53.0220   5
  -6  -4  -3 110.590 89.7670   2
  -6  -4  -3-68.4246 89.4905   4
   6   4   3 95.1320 86.0827   6
  -6  -4  -4 198.596 59.5402   5
  -6  -4  -4 196.209 106.366   2
  -6  -4  -4 204.411 94.2150   4
   6   4   4 282.732 106.380   6
  -6  -4  -5 148.119 118.935   2
  -6  -4  -5 26.4886 70.6344   4
   6   4   5 122.670 77.7369   6
  -6  -4  -6 234.178 124.701   2
   6   4   6 416.415 156.804   6
  -6  -5  11 57.6415 88.2417   3
  -6  -5  11 186.228 95.5137   1
  -6  -5  10 313.588 130.517   3
  -6  -5  10 338.174 105.608   1
  -6  -5   9 1425.69 228.992   3
  -6  -5   9 1326.02 169.863   1
  -6  -5   9 1542.13 260.158   4
  -6  -5   8 267.272 109.044   3
  -6  -5   8 261.723 118.142   4
  -6  -5   8 162.031 62.7428   1
  -6  -5   7 1365.91 220.504   4
   6   5  -7 1129.55 133.007   6
  -6  -5   7 1710.20 235.339   3
  -6  -5   7 1564.89 159.846   1
  -6  -5   6 3553.49 334.456   4
   6   5  -6 3444.32 233.464   6
  -6  -5   6 3590.13 322.808   3
  -6  -5   5 364.845 106.219   3
  -6  -5   5 496.129 139.560   4
   6   5  -4 14012.6 542.977   1
  -6  -5   4 13757.3 661.397   4
  -6  -5   4 13839.0 612.204   3
  -6  -5   3 569.288 116.141   3
   6   5  -3 671.637 99.8952   1
  -6  -5   3 583.685 131.591   4
   6   5  -3 711.175 122.143   6
  -6  -5   2 4397.07 345.042   4
   6   5  -2 4118.48 246.416   1
   6   5  -2 4492.64 313.087   6
  -6  -5   2 4406.00 310.682   3
  -6  -5   1 2872.37 282.542   4
   6   5  -1 2826.70 257.388   6
   6   5  -1 2528.49 192.347   1
  -6  -5   1 2454.12 227.791   3
   6   5   0 1088.49 124.330   1
  -6  -5   0 1050.32 148.670   3
  -6  -5   0 878.016 154.955   4
   6   5   0 1025.01 167.654   6
  -6  -5   0 650.061 166.090   2
  -6  -5  -1-15.1711 96.3906   2
  -6  -5  -1 32.5457 54.4523   3
  -6  -5  -1 156.373 84.3053   4
   6   5   1 57.6141 56.0503   6
  -6  -5  -2 166.866 87.7999   2
  -6  -5  -2 417.425 89.7092   5
  -6  -5  -2 393.874 102.087   3
  -6  -5  -2 506.275 139.810   4
   6   5   2 484.820 132.955   6
  -6  -5  -3 49.0900 80.8282   2
  -6  -5  -3 42.8841 42.4932   5
  -6  -5  -3-36.9351 54.0811   3
  -6  -5  -3 34.4421 62.8685   4
   6   5   3 90.0996 79.1325   6
  -6  -5  -4-19.1776 62.9728   2
  -6  -5  -4-44.4176 68.2964   4
   6   5   4 137.000 94.8586   6
  -6  -5  -5 156.631 137.755   2
   6   5   5 71.6809 75.2528   6
  -6  -6  11 2208.72 325.733   3
  -6  -6  11 1948.76 243.233   1
  -6  -6  10 1166.53 228.313   3
  -6  -6  10 919.216 212.255   4
  -6  -6  10 1009.22 165.962   1
  -6  -6   9 2553.39 327.623   4
  -6  -6   9 2645.56 251.299   1
  -6  -6   9 2720.26 329.058   3
  -6  -6   8 575.646 160.277   3
  -6  -6   8 494.909 149.597   4
  -6  -6   8 525.602 104.233   1
  -6  -6   7 4924.79 299.173   1
  -6  -6   7 4527.20 405.042   4
  -6  -6   7 4717.08 399.251   3
  -6  -6   6 176.149 80.7634   3
  -6  -6   6 353.075 120.676   4
   6   6  -6 194.994 54.6033   6
  -6  -6   5 226.289 85.3008   3
  -6  -6   5 78.4378 67.4131   4
  -6  -6   4-22.7466 51.5205   3
   6   6  -4 2.26999 36.2310   1
  -6  -6   4-117.250 93.2663   4
   6   6  -4 44.3381 46.0590   6
  -6  -6   3 1254.84 179.940   3
   6   6  -3 1258.67 155.484   1
  -6  -6   3 1042.22 173.726   4
   6   6  -3 1335.14 161.106   6
  -6  -6   2 551.732 119.045   3
  -6  -6   2 781.971 152.208   4
   6   6  -2 701.691 126.313   6
  -6  -6   1 1533.47 212.411   4
   6   6  -1 1953.80 223.069   6
  -6  -6   1 1541.39 195.350   3
  -6  -6   0 755.588 143.555   3
  -6  -6   0 907.781 169.096   4
   6   6   0 962.238 170.495   6
  -6  -6   0 583.250 170.864   2
  -6  -6  -1 22.5380 74.0574   2
  -6  -6  -1 30.6301 59.0636   3
  -6  -6  -1 44.3312 85.7627   4
   6   6   1 23.2731 52.4731   6
  -6  -6  -2 215.043 110.034   2
  -6  -6  -2 74.2093 57.6203   5
  -6  -6  -2 144.649 84.6351   3
  -6  -6  -2 132.260 103.287   4
   6   6   2 17.8445 49.8374   6
  -6  -6  -3 83.6501 83.0777   2
  -6  -6  -3 104.466 74.4331   3
  -6  -6  -3 190.140 118.084   4
   6   6   3 127.384 70.2421   6
  -6  -7  10 1100.81 222.596   3
  -6  -7  10 649.014 140.434   1
  -6  -7  10 735.073 185.099   4
  -6  -7   9 1353.14 228.749   3
  -6  -7   9 1200.83 228.793   4
  -6  -7   9 1585.70 195.575   1
  -6  -7   8 129.262 100.939   3
  -6  -7   8 63.4809 78.8617   4
  -6  -7   8 131.208 70.1916   1
  -6  -7   7 133.303 77.0442   3
  -6  -7   7 227.097 127.177   4
  -6  -7   6 4047.80 361.479   4
  -6  -7   6 3695.23 355.548   3
  -6  -7   5 359.944 121.271   3
  -6  -7   5 292.335 100.055   4
  -6  -7   4 1617.78 225.788   3
  -6  -7   4 1482.16 205.612   4
   6   7  -4 1762.52 175.757   6
  -6  -7   3 592.647 143.336   3
  -6  -7   3 420.894 130.305   4
   6   7  -3 376.453 90.7648   6
  -6  -7   2 78.0295 68.8004   3
  -6  -7   2 232.233 101.855   4
   6   7  -2 118.349 64.5981   6
  -6  -7   1 179.972 82.5251   3
  -6  -7   1 301.015 124.242   2
  -6  -7   1 265.953 113.923   4
   6   7  -1 264.269 88.1673   6
  -6  -7   0 71.1844 75.1086   4
  -6  -7   0 102.710 77.6359   3
   6   7   0-13.9970 42.3196   6
  -6  -7   0 41.0024 66.1970   2
  -6  -7  -1-94.6976 95.3527   2
  -6  -7  -1 41.3501 61.9490   3
  -6  -7  -1-6.49548 69.0379   4
   6   7   1-61.2582 68.7087   6
  -6  -7  -2-45.3947 96.6700   2
  -6  -7  -2-26.3239 69.6155   4
  -6  -7  -2 120.895 70.6847   3
   6   7   2 19.6738 71.4922   6
  -6  -8   9 1605.11 207.536   1
  -6  -8   9 1414.43 261.773   3
  -6  -8   9 1680.80 259.625   4
  -6  -8   8 287.661 140.459   3
  -6  -8   8 99.6008 96.0644   4
  -6  -8   7 2046.43 273.614   4
  -6  -8   7 2316.92 300.917   3
  -6  -8   6 411.471 134.766   3
  -6  -8   6 237.166 89.7128   4
  -6  -8   5 139.174 94.1668   3
  -6  -8   5 115.099 74.1068   4
  -6  -8   4-94.6397 77.0475   3
  -6  -8   4-99.3868 71.4005   4
  -6  -8   3 174.274 92.3759   3
  -6  -8   3 133.636 81.5345   4
   6   8  -3 230.706 84.4973   6
  -6  -8   2 38.5421 73.4362   3
  -6  -8   2 120.410 78.2075   4
   6   8  -2 125.447 61.7457   6
  -6  -8   1 211.425 101.109   3
  -6  -8   1 227.352 98.7132   4
   6   8  -1 134.749 72.7587   6
  -6  -8   1 37.3534 72.4313   2
  -6  -8   0 248.225 99.0375   3
  -6  -8   0 130.305 79.0664   4
   6   8   0 90.6070 71.3393   6
  -6  -8   0-4.78129 74.5164   2
  -6  -9   7 169.085 122.743   3
  -6  -9   6 925.205 204.352   3
  -6  -9   5-72.6166 73.2098   3
  -6  -9   4 753.622 186.533   3
  -6  -9   3 17.5163 56.4152   3
  -7   9   2 103.136 68.3674   5
   7  -9  -2 314.562 160.034   2
   7  -9  -1 48.4840 71.2316   2
  -7   9   1-0.90763 55.2410   5
   7  -9   0 320.659 122.140   2
  -7   9   0 266.404 99.5939   5
  -7   9  -1 483.549 154.791   5
  -7   9  -2 10.7274 73.4655   5
  -7   9  -3 1813.21 280.581   5
  -7   9  -4 306.549 132.273   5
  -7   8   5 635.076 138.074   5
   7  -8  -5 714.986 212.881   2
  -7   8   4 521.716 127.796   5
   7  -8  -4 810.576 211.032   2
  -7   8   3 194.387 76.2612   5
   7  -8  -3 289.007 124.361   2
  -7   8   2 283.006 105.659   5
   7  -8  -2 455.963 165.144   2
   7  -8  -1 589.739 156.009   2
  -7   8   1 438.064 132.406   5
  -7   8   1 495.057 99.7596   4
   7  -8   0 485.765 137.830   2
  -7   8   0 347.636 113.694   5
  -7   8   0 349.167 80.9725   4
  -7   8  -1 640.644 140.195   5
  -7   8  -1 514.545 102.546   4
   7  -8   1 604.789 146.128   2
  -7   8  -2 45.5358 76.8920   5
  -7   8  -2 22.0157 42.2056   4
   7  -8   2 71.5162 64.6146   2
  -7   8  -3 957.741 190.372   5
  -7   8  -3 611.547 119.037   4
  -7   8  -4 577.503 168.757   5
  -7   8  -4 553.408 116.464   4
  -7   8  -5 1336.75 244.853   5
  -7   8  -5 1100.22 163.199   4
  -7   7   6-2.71510 60.8326   5
   7  -7  -6 228.973 121.040   2
  -7   7   6 209.161 126.872   4
  -7   7   5 63.3391 61.7667   5
   7  -7  -5 216.679 97.8368   2
  -7   7   5 110.425 102.137   4
  -7   7   4 550.932 120.333   5
   7  -7  -4 407.666 141.689   2
  -7   7   4 443.779 122.110   4
  -7   7   3 101.003 82.3945   5
   7  -7  -3-37.0614 67.8344   2
  -7   7   3 60.8968 63.7751   4
  -7   7   2 3544.86 315.334   5
  -7   7   2 3459.30 289.604   4
   7  -7  -2 3425.56 357.727   2
   7  -7  -1 194.660 106.057   2
  -7   7   1 78.4467 60.5496   5
  -7   7   1 50.9986 61.4031   4
   7  -7   0 1078.66 179.655   2
  -7   7   0 1473.27 212.525   5
  -7   7   0 1098.98 154.541   4
  -7   7  -1 1175.78 200.478   5
  -7   7  -1 965.621 143.462   4
   7  -7   1 844.261 149.918   2
  -7   7  -2-31.2604 63.6529   5
   7  -7   2 42.3445 45.4896   2
  -7   7  -2 103.679 61.7133   4
  -7   7  -3 1746.58 251.661   5
  -7   7  -3 1726.22 203.866   4
  -7   7  -4 5.63269 82.9124   5
  -7   7  -4 43.0550 50.9393   4
  -7   7  -5 915.253 205.230   5
  -7   7  -5 565.303 133.652   4
   7  -7   5 780.015 142.517   1
  -7   7  -6 308.030 134.513   5
  -7   7  -6 360.523 109.802   4
   7  -7   6 171.760 89.4190   1
  -7   6   7 1965.48 212.988   5
  -7   6   7 2090.31 283.975   4
   7  -6  -7 2680.13 368.250   2
  -7   6   6 168.752 73.5612   5
   7  -6  -6 374.343 145.469   2
  -7   6   6 231.858 114.206   4
  -7   6   5 1048.73 159.795   5
   7  -6  -5 1165.55 223.814   2
  -7   6   5 1631.59 234.799   4
  -7   6   4 904.996 150.909   5
   7  -6  -4 950.598 190.009   2
  -7   6   4 1098.26 181.636   4
  -7   6   3 75.4211 64.3595   5
   7  -6  -3 33.2151 61.9383   2
  -7   6   3 173.603 88.9047   4
  -7   6   2 1248.00 179.838   5
   7  -6  -2 1344.61 200.071   2
  -7   6   2 1084.11 133.829   1
  -7   6   2 1344.36 181.649   4
  -7   6   1 450.047 116.772   5
   7  -6  -1 558.326 120.566   2
  -7   6   1 510.170 105.550   3
  -7   6   1 448.779 106.321   4
  -7   6   1 368.039 78.6783   1
  -7   6   0 2294.34 258.251   5
  -7   6   0 2165.95 221.173   4
  -7   6   0 1783.27 182.931   1
   7  -6   0 1797.50 198.595   2
  -7   6   0 2392.22 215.382   3
  -7   6  -1 3497.19 319.168   5
  -7   6  -1 3513.47 284.365   4
   7  -6   1 2699.35 231.789   2
  -7   6  -1 3237.04 231.086   3
  -7   6  -2 197.657 58.8822   3
  -7   6  -2 203.701 102.249   5
   7  -6   2 115.034 48.0002   2
  -7   6  -2 224.608 75.0549   4
  -7   6  -3 1861.46 249.029   5
  -7   6  -3 1741.25 211.566   4
  -7   6  -4 1478.87 203.290   4
  -7   6  -4 1681.58 247.486   5
   7  -6   4 1852.42 190.560   1
  -7   6  -5 419.833 129.750   5
   7  -6   5 483.660 111.036   1
  -7   6  -5 485.831 129.237   4
  -7   6  -6 972.452 207.007   5
   7  -6   6 714.761 161.640   6
  -7   6  -6 821.136 176.955   4
   7  -6   6 755.449 142.101   1
  -7   6  -7 1095.15 228.707   5
   7  -6   7 660.746 142.340   1
  -7   6  -7 763.174 166.865   4
   7  -6   7 475.181 137.242   6
  -7   5   8 104.108 71.9567   5
   7  -5  -8 134.080 101.796   2
  -7   5   7 466.452 110.154   5
  -7   5   7 421.494 158.012   4
   7  -5  -7 766.424 193.864   2
  -7   5   6 155.861 67.0639   5
  -7   5   6 259.614 117.982   4
   7  -5  -6 234.585 112.039   2
  -7   5   5 984.530 151.369   5
   7  -5  -5 1327.18 222.845   2
  -7   5   5 1163.95 195.610   4
   7  -5  -4 3025.22 302.552   2
  -7   5   4 2394.09 236.171   5
  -7   5   4 2737.88 286.588   4
  -7   5   3 98.1959 74.2720   5
   7  -5  -3-0.81014 40.6564   2
  -7   5   3 20.0110 34.7558   1
  -7   5   3-8.93054 61.5701   4
  -7   5   2 10785.1 534.397   5
   7  -5  -2 10478.6 494.303   2
  -7   5   2 10912.2 561.081   4
  -7   5   2 9933.61 399.763   1
  -7   5   2 11548.6 514.470   3
  -7   5   1 567.930 126.811   5
   7  -5  -1 520.488 94.8948   2
  -7   5   1 716.977 115.233   3
  -7   5   1 527.934 88.1133   1
  -7   5   1 493.258 112.434   4
  -7   5   0 1501.85 198.495   5
  -7   5   0 1141.81 135.010   1
  -7   5   0 1327.69 176.865   4
   7  -5   0 1210.96 130.376   2
  -7   5   0 1685.37 160.102   3
  -7   5  -1 1408.15 194.254   5
   7  -5   1 898.805 98.9029   2
  -7   5  -1 1219.14 170.267   4
   7  -5   1 749.270 77.8420   2
  -7   5  -1 1200.85 117.423   3
  -7   5  -2 269.122 49.9150   3
  -7   5  -2 492.507 131.145   5
   7  -5   2 272.816 51.4224   2
  -7   5  -2 377.471 106.487   4
   7  -5   2 251.329 53.4296   2
   7  -5   3 1573.25 153.182   1
  -7   5  -3 1530.96 224.113   5
  -7   5  -3 1357.08 198.855   4
   7  -5   4 134.676 60.8370   1
  -7   5  -4 20.0874 73.9473   5
  -7   5  -4-15.9183 63.6050   4
  -7   5  -5 1023.72 189.735   5
   7  -5   5 1186.65 152.556   1
  -7   5  -5 721.956 146.544   4
  -7   5  -6 1596.18 245.885   5
   7  -5   6 1942.83 215.696   1
  -7   5  -6 1716.38 237.168   4
   7  -5   6 1407.35 224.303   6
  -7   5  -7 232.029 118.529   5
   7  -5   7 402.320 138.808   7
  -7   5  -7 94.3302 87.2007   4
   7  -5   7 158.054 110.711   6
   7  -5   7 324.913 110.327   1
  -7   4   9 152.651 62.4806   5
   7  -4  -9 180.382 94.2208   2
   7  -4  -8 1528.35 257.166   2
  -7   4   8 1092.49 160.926   5
  -7   4   7 4757.67 344.695   5
   7  -4  -7 6441.99 510.449   2
  -7   4   6 71.7106 81.0688   5
  -7   4   6 196.967 123.903   4
   7  -4  -6 141.996 80.1226   2
  -7   4   5 3646.63 293.970   5
  -7   4   5 4325.04 383.125   4
   7  -4  -5 4490.90 363.745   2
  -7   4   4 86.7000 58.4881   5
  -7   4   4 91.2572 74.0817   4
   7  -4  -4 145.883 59.8148   2
  -7   4   3-11.4914 24.4769   1
  -7   4   3 21.7121 53.5491   5
  -7   4   3 16.4986 44.3311   3
   7  -4  -3-23.7306 60.2285   2
  -7   4   3 48.8938 58.9743   4
  -7   4   2 3243.84 280.294   5
  -7   4   2 3459.11 309.034   4
  -7   4   2 2938.49 174.080   1
   7  -4  -2 3175.14 211.890   2
  -7   4   2 3783.14 261.300   3
  -7   4   1 9870.14 500.942   5
  -7   4   1 8031.77 320.058   1
  -7   4   1 9255.06 499.918   4
   7  -4  -1 6852.65 269.876   2
  -7   4   1 10415.4 405.936   3
  -7   4   0 10944.4 545.152   5
  -7   4   0 10668.6 544.280   4
  -7   4   0 11015.0 390.962   3
  -7   4  -1 7180.04 438.803   5
  -7   4  -1 6451.21 406.453   4
  -7   4  -1 5279.87 212.525   3
  -7   4  -2 464.707 117.910   5
  -7   4  -2 811.005 155.477   4
  -7   4  -3 6155.21 415.148   5
  -7   4  -3 5413.99 391.122   4
   7  -4   3 6663.83 297.854   1
  -7   4  -4 56.2924 81.8759   5
   7  -4   4 115.228 47.9925   1
  -7   4  -4 138.424 96.2197   4
  -7   4  -5 39.8383 60.7376   5
  -7   4  -5 45.3697 75.3998   4
   7  -4   5 26.5178 51.1332   1
  -7   4  -6 27.1635 62.2026   5
   7  -4   6 44.1102 72.2427   7
   7  -4   6-45.9175 58.6058   1
  -7   4  -6 25.0975 69.6170   4
   7  -4   6-0.97886 59.4907   6
  -7   4  -7 244.474 103.568   5
   7  -4   7 120.617 68.3569   1
   7  -4   7 160.997 72.6228   7
  -7   4  -7 96.1728 73.2082   4
   7  -4   7 278.124 115.980   6
  -7   3  10 109.322 61.6299   5
   7  -3 -10 122.079 84.3382   2
  -7   3   9 51.0320 47.3147   5
   7  -3  -9 153.795 104.726   2
  -7   3   8-108.707 78.3659   5
   7  -3  -8-15.4733 56.4833   2
  -7   3   7 812.625 136.320   5
   7  -3  -7 969.482 186.815   2
  -7   3   6 22377.4 830.273   5
  -7   3   6 22657.4 947.791   4
  -7   3   6 25368.2 1029.86   2
   7  -3  -6 27327.1 974.474   2
  -7   3   5 4841.03 350.288   5
  -7   3   5 5630.04 431.914   4
  -7   3   5 5809.47 423.074   2
   7  -3  -5 5943.55 387.904   2
  -7   3   4 14320.8 632.496   5
  -7   3   4 14502.3 699.073   4
   7  -3  -4 16370.9 604.254   2
  -7   3   4 15114.3 624.553   3
  -7   3   3 3159.65 277.656   5
  -7   3   3 2932.56 289.435   4
  -7   3   3 2914.77 149.797   1
   7  -3  -3 3338.30 214.189   2
  -7   3   3 3421.44 255.986   3
  -7   3   2 3282.79 277.784   5
  -7   3   2 2835.14 284.339   4
  -7   3   2 2687.96 138.819   1
   7  -3  -2 2434.02 128.112   2
  -7   3   2 3590.14 237.453   3
  -7   3   1 225.471 77.1343   5
  -7   3   1 283.702 61.8625   3
  -7   3   1 257.010 103.583   4
  -7   3   0 1938.85 224.047   5
  -7   3   0 1957.07 233.828   4
  -7   3   0 1842.84 120.275   3
  -7   3  -1 10453.4 526.621   5
  -7   3  -1 10158.2 538.196   4
  -7   3  -2 4204.75 335.971   5
  -7   3  -2 4215.94 353.108   4
   7  -3   2 4633.09 212.465   1
  -7   3  -3 2253.82 246.364   5
  -7   3  -3 2100.20 252.437   4
   7  -3   3 2232.64 165.899   1
  -7   3  -4 1862.22 232.627   5
  -7   3  -4 1939.19 246.068   4
   7  -3   4 2073.80 189.352   1
  -7   3  -5 558.852 133.574   5
   7  -3   5 737.748 128.219   1
   7  -3   5 583.551 114.786   7
  -7   3  -5 885.898 191.304   4
   7  -3   5 860.032 170.490   6
  -7   3  -6 1920.76 246.474   5
   7  -3   6 2155.46 237.473   1
   7  -3   6 1858.03 221.325   7
  -7   3  -6 2197.98 276.499   4
   7  -3   6 2187.18 277.492   6
  -7   3  -7 180.105 94.4434   5
   7  -3   7 341.417 115.338   1
   7  -3   7 210.821 72.5243   7
  -7   3  -7 169.183 101.989   4
   7  -3   7 178.406 104.056   6
  -7   3  -8 538.467 168.565   4
   7  -2 -10 126.165 101.060   2
   7  -2  -9 694.016 166.251   2
   7  -2  -8 76.8887 55.1964   2
   7  -2  -7 804.608 158.938   2
  -7   2   6 18.7217 45.0721   2
   7  -2  -6-132.877 94.5431   2
  -7   2   5 660.177 136.011   2
  -7   2   5 853.321 185.051   4
   7  -2  -5 664.578 123.074   2
  -7   2   4 20231.4 776.160   5
  -7   2   4 19905.6 849.080   4
  -7   2   4 21327.3 739.485   2
   7  -2  -4 23679.8 682.754   2
  -7   2   3 25.7323 62.3193   5
  -7   2   3-13.1096 68.9708   4
  -7   2   3 6.40394 10.5730   1
   7  -2  -3 53.3060 29.1947   2
  -7   2   2 23872.3 852.783   5
  -7   2   2 22488.9 890.804   4
  -7   2   2 26013.4 723.046   3
  -7   2   1 8548.61 469.277   5
  -7   2   1 8152.52 495.262   4
  -7   2   1 9044.50 328.838   3
  -7   2   0 85.8995 53.8267   5
  -7   2   0 56.7173 18.6627   3
  -7   2   0-20.3402 64.7363   4
  -7   2  -1 7577.96 443.679   5
  -7   2  -1 7980.77 475.238   4
   7  -2   2 863.926 81.2289   1
  -7   2  -2 989.325 169.391   5
  -7   2  -2 1029.55 181.191   4
  -7   2  -3 5479.82 377.750   5
  -7   2  -3 4918.40 384.835   4
   7  -2   3 5632.97 281.308   1
   7  -2   3 4662.04 361.221   7
  -7   2  -4 142.427 68.7784   5
   7  -2   4 86.4061 49.3709   1
   7  -2   4 75.7084 53.9188   7
  -7   2  -4 293.107 120.545   4
  -7   2  -5 2945.08 282.752   5
   7  -2   5 3271.14 280.034   1
  -7   2  -5 3467.53 344.790   4
   7  -2   5 2800.46 271.783   7
   7  -2   5 3285.20 344.026   6
  -7   2  -6 18.0707 65.1715   5
  -7   2  -6 30.5411 70.5655   4
   7  -2   6 41.9360 62.4005   1
   7  -2   6-75.7968 71.0792   7
   7  -2   6 76.4750 75.3761   6
  -7   2  -7-41.2376 62.2786   5
   7  -2   7 9.27000 46.3858   7
  -7   2  -7-95.2323 97.9028   4
   7  -2   7 17.9802 60.7489   6
   7  -1 -11 89.5302 110.540   2
   7  -1 -10 26.9622 69.5372   2
   7  -1  -9 218.898 96.1092   2
   7  -1  -8 332.324 111.668   2
  -7   1   7 500.614 144.249   2
  -7   1   7 833.267 181.396   4
   7  -1  -7 875.245 161.294   2
  -7   1   6 463.235 114.346   2
  -7   1   6 561.496 151.800   4
   7  -1  -6 421.258 106.340   2
  -7   1   5 6829.76 476.514   4
  -7   1   5 7312.25 429.572   2
   7  -1  -5 7358.59 370.148   2
  -7   1   4 21174.6 879.110   4
  -7   1   4 24376.4 759.360   2
  -7   1   3 76.5623 31.7005   2
  -7   1   3 248.189 107.642   4
  -7   1   2 19896.9 755.804   5
  -7   1   2 19496.1 813.369   4
  -7   1   1 1304.29 185.352   5
  -7   1   1 1361.62 199.860   4
  -7   1   0 18876.2 717.451   5
  -7   1   0 18393.1 746.068   4
  -7   1   0 15596.8 346.278   3
  -7   1  -1 13426.6 591.919   5
  -7   1  -1 12889.6 629.480   4
   7  -1   1 12191.0 603.376   7
   7  -1   1 12353.3 297.956   1
  -7   1  -2 172.178 93.6893   5
   7  -1   2 191.369 47.1509   1
  -7   1  -2 241.268 104.552   4
   7  -1   2 141.464 69.1903   7
  -7   1  -3 6270.98 391.781   5
  -7   1  -3 6637.42 459.090   4
   7  -1   3 6508.65 419.958   7
  -7   1  -3 4298.77 195.033   2
  -7   1  -4 428.712 115.903   5
   7  -1   4 324.841 94.8772   7
  -7   1  -4 548.309 145.880   4
   7  -1   4 541.313 147.319   6
  -7   1  -4 358.750 73.0853   2
  -7   1  -5 914.051 157.489   5
   7  -1   5 774.113 138.847   7
  -7   1  -5 1256.95 221.886   4
   7  -1   5 735.488 170.415   6
  -7   1  -6 2353.86 258.063   5
  -7   1  -6 2236.53 292.877   4
   7  -1   6 2145.88 238.183   7
   7  -1   6 2114.04 286.341   6
  -7   1  -6 2007.13 220.355   2
  -7   1  -7-1.70207 46.4102   5
  -7   1  -7 87.7912 91.2948   4
   7  -1   7 42.7543 58.5457   6
   7   0 -11 1075.77 171.888   7
   7   0 -11 1524.23 268.516   2
   7   0 -10-20.2586 47.8697   7
   7   0 -10-93.0783 90.6939   2
   7   0  -9-11.3322 41.6059   7
   7   0  -9 28.3134 49.7876   2
   7   0  -8 23.9379 57.9979   2
   7   0  -8-6.40205 38.2276   7
  -7   0   7 1273.41 217.250   4
  -7   0   7 1290.22 210.128   2
   7   0  -7 1467.20 195.029   2
  -7   0   6 5234.14 426.036   4
  -7   0   6 5582.13 404.282   2
   7   0  -6 5988.92 366.265   2
  -7   0   5 7306.14 491.801   4
  -7   0   5 6275.75 234.320   1
  -7   0   5 6929.27 405.553   2
  -7   0   4 5426.55 413.492   4
  -7   0   4 4823.97 294.413   2
  -7   0   3 18938.3 807.648   4
   7   0  -3 18430.2 757.942   7
  -7   0   3 18968.4 552.142   2
  -7   0   2 23870.2 863.032   4
   7   0  -2 22417.1 814.595   7
  -7   0   2 21255.7 573.098   3
  -7   0   1 8410.68 459.506   5
  -7   0   1 7793.64 487.005   4
   7   0  -1 7804.38 471.337   7
  -7   0   1 7090.75 267.334   3
  -7   0   0 269.229 34.8013   3
  -7   0   0 456.089 123.926   5
  -7   0   0 927.239 189.863   4
   7   0   0 422.221 114.420   7
  -7   0  -1 6313.40 395.250   5
   7   0   1 5766.96 205.701   1
  -7   0  -1 6902.20 452.088   4
   7   0   1 6322.67 416.623   7
  -7   0  -2 569.210 112.445   5
  -7   0  -2 746.880 162.489   4
   7   0   2 531.936 126.240   7
  -7   0  -2 394.143 57.3757   2
  -7   0  -3 3363.50 280.649   5
   7   0   3 3046.17 286.783   7
  -7   0  -3 3559.91 340.040   4
   7   0   3 3368.14 332.274   6
  -7   0  -3 2507.64 187.236   2
  -7   0  -4 1736.74 204.419   5
   7   0   4 1663.11 212.101   7
  -7   0  -4 1422.68 224.052   4
  -7   0  -4 1386.86 159.156   2
   7   0   4 1802.30 250.236   6
  -7   0  -5 4747.07 343.568   5
  -7   0  -5 5230.73 437.465   4
   7   0   5 5317.60 377.296   7
   7   0   5 5383.58 449.977   6
  -7   0  -5 3851.86 308.585   2
  -7   0  -6 103.524 71.1497   5
  -7   0  -6-47.3481 99.5125   4
  -7   0  -6 37.0853 46.7922   2
   7   0   6 143.598 91.9110   6
  -7   0  -7 37.4127 60.0384   5
  -7   0  -7 6.39545 69.8986   4
   7   0   7 80.3094 74.8048   6
   7   1 -11 114.661 88.8178   2
   7   1 -11 94.0026 60.7246   7
   7   1 -10-0.35333 67.6671   2
   7   1 -10-72.1194 59.1570   7
   7   1  -9 118.696 86.4753   2
   7   1  -9 23.8733 43.8024   7
   7   1  -8 96.7922 71.6226   2
   7   1  -8 78.3272 53.2884   7
  -7  -1   7 1198.83 197.248   2
  -7  -1   7 977.075 193.863   4
   7   1  -7 780.849 139.822   7
  -7  -1   6 89.4969 45.2493   1
  -7  -1   6 69.6375 66.1434   2
   7   1  -6-28.2628 62.6520   7
  -7  -1   5 47.0752 22.8466   1
  -7  -1   5-24.2684 51.0988   2
   7   1  -5 67.0975 69.7234   7
  -7  -1   4 7784.32 503.330   4
   7   1  -4 8123.92 478.651   7
  -7  -1   4 7977.08 397.343   2
  -7  -1   3 2282.11 268.570   4
   7   1  -3 2071.79 240.700   7
  -7  -1   3 2079.25 167.445   2
  -7  -1   2 21973.0 869.693   4
   7   1  -2 23111.1 845.218   7
  -7  -1   2 18929.2 546.118   2
  -7  -1   2 21606.2 621.120   3
  -7  -1   1 11679.9 592.435   4
  -7  -1   1 8069.11 313.876   2
   7   1  -1 11603.5 573.241   7
  -7  -1   1 11073.9 353.892   3
  -7  -1   1 8655.19 295.317   2
  -7  -1   0 8827.90 468.594   5
  -7  -1   0 8346.37 493.631   4
  -7  -1   0 6289.58 270.175   2
   7   1   0 8708.96 493.900   7
  -7  -1   0 7612.23 244.582   3
  -7  -1  -1 5491.29 363.464   5
  -7  -1  -1 5458.24 400.355   4
   7   1   1 5083.06 370.096   7
  -7  -1  -1 3971.64 225.246   2
  -7  -1  -2 3482.17 279.782   5
  -7  -1  -2 3538.57 334.163   4
  -7  -1  -2 2958.42 221.567   2
   7   1   2 3662.87 316.884   7
   7   1   2 3708.05 341.652   6
  -7  -1  -3 4211.68 311.396   5
  -7  -1  -3 4658.08 402.152   4
   7   1   3 4568.13 362.230   7
   7   1   3 5087.67 413.527   6
  -7  -1  -3 3926.92 294.357   2
  -7  -1  -4 1030.80 154.256   5
  -7  -1  -4 957.383 197.549   4
   7   1   4 917.905 170.709   7
   7   1   4 1050.67 202.360   6
  -7  -1  -5 121.004 82.8408   5
  -7  -1  -5 199.193 86.0624   2
  -7  -1  -5 265.148 120.569   4
   7   1   5-22.4563 70.5064   6
  -7  -1  -6 360.081 100.103   5
  -7  -1  -6 375.506 123.855   2
  -7  -1  -6 392.956 139.361   4
   7   1   6 639.485 174.652   6
   7   2 -11 999.925 210.047   2
  -7  -2  11 586.040 147.404   1
   7   2 -11 612.023 126.788   7
  -7  -2  10 2057.66 243.918   1
   7   2 -10 2131.75 239.281   7
   7   2 -10 2742.98 326.224   2
  -7  -2   9 19.5209 39.9135   1
   7   2  -9-7.03164 54.1588   7
  -7  -2   8-12.0339 72.5897   4
  -7  -2   8 83.3525 58.0765   1
   7   2  -8 42.0239 38.6988   7
  -7  -2   7 1120.98 210.539   4
   7   2  -7 1331.41 186.511   7
  -7  -2   6 3247.56 335.266   4
   7   2  -6 3111.04 291.424   7
  -7  -2   6 3053.62 170.124   1
  -7  -2   6 3041.32 294.674   2
  -7  -2   5-36.0388 63.9594   3
  -7  -2   5 42.7263 66.2671   4
   7   2  -5-41.6704 62.3328   7
  -7  -2   5 79.9050 53.3160   2
  -7  -2   4 776.792 125.636   3
  -7  -2   4 970.536 173.702   4
   7   2  -4 813.457 151.082   7
  -7  -2   4 1075.34 145.953   2
  -7  -2   3 5754.38 426.612   4
   7   2  -3 5870.80 407.710   7
  -7  -2   3 5192.11 297.946   2
  -7  -2   2 363.837 109.070   4
   7   2  -2 561.486 131.148   7
  -7  -2   2 368.334 73.4824   2
  -7  -2   1 40058.4 1200.84   4
  -7  -2   1 32550.1 918.881   2
   7   2  -1 41574.6 1187.86   7
  -7  -2   1 38624.4 861.375   3
   7   2   0 16098.5 691.914   7
  -7  -2   0 15351.2 699.437   4
  -7  -2   0 12275.7 512.505   2
   7   2   0 11543.4 327.489   1
  -7  -2   0 13254.2 415.687   3
  -7  -2  -1 9292.65 487.371   5
  -7  -2  -1 9669.14 557.331   4
  -7  -2  -1 8393.17 442.084   2
   7   2   1 9822.80 536.467   7
   7   2   1 9921.18 553.743   6
  -7  -2  -1 7611.30 299.016   3
  -7  -2  -2 777.847 134.767   5
  -7  -2  -2 1129.12 198.967   4
   7   2   2 1243.72 197.438   7
   7   2   2 1267.26 214.939   6
  -7  -2  -3 116.296 69.0003   5
  -7  -2  -3 155.992 70.7240   2
  -7  -2  -3 226.096 97.1302   4
   7   2   3 269.602 100.392   6
  -7  -2  -4 900.208 141.506   5
  -7  -2  -4 1181.38 200.938   2
  -7  -2  -4 1410.43 238.866   4
   7   2   4 1163.28 214.867   6
  -7  -2  -5 36.3390 46.7294   5
  -7  -2  -5 122.273 79.9420   2
  -7  -2  -5 6.50003 79.2991   4
   7   2   5 91.2585 96.1935   6
  -7  -2  -6 705.200 177.945   2
  -7  -2  -6 690.933 181.281   4
   7   2   6 688.751 182.566   6
  -7  -3  11 891.293 173.940   1
  -7  -3  10 225.724 86.0044   1
   7   3 -10 430.199 111.126   7
  -7  -3   9 30.1730 76.9342   4
  -7  -3   9 67.5875 58.3645   1
   7   3  -9 80.9893 52.7621   7
  -7  -3   8 93.4539 84.7799   4
   7   3  -8 178.200 73.7436   7
  -7  -3   8 188.338 81.9643   3
  -7  -3   8 219.463 65.4930   1
  -7  -3   7 91.1844 76.4155   3
  -7  -3   7-27.9634 63.6810   4
   7   3  -7-36.3863 42.1455   7
  -7  -3   6 4381.54 393.280   4
   7   3  -6 4955.00 372.156   7
  -7  -3   6 4660.08 358.133   3
  -7  -3   6 5205.94 394.665   2
   7   3  -6 4273.38 311.023   6
  -7  -3   6 4904.27 228.338   1
  -7  -3   5 8631.02 545.361   4
   7   3  -5 8697.02 499.931   7
  -7  -3   5 8336.19 464.976   3
  -7  -3   5 8125.36 464.648   2
  -7  -3   4 9544.43 568.259   4
   7   3  -4 11065.3 571.258   7
  -7  -3   4 10078.9 482.744   3
  -7  -3   4 9619.82 477.231   2
  -7  -3   3 489.477 95.8878   2
  -7  -3   3 805.585 124.083   3
  -7  -3   3 154.993 65.1391   4
   7   3  -3 874.043 164.278   7
   7   3  -2 59.5618 64.3957   7
   7   3  -2-19.7087 19.9959   1
   7   3  -1 4809.61 372.567   7
  -7  -3   1 4613.57 376.265   4
  -7  -3   0 5691.78 422.955   4
   7   3   0 5773.42 416.701   7
   7   3   0 5115.71 386.547   6
   7   3   0 4204.95 201.979   1
  -7  -3  -1 18799.1 736.943   5
  -7  -3  -1 20070.0 857.917   4
   7   3   1 22181.7 876.787   6
  -7  -3  -2 255.823 89.8215   5
  -7  -3  -2 493.445 145.777   2
  -7  -3  -2 481.062 149.316   4
   7   3   2 679.746 160.500   6
  -7  -3  -3 3174.73 262.675   5
  -7  -3  -3 3715.53 365.512   4
  -7  -3  -3 3017.34 328.151   2
   7   3   3 4117.90 384.048   6
  -7  -3  -4 910.703 143.155   5
  -7  -3  -4 788.750 180.673   2
  -7  -3  -4 1224.28 233.441   4
   7   3   4 914.813 194.865   6
  -7  -3  -5 224.017 122.984   2
  -7  -3  -5 462.026 146.120   4
   7   3   5 445.882 155.788   6
  -7  -4  11 55.6508 67.6184   3
  -7  -4  11 192.635 97.9492   1
  -7  -4  10 3466.73 410.421   4
  -7  -4  10 3394.89 294.514   1
  -7  -4  10 3234.54 370.617   3
  -7  -4   9 70.3866 62.8625   3
  -7  -4   9 124.089 68.8762   1
  -7  -4   9 123.160 96.3875   4
  -7  -4   8 987.815 190.577   3
  -7  -4   8 993.903 206.926   4
  -7  -4   8 1164.82 139.728   1
  -7  -4   7 1145.24 195.809   3
  -7  -4   7 1009.86 203.455   4
  -7  -4   7 1156.38 127.508   1
   7   4  -7 864.491 137.603   6
  -7  -4   6 578.672 131.797   3
  -7  -4   6 534.319 146.828   4
   7   4  -6 550.615 128.444   7
   7   4  -6 493.515 103.655   6
  -7  -4   5 6800.99 491.402   4
   7   4  -5 7573.11 474.729   7
  -7  -4   5 6771.72 422.905   3
  -7  -4   5 6292.95 421.241   2
  -7  -4   4 6081.99 452.099   4
   7   4  -4 6293.34 432.144   7
  -7  -4   4 5920.23 372.936   3
  -7  -4   4 5243.05 357.000   2
  -7  -4   3 1387.24 205.213   4
  -7  -4   3 1566.48 178.603   3
  -7  -4   3 1631.33 184.599   2
  -7  -4   2 6726.86 459.367   4
   7   4  -2 6126.66 281.876   1
  -7  -4   2 6761.80 370.590   3
  -7  -4   1 2986.91 304.238   4
  -7  -4   1 2223.85 262.127   2
   7   4  -1 2258.09 160.468   1
   7   4  -1 3000.55 287.530   6
  -7  -4   1 2369.44 209.382   3
  -7  -4   0-26.3813 63.5308   2
  -7  -4   0 122.183 64.8996   3
  -7  -4   0 0.44183 66.6796   4
   7   4   0 247.122 103.624   6
   7   4   0 100.709 49.4684   1
  -7  -4  -1 5762.02 374.251   5
  -7  -4  -1 5914.91 447.628   4
  -7  -4  -1 4877.47 421.632   2
   7   4   1 6853.90 465.639   6
  -7  -4  -1 5363.72 318.812   3
  -7  -4  -2 2077.57 219.217   5
  -7  -4  -2 2544.76 304.144   4
  -7  -4  -2 2262.21 301.556   2
   7   4   2 2643.35 305.606   6
  -7  -4  -2 2193.11 203.909   3
  -7  -4  -3 1575.74 183.891   5
  -7  -4  -3 1429.38 258.270   2
  -7  -4  -3 1848.95 266.600   4
   7   4   3 2155.05 291.349   6
  -7  -4  -4 61.7978 90.5111   2
  -7  -4  -4 148.153 94.5989   4
   7   4   4 250.198 121.199   6
  -7  -5  11-68.7445 74.4121   3
  -7  -5  11 9.97381 49.0918   1
  -7  -5  10 1563.49 259.496   3
  -7  -5  10 1470.09 187.143   1
  -7  -5  10 1640.58 293.165   4
  -7  -5   9 185.130 111.737   3
  -7  -5   9 195.869 96.8002   4
  -7  -5   9 80.8643 56.3495   1
  -7  -5   8 189.740 84.4136   3
  -7  -5   8 244.036 71.3343   1
  -7  -5   8 229.855 85.8583   4
  -7  -5   7 23.6864 53.9250   3
  -7  -5   7 328.707 124.882   4
  -7  -5   6 692.517 148.748   3
  -7  -5   6 634.481 156.661   4
   7   5  -6 474.908 106.359   6
  -7  -5   5 1557.45 205.259   3
  -7  -5   5 1231.13 214.954   4
  -7  -5   4 1269.80 210.494   4
  -7  -5   4 1510.57 194.997   3
  -7  -5   3 489.877 110.277   3
   7   5  -3 380.535 81.3164   1
  -7  -5   3 286.973 98.1626   4
   7   5  -3 472.673 105.947   6
  -7  -5   2 725.674 131.896   3
  -7  -5   2 882.176 167.637   4
   7   5  -2 776.319 107.508   1
   7   5  -2 799.185 144.349   6
  -7  -5   1 1344.92 168.521   3
  -7  -5   1 932.711 192.992   2
  -7  -5   1 1430.64 217.885   4
   7   5  -1 1676.12 217.610   6
  -7  -5   0-37.6340 61.2350   2
  -7  -5   0 257.335 84.2436   3
  -7  -5   0 111.143 72.6783   4
   7   5   0 193.907 95.6188   6
  -7  -5  -1 1981.69 216.795   5
  -7  -5  -1 1847.68 277.291   2
  -7  -5  -1 2266.04 287.536   4
   7   5   1 2572.54 296.779   6
  -7  -5  -1 2230.28 222.479   3
  -7  -5  -2 804.487 200.276   2
  -7  -5  -2 1013.14 153.249   5
  -7  -5  -2 968.824 152.279   3
  -7  -5  -2 951.713 195.090   4
   7   5   2 1316.27 228.859   6
  -7  -5  -3 1405.52 289.150   2
  -7  -5  -3 2300.82 302.233   4
   7   5   3 1975.45 287.974   6
  -7  -6  10 327.771 127.283   3
  -7  -6  10 402.437 168.747   4
  -7  -6  10 190.731 80.5954   1
  -7  -6   9 684.174 170.937   3
  -7  -6   9 570.298 177.999   4
  -7  -6   9 766.477 130.478   1
  -7  -6   8 688.455 161.586   3
  -7  -6   8 699.679 117.374   1
  -7  -6   8 631.240 178.203   4
  -7  -6   7 1775.72 248.011   3
  -7  -6   7 1695.55 257.849   4
  -7  -6   6-56.5993 75.9046   3
  -7  -6   6 4.03554 62.9800   4
  -7  -6   5-10.5962 56.8141   3
  -7  -6   5-198.843 126.427   4
   7   6  -5-67.3509 53.8108   6
  -7  -6   4 162.314 79.6883   3
  -7  -6   4 117.266 78.2880   4
   7   6  -4 138.914 57.3887   6
  -7  -6   3 3812.12 351.566   4
   7   6  -3 3772.42 300.066   6
  -7  -6   3 3601.97 312.946   3
  -7  -6   2 1016.12 168.380   3
  -7  -6   2 1278.90 211.804   4
   7   6  -2 1279.88 185.193   6
  -7  -6   1 902.661 156.127   3
  -7  -6   1 683.311 150.347   4
   7   6  -1 1098.75 176.887   6
  -7  -6   1 577.036 169.437   2
  -7  -6   0 115.318 109.824   2
  -7  -6   0 151.591 85.8232   3
  -7  -6   0 46.0340 80.8894   4
   7   6   0 171.283 89.1619   6
  -7  -6  -1 108.410 93.5705   2
  -7  -6  -1-56.8317 66.4264   5
  -7  -6  -1 50.3610 68.5123   3
  -7  -6  -1 160.345 96.0983   4
   7   6   1-10.5546 50.2603   6
  -7  -6  -2 1079.81 255.810   2
  -7  -6  -2 1286.33 192.139   3
  -7  -6  -2 1159.53 219.414   4
   7   6   2 1373.20 233.607   6
  -7  -7   9 706.740 135.803   1
  -7  -7   9 638.769 174.054   3
  -7  -7   9 594.613 174.326   4
  -7  -7   8 1029.66 206.304   3
  -7  -7   8 752.253 182.336   4
  -7  -7   7 14.1640 67.7887   3
  -7  -7   7 15.8527 59.2266   4
  -7  -7   6 293.850 107.358   3
  -7  -7   6 202.402 108.508   4
  -7  -7   5 565.875 144.813   3
  -7  -7   5 473.345 134.096   4
   7   7  -5 569.672 104.829   6
  -7  -7   4-43.0561 89.0327   3
  -7  -7   4 109.566 79.1632   4
   7   7  -4 209.032 71.1961   6
  -7  -7   3-0.28719 52.1825   3
  -7  -7   3 63.9746 83.3083   4
   7   7  -3 142.336 67.6374   6
  -7  -7   2 232.769 99.4475   3
  -7  -7   2 297.842 100.494   4
   7   7  -2 491.973 120.009   6
  -7  -7   1 1534.63 215.369   3
  -7  -7   1 1476.29 228.078   4
   7   7  -1 1665.57 225.838   6
  -7  -7   1 1099.47 246.385   2
  -7  -7   0 30.1914 71.8556   2
  -7  -7   0 43.2873 62.5370   3
  -7  -7   0 13.8902 81.5077   4
   7   7   0 243.162 107.111   6
  -7  -8   7 1196.10 219.964   3
  -7  -8   7 1268.26 235.294   4
  -7  -8   6 216.185 109.086   3
  -7  -8   6 5.63393 79.6106   4
  -7  -8   5-140.886 95.1139   3
  -7  -8   5 62.3820 71.9590   4
  -7  -8   4 65.3740 82.3285   3
  -7  -8   4 396.014 136.081   4
  -7  -8   3 426.788 129.849   3
  -7  -8   3 408.199 124.574   4
  -7  -8   2 34.1312 59.5392   3
  -7  -8   2 1.88375 90.6290   2
   7   8  -2 219.069 87.0993   6
  -8   8   3 19.9727 58.7097   5
  -8   8   2 384.287 128.597   5
  -8   8   1 438.461 129.330   5
  -8   8   0 294.504 119.008   5
  -8   8  -1 171.319 106.943   5
  -8   8  -2-22.6331 73.1318   5
  -8   8  -3 67.2670 85.5711   5
  -8   7   5 14.4120 47.6335   5
  -8   7   5-2.79919 78.2842   4
  -8   7   4 108.333 59.7116   5
  -8   7   4 198.165 103.481   4
  -8   7   3 396.864 114.290   5
  -8   7   3 322.885 106.049   4
  -8   7   2 573.677 150.919   5
  -8   7   2 387.285 109.541   4
  -8   7   1 1573.89 231.092   5
  -8   7   1 1116.38 173.751   4
  -8   7   0 1230.86 202.869   5
  -8   7   0 1265.48 179.672   4
  -8   7  -1 380.889 130.927   5
  -8   7  -1 440.476 115.148   4
  -8   7  -2 333.051 112.248   5
  -8   7  -2 257.146 90.6751   4
  -8   7  -3 883.611 191.432   5
  -8   7  -3 887.462 162.672   4
  -8   7  -4 617.952 170.962   5
  -8   7  -4 730.828 162.129   4
  -8   7  -5 44.0699 88.8411   5
  -8   7  -5 232.512 103.529   4
  -8   6   7 48.1973 47.2038   5
  -8   6   7-83.2943 109.565   4
  -8   6   6 3240.81 361.972   4
   8  -6  -6 4277.80 429.474   2
  -8   6   5 340.637 106.897   5
   8  -6  -5 703.204 170.227   2
  -8   6   5 506.103 144.499   4
  -8   6   4 588.268 131.383   5
   8  -6  -4 469.015 130.311   2
  -8   6   4 513.972 134.446   4
  -8   6   3 114.262 71.4080   5
   8  -6  -3 157.561 90.5818   2
  -8   6   3 85.4476 74.6351   4
  -8   6   2 70.9642 61.4579   5
   8  -6  -2 37.1064 41.0251   2
  -8   6   2 141.437 91.7649   4
  -8   6   1 735.087 147.329   5
  -8   6   1 865.857 155.804   4
  -8   6   0 182.555 99.2631   5
  -8   6   0 121.496 68.6854   4
  -8   6  -1 2883.62 307.924   5
  -8   6  -1 2608.78 269.182   4
  -8   6  -2 261.676 99.9848   5
  -8   6  -2 73.0430 58.3008   4
  -8   6  -3-94.7413 68.8228   5
  -8   6  -3-51.5605 63.7453   4
  -8   6  -4 50.7632 61.3516   5
  -8   6  -4-7.44815 69.0399   4
  -8   6  -5 792.352 187.619   5
  -8   6  -5 626.979 150.802   4
  -8   5   8 348.521 100.799   5
  -8   5   8 500.012 161.828   4
   8  -5  -8 494.175 150.768   2
  -8   5   7 28.0802 52.3447   5
  -8   5   7 7.82297 82.7333   4
   8  -5  -7-72.5670 62.4177   2
  -8   5   6 127.912 72.8318   5
  -8   5   6 555.621 162.830   4
   8  -5  -6 369.218 133.568   2
  -8   5   5 2447.71 264.155   5
  -8   5   5 2724.10 318.793   4
   8  -5  -5 2918.39 307.202   2
  -8   5   4 4165.92 346.281   5
  -8   5   4 3870.42 361.752   4
   8  -5  -4 4583.66 352.173   2
  -8   5   3 1190.72 186.300   5
   8  -5  -3 1238.35 158.884   2
  -8   5   3 1176.38 189.900   4
  -8   5   2 2701.17 278.769   5
  -8   5   2 2486.83 279.263   4
   8  -5  -2 1969.56 171.104   2
  -8   5   2 2467.81 228.631   3
  -8   5   1 15.4129 49.9168   5
  -8   5   1 2.74382 43.1659   1
  -8   5   1 10.9535 29.8423   3
  -8   5   1 25.7663 72.8069   4
  -8   5   0 32.2849 59.1954   5
  -8   5   0-57.4402 62.0966   4
  -8   5  -1 475.014 122.273   5
  -8   5  -1 340.204 98.5960   4
  -8   5  -2 113.030 82.2804   5
  -8   5  -2-25.2430 60.4954   4
  -8   5  -3 3074.39 322.704   5
  -8   5  -3 2630.02 294.985   4
  -8   5  -4 72.4360 61.5891   5
  -8   5  -4 42.3239 71.4045   4
   8  -5   4 138.990 64.4024   1
  -8   5  -5 281.769 110.292   5
  -8   5  -5 100.542 84.2270   4
  -8   5  -6 241.234 109.229   5
  -8   5  -6 254.997 117.420   4
   8  -5   6 211.013 99.7340   6
  -8   4   8 90.0534 52.8238   5
  -8   4   8 228.891 132.245   4
   8  -4  -8 108.210 79.8201   2
  -8   4   7 441.523 113.796   5
  -8   4   7 512.880 170.665   4
   8  -4  -7 653.891 162.434   2
  -8   4   6 94.3399 53.9609   5
  -8   4   6 102.696 94.9034   4
   8  -4  -6 86.2566 59.1785   2
  -8   4   5-29.7331 49.4314   5
  -8   4   5 49.7876 64.8052   4
   8  -4  -5 63.7850 52.2484   2
  -8   4   4 1390.32 200.882   5
  -8   4   4 1224.83 205.761   4
   8  -4  -4 1266.43 159.420   2
  -8   4   4 1015.73 103.441   1
  -8   4   3 670.836 141.260   5
  -8   4   3 753.198 125.011   3
  -8   4   3 695.315 154.500   4
   8  -4  -3 647.285 94.6239   2
  -8   4   3 596.040 74.7839   1
  -8   4   2 408.262 106.090   5
  -8   4   2 345.827 57.4379   1
  -8   4   2 594.282 106.279   3
  -8   4   2 505.511 134.259   4
   8  -4  -2 245.807 33.4143   2
  -8   4   1 2626.25 276.613   5
  -8   4   1 2204.24 264.841   4
  -8   4   1 2750.15 197.444   3
  -8   4   0 92.4306 39.6549   3
  -8   4   0 1.71652 45.8080   5
  -8   4   0-86.4315 78.4907   4
  -8   4  -1 140.358 89.0471   5
  -8   4  -1 176.579 71.5093   4
  -8   4  -2 607.988 147.220   5
  -8   4  -2 509.850 130.029   4
   8  -4   3 89.4613 52.3290   1
  -8   4  -3 51.0030 60.3689   5
  -8   4  -3 10.9518 59.3084   4
  -8   4  -4 162.663 88.3123   5
  -8   4  -4 163.593 96.0841   4
   8  -4   4 231.739 65.5179   1
  -8   4  -5-21.5985 83.7246   5
   8  -4   5 48.4974 53.6748   7
  -8   4  -5 73.6988 62.3603   4
  -8   4  -6 223.262 102.286   5
   8  -4   6 303.720 110.213   7
  -8   4  -6 376.092 149.177   4
   8  -4   6 309.684 135.000   6
  -8   3   9 575.231 135.654   5
   8  -3  -9 1122.15 226.022   2
  -8   3   8 51.7623 54.3766   5
  -8   3   8 188.993 121.796   4
   8  -3  -8 134.864 88.3121   2
  -8   3   7 105.236 56.8391   5
  -8   3   7 178.683 117.843   4
   8  -3  -7 292.928 103.797   2
  -8   3   6 1515.06 208.257   5
  -8   3   6 1650.37 260.315   4
  -8   3   6 1897.37 252.888   2
   8  -3  -6 2069.26 239.211   2
  -8   3   5 252.540 87.1224   5
  -8   3   5 182.422 88.0571   4
   8  -3  -5 338.772 90.1975   2
  -8   3   4 916.689 162.960   5
  -8   3   4 575.279 140.779   4
  -8   3   4 784.728 74.6819   1
   8  -3  -4 895.903 114.837   2
  -8   3   3 5155.96 382.816   5
  -8   3   3 4208.85 380.373   4
  -8   3   3 3357.37 145.821   1
   8  -3  -3 3930.14 172.626   2
  -8   3   3 4816.55 310.509   3
  -8   3   2 3199.50 298.917   5
  -8   3   2 2913.49 310.971   4
  -8   3   2 2934.91 218.767   3
  -8   3   1 487.159 118.643   5
  -8   3   1 435.038 71.1597   3
  -8   3   1 301.591 95.5943   4
  -8   3   0 156.412 30.2083   3
  -8   3   0 98.8652 46.3417   5
  -8   3   0 133.190 70.7908   4
  -8   3  -1 1756.22 225.381   5
  -8   3  -1 1966.07 243.618   4
  -8   3  -2 1.89115 68.0610   5
  -8   3  -2-108.641 87.2732   4
  -8   3  -3 157.894 88.2781   5
   8  -3   3 103.363 37.0161   1
  -8   3  -3 58.7534 78.7958   4
   8  -3   4 951.804 125.208   1
  -8   3  -4 757.207 160.487   5
   8  -3   4 867.331 164.022   7
  -8   3  -4 961.966 188.882   4
  -8   3  -5 612.822 148.522   5
   8  -3   5 607.393 139.971   7
  -8   3  -5 635.066 166.458   4
   8  -3   5 394.620 129.113   6
  -8   3  -6 183.003 71.9356   5
   8  -3   6 107.718 64.4150   7
  -8   3  -6 161.838 103.385   4
   8  -3   6 235.888 132.164   6
   8  -2 -10 174.582 93.9177   2
   8  -2  -9 302.149 103.286   2
  -8   2   8 106.688 104.221   4
   8  -2  -8 104.826 63.6297   2
  -8   2   7 2636.06 328.136   4
   8  -2  -7 3276.73 310.381   2
  -8   2   6 325.679 101.799   2
  -8   2   6 415.424 137.255   4
   8  -2  -6 337.992 87.9496   2
  -8   2   5 58.4215 69.3653   5
  -8   2   5 74.4697 65.6210   4
   8  -2  -5-3.57257 33.6613   2
  -8   2   5 46.7697 47.2446   2
  -8   2   4 4992.07 373.249   5
  -8   2   4 4594.54 400.525   4
  -8   2   3 1658.90 219.660   5
  -8   2   3 1709.63 246.815   4
  -8   2   3 1874.62 188.816   3
  -8   2   2 1605.65 216.250   5
  -8   2   2 1571.63 234.015   4
  -8   2   2 1543.62 152.637   3
  -8   2   1 4495.13 359.118   5
  -8   2   1 4289.71 372.158   4
  -8   2   1 4406.40 210.691   3
  -8   2   0-59.0191 75.9995   5
  -8   2   0-49.3246 74.7377   4
  -8   2  -1 197.934 77.6776   5
  -8   2  -1 229.617 94.9981   4
  -8   2  -2 162.771 54.4531   5
   8  -2   2 122.251 67.9781   7
  -8   2  -2 84.2235 62.8970   4
   8  -2   2 193.745 35.4229   1
  -8   2  -3 470.034 120.684   5
  -8   2  -3 501.211 150.196   4
   8  -2   3 404.734 120.101   7
   8  -2   3 747.406 92.7406   1
  -8   2  -4 42.3224 55.8977   5
   8  -2   4 101.649 58.8623   1
  -8   2  -4-29.3283 78.6662   4
   8  -2   4-33.0104 69.1210   7
   8  -2   4-31.3782 59.0584   6
  -8   2  -5 67.0818 72.4810   5
   8  -2   5-5.86014 49.1926   7
  -8   2  -5 262.629 132.713   4
   8  -2   5 227.644 86.3344   6
  -8   2  -6 418.994 127.644   5
   8  -2   6 332.000 113.278   7
  -8   2  -6 351.562 144.723   4
   8  -2   6 273.222 110.520   6
   8  -1 -10 21.8185 42.0236   7
   8  -1 -10 119.512 85.6910   2
  -8   1   9 618.822 175.665   4
   8  -1  -9 818.127 176.085   2
  -8   1   8 1062.91 231.524   4
   8  -1  -8 1461.76 214.832   2
   8  -1  -7 26.9724 48.4416   2
  -8   1   7 69.5413 67.1029   2
  -8   1   7 158.282 104.138   4
  -8   1   6 2059.70 285.833   4
  -8   1   6 2546.11 278.997   2
   8  -1  -6 2691.48 239.633   2
  -8   1   5 603.687 117.789   2
  -8   1   5 323.659 38.3856   1
  -8   1   5 409.598 144.309   4
  -8   1   4 262.891 63.1978   2
  -8   1   4 345.856 125.070   4
  -8   1   3-1.57133 52.4359   5
  -8   1   3 145.822 104.148   4
  -8   1   2 747.326 148.456   5
  -8   1   2 858.579 164.459   4
  -8   1   1 8015.69 487.783   5
  -8   1   1 7973.47 514.939   4
   8  -1  -1 7815.54 507.115   7
  -8   1   1 6194.17 246.665   3
  -8   1   1 8406.30 290.456   3
  -8   1   0 897.370 164.977   5
  -8   1   0 637.828 150.047   4
   8  -1   0 658.890 143.249   7
  -8   1  -1 880.191 162.986   5
  -8   1  -1 802.979 164.022   4
   8  -1   1 755.887 154.339   7
  -8   1  -2-62.9355 71.4543   5
  -8   1  -2-73.5764 63.9578   4
   8  -1   2 19.0977 64.2424   7
   8  -1   2 5.80926 13.7819   1
  -8   1  -3 2198.39 251.784   5
   8  -1   3 2382.05 174.518   1
   8  -1   3 1840.63 243.896   7
  -8   1  -3 2210.31 281.635   4
  -8   1  -4 436.174 115.449   5
   8  -1   4 286.987 71.3822   1
  -8   1  -4 572.675 167.144   4
   8  -1   4 440.715 115.220   7
   8  -1   4 365.443 121.103   6
  -8   1  -5 163.585 93.3835   5
  -8   1  -5 191.429 115.873   4
   8  -1   5 75.0953 72.1608   7
   8  -1   5 164.624 100.354   6
  -8   1  -6 203.950 93.7463   5
   8  -1   6 301.387 99.5089   7
  -8   1  -6 419.449 156.813   4
   8  -1   6 200.889 99.1364   6
   8   0 -10 47.8881 78.5592   2
   8   0 -10 23.4721 55.1160   7
  -8   0   9 3514.16 398.308   4
   8   0  -9 3647.04 340.174   7
   8   0  -9 4261.52 388.779   2
   8   0  -8 1102.60 189.956   2
  -8   0   8 1019.33 211.869   4
   8   0  -8 839.967 160.322   7
  -8   0   7 1682.52 241.502   2
  -8   0   7 1886.73 281.449   4
   8   0  -7 1778.87 235.076   7
  -8   0   6 8515.21 586.710   4
  -8   0   6 8709.00 293.655   1
   8   0  -6 9083.24 547.023   7
  -8   0   6 9541.68 537.086   2
  -8   0   5 622.695 112.474   2
  -8   0   5 1027.59 203.370   4
   8   0  -5 824.741 163.614   7
  -8   0   4 536.454 91.0593   2
  -8   0   4 743.489 178.879   4
   8   0  -4 349.369 97.3652   7
  -8   0   3 46.3198 24.0311   2
  -8   0   3-33.6271 53.6748   4
  -8   0   2 4816.22 374.801   5
  -8   0   2 4646.66 395.376   4
   8   0  -2 4894.50 397.703   7
  -8   0   2 4087.25 232.003   3
  -8   0   1 202.188 47.2651   3
  -8   0   1 114.254 76.8289   5
  -8   0   1 424.172 133.981   4
   8   0  -1 93.7198 49.1200   7
  -8   0   0 7927.91 484.750   5
  -8   0   0 7413.90 506.223   4
   8   0   0 7871.67 504.753   7
  -8   0  -1 6568.38 437.392   5
  -8   0  -1 6734.88 482.334   4
   8   0   1 6885.46 472.083   7
  -8   0  -2 1328.38 191.273   5
   8   0   2 696.572 81.6384   1
  -8   0  -2 950.024 187.599   4
   8   0   2 1015.65 185.786   7
  -8   0  -3 740.328 151.334   5
  -8   0  -3 700.297 174.276   4
   8   0   3 719.739 158.422   7
   8   0   3 595.956 150.878   6
  -8   0  -4-45.6913 67.8888   5
  -8   0  -4 119.318 95.0522   4
   8   0   4-2.57602 57.4784   7
   8   0   4 98.8410 76.1341   6
  -8   0  -5 136.479 74.4323   5
  -8   0  -5 137.504 95.2928   4
   8   0   5 86.2293 85.2252   7
   8   0   5 105.602 75.6258   6
  -8   0  -6 84.0755 110.442   4
   8   0   6 46.5881 82.8731   6
   8   1 -11 1016.93 209.911   2
   8   1 -11 828.462 159.789   7
   8   1 -10 383.780 137.928   2
   8   1 -10 23.4391 51.4078   7
  -8  -1   9-46.2861 71.6611   1
   8   1  -9-155.131 97.0281   7
  -8  -1   8 662.036 181.417   4
   8   1  -8 133.585 64.9404   7
  -8  -1   7 223.723 102.683   2
  -8  -1   7 524.896 173.073   4
  -8  -1   7 209.468 52.4421   1
   8   1  -7 300.252 98.1403   7
  -8  -1   6 1060.30 168.324   2
  -8  -1   6 1936.41 279.133   4
   8   1  -6 1233.26 194.322   7
  -8  -1   6 978.410 77.3370   1
  -8  -1   5 4596.95 421.484   4
   8   1  -5 4660.45 384.522   7
  -8  -1   5 4635.55 325.864   2
  -8  -1   4 24961.1 1016.12   4
   8   1  -4 26124.7 974.603   7
  -8  -1   4 24229.8 758.946   2
  -8  -1   4 24650.9 811.566   3
  -8  -1   3 26.0646 23.3178   2
  -8  -1   3 85.8070 79.3362   4
   8   1  -3 222.803 93.9777   7
  -8  -1   2 7010.34 490.998   4
  -8  -1   2 4068.71 200.035   2
   8   1  -2 7035.80 472.558   7
  -8  -1   2 4493.69 203.866   2
  -8  -1   2 6798.38 300.841   3
  -8  -1   1 803.328 150.689   5
  -8  -1   1 836.657 163.465   4
  -8  -1   1 400.537 44.4459   2
   8   1  -1 830.856 163.269   7
  -8  -1   1 452.264 46.3066   2
  -8  -1   1 997.125 96.0185   3
  -8  -1   0 604.582 127.616   5
  -8  -1   0 311.282 40.5559   2
  -8  -1   0 959.772 184.528   4
   8   1   0 746.157 145.603   7
  -8  -1   0 348.857 41.4201   2
  -8  -1   0 525.578 58.6448   3
  -8  -1  -1 1214.78 186.548   5
  -8  -1  -1 1001.19 196.234   4
   8   1   1 1007.33 178.018   7
  -8  -1  -1 664.496 75.0138   2
  -8  -1  -2 3887.06 324.733   5
  -8  -1  -2 4098.31 382.478   4
   8   1   2 3905.60 353.978   7
   8   1   2 4568.81 399.994   6
  -8  -1  -2 2872.60 198.664   2
  -8  -1  -3 273.120 91.0204   5
  -8  -1  -3 461.945 155.431   4
   8   1   3 378.034 116.385   7
   8   1   3 320.095 119.395   6
  -8  -1  -4 284.487 101.808   5
  -8  -1  -4 286.214 135.866   4
   8   1   4 315.849 136.002   6
  -8  -1  -5 304.209 94.0727   5
  -8  -1  -5 340.722 135.249   4
   8   1   5 406.394 139.994   6
  -8  -2  11 1550.01 222.904   1
   8   2 -11 1551.41 217.778   7
  -8  -2  10 60.9994 57.8166   1
   8   2 -10 90.8065 48.4060   7
  -8  -2   9 4029.39 436.079   4
  -8  -2   9 4274.61 294.336   1
   8   2  -9 3970.71 348.414   7
  -8  -2   8 5287.74 487.514   4
   8   2  -8 5135.77 403.104   7
  -8  -2   7 549.168 74.7197   1
  -8  -2   7 694.784 187.306   4
   8   2  -7 501.078 120.302   7
  -8  -2   7 604.343 144.359   3
  -8  -2   6 5364.10 461.124   4
   8   2  -6 5816.37 428.269   7
  -8  -2   6 5184.91 391.672   2
  -8  -2   6 5228.02 389.608   3
  -8  -2   5 389.483 105.476   3
  -8  -2   5 419.288 149.666   4
  -8  -2   5 529.884 118.941   2
   8   2  -5 537.734 134.533   7
  -8  -2   4 447.519 100.887   3
  -8  -2   4 805.716 186.815   4
  -8  -2   4 601.170 109.758   2
   8   2  -4 460.089 127.960   7
  -8  -2   3 2258.23 287.097   4
   8   2  -3 2701.83 296.038   7
  -8  -2   3 2038.49 178.091   2
  -8  -2   3 2376.17 206.882   3
  -8  -2   2 477.453 120.099   4
   8   2  -2 725.305 152.141   7
  -8  -2   2 538.513 81.2207   2
  -8  -2   1 757.927 109.900   2
  -8  -2   1 1142.50 204.486   4
   8   2  -1 1282.35 200.999   7
  -8  -2   1 1006.82 109.362   3
  -8  -2   1 1014.83 109.285   2
  -8  -2   0 190.151 64.4408   2
  -8  -2   0 201.439 78.4623   5
  -8  -2   0 174.311 43.6348   3
  -8  -2   0 290.863 119.789   4
   8   2   0 271.302 101.677   7
  -8  -2  -1 423.963 110.486   5
  -8  -2  -1 414.492 90.1380   2
  -8  -2  -1 406.731 60.5658   3
  -8  -2  -1 262.795 108.128   4
   8   2   1 305.945 109.704   7
   8   2   1 451.180 120.446   6
  -8  -2  -2 210.584 85.2779   5
  -8  -2  -2 298.868 113.246   4
   8   2   2 224.364 87.4280   7
   8   2   2 132.567 81.0054   6
  -8  -2  -3 104.441 73.9195   5
  -8  -2  -3-84.9481 90.9723   4
   8   2   3 5.37117 63.1295   6
  -8  -2  -4 150.293 80.5080   5
  -8  -2  -4 305.762 135.747   4
   8   2   4 226.250 109.446   6
  -8  -3  10 1211.69 263.766   4
  -8  -3  10 1185.06 171.489   1
   8   3 -10 1115.29 186.246   7
  -8  -3  10 997.081 215.785   3
  -8  -3   9 2904.92 382.045   4
  -8  -3   9 2546.23 215.560   1
   8   3  -9 2552.06 281.726   7
  -8  -3   9 2997.53 344.188   3
  -8  -3   8 93.0725 91.6377   3
  -8  -3   8 215.724 120.582   4
  -8  -3   8 92.4456 43.9507   1
   8   3  -8 146.300 88.1865   7
  -8  -3   7 977.022 177.228   3
  -8  -3   7 999.922 222.422   4
   8   3  -7 1077.31 186.091   7
  -8  -3   6 3867.21 388.746   4
   8   3  -6 3919.08 352.597   7
  -8  -3   6 3657.78 332.598   2
  -8  -3   6 4228.36 351.864   3
  -8  -3   5 1380.93 236.396   4
   8   3  -5 1772.15 240.029   7
  -8  -3   5 1362.48 185.024   2
  -8  -3   5 1551.17 203.343   3
  -8  -3   4 5604.87 458.469   4
   8   3  -4 5962.00 441.194   7
  -8  -3   4 5892.17 365.144   3
  -8  -3   4 4971.57 338.349   2
  -8  -3   3 3241.06 345.660   4
   8   3  -3 3545.86 339.114   7
  -8  -3   3 3235.97 251.397   3
  -8  -3   3 2704.25 230.189   2
  -8  -3   2 719.594 108.842   2
  -8  -3   2 1015.57 135.078   3
  -8  -3   2 861.688 172.892   4
   8   3  -2 1151.19 201.711   7
  -8  -3   1-135.745 99.8503   4
   8   3  -1 99.6386 74.1060   7
  -8  -3   0 267.895 89.7962   5
  -8  -3   0 375.915 113.686   4
   8   3   0 246.105 102.021   7
   8   3   0 213.781 78.4620   6
  -8  -3  -1 113.875 61.4224   5
  -8  -3  -1 111.088 43.7561   3
  -8  -3  -1-104.425 91.8859   4
   8   3   1 16.5492 57.7182   6
  -8  -3  -2 159.413 78.9464   5
  -8  -3  -2 158.816 66.9825   2
  -8  -3  -2 322.489 119.722   4
   8   3   2 134.249 94.5398   6
  -8  -3  -3 60.8144 50.9506   5
  -8  -3  -3 126.051 110.908   4
   8   3   3-123.154 70.2980   6
  -8  -3  -4-39.5593 46.1073   5
   8   3   4 165.104 109.980   6
  -8  -4  10 101.451 75.2714   3
  -8  -4  10-3.09399 44.4152   1
  -8  -4  10 65.1526 75.4085   4
  -8  -4   9 454.211 149.391   3
  -8  -4   9 469.819 166.628   4
  -8  -4   9 303.230 75.5584   1
  -8  -4   8 4805.26 467.064   4
   8   4  -8 4464.48 386.450   7
  -8  -4   8 4573.05 419.772   3
  -8  -4   8 4692.12 265.545   1
  -8  -4   7-16.2498 49.9847   3
  -8  -4   7 23.6306 70.4925   4
   8   4  -7 157.820 88.8024   7
  -8  -4   6 4019.66 407.130   4
   8   4  -6 4287.85 377.286   7
  -8  -4   6 4133.23 351.000   3
  -8  -4   5 177.279 84.0953   3
  -8  -4   5 28.1145 66.2125   4
   8   4  -5 282.185 113.840   7
  -8  -4   4 1114.14 165.217   3
  -8  -4   4 1125.33 214.835   4
   8   4  -4 1374.66 220.513   7
  -8  -4   4 866.333 144.335   2
  -8  -4   3 575.072 116.485   2
  -8  -4   3 614.527 118.502   3
  -8  -4   3 454.326 131.210   4
  -8  -4   2-41.2246 35.6170   3
  -8  -4   2 33.3140 73.2850   4
   8   4  -2 6.29940 54.2783   6
  -8  -4   1 3233.90 344.538   4
  -8  -4   1 2405.24 277.704   2
   8   4  -1 3155.67 321.276   6
  -8  -4   1 2971.43 239.613   3
  -8  -4   0 387.117 123.141   2
  -8  -4   0 687.827 114.546   3
  -8  -4   0 239.213 90.6511   4
   8   4   0 501.475 130.273   6
  -8  -4  -1 346.028 125.612   2
  -8  -4  -1 226.135 83.6318   5
  -8  -4  -1 215.680 107.881   4
   8   4   1 336.542 120.033   6
  -8  -4  -2 644.636 134.341   5
  -8  -4  -2 672.781 177.120   2
  -8  -4  -2 745.348 187.303   4
   8   4   2 852.286 191.546   6
  -8  -4  -3 830.929 151.858   5
  -8  -4  -3 955.561 212.519   4
   8   4   3 999.593 218.156   6
  -8  -5  10 512.690 166.770   3
  -8  -5  10 691.753 197.023   4
  -8  -5   9 857.663 193.177   3
  -8  -5   9 824.831 226.890   4
  -8  -5   9 907.141 129.964   1
  -8  -5   8 3135.32 380.734   4
  -8  -5   8 2903.60 332.410   3
  -8  -5   7 402.399 120.530   3
  -8  -5   7 463.879 154.017   4
  -8  -5   6 2219.38 298.378   4
  -8  -5   6 2194.54 263.710   3
  -8  -5   5 535.232 136.812   3
  -8  -5   5 685.148 176.387   4
  -8  -5   4 1389.12 231.520   4
  -8  -5   4 1568.85 207.033   3
  -8  -5   3 804.501 148.571   3
  -8  -5   3 544.154 145.587   4
   8   5  -3 711.883 138.545   6
  -8  -5   2 134.565 71.3105   3
  -8  -5   2 134.680 99.3690   4
   8   5  -2 106.474 73.1251   6
  -8  -5   1 860.693 144.126   3
  -8  -5   1 830.702 177.256   4
   8   5  -1 836.166 168.406   6
  -8  -5   1 699.535 167.625   2
  -8  -5   0 151.112 83.5913   2
  -8  -5   0 209.513 73.4650   3
  -8  -5   0-23.7940 97.3679   4
   8   5   0 145.795 87.2252   6
  -8  -5  -1 262.429 143.848   2
  -8  -5  -1 456.805 116.030   5
  -8  -5  -1 300.208 128.436   4
   8   5   1 332.058 136.889   6
   8   5   2 584.672 161.502   6
  -8  -6   9 438.763 140.967   3
  -8  -6   9 452.644 168.024   4
  -8  -6   8 1291.25 232.039   3
  -8  -6   8 924.888 209.754   4
  -8  -6   7 25.7360 51.8127   3
  -8  -6   7 16.1216 89.9431   4
  -8  -6   6 2150.88 300.886   4
  -8  -6   6 2218.00 277.648   3
  -8  -6   5 1148.05 193.952   3
  -8  -6   5 994.232 207.807   4
   8   6  -5 1129.23 166.666   6
  -8  -6   4 290.826 103.772   3
  -8  -6   4 321.671 131.267   4
   8   6  -4 318.327 98.1963   6
  -8  -6   3 640.764 139.079   3
  -8  -6   3 563.438 159.526   4
   8   6  -3 810.638 151.154   6
  -8  -6   2 78.3142 60.5305   3
  -8  -6   2 110.008 93.9597   2
  -8  -6   2 104.777 77.4580   4
   8   6  -2 187.540 74.0559   6
  -8  -6   1 166.635 93.7101   3
  -8  -6   1-43.7469 78.0032   4
   8   6  -1 72.0604 72.1651   6
  -8  -6   1 101.063 95.9277   2
  -8  -6   0 74.2715 94.8340   2
  -8  -6   0 157.507 73.5515   3
  -8  -6   0 132.913 77.0075   4
   8   6   0 207.616 102.756   6
  -8  -7   7 395.747 146.862   3
  -8  -7   7 161.047 101.012   4
  -8  -7   6 1763.16 273.015   4
  -8  -7   6 2796.28 321.034   3
  -8  -7   5-130.983 101.168   3
  -8  -7   5-153.136 131.641   4
  -8  -7   4 1118.09 202.098   3
  -8  -7   4 743.508 181.439   4
  -8  -7   3 442.456 121.087   3
  -8  -7   3 272.235 100.694   4
   8   7  -3 796.312 155.030   6
  -9   7   3 122.859 92.0066   5
  -9   7   3 31.9980 73.8745   4
  -9   7   2 94.7071 71.6568   5
  -9   7   2 88.2253 62.2960   4
  -9   7   1 28.1556 64.2108   5
  -9   7   1 74.3763 96.3148   4
  -9   7   0 1412.75 238.027   5
  -9   7   0 1178.07 199.759   4
  -9   7  -1 136.160 71.5494   5
  -9   7  -1 265.917 103.978   4
  -9   7  -2 193.249 106.163   5
  -9   7  -2 291.780 118.158   4
  -9   6   5 80.4332 57.5741   5
  -9   6   5 27.7499 77.6740   4
  -9   6   4-1.51338 60.8545   5
  -9   6   4 65.4831 72.8405   4
  -9   6   3 159.618 75.7852   5
  -9   6   3 74.1160 65.8303   4
  -9   6   2 242.155 93.8207   5
  -9   6   2 134.075 75.8014   4
  -9   6   1 1454.91 232.477   5
  -9   6   1 1490.62 231.943   4
  -9   6   0 376.284 124.111   5
  -9   6   0 366.860 130.052   4
  -9   6  -1 603.241 153.920   5
  -9   6  -1 201.573 97.1505   4
  -9   6  -2 2074.90 290.167   5
  -9   6  -2 1989.83 258.126   4
  -9   6  -3 322.237 126.372   5
  -9   6  -3 130.153 85.3970   4
  -9   6  -4 445.209 140.214   4
  -9   5   6 162.388 101.081   5
  -9   5   6 127.462 102.349   4
  -9   5   5 297.998 113.709   5
  -9   5   5 211.205 112.677   4
  -9   5   4 982.591 184.494   5
  -9   5   4 699.789 169.257   4
  -9   5   3 689.897 143.897   5
  -9   5   3 565.414 149.934   4
  -9   5   2-57.5018 75.0768   5
  -9   5   2-119.845 94.3959   4
  -9   5   1-27.0126 61.8124   5
  -9   5   1 156.380 93.0694   4
  -9   5   0 2174.88 277.111   5
  -9   5   0 2184.42 277.370   4
  -9   5  -1 564.641 160.377   5
  -9   5  -1 353.064 122.031   4
  -9   5  -2 936.407 192.566   5
  -9   5  -2 766.888 177.394   4
  -9   5  -3 118.384 85.6945   5
  -9   5  -3 172.465 102.920   4
  -9   5  -4 1342.24 231.493   5
  -9   5  -4 1281.12 227.122   4
  -9   4   7 17.2011 58.1145   5
  -9   4   7 19.5004 93.6434   4
  -9   4   6 330.200 115.549   5
  -9   4   6 236.942 123.492   4
  -9   4   5 131.861 75.1268   5
  -9   4   5 48.2493 72.3456   4
  -9   4   4 153.634 80.6278   5
  -9   4   4 46.3489 68.0611   4
  -9   4   3 106.094 74.5222   5
  -9   4   3 4.44458 82.3582   4
  -9   4   2 490.089 135.113   5
  -9   4   2 234.539 93.6211   4
  -9   4   1 984.140 179.069   5
  -9   4   1 1024.27 192.542   4
  -9   4   0 1644.01 239.084   5
  -9   4   0 1437.63 238.980   4
  -9   4  -1 232.576 82.6808   5
  -9   4  -1 235.612 115.533   4
  -9   4  -2 2761.26 315.255   5
  -9   4  -2 2134.57 288.367   4
  -9   4  -3 196.208 104.408   5
  -9   4  -3 131.447 84.6061   4
  -9   4  -4 422.447 140.044   5
   9  -4   4 248.263 109.942   7
  -9   4  -4 506.421 156.360   4
  -9   3   8-2.42224 55.5819   5
  -9   3   8 5.05633 89.7198   4
  -9   3   7 116.585 74.6351   5
  -9   3   7 37.2599 65.2527   4
  -9   3   6-1.26764 72.9125   5
  -9   3   6-23.5642 61.5984   4
  -9   3   5 243.909 91.6389   5
  -9   3   5 81.3053 64.5151   4
  -9   3   4 216.439 102.588   5
  -9   3   4-8.03517 65.5392   4
  -9   3   3 13.4872 77.6118   5
  -9   3   3-61.0954 71.6780   4
  -9   3   2 387.704 120.512   5
  -9   3   2 116.756 86.4249   4
  -9   3   1 103.278 85.3352   5
  -9   3   1 44.7743 77.6854   4
  -9   3   0 315.391 98.0410   5
  -9   3   0 280.718 123.092   4
  -9   3  -1 545.922 146.277   5
  -9   3  -1 683.641 175.216   4
  -9   3  -2 5332.91 430.825   5
  -9   3  -2 4383.55 411.986   4
  -9   3  -3 470.119 144.164   5
  -9   3  -3 353.687 154.466   4
   9  -3   3 369.292 120.870   7
  -9   3  -4 1681.99 249.045   5
   9  -3   4 1162.78 207.949   7
  -9   3  -4 1901.23 294.794   4
  -9   3  -5 72.8518 96.0975   5
   9  -3   5-32.4404 91.4218   7
  -9   3  -5 121.366 112.972   4
   9  -3   5 145.266 91.9577   6
  -9   2   9 154.818 99.5356   4
  -9   2   8 590.582 163.616   4
   9  -2  -8 719.710 154.312   2
   9  -2  -7 259.594 80.9394   2
  -9   2   7 192.099 84.1945   5
  -9   2   7 107.731 78.1598   4
  -9   2   6 519.929 137.983   5
  -9   2   6 406.770 127.141   4
  -9   2   5 1527.48 221.404   5
  -9   2   5 1271.47 228.215   4
  -9   2   4 2186.61 269.261   5
  -9   2   4 2332.21 299.407   4
  -9   2   4 973.752 156.267   3
  -9   2   3 3744.47 357.364   5
  -9   2   3 3355.82 369.640   4
  -9   2   3 4079.09 279.928   3
  -9   2   2-36.1180 57.2278   5
  -9   2   2-118.642 108.059   4
  -9   2   1 3967.64 357.540   5
  -9   2   1 3436.66 366.491   4
  -9   2   1 2619.04 136.017   3
  -9   2   0 1076.54 194.818   5
  -9   2   0 896.135 196.854   4
  -9   2  -1 891.964 174.317   5
  -9   2  -1 892.805 190.423   4
   9  -2   1 693.791 160.235   7
  -9   2  -2 154.822 92.3114   5
   9  -2   2-125.312 114.228   7
  -9   2  -3 1745.48 248.459   5
  -9   2  -3 1884.92 292.519   4
   9  -2   3 1911.06 269.288   7
  -9   2  -4 1712.70 251.589   5
  -9   2  -4 1581.41 261.683   4
   9  -2   4 911.365 195.932   7
   9  -2   4 1801.10 282.575   6
  -9   2  -5 487.859 170.941   4
   9  -2   5 492.516 163.896   6
  -9   1   9-71.8627 105.012   4
   9  -1  -9-79.4678 54.9220   7
   9  -1  -8 83.5160 74.6227   2
  -9   1   8-238.928 152.836   4
  -9   1   7-74.9971 88.7001   4
  -9   1   6 211.663 123.023   4
  -9   1   5 326.582 120.613   4
  -9   1   4 2056.77 255.866   5
  -9   1   4 2096.82 293.331   4
  -9   1   3 2806.57 306.381   5
  -9   1   3 2757.78 325.236   4
   9  -1  -3 2858.24 324.487   7
  -9   1   2 1865.78 243.481   5
  -9   1   2 1724.16 252.972   4
   9  -1  -2 2080.81 278.814   7
  -9   1   2 1619.64 141.551   3
  -9   1   1 316.996 42.6887   3
  -9   1   1 520.063 139.868   5
  -9   1   1 644.489 163.554   4
   9  -1  -1 385.710 114.275   7
  -9   1   0 3727.56 350.840   5
  -9   1   0 3579.87 369.723   4
   9  -1   0 3569.55 363.969   7
  -9   1  -1 477.446 146.465   5
  -9   1  -1 551.793 152.850   4
   9  -1   1 197.360 94.4982   7
  -9   1  -2 1780.89 237.821   5
  -9   1  -2 1622.23 255.431   4
   9  -1   2 1666.12 250.247   7
  -9   1  -3-32.8594 67.4328   5
   9  -1   3 35.2883 54.3543   7
   9  -1   3 96.0401 95.4763   6
  -9   1  -4 66.2167 78.7650   5
  -9   1  -4 53.0822 103.314   4
   9  -1   4-28.9998 62.9569   7
   9  -1   4-71.3036 85.7600   6
  -9   0   9 185.798 135.838   4
   9   0  -9 144.800 76.1356   7
  -9   0   8 151.051 75.5984   4
   9   0  -8 318.597 109.677   7
  -9   0   7 1141.05 230.668   4
   9   0  -7 1017.85 190.813   7
  -9   0   6-3.17232 75.4021   4
   9   0  -6-23.3951 61.2910   7
  -9   0   5 563.185 157.160   4
   9   0  -5 895.214 181.914   7
  -9   0   4 309.075 136.750   4
   9   0  -4-3.05543 63.9848   7
  -9   0   4 170.889 70.3825   3
  -9   0   3 2375.01 278.982   5
  -9   0   3 2683.82 327.084   4
   9   0  -3 2412.82 299.280   7
  -9   0   2 180.582 48.2290   3
  -9   0   2 82.1095 75.0635   5
  -9   0   2 341.214 114.541   4
   9   0  -2 120.530 69.3927   7
  -9   0   1 1833.19 248.018   5
  -9   0   1 1728.24 255.796   4
   9   0  -1 1940.02 264.609   7
  -9   0   1 1341.86 92.1167   3
  -9   0   0 139.603 77.5797   5
  -9   0   0 375.969 141.620   4
   9   0   0 189.448 95.2540   7
  -9   0  -1 527.284 131.108   5
  -9   0  -1 174.095 92.3796   4
   9   0   1 419.669 130.150   7
  -9   0  -2 1966.48 250.159   5
  -9   0  -2 1860.23 269.257   4
   9   0   2 1788.48 262.824   7
  -9   0  -3 628.935 144.934   5
  -9   0  -3 850.357 189.530   4
   9   0   3 761.680 171.639   7
   9   0   3 736.032 178.220   6
  -9   0  -4 381.388 124.244   5
  -9   0  -4 262.607 118.596   4
   9   0   4 245.198 100.629   7
   9   0   4 188.623 100.167   6
  -9  -1  10 209.641 135.006   4
   9   1 -10-90.0366 76.7521   7
  -9  -1   9 1600.90 288.795   4
   9   1  -9 1854.05 260.192   7
  -9  -1   8 1191.11 236.052   4
   9   1  -8 1144.13 192.856   7
  -9  -1   7 136.576 88.9440   4
   9   1  -7-29.2340 72.3914   7
  -9  -1   6 54.5862 73.9502   4
   9   1  -6 25.6115 58.8434   7
  -9  -1   6-46.3125 57.4562   3
  -9  -1   5 203.557 71.1740   3
  -9  -1   5 249.512 118.928   4
   9   1  -5 27.6235 49.5925   7
  -9  -1   4 219.388 70.8728   3
  -9  -1   4 211.871 98.8819   4
   9   1  -4 74.5198 50.3020   7
  -9  -1   3 160.921 100.049   4
   9   1  -3 112.162 65.2825   7
  -9  -1   2-53.6919 96.7761   5
  -9  -1   2 18.3650 62.8061   4
   9   1  -2 18.7633 63.2008   7
  -9  -1   1 46.7747 28.3142   3
  -9  -1   1 86.5957 63.1430   5
  -9  -1   1 211.464 106.133   4
   9   1  -1 42.5273 55.6209   7
  -9  -1   0 1444.28 219.883   5
  -9  -1   0 1638.55 266.372   4
   9   1   0 1793.27 256.869   7
  -9  -1  -1 357.716 116.927   5
  -9  -1  -1 64.1778 82.3235   4
   9   1   1 364.064 128.483   7
  -9  -1  -2 82.1585 80.5826   4
   9   1   2 112.156 72.3497   7
   9   1   2-54.5299 82.5890   6
  -9  -1  -3 48.2086 55.3423   5
  -9  -1  -3 177.655 112.720   4
   9   1   3 101.664 92.0325   7
   9   1   3 167.530 112.614   6
  -9  -2   9 123.939 87.0417   4
   9   2  -9 117.391 77.4653   7
  -9  -2   8 87.5488 93.4967   4
   9   2  -8 50.5671 52.8899   7
  -9  -2   8 118.916 84.6561   3
  -9  -2   7 1625.01 231.195   3
  -9  -2   7 1442.71 265.812   4
   9   2  -7 1434.27 227.497   7
  -9  -2   6 626.492 139.850   3
  -9  -2   6 534.042 158.235   4
   9   2  -6 740.768 167.063   7
  -9  -2   5 4.21514 57.0811   3
  -9  -2   5-120.362 86.0063   4
   9   2  -5 64.1747 60.9708   7
  -9  -2   4 899.348 143.764   3
  -9  -2   4 904.813 188.158   4
   9   2  -4 919.018 186.395   7
  -9  -2   3 86.2175 43.5529   3
  -9  -2   3 156.774 97.4731   4
   9   2  -3 66.9433 54.4618   7
  -9  -2   2 87.8005 75.3245   4
   9   2  -2 147.228 83.8137   7
  -9  -2   1 162.163 51.1256   5
  -9  -2   1 341.302 136.650   4
   9   2  -1 263.731 103.478   7
  -9  -2   0-9.82961 49.2826   5
  -9  -2   0 197.743 118.572   4
   9   2   0 66.5395 73.5899   7
  -9  -2  -1 459.566 125.219   5
  -9  -2  -1 335.550 133.290   4
   9   2   1 401.218 125.994   7
   9   2   1 310.539 118.454   6
  -9  -2  -2 1468.17 218.999   5
  -9  -2  -2 1167.54 230.093   4
   9   2   2 1034.96 207.766   7
   9   2   2 1167.78 233.550   6
  -9  -2  -3 606.430 149.094   5
  -9  -2  -3 600.312 174.255   4
   9   2   3 843.999 202.857   6
  -9  -3   9 264.199 125.279   3
  -9  -3   9 170.023 112.663   4
   9   3  -9 193.930 88.9025   7
  -9  -3   8-14.2610 68.6569   3
  -9  -3   8-57.8594 89.6842   4
   9   3  -8-56.5200 70.2746   7
  -9  -3   7 1373.89 215.697   3
  -9  -3   7 1227.95 236.692   4
   9   3  -7 1263.44 213.112   7
  -9  -3   6 81.1841 65.3892   3
  -9  -3   6-22.9644 91.2083   4
   9   3  -6 97.3448 74.8118   7
  -9  -3   5 815.342 145.530   3
  -9  -3   5 644.848 170.669   4
   9   3  -5 858.678 181.384   7
  -9  -3   4 176.597 68.3737   3
  -9  -3   4 34.9822 69.1133   4
   9   3  -4 223.209 101.388   7
  -9  -3   3 368.128 88.7493   3
  -9  -3   3 512.912 148.961   4
   9   3  -3 578.213 157.022   7
  -9  -3   2-5.15447 30.7487   3
  -9  -3   2-24.9859 61.4112   4
   9   3  -2 34.6277 57.9421   7
  -9  -3   1 43.1875 52.1196   5
  -9  -3   1-8.07929 87.3947   4
   9   3  -1 168.798 83.0726   7
   9   3  -1 41.6407 56.4380   6
  -9  -3   0 55.7307 49.7305   5
  -9  -3   0-87.5932 98.4629   4
   9   3   0-135.492 93.7034   6
  -9  -3  -1 42.2339 57.6998   5
  -9  -3  -1 99.3198 79.4389   4
   9   3   1 225.857 90.8678   6
  -9  -3  -2 350.574 111.524   5
  -9  -3  -2 160.659 101.577   4
   9   3   2 352.996 133.453   6
  -9  -4   9 342.117 133.463   3
  -9  -4   9 305.036 148.226   4
  -9  -4   8 337.164 124.642   3
  -9  -4   8 488.594 171.358   4
   9   4  -8 261.918 95.9231   7
  -9  -4   7 455.829 132.770   3
  -9  -4   7 380.627 153.288   4
   9   4  -7 390.059 110.498   7
  -9  -4   6 88.2313 58.3878   3
  -9  -4   6 94.1400 91.3099   4
   9   4  -6 191.676 100.765   7
  -9  -4   5 145.528 76.6137   3
  -9  -4   5 206.349 92.5902   4
   9   4  -5 128.687 67.6630   7
  -9  -4   4 663.875 136.171   3
  -9  -4   4 478.802 153.549   4
   9   4  -4 595.954 148.677   7
  -9  -4   3 593.036 116.908   3
  -9  -4   3 865.776 204.481   4
  -9  -4   2 79.8393 39.5491   3
  -9  -4   2 110.380 98.9520   4
   9   4  -2-106.275 81.9315   6
  -9  -4   1 685.687 168.621   4
   9   4  -1 908.140 182.653   6
  -9  -4   0 10.2962 55.2487   5
   9   4   0-59.0671 80.9498   6
  -9  -4  -1 25.1779 56.4456   5
  -9  -4  -1 71.6354 84.8443   4
   9   4   1 104.994 68.4017   6
  -9  -5   8 56.8510 62.2460   3
  -9  -5   8-127.797 110.277   4
  -9  -5   7 545.285 137.801   3
  -9  -5   7 334.646 133.735   4
  -9  -5   6 1053.90 187.183   3
  -9  -5   6 1113.07 236.638   4
  -9  -5   5 1735.82 228.595   3
  -9  -5   5 1896.26 297.732   4
  -9  -5   4-42.8699 56.8540   3
  -9  -5   4 31.4738 80.7182   4
   9   5  -4-45.7920 63.1238   6
  -9  -5   3 26.3300 70.3267   3
  -9  -5   3 87.6733 70.8758   4
   9   5  -3-45.5340 74.6055   6
  -9  -5   2 2.94478 42.9502   3
  -9  -5   2-115.203 107.803   4
   9   5  -2-75.2942 71.9289   6
  -9  -5   1-0.59805 106.978   4
   9   5  -1-103.243 97.5582   6
  -9  -6   5 62.5933 65.6972   3
  -9  -6   5 67.6090 89.4708   4
   9   6  -5 85.5307 56.9914   6
  -9  -6   4 1096.09 183.668   3
   9   6  -4 1485.57 212.776   6
 -10   6   2 283.458 125.291   5
 -10   6   2 32.2018 65.7126   4
 -10   6   1 1234.37 225.109   5
 -10   6   1 941.417 201.889   4
 -10   6   0 1956.40 290.958   5
 -10   6   0 1483.92 242.887   4
 -10   5   4 555.744 157.769   5
 -10   5   4 334.856 121.808   4
 -10   5   3 4513.78 418.115   5
 -10   5   3 3791.75 418.759   4
 -10   5   2 437.625 143.302   5
 -10   5   2 140.126 110.127   4
 -10   5   1 888.029 195.289   5
 -10   5   1 370.738 127.697   4
 -10   5   0 504.053 149.476   5
 -10   5   0 162.280 70.3538   4
 -10   5  -1 380.137 136.581   5
 -10   5  -1 127.754 123.717   4
 -10   5  -2 202.583 107.397   4
 -10   4   6 690.231 169.143   5
 -10   4   6 737.406 189.823   4
 -10   4   5 1047.89 199.023   5
 -10   4   5 1057.15 250.617   4
 -10   4   4 52.9064 67.5875   5
 -10   4   4-110.835 77.9485   4
 -10   4   3 1055.30 202.239   5
 -10   4   3 647.062 174.528   4
 -10   4   2 5578.51 464.771   5
 -10   4   2 4691.26 453.674   4
 -10   4   1 2455.19 316.349   5
 -10   4   1 1801.68 279.791   4
 -10   4   0 1990.23 280.832   5
 -10   4   0 1390.97 226.806   4
 -10   4  -1 407.113 150.773   5
 -10   4  -1 144.492 112.119   4
 -10   4  -2 1297.53 236.469   5
 -10   4  -2 1273.90 239.867   4
 -10   3   7 293.068 102.917   5
 -10   3   7 545.077 192.161   4
 -10   3   6 9.31303 64.7284   5
 -10   3   6 175.409 122.774   4
 -10   3   5 1037.55 199.630   5
 -10   3   5 1015.72 226.465   4
 -10   3   4 418.786 135.283   5
 -10   3   4 247.321 120.536   4
 -10   3   3 5201.23 450.537   5
 -10   3   3 4607.40 447.762   4
 -10   3   2 99.4288 119.174   5
 -10   3   2-1.19450 91.1653   4
 -10   3   1 1426.43 232.593   5
 -10   3   1 1274.28 242.698   4
 -10   3   0 949.264 198.714   5
 -10   3   0 473.940 136.553   4
 -10   3  -1 184.253 100.511   5
  10  -3   1 207.097 113.804   7
 -10   3  -1 184.415 74.5289   4
 -10   3  -2 1884.74 278.215   5
 -10   3  -2 1546.97 264.547   4
  10  -3   2 1512.37 262.029   7
 -10   2   7 495.508 131.660   5
 -10   2   7 357.183 157.041   4
 -10   2   6 1066.73 202.798   5
 -10   2   6 1080.78 223.382   4
 -10   2   5 1338.16 222.506   5
 -10   2   5 1422.50 267.315   4
 -10   2   4 55.0179 74.7466   5
 -10   2   4-55.0130 73.8494   4
 -10   2   3 1468.48 242.220   5
 -10   2   3 1469.11 260.331   4
 -10   2   2 5248.46 457.740   5
 -10   2   2 4480.21 443.470   4
 -10   2   1 2073.44 280.803   5
 -10   2   1 1800.59 281.032   4
  10  -2  -1 2517.78 333.443   7
 -10   2   0 3684.49 375.111   5
 -10   2   0 2881.50 352.975   4
  10  -2   0 3723.67 404.128   7
 -10   2  -1 2230.00 293.541   5
 -10   2  -1 1999.28 294.969   4
  10  -2   1 2081.35 306.318   7
 -10   2  -2 169.279 116.594   5
 -10   2  -2 289.617 144.449   4
  10  -2   2-27.8965 84.6308   7
 -10   1   8 3302.20 421.003   4
  10  -1  -8 3581.61 393.654   7
 -10   1   7 284.429 155.975   4
  10  -1  -7-134.836 120.084   7
 -10   1   6 562.967 142.792   5
 -10   1   6 981.895 232.766   4
  10  -1  -6 535.941 155.662   7
 -10   1   5 2451.75 303.248   5
 -10   1   5 2288.28 339.013   4
  10  -1  -5 2512.15 322.220   7
 -10   1   4 45.4917 77.0361   5
 -10   1   4 28.3542 79.7555   4
  10  -1  -4 158.056 99.0895   7
 -10   1   3 546.086 142.905   5
 -10   1   3 687.242 199.028   4
  10  -1  -3 538.905 153.382   7
 -10   1   2 1683.89 260.250   5
 -10   1   2 1991.26 288.978   4
  10  -1  -2 1789.75 286.140   7
 -10   1   1-15.8350 65.7537   5
 -10   1   1 259.470 115.945   4
  10  -1  -1 109.626 97.7521   7
 -10   1   0 2890.64 331.188   5
 -10   1   0 3236.38 379.873   4
  10  -1   0 2632.06 339.560   7
 -10   1  -1 77.0035 94.5342   5
 -10   1  -1 404.997 159.915   4
  10  -1   1 327.846 146.776   7
 -10   1  -2 2548.57 310.234   5
 -10   1  -2 2512.63 341.636   4
  10  -1   2 2075.76 300.031   7
 -10   0   8 1756.61 308.897   4
  10   0  -8 1555.44 254.552   7
 -10   0   7 734.974 208.660   4
  10   0  -7 826.300 187.994   7
 -10   0   6 819.123 202.992   4
  10   0  -6 456.313 132.298   7
 -10   0   5 2861.60 375.590   4
  10   0  -5 2467.68 323.066   7
 -10   0   5 2487.46 260.419   3
 -10   0   4 291.197 90.5373   3
 -10   0   4 200.541 85.6129   5
 -10   0   4 302.173 131.525   4
  10   0  -4 510.874 165.475   7
 -10   0   3 5316.46 458.151   5
 -10   0   3 5195.02 491.337   4
  10   0  -3 5852.94 497.598   7
 -10   0   2 545.330 154.160   5
 -10   0   2 842.624 199.414   4
  10   0  -2 910.646 203.459   7
 -10   0   1 985.051 197.094   5
 -10   0   1 648.683 179.151   4
  10   0  -1 952.147 216.474   7
 -10   0   0 3283.89 356.461   5
 -10   0   0 3841.62 411.882   4
  10   0   0 3483.73 390.046   7
 -10   0  -1 195.511 98.1577   5
 -10   0  -1 262.683 114.310   4
  10   0   1 143.417 103.052   7
 -10   0  -2 893.816 186.664   5
 -10   0  -2 1025.02 239.272   4
  10   0   2 806.803 183.180   7
  10   0   2 1007.98 224.920   6
 -10  -1   8 1053.10 257.133   4
  10   1  -8 586.556 156.313   7
 -10  -1   7 2999.90 393.808   4
  10   1  -7 3364.92 370.705   7
 -10  -1   7 3086.81 333.580   3
 -10  -1   6 1879.08 234.745   3
 -10  -1   6 2038.36 330.052   4
  10   1  -6 2388.52 312.109   7
 -10  -1   5 3623.24 418.998   4
  10   1  -5 3927.86 406.460   7
 -10  -1   5 3359.29 299.184   3
 -10  -1   4 82.6493 63.6721   3
 -10  -1   4 55.3291 92.8200   4
  10   1  -4 79.3836 86.2304   7
 -10  -1   3 660.196 165.839   5
 -10  -1   3 1174.56 238.750   4
  10   1  -3 835.432 194.137   7
 -10  -1   2 348.101 114.345   5
 -10  -1   2 545.215 169.009   4
  10   1  -2 356.811 136.265   7
 -10  -1   1-38.0850 87.6552   5
 -10  -1   1 35.4310 75.4556   4
  10   1  -1 103.954 88.3768   7
 -10  -1   0 235.372 111.399   5
 -10  -1   0 549.775 170.284   4
  10   1   0 202.226 102.371   7
 -10  -1  -1 129.989 98.8979   5
 -10  -1  -1 219.983 144.663   4
  10   1   1 46.6991 83.7964   7
  10   1   1 95.7780 89.6192   6
 -10  -2   8 834.096 182.261   3
 -10  -2   8 1413.67 282.496   4
  10   2  -8 1071.23 208.128   7
 -10  -2   7 992.540 184.248   3
 -10  -2   7 1235.32 261.723   4
  10   2  -7 1135.09 212.500   7
 -10  -2   6 601.255 141.590   3
 -10  -2   6 984.510 241.254   4
  10   2  -6 995.372 214.963   7
 -10  -2   5 1463.83 279.572   4
  10   2  -5 1789.24 268.027   7
 -10  -2   5 1815.95 220.201   3
 -10  -2   4 1016.74 154.779   3
 -10  -2   4 1230.48 249.877   4
  10   2  -4 1239.09 231.669   7
 -10  -2   3 3844.77 429.033   4
  10   2  -3 4411.47 429.022   7
 -10  -2   2 2793.80 326.387   5
 -10  -2   2 2706.24 353.379   4
  10   2  -2 3444.48 384.172   7
 -10  -2   1 1171.79 216.702   5
 -10  -2   1 1071.51 230.446   4
  10   2  -1 1146.98 231.658   7
 -10  -2   0 2086.46 291.659   5
 -10  -2   0 1977.08 309.538   4
  10   2   0 1826.93 285.067   7
  10   2   0 1975.67 295.457   6
 -10  -3   7 1032.83 194.225   3
 -10  -3   7 1366.64 276.286   4
  10   3  -7 1101.86 212.826   7
 -10  -3   6 98.3761 92.6559   3
 -10  -3   6 339.271 166.224   4
  10   3  -6 154.892 98.1169   7
 -10  -3   5 5598.81 525.588   4
  10   3  -5 6447.97 519.446   7
 -10  -3   5 5717.82 403.217   3
 -10  -3   4 423.277 106.563   3
 -10  -3   4 448.513 153.724   4
  10   3  -4 720.988 187.802   7
 -10  -3   3 212.631 101.827   4
  10   3  -3 472.877 154.323   7
 -10  -3   2 71.4667 62.3978   5
 -10  -3   2 47.8777 91.9878   4
 -10  -3   1 6.63151 86.6031   5
 -10  -3   1 187.298 135.404   4
  10   3  -1 311.899 137.609   7
  10   3  -1 285.350 136.851   6
 -10  -4   6 159.771 75.5874   3
 -10  -4   6 41.2498 99.2506   4
 -10  -4   5 2845.56 385.310   4
  10   4  -5 3469.55 383.210   7
 -10  -4   5 3032.07 292.555   3
 -10  -4   4 1010.49 233.995   4
 -10  -4   3 1503.36 270.228   4
 -11   3   3 2297.86 314.022   5
 -11   3   3 1647.32 292.220   4
 -11   3   2 1725.46 269.798   5
 -11   3   2 1620.84 284.965   4
 -11   2   4 12.6611 65.4234   5
 -11   2   4-133.813 105.867   4
  11  -2  -4-117.232 108.729   7
 -11   2   3 60.7634 84.5191   5
 -11   2   3 248.425 157.093   4
  11  -2  -3 88.3904 110.019   7
 -11   2   2 210.039 120.367   5
 -11   2   2 23.1882 83.1812   4
  11  -2  -2 61.4448 62.1565   7
 -11   2   1 653.578 172.787   5
 -11   2   1 467.348 168.342   4
  11  -2  -1 434.505 154.733   7
 -11   1   5 700.019 177.158   5
 -11   1   5 569.580 172.919   4
  11  -1  -5 899.787 210.343   7
 -11   1   4 782.894 195.079   5
 -11   1   4 672.127 176.928   4
  11  -1  -4 1015.90 221.307   7
 -11   1   3 969.124 208.044   5
 -11   1   3 907.312 228.379   4
  11  -1  -3 1130.83 235.861   7
 -11   1   2 90.5162 98.3449   5
 -11   1   2-38.2399 89.4183   4
  11  -1  -2 69.8309 98.7417   7
 -11   1   1 961.286 204.637   5
 -11   1   1 1054.37 232.681   4
  11  -1  -1 972.583 223.157   7
 -11   0   5 424.745 132.493   5
 -11   0   5 346.663 124.261   4
  11   0  -5 383.092 147.175   7
 -11   0   4-39.6985 88.5312   5
 -11   0   4-86.9083 72.6104   4
  11   0  -4-62.7574 106.323   7
 -11   0   3 12.6555 72.9668   5
 -11   0   3-87.8948 106.901   4
  11   0  -3-92.4858 100.457   7
 -11   0   2 958.104 205.089   5
 -11   0   2 858.999 219.961   4
  11   0  -2 655.344 192.969   7
 -11  -1   4 1932.78 292.182   5
 -11  -1   4 1541.75 282.741   4
  11   1  -4 1928.62 300.261   7
 -11  -1   3-16.9716 91.8029   5
 -11  -1   3 144.201 110.797   4
  11   1  -3 54.0211 92.1614   7
   0   0   0    0.00    0.00   0
TITL 2016Uniandes042_Mo_1711 in P-1
REM P-1 (#2 in standard setting)
CELL 0.71073   8.970029   9.324432  10.464457 105.0569 103.5892  95.0780
ZERR    2.00   0.001223   0.001229   0.001430   0.0117   0.0117   0.0110
LATT  1
SFAC C H N Cl
UNIT 32.00 34.00 6.00 4.00
TREF
HKLF 4
END
;
_shelx_hkl_checksum              41431
_shelx_res_file
;
TITL 2016Uniandes042_Mo_1711 in P-1
    shelxs.res
    created by SHELXL-2016/6 at 18:19:51 on 29-Jun-2017
REM TITL 2016Uniandes042_Mo_1711 in P-1
CELL  0.71073   8.97003   9.32443  10.46446 105.05689 103.58920  95.07800
ZERR    2 0.0012 0.0012 0.0014 0.0117 0.0117 0.0110
LATT   1
SFAC C H N CL
UNIT 32 34 6 4
LIST 4 ! automatically inserted. Change 6 to 4 for CHECKCIF!!
L.S. 10
FMAP 2
PLAN 10
TEMP 25
SIZE  0.095 0.112 0.249
ACTA
CONF
HTAB
BOND $H
EQIV $1 -x-1, -y, -z+1
HTAB C2 N32_$1
HTAB C13 N51
WGHT    0.051900    0.411300
FVAR       6.14740
CL4   4    0.694224    0.492481    0.181164    11.00000    0.05875    0.08539 =
         0.09068    0.03657    0.03949    0.00339
H1    2    0.113281    0.109263    0.291004    11.00000   -1.20000
C524  1    0.547085    0.436485    0.248985    11.00000    0.04056    0.04568 =
         0.04850    0.00933    0.01630   -0.00186
C523  1    0.405011    0.481834    0.214045    11.00000    0.04954    0.04075 =
         0.05032    0.01395    0.01346    0.00451
AFIX  43
H523  2    0.387257    0.542512    0.155904    11.00000   -1.20000
AFIX   0
C522  1    0.289162    0.434355    0.268113    11.00000    0.03725    0.04344 =
         0.05251    0.00164    0.01026    0.00513
CL2   4    0.109320    0.488522    0.220394    11.00000    0.04618    0.07606 =
         0.10936    0.02096    0.01715    0.02061
C521  1    0.313722    0.346838    0.358290    11.00000    0.04191    0.04740 =
         0.04072    0.00114    0.01254   -0.00724
C526  1    0.458963    0.304687    0.389145    11.00000    0.04691    0.05348 =
         0.04990    0.01934    0.00832   -0.00342
AFIX  43
H526  2    0.478101    0.244638    0.447741    11.00000   -1.20000
AFIX   0
C525  1    0.576555    0.348719    0.335916    11.00000    0.03653    0.05274 =
         0.05839    0.01659    0.00924    0.00280
AFIX  43
H525  2    0.673469    0.319480    0.358552    11.00000   -1.20000
AFIX   0
C52   1    0.190668    0.300616    0.422670    11.00000    0.04671    0.06439 =
         0.04604    0.00043    0.01679   -0.01325
AFIX  23
H52A  2    0.239053    0.269501    0.502065    11.00000   -1.20000
H52B  2    0.140667    0.386169    0.453855    11.00000   -1.20000
AFIX   0
N51   3    0.074449    0.177974    0.326007    11.00000    0.03778    0.05461 =
         0.04007    0.00334    0.01484   -0.00591
C5    1   -0.048094    0.133948    0.376629    11.00000    0.03349    0.04721 =
         0.03843    0.01186    0.00999    0.00159
N1    3   -0.178137    0.031771    0.292859    11.00000    0.03302    0.04752 =
         0.03548    0.01087    0.00997    0.00201
C2    1   -0.275723    0.012707    0.371491    11.00000    0.03240    0.05158 =
         0.04508    0.01904    0.01267    0.00351
AFIX  43
H2    2   -0.370514   -0.051319    0.341052    11.00000   -1.20000
AFIX   0
C3    1   -0.210849    0.103489    0.502559    11.00000    0.03749    0.05553 =
         0.04105    0.02071    0.01490    0.00883
C4    1   -0.065826    0.180601    0.506154    11.00000    0.03741    0.05494 =
         0.03532    0.01008    0.00986    0.00161
AFIX  43
H4    2    0.003722    0.249602    0.582086    11.00000   -1.20000
AFIX   0
C31   1   -0.280731    0.113501    0.612795    11.00000    0.03899    0.06493 =
         0.04532    0.01826    0.01328    0.00370
N32   3   -0.337690    0.118587    0.700106    11.00000    0.05907    0.10435 =
         0.05469    0.02086    0.02721   -0.00472
C11   1   -0.213208   -0.041166    0.141570    11.00000    0.04041    0.05785 =
         0.03364    0.00715    0.00792    0.00074
C12   1   -0.376431   -0.132294    0.090772    11.00000    0.04695    0.07106 =
         0.04825    0.00487    0.00310   -0.00638
AFIX 137
H12A  2   -0.401479   -0.176172   -0.006929    11.00000   -1.50000
H12B  2   -0.449857   -0.067449    0.112727    11.00000   -1.50000
H12C  2   -0.380665   -0.210604    0.134553    11.00000   -1.50000
AFIX   0
C13   1   -0.208811    0.081972    0.070014    11.00000    0.06883    0.09047 =
         0.04379    0.02839    0.00452   -0.00534
AFIX 137
H13A  2   -0.233937    0.036828   -0.027521    11.00000   -1.50000
H13B  2   -0.106670    0.140416    0.101246    11.00000   -1.50000
H13C  2   -0.283064    0.146062    0.091343    11.00000   -1.50000
AFIX   0
C14   1   -0.096831   -0.146973    0.114246    11.00000    0.05343    0.07845 =
         0.05808   -0.00548    0.01664    0.01075
AFIX 137
H14A  2   -0.121486   -0.197649    0.017687    11.00000   -1.50000
H14B  2   -0.101679   -0.219814    0.163876    11.00000   -1.50000
H14C  2    0.006008   -0.090129    0.143956    11.00000   -1.50000
REM #####
REM #####
AFIX   0
HKLF 4
REM  2016Uniandes042_Mo_1711 in P-1
REM R1 =  0.0499 for    2520 Fo > 4sig(Fo)  and  0.0663 for all    3302 data
REM    196 parameters refined using      0 restraints
END
WGHT      0.0519      0.4113
REM Instructions for potential hydrogen bonds
HTAB C2 N32_$1
HTAB C13 N51
HTAB C14 N51
REM Highest difference peak  0.221,  deepest hole -0.341,  1-sigma level  0.044
Q1    1   0.1038  0.5614  0.1784  11.00000  0.05    0.22
Q2    1   0.6074  0.4613  0.2132  11.00000  0.05    0.22
Q3    1   0.1690  0.5298  0.3025  11.00000  0.05    0.22
Q4    1   0.1221  0.3734  0.3872  11.00000  0.05    0.19
Q5    1   0.6214  0.5545  0.1979  11.00000  0.05    0.19
Q6    1   0.1783  0.6130  0.2482  11.00000  0.05    0.16
Q7    1   0.6912  0.6222  0.2261  11.00000  0.05    0.16
Q8    1   0.6325  0.3683  0.1393  11.00000  0.05    0.16
Q9    1  -0.1549  0.1878  0.5153  11.00000  0.05    0.15
Q10   1   0.1430  0.2232  0.3812  11.00000  0.05    0.15
;
_shelx_res_checksum              10203
loop_
_space_group_symop_operation_xyz
'x, y, z'
'-x, -y, -z'
loop_
_atom_site_type_symbol
_atom_site_label
_atom_site_fract_x
_atom_site_fract_y
_atom_site_fract_z
_atom_site_U_iso_or_equiv
_atom_site_adp_type
_atom_site_calc_flag
_atom_site_occupancy
Cl Cl4 0.69422(8) 0.49248(9) 0.18116(8) 0.0732(3) Uani d 1
H H1 0.113(4) 0.109(4) 0.291(4) 0.088 Uiso d 1
C C524 0.5471(3) 0.4365(3) 0.2490(2) 0.0456(5) Uani d 1
C C523 0.4050(3) 0.4818(2) 0.2140(2) 0.0469(5) Uani d 1
H H523 0.387257 0.542512 0.155904 0.056 Uiso calc 1
C C522 0.2892(3) 0.4344(3) 0.2681(2) 0.0472(5) Uani d 1
Cl Cl2 0.10932(8) 0.48852(9) 0.22039(9) 0.0783(3) Uani d 1
C C521 0.3137(3) 0.3468(3) 0.3583(2) 0.0463(5) Uani d 1
C C526 0.4590(3) 0.3047(3) 0.3891(2) 0.0508(6) Uani d 1
H H526 0.478101 0.244638 0.447741 0.061 Uiso calc 1
C C525 0.5766(3) 0.3487(3) 0.3359(2) 0.0500(6) Uani d 1
H H525 0.673469 0.319480 0.358552 0.060 Uiso calc 1
C C52 0.1907(3) 0.3006(3) 0.4227(2) 0.0561(6) Uani d 1
H H52A 0.239053 0.269501 0.502065 0.067 Uiso calc 1
H H52B 0.140667 0.386169 0.453855 0.067 Uiso calc 1
N N51 0.0744(2) 0.1780(2) 0.32601(19) 0.0463(5) Uani d 1
C C5 -0.0481(2) 0.1339(2) 0.3766(2) 0.0401(5) Uani d 1
N N1 -0.17814(19) 0.0318(2) 0.29286(17) 0.0390(4) Uani d 1
C C2 -0.2757(2) 0.0127(3) 0.3715(2) 0.0418(5) Uani d 1
H H2 -0.370514 -0.051319 0.341052 0.050 Uiso calc 1
C C3 -0.2108(2) 0.1035(3) 0.5026(2) 0.0425(5) Uani d 1
C C4 -0.0658(2) 0.1806(3) 0.5062(2) 0.0435(5) Uani d 1
H H4 0.003722 0.249602 0.582086 0.052 Uiso calc 1
C C31 -0.2807(3) 0.1135(3) 0.6128(2) 0.0492(6) Uani d 1
N N32 -0.3377(3) 0.1186(3) 0.7001(2) 0.0722(7) Uani d 1
C C11 -0.2132(3) -0.0412(3) 0.1416(2) 0.0460(5) Uani d 1
C C12 -0.3764(3) -0.1323(3) 0.0908(3) 0.0606(7) Uani d 1
H H12A -0.401479 -0.176172 -0.006929 0.091 Uiso calc 1
H H12B -0.449857 -0.067449 0.112727 0.091 Uiso calc 1
H H12C -0.380665 -0.210604 0.134553 0.091 Uiso calc 1
C C13 -0.2088(3) 0.0820(4) 0.0700(3) 0.0690(8) Uani d 1
H H13A -0.233937 0.036828 -0.027521 0.103 Uiso calc 1
H H13B -0.106670 0.140416 0.101246 0.103 Uiso calc 1
H H13C -0.283064 0.146062 0.091343 0.103 Uiso calc 1
C C14 -0.0968(3) -0.1470(3) 0.1142(3) 0.0679(8) Uani d 1
H H14A -0.121486 -0.197649 0.017687 0.102 Uiso calc 1
H H14B -0.101679 -0.219814 0.163876 0.102 Uiso calc 1
H H14C 0.006008 -0.090129 0.143956 0.102 Uiso calc 1
loop_
_atom_site_aniso_label
_atom_site_aniso_U_11
_atom_site_aniso_U_22
_atom_site_aniso_U_33
_atom_site_aniso_U_12
_atom_site_aniso_U_13
_atom_site_aniso_U_23
Cl4 0.0587(4) 0.0854(5) 0.0907(6) 0.0034(3) 0.0395(4) 0.0366(4)
C524 0.0406(12) 0.0457(13) 0.0485(13) -0.0019(9) 0.0163(10) 0.0093(10)
C523 0.0495(13) 0.0408(12) 0.0503(13) 0.0045(10) 0.0135(10) 0.0139(10)
C522 0.0372(11) 0.0434(12) 0.0525(13) 0.0051(9) 0.0103(10) 0.0016(10)
Cl2 0.0462(4) 0.0761(5) 0.1094(6) 0.0206(3) 0.0172(4) 0.0210(4)
C521 0.0419(12) 0.0474(13) 0.0407(12) -0.0072(10) 0.0125(9) 0.0011(10)
C526 0.0469(13) 0.0535(14) 0.0499(14) -0.0034(10) 0.0083(10) 0.0193(11)
C525 0.0365(11) 0.0527(14) 0.0584(15) 0.0028(10) 0.0092(10) 0.0166(12)
C52 0.0467(13) 0.0644(16) 0.0460(13) -0.0132(11) 0.0168(11) 0.0004(12)
N51 0.0378(10) 0.0546(12) 0.0401(10) -0.0059(8) 0.0148(8) 0.0033(9)
C5 0.0335(10) 0.0472(12) 0.0384(11) 0.0016(9) 0.0100(8) 0.0119(9)
N1 0.0330(9) 0.0475(10) 0.0355(9) 0.0020(7) 0.0100(7) 0.0109(8)
C2 0.0324(10) 0.0516(13) 0.0451(12) 0.0035(9) 0.0127(9) 0.0190(10)
C3 0.0375(11) 0.0555(13) 0.0411(12) 0.0088(9) 0.0149(9) 0.0207(10)
C4 0.0374(11) 0.0549(13) 0.0353(11) 0.0016(9) 0.0099(9) 0.0101(10)
C31 0.0390(12) 0.0649(15) 0.0453(13) 0.0037(10) 0.0133(10) 0.0183(11)
N32 0.0591(14) 0.1044(19) 0.0547(13) -0.0047(13) 0.0272(11) 0.0209(13)
C11 0.0404(11) 0.0579(14) 0.0336(11) 0.0007(10) 0.0079(9) 0.0072(10)
C12 0.0469(14) 0.0711(17) 0.0483(14) -0.0064(12) 0.0031(11) 0.0049(13)
C13 0.0688(17) 0.090(2) 0.0438(14) -0.0053(15) 0.0045(12) 0.0284(14)
C14 0.0534(15) 0.0785(19) 0.0581(16) 0.0107(13) 0.0166(12) -0.0055(14)
loop_
_atom_type_symbol
_atom_type_description
_atom_type_scat_dispersion_real
_atom_type_scat_dispersion_imag
_atom_type_scat_source
C C 0.0033 0.0016 'International Tables Vol C Tables 4.2.6.8 and 6.1.1.4'
H H 0.0000 0.0000 'International Tables Vol C Tables 4.2.6.8 and 6.1.1.4'
N N 0.0061 0.0033 'International Tables Vol C Tables 4.2.6.8 and 6.1.1.4'
Cl Cl 0.1484 0.1585 'International Tables Vol C Tables 4.2.6.8 and 6.1.1.4'
loop_
_geom_angle_atom_site_label_1
_geom_angle_atom_site_label_2
_geom_angle_atom_site_label_3
_geom_angle
C525 C524 C523 122.0(2)
C525 C524 Cl4 118.90(18)
C523 C524 Cl4 119.08(18)
C524 C523 C522 118.0(2)
C524 C523 H523 121.0
C522 C523 H523 121.0
C523 C522 C521 122.2(2)
C523 C522 Cl2 117.64(19)
C521 C522 Cl2 120.13(18)
C526 C521 C522 117.0(2)
C526 C521 C52 120.4(2)
C522 C521 C52 122.6(2)
C525 C526 C521 122.3(2)
C525 C526 H526 118.9
C521 C526 H526 118.9
C524 C525 C526 118.5(2)
C524 C525 H525 120.8
C526 C525 H525 120.8
N51 C52 C521 111.43(18)
N51 C52 H52A 109.3
C521 C52 H52A 109.3
N51 C52 H52B 109.3
C521 C52 H52B 109.3
H52A C52 H52B 108.0
C5 N51 C52 114.63(18)
C5 N51 H1 114(2)
C52 N51 H1 112(3)
C4 C5 N1 108.88(18)
C4 C5 N51 129.11(19)
N1 C5 N51 121.99(18)
C2 N1 C5 108.01(17)
C2 N1 C11 124.53(17)
C5 N1 C11 127.40(17)
N1 C2 C3 108.60(18)
N1 C2 H2 125.7
C3 C2 H2 125.7
C2 C3 C4 107.84(19)
C2 C3 C31 124.3(2)
C4 C3 C31 127.9(2)
C5 C4 C3 106.64(19)
C5 C4 H4 126.7
C3 C4 H4 126.7
N32 C31 C3 178.7(3)
N1 C11 C14 108.99(18)
N1 C11 C12 108.95(18)
C14 C11 C12 108.9(2)
N1 C11 C13 108.52(19)
C14 C11 C13 112.8(2)
C12 C11 C13 108.6(2)
C11 C12 H12A 109.5
C11 C12 H12B 109.5
H12A C12 H12B 109.5
C11 C12 H12C 109.5
H12A C12 H12C 109.5
H12B C12 H12C 109.5
C11 C13 H13A 109.5
C11 C13 H13B 109.5
H13A C13 H13B 109.5
C11 C13 H13C 109.5
H13A C13 H13C 109.5
H13B C13 H13C 109.5
C11 C14 H14A 109.5
C11 C14 H14B 109.5
H14A C14 H14B 109.5
C11 C14 H14C 109.5
H14A C14 H14C 109.5
H14B C14 H14C 109.5
loop_
_geom_bond_atom_site_label_1
_geom_bond_atom_site_label_2
_geom_bond_distance
Cl4 C524 1.740(2)
C524 C525 1.371(3)
C524 C523 1.376(3)
C523 C522 1.386(3)
C523 H523 0.9300
C522 C521 1.393(3)
C522 Cl2 1.733(2)
C521 C526 1.384(3)
C521 C52 1.508(3)
C526 C525 1.382(3)
C526 H526 0.9300
C525 H525 0.9300
C52 N51 1.453(3)
C52 H52A 0.9700
C52 H52B 0.9700
N51 C5 1.401(3)
N51 H1 0.80(3)
C5 C4 1.363(3)
C5 N1 1.388(3)
N1 C2 1.364(3)
N1 C11 1.496(3)
C2 C3 1.368(3)
C2 H2 0.9300
C3 C4 1.417(3)
C3 C31 1.424(3)
C4 H4 0.9300
C31 N32 1.140(3)
C11 C14 1.523(4)
C11 C12 1.526(3)
C11 C13 1.527(4)
C12 H12A 0.9600
C12 H12B 0.9600
C12 H12C 0.9600
C13 H13A 0.9600
C13 H13B 0.9600
C13 H13C 0.9600
C14 H14A 0.9600
C14 H14B 0.9600
C14 H14C 0.9600
loop_
_geom_hbond_atom_site_label_D
_geom_hbond_atom_site_label_H
_geom_hbond_atom_site_label_A
_geom_hbond_site_symmetry_A
_geom_hbond_distance_DH
_geom_hbond_distance_HA
_geom_hbond_distance_DA
_geom_hbond_angle_DHA
C13 H13B N51 . 0.96 2.44 3.096(3) 125.1
C14 H14C N51 . 0.96 2.64 3.247(3) 121.7
C2 H2 N32 2_456 0.93 2.54 3.411(3) 155.4
C525 H525 Cg1 1_655 0.93 2.81 3.630(3) 147.7
loop_
_geom_torsion_atom_site_label_1
_geom_torsion_atom_site_label_2
_geom_torsion_atom_site_label_3
_geom_torsion_atom_site_label_4
_geom_torsion
C525 C524 C523 C522 -0.9(3)
Cl4 C524 C523 C522 179.27(17)
C524 C523 C522 C521 1.8(3)
C524 C523 C522 Cl2 -178.56(17)
C523 C522 C521 C526 -1.9(3)
Cl2 C522 C521 C526 178.43(17)
C523 C522 C521 C52 177.1(2)
Cl2 C522 C521 C52 -2.5(3)
C522 C521 C526 C525 1.2(3)
C52 C521 C526 C525 -177.9(2)
C523 C524 C525 C526 0.2(4)
Cl4 C524 C525 C526 -179.94(18)
C521 C526 C525 C524 -0.4(4)
C526 C521 C52 N51 -103.9(3)
C522 C521 C52 N51 77.2(3)
C521 C52 N51 C5 -177.0(2)
C52 N51 C5 C4 -6.5(4)
C52 N51 C5 N1 171.9(2)
C4 C5 N1 C2 -1.2(2)
N51 C5 N1 C2 -179.8(2)
C4 C5 N1 C11 176.0(2)
N51 C5 N1 C11 -2.6(3)
C5 N1 C2 C3 1.3(2)
C11 N1 C2 C3 -176.03(19)
N1 C2 C3 C4 -0.9(3)
N1 C2 C3 C31 179.7(2)
N1 C5 C4 C3 0.6(3)
N51 C5 C4 C3 179.1(2)
C2 C3 C4 C5 0.2(3)
C31 C3 C4 C5 179.5(2)
C2 N1 C11 C14 -116.1(2)
C5 N1 C11 C14 67.1(3)
C2 N1 C11 C12 2.6(3)
C5 N1 C11 C12 -174.1(2)
C2 N1 C11 C13 120.7(2)
C5 N1 C11 C13 -56.0(3)

_cod_database_fobs_code 2020994
