#------------------------------------------------------------------------------
#$Date: 2016-06-17 04:52:18 +0300 (Fri, 17 Jun 2016) $
#$Revision: 183641 $
#$URL: file:///home/coder/svn-repositories/cod/cif/2/02/04/2020470.cif $
#------------------------------------------------------------------------------
#
# This file is available in the Crystallography Open Database (COD),
# http://www.crystallography.net/. The original data for this entry
# were provided by IUCr Journals, http://journals.iucr.org/.
#
# The file may be used within the scientific community so long as
# proper attribution is given to the journal article from which the
# data were obtained.
#
data_2020470
loop_
_publ_author_name
'Seiler, Vanessa Kristina'
'H\"utzler, Wilhelm Maximilian'
'Bolte, Michael'
_publ_section_title
;
 Eight new crystal structures of 5-(hydroxymethyl)uracil, 5-carboxyuracil
 and 5-carboxy-2-thiouracil: insights into the hydrogen-bonded networks
 and the predominant conformations of the C5-bound residues
;
_journal_issue                   5
_journal_name_full               'Acta Crystallographica Section C'
_journal_page_first              379
_journal_page_last               388
_journal_paper_doi               10.1107/S2053229616004861
_journal_volume                  72
_journal_year                    2016
_chemical_formula_iupac          'C5 H4 N2 O3 S, C2 H6 O S'
_chemical_formula_moiety         'C5 H4 N2 O3 S, C2 H6 O S'
_chemical_formula_sum            'C7 H10 N2 O4 S2'
_chemical_formula_weight         250.29
_chemical_name_systematic
;
4-Oxo-2-sulfanylidene-1,2,3,4-tetrahydropyrimidine-5-carboxylic acid
dimethyl sulfoxide monosolvate
;
_space_group_crystal_system      triclinic
_space_group_IT_number           2
_space_group_name_Hall           '-P 1'
_space_group_name_H-M_alt        'P -1'
_symmetry_space_group_name_Hall  '-P 1'
_symmetry_space_group_name_H-M   'P -1'
_atom_sites_solution_hydrogens   mixed
_audit_creation_method           SHELXL-2014/7
_cell_angle_alpha                115.790(10)
_cell_angle_beta                 95.753(11)
_cell_angle_gamma                95.791(10)
_cell_formula_units_Z            2
_cell_length_a                   7.0475(9)
_cell_length_b                   8.9534(12)
_cell_length_c                   9.2802(13)
_cell_measurement_reflns_used    5472
_cell_measurement_temperature    173(2)
_cell_measurement_theta_max      26.10
_cell_measurement_theta_min      3.53
_cell_volume                     517.72(13)
_computing_cell_refinement
;
X-AREA (Stoe & Cie, 2001)
;
_computing_data_collection
;
X-AREA (Stoe & Cie, 2001)
;
_computing_data_reduction
;
X-AREA (Stoe & Cie, 2001)
;
_computing_molecular_graphics
;
Mercury (Macrae <i>et al.</i>,  2008) and XP in SHELXTL-Plus (Sheldrick,
2008)
;
_computing_publication_material
;
publCIF (Westrip, 2010)
;
_computing_structure_refinement
;
SHELXL2014 (Sheldrick, 2015)
;
_computing_structure_solution
;
SHELXS97 (Sheldrick, 2008)
;
_diffrn_ambient_temperature      173(2)
_diffrn_measured_fraction_theta_full 0.993
_diffrn_measured_fraction_theta_max 0.988
_diffrn_measurement_device_type  'Stoe IPDS II two-circle'
_diffrn_measurement_method       \w
_diffrn_radiation_type           MoK\a
_diffrn_radiation_wavelength     0.71073
_diffrn_reflns_av_R_equivalents  0.0331
_diffrn_reflns_limit_h_max       8
_diffrn_reflns_limit_h_min       -8
_diffrn_reflns_limit_k_max       10
_diffrn_reflns_limit_k_min       -10
_diffrn_reflns_limit_l_max       11
_diffrn_reflns_limit_l_min       -11
_diffrn_reflns_number            4538
_diffrn_reflns_theta_full        25.000
_diffrn_reflns_theta_max         25.813
_diffrn_reflns_theta_min         3.526
_exptl_absorpt_coefficient_mu    0.510
_exptl_absorpt_correction_T_max  1.000
_exptl_absorpt_correction_T_min  0.746
_exptl_absorpt_correction_type   multi-scan
_exptl_absorpt_process_details
;
(X-AREA; Stoe & Cie, 2001)
;
_exptl_crystal_colour            colourless
_exptl_crystal_density_diffrn    1.606
_exptl_crystal_description       block
_exptl_crystal_F_000             260
_exptl_crystal_size_max          0.300
_exptl_crystal_size_mid          0.250
_exptl_crystal_size_min          0.150
_refine_diff_density_max         0.397
_refine_diff_density_min         -0.229
_refine_ls_extinction_method     none
_refine_ls_goodness_of_fit_ref   1.054
_refine_ls_hydrogen_treatment    mixed
_refine_ls_matrix_type           full
_refine_ls_number_parameters     147
_refine_ls_number_reflns         1976
_refine_ls_number_restraints     3
_refine_ls_restrained_S_all      1.053
_refine_ls_R_factor_all          0.0340
_refine_ls_R_factor_gt           0.0270
_refine_ls_shift/su_max          0.000
_refine_ls_shift/su_mean         0.000
_refine_ls_structure_factor_coef Fsqd
_refine_ls_weighting_details
'w=1/[\s^2^(Fo^2^)+(0.0370P)^2^+0.1288P] where P=(Fo^2^+2Fc^2^)/3'
_refine_ls_weighting_scheme      calc
_refine_ls_wR_factor_gt          0.0675
_refine_ls_wR_factor_ref         0.0700
_reflns_number_gt                1703
_reflns_number_total             1976
_reflns_threshold_expression     'I > 2\s(I)'
_cod_data_source_file            eg3200sup1.cif
_cod_data_source_block           VI
_cod_depositor_comments
'Adding full bibliography for 2020465--2020472.cif.'
_cod_database_code               2020470
_cod_database_fobs_code          2020470
_shelx_space_group_comment
;
The symmetry employed for this shelxl refinement is uniquely defined
by the following loop, which should always be used as a source of
symmetry information in preference to the above space-group names.
They are only intended as comments.
;
_shelx_estimated_absorpt_t_min   0.862
_shelx_estimated_absorpt_t_max   0.927
_shelx_hkl_file
;
  -7   7  -2   58.12    6.11   0
  -6   5  -1    1.51    3.18   0
  -6   7   0   49.22    4.43   0
  -6   8   0  594.82    9.13   0
  -5   4   0   54.99    3.59   0
  -5   6   1  193.81    5.16   0
  -5   7   1    2.08    5.09   0
  -4   2  -1   59.00    5.27   0
  -3   4   2  340.00    6.49   0
  -2   0  -6  449.55   11.56   0
  -2   3   2    2.62    4.37   0
  -1   5   3  394.07    6.97   0
  -1   6   3  595.29    9.06   0
  -1   7   3   33.39    5.16   0
   0   0  -9  171.43    7.04   0
   0   7   3  140.33    6.55   0
   1  -1  -6  150.25    6.19   0
   1   5   3 1948.54   17.19   0
   1   6   3  221.27    7.30   0
   1   7   3   59.53    4.90   0
   3   0 -10  275.91    7.62   0
   3   1   1  204.70   12.51   0
   4  -1  -5    5.30    4.89   0
   4  -1  -4   98.64    5.52   0
   4   5   2    7.51    7.68   0
   5   0  -9   26.90    5.47   0
   5   0  -2  269.34    6.38   0
   6   0  -7   22.95    3.90   0
   6   0  -4  614.37    8.93   0
   8   2  -4    6.88    5.32   0
  -7   6  -3   27.03    4.17   0
  -6   4  -3  392.36    8.44   0
  -5   8   1    5.44    3.52   0
  -4   4   1    0.84    3.19   0
  -1   0  -8    5.16    3.57   0
   0  -1  -5    4.70    4.43   0
   0  -1  -4  482.17    9.43   0
   0   2   2 6271.23   35.54   0
   0   5   3  240.54    6.04   0
   0   6   3  622.29    9.82   0
   1  -1  -2   57.41    6.36   0
   2  -1  -7  457.05    7.46   0
   2  -1  -2 1550.21   15.37   0
   2   0 -10   10.41    3.85   0
   3  -1  -7  120.09    4.52   0
   4  -1  -6  205.56    5.34   0
   4   6   2   65.61    8.33   0
   6   0  -8  100.65    6.06   0
   7   1  -3  373.31    7.89   0
   7   3  -1    3.31    5.36   0
  -6   6  -1    8.95    5.20   0
  -4   3   0  242.72    6.69   0
  -3   1  -8   66.71    8.83   0
  -3   5   2   59.53    3.97   0
  -3   8   2  290.15    7.13   0
   0  -1  -3  320.83    8.76   0
   1  -1  -7    0.64    4.66   0
   1   0 -10    2.76    5.40   0
   1   2   2  140.39    8.49   0
   3  -1  -2  437.65    8.11   0
   3   0   0  412.61   10.71   0
   4  -1  -7    5.20    3.25   0
   4  -1  -3 1104.16   10.91   0
   6   0  -3  438.44    7.15   0
  -7   6  -4    1.34    3.91   0
  -7   7  -3   17.09    5.56   0
  -6   5  -2    5.15    5.16   0
  -5   3  -2  431.79    8.18   0
  -5   5   0  529.80    7.52   0
  -4   5   1   12.51    4.69   0
  -3   3   1 2042.00   15.31   0
  -3   6   2   85.64    4.40   0
  -3   7   2    7.29    3.54   0
  -2   1   0 3536.52   29.12   0
  -2   2   1 1617.05   15.96   0
   0  -1  -6   10.63    5.18   0
   2  -1  -8   55.45    5.63   0
   3  -1  -8    4.44    3.64   0
   4  -1  -8  145.85    6.38   0
   5  -1  -7  108.87    6.04   0
   5  -1  -6  113.41    4.51   0
   5  -1  -5  505.57    7.42   0
   5  -1  -4   -0.65    4.40   0
   6   1  -1   61.46    5.50   0
   7   0  -7   95.04    6.00   0
   7   0  -6   19.93    5.32   0
   7   0  -5   -6.38    5.41   0
   8   1  -5  100.02    6.20   0
   8   2  -3   23.23    5.65   0
  -6   4  -7  233.88   10.99   0
  -6   4  -4   15.00    5.04   0
  -6   7  -1  113.15    4.93   0
  -6   8  -1   11.38    5.03   0
  -5   4  -1  348.02    7.38   0
  -5   6   0  117.74    5.79   0
  -4   6   1   25.59    4.88   0
  -4   8   1  201.20    6.55   0
  -3   2   0  625.23   10.85   0
  -2   0  -7  323.25   10.65   0
  -2   4   2  197.93    5.39   0
  -1   3   2 4269.47   24.24   0
   0   0 -10   32.21    5.94   0
   1  -1  -8    1.79    5.06   0
   3   3   2    9.28    6.73   0
   4  -1  -2 1905.28   15.27   0
   5   0  -1 1057.23   12.45   0
   5   1   0 1209.60   15.81   0
  -6   4  -6   37.98    7.15   0
  -6   4  -5   10.13    5.20   0
  -5   7   0  163.04    6.26   0
  -5   8   0    3.90    5.17   0
  -4   7   1   -0.14    3.57   0
  -2   5   2  527.83    8.32   0
  -2   7   2   -2.91    4.98   0
  -2   8   2  139.19    5.15   0
  -1   0  -9   71.17    6.50   0
   0  -1  -7  829.59   11.27   0
   3  -1  -9    4.17    5.43   0
   4  -1  -9  237.36    7.19   0
   5  -1  -8  193.89    5.42   0
   5  -1  -3   -0.40    3.01   0
   6  -1  -6  113.64    5.82   0
   6  -1  -5   58.97    5.11   0
   6   0  -2   76.09    5.35   0
   7   0  -4  276.88    6.10   0
   7   1  -2  844.74   11.16   0
   8   1  -4   62.97    5.77   0
  -6   5  -3  358.18    8.16   0
  -6   6  -2  657.15    9.45   0
  -5   3  -3  282.58    8.13   0
  -4   2  -2   12.19    5.02   0
  -3   4   1   35.27    4.81   0
  -2   6   2  296.27    6.09   0
  -1   8   2  234.10    7.10   0
   0  -1  -2  480.39   12.43   0
   2  -1  -9  343.77    6.72   0
   2  -1  -1 3535.74   25.95   0
   2   8   2   54.59    6.41   0
   3   7   2  402.83   10.47   0
   6  -1  -7    3.04    3.68   0
   6  -1  -4  179.71    6.03   0
   6   2   0  823.82   14.49   0
   7   2  -1   13.96    5.16   0
  -6   7  -2    7.49    5.40   0
  -5   5  -1    4.10    4.27   0
  -4   4   0  781.86    9.15   0
  -3   9   1  143.22    5.13   0
  -1   4   2   15.14    4.47   0
   0   1   1  897.85   19.57   0
   0   8   2  123.93    6.41   0
   1  -1  -9  151.64    6.79   0
   3  -1  -1 1321.70   14.88   0
   4   0   0   21.02    5.01   0
   7   0  -3  100.86    5.94   0
  -6   8  -2   15.95    4.25   0
  -5   3  -8   -0.05   10.46   0
  -5   4  -2    9.07    4.50   0
  -4   3  -1 2639.82   18.44   0
  -3   1  -2 1052.12   18.79   0
  -3   5   1  617.92    9.04   0
  -3   8   1   82.95    5.38   0
  -1  -1  -5    3.86    4.58   0
  -1  -1  -4  613.43   12.70   0
  -1   7   2   73.72    4.35   0
   0  -1  -8   12.15    5.08   0
   0   3   2   93.79    4.98   0
   1   8   2   30.47    4.13   0
   2  -2  -5  294.20    6.73   0
   2  -2  -4 1414.60   13.07   0
   3  -2  -6    5.40    3.22   0
   3  -2  -5    3.24    3.14   0
   3  -2  -4 2712.63   17.10   0
   3   6   2  134.74    8.74   0
   4  -2  -6  172.04    6.14   0
   4  -2  -5   58.13    5.05   0
   5  -1  -2  372.48    6.77   0
   6  -1  -3  103.55    5.71   0
   7  -1  -6   -0.89    4.87   0
   8   0  -5  150.91    6.57   0
   8   1  -3    0.78    3.83   0
   8   2  -2   43.25    6.06   0
  -6   5  -4   91.01    6.10   0
  -6   6  -3    6.47    5.17   0
  -5   6  -1  256.87    6.37   0
  -5   9  -1   61.63    5.80   0
  -4   5   0   19.44    3.68   0
  -4   9   0    8.40    3.73   0
  -3   6   1  609.50    8.75   0
  -3   7   1   59.45    3.98   0
  -2   0  -8   22.34    6.22   0
  -2   3   1    6.99    4.67   0
  -2   9   1    2.19    5.42   0
  -1  -1  -6   14.96    5.11   0
  -1   5   2   -0.12    2.71   0
  -1   6   2  117.41    4.64   0
   0   7   2   11.66    5.21   0
   1  -1  -1 8410.62   46.08   0
   2  -2  -6   36.56    3.78   0
   2   7   2   68.16    6.23   0
   3  -2  -7    4.27    4.99   0
   3  -2  -3  131.91    6.04   0
   3   4   2  849.96   16.96   0
   4  -2  -7   98.65    5.71   0
   4  -2  -4  537.34    7.69   0
   4  -1  -1    1.12    4.73   0
   5  -2  -6  132.99    6.07   0
   5  -2  -5   16.10    5.00   0
   7  -1  -5   10.09    3.83   0
   8   0  -4    0.02    5.29   0
  -5   3  -4  577.28   11.23   0
  -5   7  -1  667.29    8.40   0
  -5   8  -1   -1.14    3.94   0
  -4   6   0    2.77    4.76   0
  -4   7   0  157.86    6.11   0
  -4   8   0  250.68    5.94   0
  -3   1  -9  125.94   10.95   0
  -3   3   0    4.70    4.96   0
   0   4   2 6085.73   29.13   0
   1  -2  -5  452.94    8.82   0
   1   3   2 2608.40   23.30   0
   1   7   2  772.63   11.12   0
   2  -2  -7  114.03    6.21   0
   2  -2  -3   61.99    5.46   0
   2   3   2   94.23    6.82   0
   3  -2  -8   21.47    5.74   0
   3   5   2  167.34    8.30   0
   4  -2  -8    9.33    5.26   0
   4  -2  -3  138.31    5.83   0
   5  -2  -7  365.94    7.72   0
   5  -2  -4   46.63    5.13   0
   6   0  -1 2181.26   17.64   0
   7  -1  -4   14.23    5.22   0
   7   0  -2   60.87    5.83   0
  -6   5  -5    2.03    5.16   0
  -6   7  -3   32.13    3.95   0
  -6   8  -3   16.08    6.07   0
  -2   8   1   11.37    4.97   0
  -1  -1  -7  313.77    8.80   0
  -1   2   1 2653.06   22.32   0
   0  -1  -9   30.58    5.94   0
   0   5   2  123.07    5.98   0
   0   6   2  215.13    5.87   0
   1  -2  -6   86.92    5.58   0
   1  -2  -4   10.15    4.58   0
   2   6   2   12.71    5.08   0
   5  -2  -8   55.55    5.93   0
   6  -2  -6   29.20    5.48   0
   6  -1  -2  615.30    9.31   0
   7   1  -1  111.25    6.74   0
   7   4   0  258.14   13.96   0
  -6   6  -4  149.18    6.62   0
  -5   3  -5  727.05   14.21   0
  -5   5  -2  448.89    7.44   0
  -4   2  -3    8.90    4.95   0
  -4   4  -1   58.41    4.98   0
  -3   2  -1 1134.98   15.13   0
  -3   9   0    3.70    5.33   0
  -2   4   1  202.71    6.57   0
  -2   7   1  235.13    6.55   0
  -1  -1  -3   24.46    5.56   0
  -1   9   1   11.64    4.15   0
   1  -2  -7  111.87    6.12   0
   1   4   2    0.68    4.61   0
   1   5   2   85.11    6.13   0
   1   6   2   67.54    4.57   0
   2  -2  -8   46.04    4.38   0
   2   5   2   45.05    6.46   0
   4   1   1  331.46   13.19   0
   5  -2  -3  446.45    7.88   0
   5  -1  -1  201.03    6.71   0
   6  -2  -7   38.36    4.35   0
   6  -2  -5   20.89    3.65   0
   6   1   0  319.73    9.85   0
   7  -1  -3    7.40    5.19   0
   8   0  -3  187.03    7.08   0
   8   1  -2   21.09    5.60   0
  -6   5  -7   24.58    7.65   0
  -6   5  -6  154.20    7.67   0
  -5   3  -7   11.18    7.87   0
  -5   4  -3   55.96    4.20   0
  -5   6  -2  421.23    8.11   0
  -5   9  -2  176.85    6.40   0
  -2   5   1  598.50    8.87   0
  -2   6   1  305.85    7.09   0
   0   9   1    3.45    5.18   0
   1  -2  -3   24.55    5.49   0
   2  -2  -2 1058.07   12.80   0
   2   4   2  615.49   11.95   0
   3  -2  -2  184.60    5.67   0
   4  -2  -2  202.92    6.27   0
   5   0   0    4.50    4.80   0
   5   2   1   39.43    7.88   0
   6  -2  -4   -0.12    3.29   0
   7   3   0  111.38   10.01   0
  -6   7  -4  156.28    5.40   0
  -6   8  -4  126.93    6.86   0
  -5   3  -6   47.52    7.67   0
  -5   7  -2   18.00    5.13   0
  -5   8  -2  279.88    6.01   0
  -4   3  -2  494.48    9.54   0
  -4   9  -1  455.39    7.20   0
  -3   4   0 5460.58   24.77   0
  -3   8   0   10.06    5.27   0
  -2   0  -9   12.69    6.18   0
  -2   2   0 1877.06   18.89   0
  -1  -1  -8  204.47    7.90   0
  -1   8   1  163.94    5.36   0
   1  -2  -8  349.84    8.27   0
   1   9   1   51.47    6.31   0
   2  -2  -9    3.66    5.68   0
   5   6   1   85.79   10.31   0
   6  -2  -3    5.29    4.84   0
   7  -2  -6  232.54    5.97   0
   7  -2  -5   73.18    5.78   0
   8  -1  -4  445.04    8.93   0
  -6   6  -5  625.11   10.23   0
  -4   5  -1   72.17    4.01   0
  -4   7  -1  416.04    7.80   0
  -4   8  -1   16.69    3.70   0
  -3   5   0   27.27    4.77   0
  -3   7   0   38.12    5.04   0
   0  -2  -6  277.41    7.97   0
   0  -2  -5 2133.20   18.26   0
   5  -2  -2   34.67    4.84   0
   7  -2  -4   52.33    5.98   0
   8   2  -1  590.61   13.06   0
  -6   7  -5  268.91    7.79   0
  -5   4  -4  795.25   11.71   0
  -5   5  -3   12.01    4.91   0
  -4   6  -1   24.90    3.67   0
  -3   6   0  300.73    6.26   0
  -3  10  -1  161.55    5.61   0
  -2   9   0   25.19    4.14   0
  -1   3   1  113.57    5.49   0
  -1   7   1  483.09    7.65   0
   0  -2  -4  553.41   10.31   0
   0   8   1    6.77    5.02   0
   3  -3  -6  255.58    6.80   0
   3  -3  -5  104.31    4.72   0
   3  -1   0    1.68    5.10   0
   3   8   1  142.58    7.59   0
   4  -3  -7  294.19    7.74   0
   4  -3  -6   -2.13    3.53   0
   4  -3  -5  614.47    8.07   0
   4  -3  -4   52.06    5.30   0
   5  -3  -7   10.03    4.91   0
   5  -3  -6    0.71    5.21   0
   5  -3  -5  165.19    6.26   0
   6  -1  -1  183.92    6.85   0
   7  -1  -2    3.88    3.64   0
   7   0  -1  318.29    8.22   0
   8   0  -2   -2.04    5.49   0
  -6   6  -6   43.09    6.14   0
  -6   8  -5  103.44    6.53   0
  -5   9  -3   10.89    5.65   0
  -2   1  -1   20.87    6.22   0
  -1  -1  -9   11.72    7.43   0
  -1   6   1    4.31    4.42   0
   0  -2  -7  371.83    8.83   0
   1  -2  -9   43.57    4.39   0
   1  -2  -2  242.13    8.21   0
   1   8   1   -1.52    4.98   0
   2  -3  -5 1533.31   13.30   0
   2   8   1    1.64    5.51   0
   3  -3  -7   24.28    4.02   0
   3  -3  -4    0.95    3.15   0
   4  -3  -8  115.69    6.57   0
   4  -1   0 2801.44   21.74   0
   4   7   1    7.23    5.82   0
   5  -3  -4  168.40    6.04   0
   6  -3  -6  163.93    6.41   0
   6  -3  -5    4.39    5.08   0
   7   2   0   25.77    7.36   0
   8  -1  -3  202.49    5.76   0
  -6   6  -7   39.46    6.79   0
  -5   6  -3   15.00    3.57   0
  -5   7  -3  600.60    8.99   0
  -5   8  -3  391.70    6.90   0
  -4   2  -4  261.24    9.30   0
  -4   4  -2  140.40    6.00   0
  -4   9  -2  620.27    9.19   0
  -3   9  -1   17.84    4.02   0
  -2   8   0   18.08    3.82   0
  -1   1   0  480.23   15.07   0
  -1   4   1  806.52   10.47   0
  -1   5   1    4.29    4.27   0
  -1   9   0  192.42    7.03   0
   0   7   1    6.32    4.72   0
   2  -3  -7   24.83    5.61   0
   2  -3  -6  291.82    6.37   0
   2  -3  -4   23.78    4.58   0
   2  -1   0 3733.07   30.42   0
   3  -3  -8   45.55    5.97   0
   3  -3  -3  331.34    7.40   0
   3  -2  -1 1172.70   12.98   0
   4  -3  -3   17.36    4.94   0
   4  -2  -1 2213.25   16.83   0
   6  -2  -2 2612.13   16.36   0
   6   0   0 1779.70   17.51   0
   7  -2  -3    4.71    3.64   0
  -6   7  -6  290.71    6.96   0
  -3   3  -1  139.90    5.68   0
  -2   3   0  836.43   11.87   0
  -2  10  -1   39.26    5.82   0
   0  -2  -8   85.75    6.29   0
   0  -2  -3   35.26    5.43   0
   0  -1  -1  902.49   20.31   0
   5  -3  -3  686.73    8.72   0
   6  -3  -4   19.09    3.64   0
   7  -3  -5   11.60    5.45   0
   8  -2  -4  170.94    5.69   0
   8   1  -1  117.65    7.26   0
  -5   4  -5   60.12    6.10   0
  -5   5  -4   15.85    5.20   0
  -4   3  -3   15.10    4.92   0
  -4   5  -2  129.09    5.73   0
  -4   8  -2  292.46    6.25   0
  -3   1  -3   68.07    7.96   0
  -3   8  -1   -2.08    3.29   0
  -2   7   0  575.27    8.12   0
   0   6   1  319.38    7.89   0
   1   7   1  419.96    8.82   0
   2  -3  -8   27.46    5.73   0
   2  -3  -3 1086.90   11.99   0
   2  -2  -1 1498.55   15.46   0
   3   7   1    3.90    5.94   0
   5  -2  -1  110.71    4.84   0
   5  -1   0 1036.84   13.26   0
   5   5   1  457.06   16.05   0
   6  -3  -3   25.36    5.32   0
   8  -1  -2  187.11    7.16   0
  -5   9  -4  107.26    5.42   0
  -4   6  -2  150.70    5.17   0
  -4   7  -2   61.43    4.39   0
  -4  10  -3  152.24    5.67   0
  -3   4  -1    5.79    4.97   0
  -3   7  -1   -1.98    4.96   0
  -3  10  -2  353.85    6.98   0
  -2   4   0  778.58   10.77   0
  -2   5   0    3.80    4.74   0
  -2   6   0   30.46    3.80   0
  -1   8   0    1.28    5.05   0
   0   9   0  222.20    6.24   0
   1  -3  -6   66.53    5.91   0
   1  -3  -5  564.90    9.42   0
   2   7   1   63.09    6.07   0
   3  -3  -2  744.21   10.34   0
   4  -3  -2   44.65    3.91   0
   5   1   1  173.03    9.73   0
   7  -3  -4  165.02    5.55   0
   7  -2  -2    1.99    3.82   0
   7  -1  -1  800.49   11.19   0
   7   1   0  461.08   11.37   0
   8  -2  -3  119.89    6.81   0
  -5   4  -6  611.51   12.95   0
  -5   6  -4   55.50    4.49   0
  -5   7  -4   38.92    5.68   0
  -5   8  -4   27.60    4.08   0
  -3   2  -2 3283.68   26.45   0
  -3   5  -1   34.05    4.98   0
  -3   6  -1  835.06   10.46   0
  -2  -1  -6    5.17    6.54   0
  -2   9  -1  210.85    5.79   0
  -1  10  -1   52.61    6.40   0
   0   5   1  116.90    6.35   0
   1  -3  -7   31.03    5.69   0
   1  -3  -4   73.82    5.97   0
   1   9   0  157.90    7.39   0
   3   0   1 1135.23   21.70   0
   4  -4  -6  122.46    6.50   0
   4   6   1    2.22    5.83   0
   5  -4  -6   80.07    6.01   0
   5  -4  -5   -5.47    5.64   0
   5  -3  -2 1157.29   10.97   0
   6  -2  -1 2923.62   18.55   0
   8   0  -1    0.09    5.94   0
  -5   5  -5  858.68   11.88   0
  -4   2  -5  159.15    9.74   0
  -4   9  -3  182.92    5.75   0
  -3   9  -2    5.85    5.51   0
  -2  -1  -7   26.42    7.51   0
  -2  -1  -5 1216.67   21.64   0
   0   3   1  219.54    7.46   0
   0   4   1   54.79    5.42   0
   1  -3  -8   96.00    6.98   0
   1   6   1  178.02    7.01   0
   2   9   0  157.16    7.51   0
   3  -4  -6  371.06    8.19   0
   4  -4  -7   25.60    4.31   0
   4  -4  -5  818.73    9.16   0
   4  -4  -4   12.48    5.22   0
   4   0   1   61.88    7.30   0
   5  -4  -4   14.96    5.36   0
   6  -4  -5  229.40    7.23   0
   6  -3  -2  225.23    6.96   0
   7  -3  -3  679.83    9.10   0
  -5   4  -7  330.67   11.19   0
  -5   9  -5  179.63    7.22   0
  -4   4  -3  149.35    6.79   0
  -4   8  -3   22.75    5.22   0
  -2   8  -1  104.34    6.10   0
  -1  -2  -6   59.39    5.79   0
  -1  -2  -5   11.63    5.41   0
  -1  -1  -2  799.60   20.59   0
  -1   7   0   48.22    4.20   0
   0   8   0    6.25    5.38   0
   0  10  -1    5.63    6.19   0
   1  -3  -3   70.21    5.58   0
   2  -3  -2   -0.10    3.57   0
   2   6   1  316.30    8.49   0
   3  -4  -7    4.46    6.29   0
   3  -4  -5   14.07    3.73   0
   3  -4  -4   33.86    5.28   0
   3   6   1 1184.51   15.70   0
   6  -4  -4  678.55    9.60   0
   6  -1   0    3.99    5.29   0
   7   0   0  257.85    8.82   0
   8  -2  -2  327.22    8.26   0
  -5   4  -8  126.00    8.36   0
  -5   6  -5   21.61    5.67   0
  -5   7  -5   26.35    5.51   0
  -5   8  -5  220.04    7.55   0
  -4   7  -3   41.42    5.18   0
  -4  10  -4   47.91    4.68   0
  -3   8  -2   88.31    5.83   0
  -3  10  -3  340.30    7.99   0
  -2  10  -2   63.04    4.60   0
  -1  -2  -7   12.59    6.08   0
  -1   9  -1   11.45    5.56   0
   0  -2  -2 6720.24   38.27   0
   1  -2  -1 2821.97   23.91   0
   4  -4  -3  145.37    6.22   0
   4  -3  -1  672.54    9.64   0
   4  -2   0 1725.23   16.07   0
   5  -4  -3  273.92    7.03   0
   7  -2  -1   14.87    5.62   0
  -5   5  -6  325.32    8.61   0
  -4   3  -4  171.67    7.59   0
  -4   5  -3  775.38    9.79   0
  -4   6  -3   37.81    5.37   0
  -2  -1  -8   45.12    7.79   0
  -2   7  -1   10.55    4.78   0
  -1   6   0    5.62    3.13   0
   1  -1   0  470.29   14.16   0
   1   5   1  162.50    5.89   0
   1   8   0  188.84    7.11   0
   2  -4  -7   25.52    5.59   0
   2  -4  -6   30.31    5.54   0
   2  -4  -5   40.12    5.50   0
   3  -4  -3  122.30    5.81   0
   3  -3  -1 2040.43   16.32   0
   3  -2   0  633.16   10.72   0
   5  -3  -1  414.53    7.14   0
   5  -2   0    1.46    4.80   0
   6  -4  -3  606.15    9.17   0
   7  -4  -4  138.88    5.29   0
   7  -3  -2   51.80    4.46   0
   8  -3  -3  509.94    8.03   0
   8  -1  -1    0.27    4.16   0
  -4   9  -4   -2.01    3.97   0
  -3   3  -2  457.01   10.04   0
  -3   7  -2  353.44    7.55   0
  -2   2  -1 4402.98   30.92   0
  -2   9  -2  163.77    6.69   0
  -1  -2  -8  383.58   10.27   0
  -1  -2  -4  628.23   12.59   0
  -1   2   0   84.81    6.54   0
   0  -3  -7  172.72    7.38   0
   0  -3  -6  108.87    5.53   0
   0  -3  -5  103.48    6.36   0
   0   7   0    9.44    4.99   0
   2  -4  -4  531.69    8.89   0
   2   8   0   10.52    5.73   0
   3   8   0  146.05    7.59   0
   4   5   1   57.88    7.84   0
   5   0   1  167.42    7.93   0
   6  -3  -1  479.64    8.79   0
  -5   5  -7   -0.90    6.78   0
  -5   6  -6    4.73    5.31   0
  -5   7  -6   55.19    6.06   0
  -5   8  -6    6.65    5.93   0
  -4   2  -6   68.15    8.55   0
  -4  10  -5   -2.43    5.81   0
  -3   0  -7  139.58   14.90   0
  -3   6  -2  172.96    6.33   0
  -3   9  -3   52.55    5.93   0
  -2   6  -1 1288.04   12.55   0
  -1   5   0    1.99    3.30   0
  -1   8  -1  387.86    7.80   0
  -1  10  -2  137.46    5.72   0
   0  -3  -4  155.65    6.95   0
   0   9  -1   65.60    6.16   0
   1   4   1  147.39    7.08   0
   2   5   1  140.00    7.06   0
   4  -4  -2    5.06    3.74   0
   5  -4  -2  333.50    6.61   0
   5   4   1  142.52   12.73   0
   6  -2   0  493.48    9.24   0
   7  -4  -3   18.70    4.49   0
   7  -1   0  156.29    7.22   0
  -4   8  -4    5.36    3.69   0
  -3   4  -2  164.71    6.59   0
  -3   5  -2 1358.49   12.99   0
  -1   3   0  605.92   11.21   0
  -1   4   0  749.86   10.66   0
   0  -3  -8    6.32    5.71   0
   1  -3  -2 4459.14   25.68   0
   1   2   1    4.46    5.41   0
   1   3   1 1259.14   17.25   0
   2  -4  -3  400.68    7.13   0
   2  -3  -1    3.61    4.86   0
   2  -2   0 1988.70   20.04   0
   2   0   1 5411.66   61.39   0
   3  -4  -2  362.87    7.94   0
   3   5   1  558.86   11.90   0
   4  -5  -6  139.80    7.21   0
   4  -5  -5   43.46    6.00   0
   5  -5  -5  239.01    5.95   0
   5  -5  -4   62.69    5.72   0
   6  -4  -2 1335.05   11.54   0
   6   2   1 2698.96   41.80   0
   8  -3  -2   14.97    3.99   0
   8  -2  -1   53.70    6.20   0
   8   1   0  251.85   10.64   0
   8   2   0  240.07   11.83   0
  -5   5  -8  187.21    8.63   0
  -5   6  -7  989.21   13.07   0
  -5   8  -7   79.54    6.84   0
  -4   4  -4  499.81   10.11   0
  -4   7  -4  578.77    9.02   0
  -3   8  -3  724.55    9.84   0
  -3  10  -4   47.01    4.45   0
  -2  -1  -4 1148.22   24.29   0
  -2   3  -1 2891.80   21.90   0
  -2   5  -1   33.64    4.09   0
  -2   8  -2  791.14   10.19   0
  -2  10  -3   18.54    3.99   0
   0   6   0 1329.29   13.24   0
   1  -4  -6  123.61    6.63   0
   1  -4  -5   34.52    5.62   0
   1   7   0    2.91    5.07   0
   1   9  -1   98.65    6.43   0
   4  -5  -4  310.63    7.40   0
   4  -1   1   93.37    6.77   0
   6  -5  -4   28.78    4.48   0
   6   1   1  268.44   11.96   0
   7  -4  -2  225.33    7.55   0
   7  -3  -1   20.30    4.02   0
  -5   7  -7  101.64    7.07   0
  -4   2  -8   91.80   11.90   0
  -4   2  -7   83.76   10.23   0
  -4   5  -4   39.72    5.69   0
  -4   6  -4  634.18    9.77   0
  -4   9  -5   15.59    4.14   0
  -2   4  -1  937.83   11.62   0
  -1   7  -1   40.27    5.29   0
  -1   9  -2    9.48    5.34   0
   0  10  -2   21.00    4.70   0
   1  -4  -7  154.51    6.04   0
   1  -4  -4  120.25    6.59   0
   3  -5  -6  400.66    7.80   0
   3  -5  -5    7.06    3.95   0
   4  -5  -3  339.85    7.85   0
   5  -5  -3  717.14    8.80   0
   5  -4  -1  217.18    6.87   0
   6  -5  -3   38.08    6.09   0
   8   0   0  133.35    8.01   0
  -5   6  -8  149.13    7.72   0
  -4   3  -5   73.21    6.52   0
  -4   8  -5   58.34    5.91   0
  -3   0  -8 1165.36   32.09   0
  -3   2  -3  526.46   12.15   0
  -1  -2  -3    8.28    6.15   0
   0  -3  -3  452.03   10.04   0
   0   8  -1  917.71   10.29   0
   2  -4  -2  235.39    6.95   0
   2   4   1  210.33    8.28   0
   2   7   0    9.72    5.47   0
   2   9  -1   59.10    4.87   0
   3  -5  -4   28.76    4.11   0
   3  -1   1  108.15    7.22   0
   4  -4  -1    3.73    3.61   0
   4  -3   0  235.35    6.31   0
   4   7   0   48.90    6.57   0
   5  -3   0   26.50    3.47   0
   5  -1   1 1264.10   16.17   0
   6  -4  -1   28.16    5.44   0
   6   0   1  267.94    9.64   0
   7  -5  -3  519.38    9.18   0
   7  -2   0  371.20    7.87   0
  -5   7  -8    4.21    4.57   0
  -3   7  -3  733.54    9.05   0
  -3   9  -4   -2.01    4.04   0
  -2   7  -2  537.25    8.88   0
  -2   9  -3 1327.24   12.60   0
   0   5   0    2.96    4.74   0
   1  10  -2  119.91    6.92   0
   2  -5  -6   19.37    5.73   0
   3  -5  -3   20.82    5.56   0
   3  -4  -1   33.11    5.28   0
   3  -3   0    3.60    5.12   0
   3   7   0   12.82    5.32   0
   5  -5  -2  112.37    6.15   0
   6  -3   0   43.75    5.51   0
   8  -4  -2  112.63    5.42   0
   8  -3  -1  173.56    6.16   0
   8  -1   0    7.87    6.00   0
  -4   7  -5  317.55    7.87   0
  -4   9  -6   28.63    5.92   0
  -3   6  -3  906.80   10.77   0
  -3  10  -5    0.51    4.11   0
  -1   6  -1   59.99    5.45   0
  -1  10  -3   33.57    4.31   0
   1  -4  -3  161.41    5.77   0
   1   6   0  401.69    8.90   0
   2  -5  -5   51.49    4.53   0
   2  -5  -4  476.61    8.83   0
   3   4   1   21.28    6.50   0
   4  -5  -2    8.22    3.59   0
   4   4   1   49.89    7.90   0
   6  -5  -2   72.39    4.59   0
   7  -4  -1   91.07    6.35   0
  -4   4  -5   21.54    5.54   0
  -4   6  -5  410.09    8.51   0
  -3   1  -4 1196.89   24.30   0
  -3   8  -4 2304.28   15.73   0
  -2  10  -4    0.32    4.11   0
  -1   8  -2   24.81    5.39   0
   0   9  -2   44.02    5.44   0
   1  -3  -1  104.66    6.52   0
   1   8  -1  436.84    7.87   0
   4  -6  -5  125.35    7.07   0
   5  -6  -4   18.93    6.03   0
   6  -1   1   52.13    5.85   0
   7  -5  -2  352.85    7.39   0
   7  -3   0   17.75    5.51   0
  -4   3  -6  173.30    9.01   0
  -4   5  -5 1926.22   16.01   0
  -4   8  -6   67.47    6.02   0
  -3   3  -3   77.76    6.14   0
  -3   4  -3   24.67    4.96   0
  -3   5  -3  216.03    5.82   0
  -2   6  -2  599.82    8.56   0
  -2   8  -3   -2.41    4.88   0
  -1  -3  -7  288.19   10.51   0
  -1  -3  -6  723.44   12.75   0
   0  -4  -6    6.21    5.75   0
   0   4   0   10.35    5.76   0
   0   7  -1   14.00    3.52   0
   2  -5  -3   17.59    5.01   0
   2   3   1 1564.80   21.23   0
   3  -5  -2   60.93    4.18   0
   4  -6  -4  177.20    7.04   0
   4  -2   1   65.67    5.91   0
   5  -6  -3   48.55    6.12   0
   5  -2   1   15.33    5.15   0
   6  -6  -3   18.53    5.94   0
   8  -4  -1  901.22   11.67   0
   8  -2   0  300.05    7.46   0
  -4   9  -7  313.27    6.91   0
  -3   9  -5   34.05    4.16   0
  -3  10  -6  298.47    7.81   0
  -1  -3  -5   62.15    6.25   0
  -1   5  -1 2714.45   18.94   0
  -1   9  -3   67.28    5.83   0
   0  -4  -7   42.86    6.83   0
   0  -4  -5   90.68    6.40   0
   0  -3  -2   92.68    6.59   0
   0  10  -3    5.32    4.13   0
   1  -4  -2   13.95    4.93   0
   2  -4  -1  247.50    6.28   0
   2  -3   0  777.83   11.92   0
   2   6   0   64.23    6.13   0
   2   8  -1    2.92    5.42   0
   3  -6  -5  209.23    7.87   0
   4  -6  -3    3.79    5.50   0
   4  -5  -1   12.91    5.18   0
   4  -4   0  858.42   10.56   0
   5  -5  -1  312.22    6.67   0
   5  -4   0   54.18    3.96   0
   5   6   0  125.89    9.34   0
   6  -5  -1  210.41    5.84   0
   6  -4   0   66.58    5.88   0
   6  -2   1  189.58    7.33   0
  -4   7  -6  810.27   10.09   0
  -3   7  -4   79.43    4.66   0
  -2   1  -2 1935.99   28.53   0
  -2   5  -2  103.38    6.06   0
  -2   9  -4   17.81    5.69   0
   0  -4  -4  176.92    7.67   0
   1  -5  -6   33.69    6.34   0
   1  -5  -5  177.51    7.38   0
   1  -2   0   88.05    6.73   0
   1   9  -2  292.84    6.61   0
   3  -6  -4   95.16    6.66   0
   3  -2   1 1033.49   15.35   0
   3   8  -1   21.88    6.12   0
   4   8  -1   -2.72    6.16   0
   6  -6  -2    7.01    6.25   0
   7  -5  -1   34.13    6.40   0
   7   0   1    1.88    6.26   0
   8  -3   0  189.94    7.64   0
  -4   3  -7  903.77   16.63   0
  -4   4  -6   -0.62    5.22   0
  -4   5  -6   -1.83    5.10   0
  -4   6  -6    9.66    5.52   0
  -4   8  -7    3.64    4.27   0
  -2   7  -3  823.74   10.68   0
  -2  10  -5  348.62    7.07   0
  -1   7  -2  816.39    9.57   0
  -1  10  -4   67.75    4.77   0
   0   3   0   14.21    6.11   0
   0   8  -2    8.09    5.20   0
   1  -5  -4  574.98    9.92   0
   1   5   0   62.32    4.36   0
   1  10  -3    2.73    6.15   0
   2  -5  -2  535.87    9.00   0
   2  -1   1   20.46    6.73   0
   3  -6  -3   48.28    5.78   0
   3  -5  -1  590.23    9.41   0
   3  -4   0 5471.77   26.05   0
   3   6   0   49.39    5.82   0
   4   6   0  224.61    9.84   0
   5  -6  -2   68.45    4.73   0
   7  -6  -2   38.93    6.24   0
   7  -4   0  140.40    5.72   0
   7  -1   1  431.46   10.83   0
   7   1   1  146.90   10.08   0
  -3   6  -4 2201.81   15.90   0
  -3   8  -5   34.44    4.20   0
  -3   9  -6   51.54    5.98   0
  -2  -2  -7    1.77    7.11   0
  -2  -2  -6  155.30    9.92   0
  -2   4  -2   77.27    6.25   0
  -1  -3  -4   24.58    5.90   0
  -1   4  -1   93.93    6.22   0
   0   6  -1  597.50    9.41   0
   1   7  -1  144.69    5.36   0
   2   9  -2   12.52    5.63   0
   4  -6  -2  255.86    6.11   0
   4  -3   1 2320.29   18.37   0
   5  -3   1  126.54    5.36   0
   6  -3   1   42.74    5.67   0
   7  -2   1   40.93    6.35   0
  -4   3  -9   27.67    8.97   0
  -4   3  -8   25.63    7.66   0
  -4   7  -7  503.74    8.66   0
  -4   8  -8  421.86    8.98   0
  -3  10  -7   -4.29    4.29   0
  -2  -2  -8   64.86    9.32   0
  -2   3  -2   20.22    5.94   0
  -2   8  -4   33.91    5.69   0
  -1   8  -3  113.57    6.01   0
   0  -4  -3 3056.56   21.87   0
   0   9  -3  234.07    7.33   0
   1  -5  -3  399.33    8.37   0
   2  -6  -5   11.67    4.47   0
   2  -6  -4   11.40    5.81   0
   2  10  -3    1.18    5.94   0
   3   3   1  207.42   10.19   0
   3   9  -2  160.42    7.54   0
   5  -6  -1  206.57    6.93   0
   5  -5   0  554.94    8.79   0
   6  -6  -1   53.65    6.18   0
   6  -5   0  145.72    6.70   0
   8  -4   0    4.21    6.30   0
  -4   4  -7   36.26    6.13   0
  -4   6  -7  171.09    7.26   0
  -3   2  -4   88.73    8.20   0
  -3   5  -4    7.25    4.60   0
  -3   7  -5   23.62    5.51   0
  -2   2  -2   61.27    5.64   0
  -2   6  -3   -2.30    4.91   0
   0   2   0 6658.98   44.95   0
   0  10  -4  307.45    7.96   0
   2   2   1   82.57    8.05   0
   3  -6  -2   80.41    4.62   0
   4  -7  -4   21.64    4.43   0
   4  -5   0   18.96    4.96   0
   5  -7  -3   48.05    4.86   0
   5   3   1    3.81    9.98   0
   7  -6  -1  159.51    7.25   0
   7  -5   0  203.51    7.17   0
  -4   5  -7    6.84    3.78   0
  -4   7  -8  120.20    6.95   0
  -3   4  -4  535.51   10.10   0
  -3   8  -6  155.64    6.93   0
  -2  -2  -5  236.23   10.91   0
  -2   9  -5   75.16    4.79   0
  -2  10  -6  249.71    6.38   0
  -1  -2  -2  127.32    8.12   0
  -1   3  -1  737.86   12.77   0
  -1   6  -2    3.05    3.41   0
  -1   9  -4    1.50    3.74   0
  -1  10  -5    7.50    5.63   0
   1  -4  -1  742.19   10.53   0
   1   8  -2   10.45    3.72   0
   2  -6  -3   13.13    5.15   0
   2  -5  -1  620.58    9.68   0
   2  -4   0  715.27   10.83   0
   2   5   0  519.36   10.54   0
   2   7  -1   62.11    4.34   0
   3  -3   1  124.13    5.86   0
   4  -7  -3  135.81    6.85   0
   4  -6  -1   25.69    3.87   0
   5  -7  -2    7.03    5.91   0
   5  -4   1  364.45    8.08   0
   6  -7  -2   85.80    6.69   0
   7  -3   1   17.07    3.93   0
  -4   4  -8   42.72    7.09   0
  -4   6  -8  190.82    8.00   0
  -4   7  -9   19.50    6.50   0
  -3   3  -4  332.50    9.49   0
  -3   9  -7  368.19    7.40   0
  -1  -3  -3  283.86   10.31   0
   0   7  -2 1763.13   14.67   0
   1  -5  -2    2.42    4.62   0
   1   4   0    4.56    5.26   0
   2  -2   1 4916.78   33.40   0
   3  -7  -4   20.76    6.35   0
   3  -5   0   21.58    5.30   0
   4  -4   1   53.87    5.22   0
   5   7  -1   23.36    8.02   0
   6  -4   1  817.20   10.42   0
   6   5   0    5.30    7.93   0
   8  -2   1  145.96    7.83   0
   8  -1   1   64.09    7.25   0
  -4   4  -9   77.45    7.80   0
  -4   5  -8    7.59    6.05   0
  -3   6  -5 1252.28   12.80   0
  -2   7  -4  382.40    8.03   0
   0  -5  -6    7.30    6.36   0
   0  -5  -5   10.65    5.82   0
   0   5  -1  305.24    7.19   0
   1  -6  -5   99.52    6.99   0
   1  -3   0  536.56   10.34   0
   1   6  -1   12.06    5.08   0
   1   9  -3   57.44    4.61   0
   1  10  -4  341.80    8.73   0
   2  -6  -2  302.17    7.34   0
   3  -7  -3  417.54    9.15   0
   3  -6  -1  570.05    8.34   0
   3   7  -1  260.19    7.19   0
   4  -7  -2  107.48    5.14   0
   4   3   1  663.76   18.18   0
   4   7  -1   11.70    6.03   0
   5  -6   0  113.13    6.35   0
   6  -6   0    8.91    5.31   0
   7  -4   1    9.29    5.68   0
   8   0   1  303.28   12.25   0
  -4   5  -9  253.55    9.43   0
  -4   6  -9   -1.60    6.44   0
  -3   7  -6  153.21    6.80   0
  -3   9  -8  205.59    7.66   0
  -2   5  -3   19.03    3.84   0
  -2   8  -5  129.35    6.45   0
  -2  10  -7    2.96    5.90   0
  -1  -4  -6    2.86    6.19   0
  -1   2  -1   28.30    5.94   0
  -1   7  -3  266.40    6.48   0
   0  -5  -4   34.45    5.99   0
   0  -4  -2 5762.22   29.43   0
   0  -3  -1  232.65    8.85   0
   0   8  -3  139.80    6.53   0
   1  -6  -4    8.99    5.57   0
   2   8  -2   17.53    4.21   0
   3   5   0   44.92    6.13   0
   5  -7  -1    1.38    5.87   0
   6  -7  -1  111.49    4.85   0
   7  -6   0  317.87    7.24   0
   8  -3   1    2.21    4.57   0
  -3   5  -5  138.25    6.72   0
  -3   8  -7  143.70    5.51   0
  -2   9  -6   20.05    4.35   0
  -1  -4  -7    3.10    6.93   0
  -1  -4  -5    7.67    5.71   0
  -1   1  -1 1233.65   25.05   0
  -1   5  -2 1069.66   12.06   0
  -1   8  -4  249.90    7.36   0
  -1  10  -6   21.40    6.08   0
   0   9  -4   97.03    5.91   0
   0  10  -5  580.73    9.17   0
   2   9  -3  246.67    8.20   0
   3  -7  -2    5.57    5.70   0
   3  -4   1    1.36    3.63   0
   3   8  -2  152.39    7.52   0
   4  -7  -1    6.86    5.55   0
   4  -6   0    5.85    3.70   0
   5  -5   1   -2.07    3.48   0
   5   5   0  323.71   12.06   0
   6  -5   1    0.82    3.76   0
   8  -4   1    3.17    6.25   0
  -3   1  -5    3.89    7.65   0
  -1   9  -5   84.00    4.77   0
   1  -6  -3  582.56    9.77   0
   1   7  -2  294.71    7.74   0
   2  -7  -4    1.55    4.23   0
   2  -5   0    3.32    5.06   0
   2  -3   1 3004.75   23.07   0
   2  10  -4   71.05    5.19   0
   4  -5   1   63.09    4.39   0
   4   5   0  356.93   10.52   0
   4   8  -2  139.21    7.92   0
   7  -5   1    3.20    3.76   0
  -3   4  -5   42.05    5.85   0
  -3   6  -6 1229.30   13.12   0
  -3   8  -8    4.05    6.02   0
  -2  -2  -4   96.59    9.46   0
  -2   4  -3  113.95    6.72   0
  -2   6  -4  376.18    7.32   0
  -2  10  -8    4.71    6.01   0
  -1  -4  -4  549.72   11.28   0
   0  -5  -3  242.07    6.89   0
   0   6  -2 1229.91   12.82   0
   1  -5  -1    7.46    4.64   0
   2  -7  -3    0.36    4.22   0
   2  -6  -1  295.06    6.45   0
   2   6  -1   49.05    6.01   0
   3  -6   0  320.71    7.89   0
   3   9  -3    3.58    5.84   0
   5  -7   0  194.21    7.16   0
   5  -2   2  126.72    7.22   0
   6  -7   0   37.16    4.37   0
   8  -5   1  359.75    9.07   0
  -3   7  -7   76.98    4.94   0
  -2   7  -5  809.44   10.70   0
  -2   8  -6   26.28    5.36   0
  -2   9  -7   19.88    6.04   0
  -1   6  -3 2520.37   17.99   0
   0   4  -1  354.47    8.46   0
   1  -4   0  744.70   11.70   0
   1   3   0 1938.83   22.01   0
   1   8  -3   23.07    5.38   0
   2   4   0  790.61   13.40   0
   3  -7  -1   58.90    4.48   0
   4  -8  -2   94.42    5.01   0
   5  -8  -1    3.67    5.82   0
   5  -6   1  287.68    7.35   0
   5  -3   2  480.85   10.18   0
   5  -1   2   74.32    6.54   0
   6  -6   1   10.93    3.99   0
   6  -3   2   56.11    5.83   0
   6  -2   2    3.75    5.04   0
   7  -6   1   19.47    6.12   0
   8   1   1  336.72   16.47   0
  -3   2  -5 1940.39   23.43   0
  -3   3  -5  166.18    7.69   0
  -3   8  -9  101.50    7.04   0
  -2  -1  -3  166.94   16.49   0
  -1   4  -2 1171.52   14.15   0
  -1  10  -7   41.55    6.17   0
   0   7  -3  293.69    7.34   0
   1  -6  -2  107.72    5.09   0
   1   5  -1  565.62   10.13   0
   1   9  -4    6.50    3.57   0
   1  10  -5   56.50    4.65   0
   2  -7  -2    1.73    3.97   0
   3  -8  -3  114.05    5.46   0
   3  -5   1   38.63    3.88   0
   4  -7   0  158.65    5.24   0
   4  -6   1   25.44    5.32   0
   4  -3   2  461.29    9.92   0
   4  -2   2   13.60    5.52   0
   6  -1   2    3.24    7.18   0
  -3   5  -6   30.77    5.75   0
  -3   6  -7  190.90    7.22   0
  -3   7  -8   11.08    5.72   0
  -2   3  -3 1172.11   15.99   0
  -1  -3  -2 2505.26   24.46   0
  -1   7  -4   57.35    4.59   0
  -1   8  -5  300.08    7.60   0
  -1   9  -6  239.29    7.38   0
   0  -6  -5  140.16    7.76   0
   0  -5  -2  127.20    6.70   0
   0  -4  -1   44.05    5.65   0
   0   8  -4  662.11    9.82   0
   0   9  -5  481.10    8.85   0
   0  10  -6   10.53    4.24   0
   2  -4   1 1006.69   12.30   0
   2   7  -2  565.77    9.81   0
   3  -8  -2  289.22    8.66   0
   3   6  -1   98.76    6.35   0
   4  -8  -1  216.02    7.37   0
   4  -1   2  258.20    9.98   0
   5  -4   2   10.33    3.82   0
   6  -4   2  227.85    6.50   0
   6   6  -1    6.61    6.59   0
   7  -3   2  557.63   10.82   0
   7  -2   2   21.42    7.82   0
   7   4   0  252.57   14.73   0
  -2  -3  -7   18.52    8.28   0
  -2  -3  -6    7.71    7.74   0
  -2   5  -4  179.95    5.74   0
  -2   9  -8    1.95    4.32   0
  -1  -4  -3   88.77    6.80   0
   0  -6  -4  738.45   11.92   0
   1  -7  -4  381.99    8.17   0
   2  -6   0   34.76    5.29   0
   2   8  -3  375.22    8.72   0
   2  10  -5   33.80    6.34   0
   3  -7   0   30.47    5.37   0
   4  -4   2  132.04    6.47   0
   5  -8   0    4.79    5.89   0
   5  -7   1  673.21    9.75   0
   6  -8   0  574.72    8.65   0
   6  -7   1  120.53    5.54   0
   6  -5   2   11.45    5.65   0
   7  -7   1  574.03    9.81   0
   7  -4   2   59.07    6.15   0
  -3   4  -6 5306.29   29.53   0
  -3   7  -9   24.22    6.36   0
  -2   6  -5   -2.91    5.00   0
  -2   7  -6  677.76    9.57   0
  -2   8  -7   76.70    4.84   0
  -1  10  -8  438.75    8.67   0
   0  -2   0 7221.35   47.21   0
   1  -7  -3   32.39    5.89   0
   1  -6  -1   -0.87    4.93   0
   2  -8  -3    1.94    6.50   0
   2  -7  -1  221.94    5.80   0
   2   9  -4  276.70    6.79   0
   3  -6   1  762.95   10.65   0
   4   6  -1    1.84    5.28   0
   5  -5   2  420.52    7.68   0
   5   6  -1  389.09   10.66   0
   7  -5   2  118.15    7.00   0
  -3   0  -7  128.39   16.45   0
  -3   5  -7  140.42    6.77   0
  -3   6  -8  194.06    7.52   0
  -2  -3  -5   -0.17    7.69   0
  -2   9  -9  585.11    8.81   0
  -1  -5  -6   32.33    7.44   0
  -1  -5  -5  177.01    8.46   0
  -1   5  -3  928.57   12.14   0
   0  -6  -3  651.00   10.96   0
   0   5  -2 2181.87   17.44   0
   0  10  -7   85.90    6.73   0
   1  -5   0    3.25    3.70   0
   1   6  -2   54.92    4.11   0
   1  10  -6   98.31    6.47   0
   2  -5   1   31.07    5.57   0
   3  -8  -1   73.01    4.60   0
   3  -3   2  444.61   10.29   0
   3  -2   2 3344.28   27.95   0
   3   2   1   39.83    8.75   0
   3   7  -2   10.55    3.89   0
   4  -8   0  240.83    6.31   0
   4  -7   1  408.03    8.47   0
   4  -5   2  122.16    5.91   0
   6  -6   2  721.44   10.56   0
   7  -1   2  534.80   13.56   0
   8  -4   2   86.06    7.31   0
   8  -3   2    5.37    6.31   0
  -3   3  -6  417.92   10.69   0
  -2   2  -3   47.01    6.81   0
  -1   9  -7  187.50    6.09   0
   0   3  -1  517.61   12.08   0
   1  -7  -2   71.27    6.61   0
   1   7  -3   11.30    5.10   0
   1   9  -5   -3.99    5.29   0
   2  -8  -2  135.30    7.41   0
   3  -4   2  168.94    7.16   0
   3   4   0  520.16   11.85   0
   3   8  -3  516.87    8.76   0
   3   9  -4   30.37    4.63   0
   4   7  -2   11.65    5.80   0
   5  -6   2  415.62    8.79   0
   5   0   2  248.91   13.93   0
   5   7  -2  108.72    7.47   0
   6  -8   1    6.67    5.55   0
   7  -6   2   90.49    6.88   0
   8  -2   2   40.57    8.50   0
  -3   0  -8 1088.43   33.40   0
  -3   1  -6   89.02    9.35   0
  -3   6 -10  321.82    9.18   0
  -3   6  -9  301.34    7.67   0
  -2   4  -4   90.44    5.21   0
  -2   8  -8  398.40    7.59   0
  -1  -5  -4  255.16    8.96   0
  -1   3  -2 2622.42   22.84   0
  -1   6  -4  194.32    6.10   0
  -1   7  -5  643.13    9.84   0
  -1   8  -6  105.05    5.17   0
   0  -5  -1  116.76    6.73   0
   0  -3   0   14.83    6.46   0
   0   6  -3  111.93    6.11   0
   0   9  -6  106.77    5.36   0
   1  -3   1  750.42   13.33   0
   1  -2   1   31.04    6.07   0
   1   8  -4    2.71    3.47   0
   2  -7   0  554.32    9.64   0
   2   5  -1  376.78    9.19   0
   3  -8   0   12.07    5.73   0
   4   8  -3   23.49    6.43   0
   4   9  -4  293.57    8.74   0
   5  -8   1    0.97    4.20   0
   5   8  -3    6.38    6.25   0
   6   0   2  529.80   19.17   0
  -3   2  -6  415.09   11.97   0
  -3   4  -7  551.12   10.92   0
  -3   5  -8  331.80    9.03   0
  -2   5  -5 2822.13   19.27   0
  -2   7  -7    0.65    3.98   0
  -1  -4  -2    5.49    5.41   0
  -1   9  -8   61.95    6.25   0
   0  -6  -2  232.81    7.65   0
   0   7  -4   38.40    4.52   0
   0   8  -5   65.30    4.59   0
   0  10  -8   57.94    6.60   0
   2  -8  -1   23.03    5.64   0
   2  -6   1 1159.84   12.58   0
   2  10  -6   34.96    4.80   0
   3  -7   1   -0.08    3.79   0
   3  -5   2 1344.11   13.56   0
   4  -8   1   14.51    5.88   0
   4  -6   2  160.46    5.65   0
   5  -7   2   10.56    5.88   0
   6  -7   2    2.43    4.09   0
   6   4   0   87.26   10.61   0
   7  -7   2   71.91    7.14   0
  -3   5  -9   97.67    7.15   0
  -2   6  -6  124.69    5.24   0
  -2   8  -9    1.88    4.55   0
  -1  -5  -3 1883.97   18.61   0
   1  -8  -3   35.09    6.55   0
   1  -7  -1  487.11    9.17   0
   1  -6   0    7.07    3.71   0
   1  -4   1  118.98    6.71   0
   1  -1   1 1157.28   24.15   0
   1   4  -1   74.98    5.41   0
   1  10  -7    4.82    6.10   0
   2   1   1   13.53    9.15   0
   2   6  -2  380.58    8.78   0
   2   9  -5  253.53    7.74   0
   3  -9  -1  158.81    7.39   0
   3  -1   2  985.73   19.47   0
   4  -9   0    7.21    4.45   0
   4   4   0 1225.01   18.62   0
  -3   3  -7  335.11    9.84   0
  -3   4  -8  165.10    7.90   0
  -3   5 -10    5.28    6.56   0
  -2  -3  -4  432.34   13.72   0
  -2   1  -3   12.55    6.31   0
  -2   8 -10  358.90    9.38   0
  -1  -2  -1    3.94    7.51   0
  -1   8  -7  122.35    6.63   0
   0  -7  -4   60.69    5.23   0
   0  -4   0   20.72    6.38   0
   0   9  -7  107.28    6.93   0
   2   7  -3   41.82    5.81   0
   2   8  -4   78.32    6.32   0
   3  -6   2  162.46    6.72   0
   4  -7   2   69.63    6.04   0
   4   0   2  253.75   16.46   0
   5  -9   1   66.82    6.90   0
   5   4   0  211.67   10.97   0
   6  -8   2   25.11    6.21   0
   8  -1   2  327.53   13.53   0
  -3   4 -10    2.41    8.56   0
  -3   4  -9  351.30    9.99   0
  -2   3  -4  180.82    7.90   0
  -2   7  -8  404.02    7.88   0
  -1   4  -3 1435.53   15.89   0
  -1   9  -9  415.77    8.06   0
   0  -7  -3  148.64    7.76   0
   1  -8  -2  221.62    8.13   0
   1   2   0   44.14    7.69   0
   1   9  -6   67.27    5.09   0
   2  -8   0   22.72    5.81   0
   2   3   0   24.94    6.08   0
   3  -9   0   -0.82    6.44   0
   3  -8   1    2.12    5.58   0
   3   5  -1  394.24   10.25   0
   3   9  -5  404.60    9.43   0
   5  -8   2  301.73    8.26   0
   6  -5   3  378.74    9.34   0
   6  -4   3  431.30   10.18   0
  -3   1  -7    2.78    8.17   0
  -3   2  -7 1729.77   22.17   0
  -3   3  -8  125.68    9.55   0
  -2  -2  -3 3249.97   41.05   0
  -2   6  -7  856.01   11.40   0
  -2   7  -9  151.89    7.45   0
  -1  -6  -5   -2.84    6.63   0
  -1   5  -4  602.65   10.26   0
  -1   6  -5   -3.30    5.43   0
  -1   7  -6    7.56    4.06   0
   0  -6  -1  283.67    7.24   0
   0   4  -2   28.44    6.12   0
   0   8  -6  212.56    7.05   0
   1  -5   1 2453.28   18.17   0
   1   5  -2    8.27    5.52   0
   1   8  -5   11.79    6.02   0
   1  10  -8  190.06    7.91   0
   2  -7   1   -0.62    3.75   0
   2  -4   2   84.75    6.79   0
   2  -3   2   24.05    6.41   0
   2  10  -7  312.97    7.14   0
   4  -9   1  456.74    8.04   0
   5  -5   3    9.41    5.65   0
   5  -4   3   59.81    6.47   0
   6  -6   3    5.07    6.13   0
   7  -5   3  197.36    8.57   0
  -3   1  -9  120.82   11.27   0
  -3   3  -9   11.72    6.65   0
  -2  -4  -6   13.90    8.25   0
  -2   4  -5  840.10   12.41   0
  -2   5  -6  213.83    7.69   0
  -1  -6  -4  151.82    8.16   0
  -1  -5  -2   85.35    7.11   0
  -1  -3  -1 1206.39   18.15   0
  -1   8  -8  118.38    7.18   0
   0  -7  -2   12.56    6.32   0
   0  -5   0    1.87    5.21   0
   0   7  -5  179.74    7.11   0
   0   9  -8   52.71    6.50   0
   1  -8  -1  154.72    7.39   0
   1  -7   0   44.78    4.49   0
   1   6  -3  427.25    8.58   0
   1   7  -4  507.60    8.98   0
   2  -9  -1    5.83    4.54   0
   2  -5   2  100.74    6.46   0
   3  -7   2  334.14    6.97   0
   3   6  -2    6.29    5.67   0
   3   7  -3   59.87    6.32   0
   3   8  -4  664.81    9.46   0
   4  -8   2  281.70    6.92   0
   4   9  -5   14.93    6.75   0
   5  -6   3    9.09    4.04   0
   5  -3   3  286.54    9.19   0
   6  -3   3  277.84    9.17   0
   7  -6   3   36.13    5.25   0
   7  -4   3   29.31    6.71   0
  -3   1  -8   67.37    9.36   0
  -3   2  -9   15.97    8.62   0
  -3   2  -8  698.13   14.95   0
  -2  -4  -5   78.78    9.59   0
  -2   7 -10  191.35    6.38   0
  -1   2  -2 1233.47   19.60   0
   0   5  -3  277.87    7.08   0
   0   6  -4   12.86    5.60   0
   1  -6   1   49.51    5.89   0
   2  -2   2   73.20    7.58   0
   2   9  -6   77.86    6.64   0
   4  -5   3  766.18   10.36   0
   4  -4   3  137.24    7.16   0
   4   5  -1   22.61    5.91   0
   4   8  -4   80.08    6.74   0
   5  -9   2  174.30    5.67   0
   5  -7   3  548.60    9.82   0
   6  -7   3   33.60    4.55   0
   6   5  -1   62.63    7.51   0
   7  -7   3    6.75    6.43   0
   7  -3   3  938.53   15.72   0
   7   0   2   95.77   12.50   0
  -2   6  -8    9.44    4.14   0
  -1  -6  -3  236.36    8.69   0
  -1   7  -7   31.32    5.71   0
  -1   8  -9   29.48    6.08   0
   1   9  -7   15.08    4.43   0
   2  -9   0   37.75    6.57   0
   2  -8   1  107.08    6.54   0
   2  -6   2  561.11    8.76   0
   3  -9   1   18.38    4.64   0
   3  -8   2  100.63    6.43   0
   4  -6   3   37.42    4.35   0
   4  -3   3   16.27    5.59   0
   4   6  -2  193.22    7.68   0
   4   7  -3  268.99    8.55   0
   5   5  -1   30.30    6.53   0
   5   8  -4   73.05    7.05   0
   6  -8   3   18.66    6.69   0
   6   6  -2  108.23    8.22   0
  -2   0  -3 2571.74   50.29   0
  -2   6  -9  271.70    8.32   0
  -1  -4  -1  154.58    7.88   0
   0  -8  -3    1.88    6.49   0
   0  -7  -1   -1.39    5.43   0
   0   8  -7  197.18    5.86   0
   0   9  -9   40.00    4.63   0
   1  -8   0   11.31    5.62   0
   2   8  -5  283.00    6.56   0
   3   9  -6   16.12    6.74   0
   4  -9   2  551.84    8.53   0
   4  -7   3   37.72    5.38   0
   4   2   1  304.25   15.31   0
   5  -8   3  427.75    9.02   0
   5   6  -2  151.64    7.53   0
   5   7  -3  192.60    8.42   0
  -2  -4  -4  298.17   11.04   0
  -2  -3  -3  132.80    9.35   0
  -2   2  -4    5.53    5.88   0
  -2   5  -7  296.43    7.17   0
  -2   6 -10    7.33    6.20   0
  -1   6  -6  143.89    6.54   0
  -1   8 -10   44.77    5.17   0
   0  -6   0 1229.30   13.00   0
   0   2  -1 3088.48   31.14   0
   1  -7   1   39.42    5.49   0
   1   8  -6  287.50    6.57   0
   2  -7   2  527.17    9.43   0
   2   4  -1  507.16   10.27   0
   2   7  -4 1529.25   14.06   0
   3  -5   3  225.94    7.14   0
   5  -2   3 1616.49   21.37   0
   6  -2   3  287.84   11.74   0
  -2   3  -5   83.29    6.69   0
  -2   4  -6  270.79    8.49   0
  -1  -6  -2   71.24    6.68   0
  -1   3  -3  749.63   13.65   0
  -1   5  -5   -0.17    5.07   0
  -1   7  -8   32.39    5.99   0
   0  -8  -2  126.59    6.07   0
   0   7  -6  182.52    7.04   0
   1  -9  -1   15.68    4.55   0
   1   9  -8  407.05    7.67   0
   2  -9   1  210.95    7.64   0
   2   5  -2    1.15    4.94   0
   2   6  -3  648.41   10.31   0
   2   9  -7  230.47    6.14   0
   3 -10   1  161.92    7.94   0
   3  -9   2    3.12    6.30   0
   3  -6   3  887.80   10.62   0
   3  -4   3   20.18    3.82   0
   3   8  -5  432.63    9.14   0
   4  -8   3   28.88    4.49   0
   4   9  -6  142.19    6.06   0
   5  -9   3   16.05    6.55   0
   8  -3   3   69.49    8.30   0
  -2   5  -8   88.23    7.16   0
  -1  -7  -4  297.99   10.56   0
  -1  -5  -1  161.75    7.69   0
  -1   4  -4  877.64   12.81   0
   0   8  -8    8.30    4.61   0
   1   3  -1  636.77   13.64   0
   1   7  -5   73.56    4.90   0
   2  -8   2  822.12   10.83   0
   3  -7   3  720.24    9.62   0
   3   3   0   59.39    6.97   0
   6   2   1 2790.85   43.88   0
   7  -2   3  178.13   10.84   0
  -2   5  -9    5.28    6.00   0
  -1  -7  -3   65.19    7.53   0
  -1   7  -9   -0.09    4.43   0
   0  -8  -1    5.17    6.12   0
   0  -7   0    2.92    4.10   0
   0  -4   1  355.36   10.02   0
   0   6  -5    5.40    4.01   0
   1  -9   0  172.95    7.94   0
   1  -8   1  371.73    8.46   0
   1  -5   2 1104.25   13.30   0
   1  -4   2 1506.45   16.16   0
   1   6  -4    5.96    5.25   0
   1   8  -7   15.59    5.87   0
   1   9  -9  317.73    6.98   0
   2   8  -6  571.76    9.41   0
   3  -8   3  779.50   10.75   0
   3  -3   3   67.77    6.53   0
   3   7  -4   10.83    5.74   0
   3   9  -7    7.16    6.20   0
   4  -9   3  170.31    6.25   0
   4  -2   3    9.55    7.06   0
   4   8  -5  208.88    7.89   0
   5   2   1   40.13   10.17   0
   6  -7   4  180.79    7.66   0
   6  -6   4  140.84    7.29   0
  -2  -5  -5   37.25    7.52   0
  -2  -4  -3   52.78    8.21   0
  -2   4  -7  270.75    8.54   0
  -2   5 -10   71.65    7.54   0
  -1   6  -7   18.26    4.13   0
  -1   7 -10   10.65    6.45   0
   0  -5   1  309.88    7.70   0
   0  -3   1  536.50   12.65   0
   0   3  -2  801.94   14.11   0
   0   5  -4   55.27    5.92   0
   0   7  -7  101.55    6.70   0
   0   8  -9  314.57    7.20   0
   1  -6   2    4.39    3.76   0
   1   4  -2 2295.02   20.37   0
   1   5  -3 4625.31   25.40   0
   2   9  -8   77.90    5.22   0
   3 -10   2  371.22    9.09   0
   5  -7   4   31.22    6.25   0
   5  -6   4   57.94    4.89   0
   5   8  -5  179.99    7.73   0
   6  -8   4  121.58    7.46   0
   6  -5   4   95.22    6.89   0
   7  -6   4    5.31    4.75   0
  -2  -5  -4   45.79    8.89   0
  -1  -7  -2  756.46   12.29   0
  -1  -6  -1  181.59    7.69   0
   0  -6   1  571.65    9.76   0
   0   4  -3  635.35   11.22   0
   0   8 -10  510.60   10.00   0
   1  -7   2  815.77   11.38   0
   1  -3   2 2696.25   23.96   0
   2 -10   1   26.98    4.95   0
   2  -9   2  146.46    5.88   0
   2  -6   3   -1.68    5.42   0
   2  -5   3   20.62    5.32   0
   3  -9   3   67.19    6.89   0
   3   4  -1 1838.03   19.48   0
   3   6  -3   44.20    5.90   0
   4 -10   3  167.15    7.77   0
   4   7  -4  988.21   12.64   0
   5  -8   4   28.88    4.82   0
   5  -5   4   15.18    4.18   0
   7  -5   4  257.23    9.06   0
  -2   3  -6  494.49   10.86   0
  -2   4  -8    5.54    5.59   0
  -1   5  -6   -2.20    4.65   0
  -1   6  -8  164.73    7.09   0
   0  -8   0    1.87    6.10   0
   1  -9   1   13.11    6.13   0
   1   7  -6   91.56    6.24   0
   1   8  -8   16.94    6.31   0
   2  -7   3  818.41   11.19   0
   2   7  -5   51.98    4.60   0
   2   9  -9    4.72    6.47   0
   3   5  -2   39.06    4.54   0
   3   8  -6   38.69    6.22   0
   3   9  -8   31.99    6.66   0
   4  -8   4   14.53    6.11   0
   4  -7   4  524.95    8.57   0
   4  -6   4  609.04    9.32   0
   5  -9   4  119.23    7.61   0
   5   7  -4   92.30    7.23   0
   6  -4   4   11.18    5.93   0
   6   7  -4    5.22    6.97   0
   7   3   0   98.80   10.45   0
  -2   4 -10   36.65    6.76   0
  -2   4  -9   79.07    6.66   0
  -1  -4   0    0.18    5.65   0
   0  -9  -1    6.67    6.54   0
   0  -7   1   15.68    5.59   0
   0   6  -6  996.44   11.71   0
   0   7  -8   74.97    6.26   0
   1  -8   2   23.90    5.98   0
   2  -8   3    5.80    5.57   0
   2  -4   3  110.23    5.63   0
   2  -1   2 1880.34   29.73   0
   2   8  -7  112.71    6.83   0
   4  -5   4   37.58    4.44   0
   4   6  -3  143.30    7.02   0
   5  -4   4  818.14   12.89   0
   8  -2   3  165.89   11.47   0
  -2  -5  -3   -2.12    5.79   0
  -2   1  -4    2.97    5.28   0
  -2   2  -5   26.26    6.15   0
  -1  -7  -1  428.91    9.89   0
  -1  -5   0   57.38    6.08   0
  -1   4  -5  163.71    7.18   0
  -1   6 -11    8.83    7.05   0
  -1   6 -10   63.02    6.98   0
  -1   6  -9   66.21    4.99   0
   1   8  -9  529.60    9.53   0
   2 -10   2   69.33    5.21   0
   2   6  -4  125.37    6.49   0
   3 -10   3  321.69    7.13   0
   4  -9   4    7.71    4.26   0
   4   3   0   24.36    6.01   0
   4   8  -6  532.84   10.06   0
   5   6  -3  165.78    7.69   0
   6   6  -3  344.54    9.73   0
   7  -4   4  565.85   12.30   0
   7   4  -1    6.49    6.51   0
   7   5  -2   69.57    7.90   0
  -1  -8  -2   30.44    7.07   0
  -1  -3   0 1854.88   22.44   0
  -1   5  -7  958.75   11.92   0
   0  -9   0  220.53    8.22   0
   0  -8   1  926.46   11.78   0
   0  -2   1 3123.51   32.50   0
   0   7  -9   71.11    5.16   0
   1 -10   1   53.84    6.98   0
   1   6  -5  691.97   10.50   0
   2  -9   3 1293.36   13.35   0
   3  -8   4 2270.99   16.57   0
   3  -7   4   69.66    4.79   0
   3  -6   4 2141.97   15.95   0
   3   7  -5  118.85    6.65   0
   4 -10   4   70.40    6.89   0
   4  -4   4  491.44   10.77   0
   4   4  -1  103.14    7.29   0
   4   5  -2  922.46   12.58   0
   5   8  -6   -2.33    4.71   0
   6   3   0  170.88   10.64   0
   6   5  -2   85.81    8.43   0
  -2  -6  -4  203.52   10.77   0
  -2  -4  -2  600.61   13.94   0
  -2  -3  -2   88.39    8.51   0
  -2   3  -7  244.18    7.70   0
  -1  -6   0  414.98    8.65   0
  -1   1  -2 1122.97   23.60   0
  -1   3  -4  747.50   13.20   0
   0   5  -5   19.44    5.55   0
   0   7 -10  406.44    8.96   0
   1  -9   2   12.04    4.23   0
   1   7  -7  731.96    9.50   0
   1   8 -10  193.38    6.07   0
   2  -3   3 1241.05   16.84   0
   2   5  -3  888.27   11.99   0
   2   7  -6   11.51    5.92   0
   2   8  -8   11.48    4.56   0
   3  -9   4    7.46    6.35   0
   3  -5   4    4.65    5.09   0
   3  -2   3  536.14   12.90   0
   3   8  -7    4.40    4.43   0
   5   3   0   62.76    8.16   0
   5   5  -2   11.48    5.86   0
   6  -8   5   86.49    7.50   0
   6   4  -1   43.91    8.38   0
  -2   3 -10  319.94    9.97   0
  -2   3  -9  395.17   10.33   0
  -2   3  -8  156.10    7.72   0
  -1  -8  -1    0.84    6.10   0
  -1   2  -3    5.98    6.27   0
  -1   5  -8  125.99    6.83   0
   0   6  -7  153.32    5.79   0
   1  -7   3  276.22    8.09   0
   1  -6   3 2846.30   19.49   0
   1  -2   2 1318.82   20.60   0
   2 -10   3   22.45    6.35   0
   2   2   0    2.00    7.21   0
   4   7  -5  672.34   10.68   0
   5  -9   5  176.31    7.88   0
   5  -8   5  220.34    7.91   0
   5  -7   5   31.32    6.23   0
   5   4  -1    0.82    5.51   0
   6  -7   5  258.28    7.41   0
  -2  -6  -3   61.72    6.90   0
  -2  -5  -2   40.28    6.37   0
  -1  -7   0   -3.26    3.84   0
  -1   5 -11   68.69    7.67   0
  -1   5  -9  193.99    7.85   0
   0  -9   1   80.76    6.72   0
   0  -7   2 1785.30   15.53   0
   0  -6   2 1210.52   12.70   0
   0  -5   2 2228.04   18.10   0
   1 -10   2  131.91    7.60   0
   1  -8   3  112.36    6.52   0
   1  -5   3 1166.18   13.69   0
   1   5  -4 1095.12   12.59   0
   1   7  -8  173.62    7.06   0
   2   4  -2  678.91   12.21   0
   2   8  -9   55.77    5.03   0
   3 -10   4   49.70    4.95   0
   3   6  -4   69.38    4.77   0
   4   8  -7    6.92    4.81   0
   5  -3   4  589.58   12.61   0
   5   7  -5   -5.05    5.73   0
   6  -6   5  621.54   11.37   0
   6  -3   4   66.59    7.18   0
   6   7  -5  144.60    8.07   0
  -2   2  -6    7.17    5.78   0
  -1   4  -6    4.97    3.65   0
  -1   5 -10  386.87    8.29   0
   0   4  -4 6260.74   30.49   0
   0   6  -8 1209.47   11.79   0
   1   6  -6  465.50    9.22   0
   2  -8   4   30.09    4.66   0
   2  -7   4  391.45    7.56   0
   2  -6   4  412.53    8.88   0
   2   3  -1    2.85    6.29   0
   2   8 -10  171.89    8.00   0
   3  -4   4  585.69   11.03   0
   3   7  -6   38.95    5.99   0
   3   8  -8  544.78    8.33   0
   4  -9   5   19.02    6.51   0
   4  -8   5   55.66    4.91   0
   4  -7   5  372.60    8.79   0
   5  -6   5   20.79    4.51   0
   5  -1   3   73.00    9.42   0
   6  -1   3  285.37   15.58   0
  -2  -6  -2    9.76    6.28   0
  -2  -2  -2   87.84   11.06   0
  -2   2 -10   96.57    8.49   0
  -1  -8   0  194.63    8.11   0
   0  -8   2    4.10    3.96   0
   0  -4   2   32.29    4.67   0
   0   5  -6   55.51    5.90   0
   0   6  -9  283.78    8.29   0
   1  -9   3   56.04    4.76   0
   1   4  -3   26.92    6.43   0
   1   7  -9    2.18    4.02   0
   2  -9   4   15.64    4.62   0
   2   6  -5  142.08    5.37   0
   2   7  -7    8.56    3.96   0
   4 -10   5   13.59    6.61   0
   4  -6   5  399.66    9.15   0
   4   6  -4  631.63   10.74   0
   4   8  -8  195.33    7.95   0
   7  -3   4   35.94    7.50   0
  -2   2  -9   29.14    8.35   0
  -2   2  -7  700.91   13.34   0
  -1  -6   1   10.37    5.25   0
  -1  -5   1  620.27   11.06   0
  -1  -2   0   45.98    6.33   0
  -1   4  -7  233.70    7.92   0
   0 -10   1    9.07    6.73   0
   0  -9   2   27.98    6.67   0
   0   6 -11   66.40    5.78   0
   0   6 -10   -5.95    4.81   0
   1  -4   3 1413.80   15.49   0
   1   7 -11   56.62    7.07   0
   1   7 -10    3.00    4.22   0
   2 -10   4    5.62    6.47   0
   2  -5   4  193.44    7.11   0
   3  -8   5   33.36    6.01   0
   3   5  -3  570.73    9.70   0
   3   8  -9  525.69    8.49   0
   4  -3   4  185.30    8.32   0
   4   7  -6  238.83    7.74   0
   5  -5   5  914.66   13.31   0
   5   6  -4  191.26    7.89   0
   6  -5   5    5.65    6.33   0
   6   6  -4   99.82    7.58   0
  -2  -7  -3    0.09    6.58   0
  -2   1  -5 1070.30   19.33   0
  -2   2  -8  121.51    7.76   0
  -1  -7   1  154.38    7.36   0
  -1   3  -5  357.20    9.50   0
  -1   4 -11    9.90    6.91   0
   0   3  -3  202.76    7.38   0
   1 -10   3   28.66    4.59   0
   1   6  -7   30.08    5.72   0
   2   7  -8   88.73    6.73   0
   3 -10   5    4.79    6.32   0
   3  -9   5   41.98    4.69   0
   3  -7   5   23.20    4.23   0
   5   7  -6   85.99    7.01   0
   7  -5   5   77.29    7.57   0
  -2  -7  -2   74.88    7.38   0
  -2  -5  -1  144.06    7.99   0
  -2  -4  -1  200.98    9.92   0
  -1  -9   0  164.62    8.33   0
  -1  -8   1  418.29    9.67   0
  -1  -4   1   79.76    7.33   0
  -1   4 -10   45.05    6.70   0
  -1   4  -8 1468.71   15.13   0
   0   5  -7 1739.15   15.31   0
   1   3  -2 4658.80   31.01   0
   1   5  -5  199.57    7.33   0
   2   5  -4   25.52    5.37   0
   3  -6   5 1254.49   13.50   0
   3   4  -2   19.35    5.51   0
   3   6  -5 3523.03   20.53   0
   3   7  -7  455.23    7.77   0
   4  -5   5 1940.80   17.61   0
   4   5  -3  616.00   10.97   0
   7   5  -3  126.86    8.18   0
  -2  -6  -1  298.85    9.16   0
  -1   4  -9  110.45    5.77   0
   0 -10   2   14.06    4.99   0
   0  -8   3  148.52    7.15   0
   0  -7   3  266.07    7.76   0
   0  -3   2  737.91   14.01   0
   0   2  -2  350.42   12.63   0
   0   4  -5 1098.51   13.53   0
   1  -9   4    2.46    5.77   0
   1  -8   4  261.89    6.69   0
   1  -7   4   57.40    4.87   0
   1   6  -8   65.21    6.39   0
   2   6  -6   10.79    3.97   0
   2   7  -9  330.72    7.26   0
   4  -1   3  493.20   17.04   0
   5  -9   6   -0.20    5.07   0
   5  -8   6   -1.91    6.71   0
   6   5  -3  313.62    9.43   0
   7  -1   3    6.80   13.26   0
  -2   1  -9    7.58    8.36   0
  -1  -9   1   90.11    7.12   0
   0  -9   3  242.35    8.27   0
   0  -6   3  127.33    5.21   0
   0   5 -11   63.82    7.58   0
   0   5  -8  154.97    7.19   0
   1 -10   4   75.48    7.14   0
   1  -6   4  205.62    6.37   0
   1   2  -1 2537.76   29.01   0
   2  -9   5   62.65    5.01   0
   2  -8   5  119.31    5.55   0
   2  -4   4   96.75    5.39   0
   2  -2   3   51.43    7.00   0
   2   7 -10  583.09    8.59   0
   3  -3   4  373.55   10.43   0
   3   7  -8  142.25    7.27   0
   4  -9   6   32.82    7.14   0
   4  -8   6   66.82    6.65   0
   4   6  -5  173.15    7.39   0
   4   7  -7    2.64    4.20   0
   5  -7   6   48.28    6.65   0
   5   5  -3   67.82    5.22   0
   6  -7   6  313.15    9.54   0
  -2  -8  -2   52.56    8.00   0
  -2  -7  -1   51.83    6.88   0
  -2   1  -6  463.18   13.37   0
  -1   3  -6 2364.27   20.30   0
   0  -5   3  294.84    8.70   0
   0   5 -10   54.42    5.54   0
   0   5  -9    7.52    4.19   0
   1  -3   3  710.88   13.65   0
   1   1   0  224.50   15.17   0
   1   6 -11   94.23    5.99   0
   1   6 -10    2.51    6.80   0
   1   6  -9   56.11    4.65   0
   2 -10   5  350.86    7.55   0
   2  -7   5  856.98   10.50   0
   3  -5   5  147.40    7.11   0
   3   3  -1 1202.81   17.10   0
   5  -4   5   73.43    8.03   0
   5   6  -5   18.11    6.58   0
   5   7  -7    4.12    5.12   0
   6  -4   5   13.39    9.31   0
   6   6  -5   19.98    6.34   0
   7   4  -2   98.96    8.35   0
   8   1   1  361.77   17.63   0
   8   2   0  230.85   12.79   0
  -2  -3  -1 1552.35   22.61   0
  -2   0  -4  796.06   21.88   0
  -2   1  -8  450.61   12.21   0
  -1  -8   2   15.58    6.27   0
  -1  -7   2  292.06    7.11   0
  -1  -6   2   64.54    5.81   0
  -1   2  -4   10.39    6.38   0
   0 -10   3    8.78    4.42   0
   1  -5   4  600.06   10.52   0
   1   4  -4 1438.80   15.23   0
   1   5  -6    4.72    4.17   0
   2  -6   5   -1.19    5.72   0
   2   4  -3 1040.21   13.82   0
   2   6  -7   11.63    4.18   0
   3 -10   6  243.53    8.50   0
   3  -9   6   57.17    6.92   0
   3   5  -4  172.79    6.86   0
   3   6  -6  947.74   11.99   0
   3   7 -10  411.15    9.45   0
   3   7  -9   56.35    5.10   0
   4  -7   6  895.91   12.38   0
   4   4  -2  726.81   12.71   0
   4   7  -8    0.67    6.53   0
  -2  -8  -1    5.16    6.70   0
  -2  -6   0   62.44    6.85   0
  -2   1  -7  210.83    9.18   0
  -1  -3   1  592.10   12.67   0
  -1   3 -10   -0.10    4.75   0
  -1   3  -7  692.47   11.88   0
   0   4  -6  522.21    9.81   0
   2   5  -5   46.97    5.43   0
   3  -8   6  164.85    7.57   0
   4  -4   5   28.38    6.51   0
   4   7  -9   66.24    7.17   0
   5  -6   6    5.40    5.94   0
   5   4  -2    5.51    6.00   0
   5   7  -8   34.78    7.59   0
   6  -6   6   47.83    7.25   0
   6   4  -2  157.92    8.49   0
   7  -4   5  190.79   11.16   0
  -2  -7   0    6.18    4.42   0
  -2  -5   0  522.32   10.52   0
  -2   0  -9   13.57    8.88   0
  -1  -9   2  275.22    7.34   0
  -1  -5   2   11.68    4.18   0
  -1   3  -9  127.42    7.53   0
  -1   3  -8  436.29    9.95   0
   0  -8   4  681.32   10.53   0
   0   3  -4 1365.69   16.62   0
   1  -9   5   88.10    6.95   0
   1  -8   5  271.73    7.88   0
   1   5  -7   15.84    5.58   0
   2   6  -8  309.19    7.02   0
   3  -7   6  158.96    6.98   0
   3   2   0 1755.06   25.04   0
   4   6  -6   30.92    6.33   0
   7   3  -1   -1.60    7.08   0
   7   5  -4   18.83    7.02   0
  -2  -8   0   15.73    6.61   0
  -1 -10   2  127.22    7.37   0
   0 -10   4  355.78    9.06   0
   0  -9   4  104.80    5.15   0
   0  -7   4   37.59    5.94   0
   0  -4   3  688.45   11.88   0
   0   4 -11  203.44    7.03   0
   0   4  -7  352.54    8.55   0
   1 -10   5    5.44    4.55   0
   1  -7   5  699.22   10.75   0
   2 -10   6  258.21    8.44   0
   2  -9   6   26.78    6.39   0
   2   6 -11  375.81    7.75   0
   2   6 -10  100.60    7.37   0
   2   6  -9  313.24    7.14   0
   3   6  -7    5.97    4.40   0
   4  -6   6    7.41    4.12   0
   4   5  -4   -1.69    4.04   0
   5  -2   4  288.77   12.94   0
   5   6  -6   50.05    6.38   0
   6   6  -6  523.59   10.05   0
  -2  -4   0  770.64   14.28   0
   0   4 -10  121.90    7.04   0
   0   4  -9  119.07    7.17   0
   0   4  -8  138.86    7.24   0
   1   5 -11    1.04    5.00   0
   1   5 -10  149.45    7.49   0
   1   5  -9  350.16    8.66   0
   1   5  -8    7.45    5.79   0
   2  -8   6   19.35    5.85   0
   2  -5   5 3106.95   20.88   0
   4  -9   7  311.91    9.12   0
   4   3  -1  898.97   14.87   0
   5  -8   7   93.64    7.62   0
   5   5  -4   65.31    6.83   0
   6  -2   4  582.81   17.43   0
   6   5  -4  331.73    9.11   0
  -2  -9   0  166.18    8.83   0
  -2  -7   1   62.91    6.37   0
  -2   0  -8   20.09    9.11   0
  -1  -9   3   59.30    6.62   0
  -1  -8   3   32.34    4.13   0
  -1  -7   3   10.66    3.85   0
  -1  -4   2 2248.87   20.84   0
  -1   2 -10  101.00    8.25   0
  -1   2  -5 2486.23   23.14   0
   0  -6   4   11.78    4.11   0
   1  -4   4  956.92   13.45   0
   1   4  -5  335.68    8.72   0
   2  -3   4  177.78    8.14   0
   2   3  -2  245.73    9.53   0
   2   5  -6 1873.89   15.20   0
   3  -6   6 1138.66   13.44   0
   3  -4   5   44.42    6.28   0
   3   4  -3 1330.98   14.75   0
   3   5  -5  172.95    7.00   0
   3   6  -8  218.03    6.25   0
   4   6  -7  124.74    6.80   0
   5   3  -1   55.14    6.66   0
   6   3  -1  408.15   11.16   0
   7   2   0   22.68    8.53   0
  -2  -8   1   -2.36    6.00   0
  -2  -6   1   41.37    4.86   0
  -1 -10   3    2.04    6.85   0
  -1  -6   3  424.64    8.87   0
  -1   1  -3 4356.90   39.66   0
   1  -6   5    4.38    3.92   0
   1   3  -3 2704.17   22.16   0
   2  -7   6  651.50   10.07   0
   3 -10   7   -9.48    4.94   0
   3  -9   7  368.20    8.85   0
   3   1   1  212.07   14.92   0
   3   6 -10   -3.64    6.39   0
   3   6  -9   28.69    4.62   0
   4  -8   7    3.46    4.41   0
   4  -2   4  244.82   10.12   0
   5  -5   6  335.09    9.73   0
   5   6  -7  395.67    9.26   0
   6  -5   6  145.92    8.49   0
   6   6  -7   87.36    7.28   0
  -2  -9   1   53.63    7.38   0
  -2   0  -5   17.79    7.47   0
  -1   2  -9   29.28    6.65   0
   0 -10   5  559.61    9.80   0
   0  -9   5  484.92    9.66   0
   0   3 -11    5.40    7.09   0
   0   3  -5  408.43    9.81   0
   1 -10   6   13.87    6.71   0
   1  -9   6  233.38    7.91   0
   2   4  -4   58.29    4.82   0
   2   5  -7  146.17    7.02   0
   3  -1   3   72.05    9.09   0
   4  -5   6   -2.91    5.75   0
   4   5  -5  312.16    8.34   0
   4   6  -8   27.43    4.47   0
   5  -7   7   92.63    7.32   0
   7   4  -3   10.78    7.09   0
   7   5  -5   31.66    7.06   0
  -2  -5   1  351.19    8.59   0
  -2   0  -7  294.47   11.65   0
  -2   0  -6  480.26   14.36   0
  -1   2  -8  141.18    7.54   0
  -1   2  -6  212.16    8.44   0
   0  -8   5   63.90    4.84   0
   0  -5   4   48.49    4.83   0
   0  -2   2  360.46   12.96   0
   1  -8   6  105.32    6.82   0
   1   4 -11  102.90    8.10   0
   1   4  -6   18.67    5.57   0
   2 -10   7   -0.95    6.69   0
   2   5 -11   44.40    5.87   0
   2   5  -8   41.73    6.34   0
   3  -8   7  159.60    6.07   0
   3   5  -6  171.55    7.38   0
   4  -7   7  516.58   10.43   0
   4   2   0  243.90   11.04   0
   4   4  -3   10.00    5.91   0
   4   6 -10  380.13    9.34   0
   4   6  -9    4.41    5.04   0
   5   5  -5  265.31    8.28   0
   5   6  -8   -2.96    4.39   0
   6   5  -5  241.77    8.02   0
  -2  -8   2   17.18    6.62   0
  -2  -7   2  588.02   10.61   0
  -1 -10   4  290.77    9.23   0
  -1  -9   4    3.80    6.03   0
  -1  -8   4    0.12    5.63   0
  -1  -5   3 4529.77   25.98   0
  -1   1 -10   49.04    7.98   0
  -1   2  -7  428.46   10.57   0
   0  -7   5  183.39    7.56   0
   0   2  -3 2407.20   24.26   0
   0   3 -10    1.72    6.29   0
   1  -1   2 1081.50   23.51   0
   2  -9   7   16.81    6.44   0
   2  -6   6  129.49    6.96   0
   2   5 -10   21.84    4.78   0
   2   5  -9  446.54    7.88   0
   5  -3   5  731.29   16.33   0
   5   4  -3  345.97    9.11   0
   5   6  -9   18.70    4.92   0
   6   2   0  835.84   17.43   0
   6   4  -3  604.01   10.36   0
   7  -2   4  490.55   21.52   0
   7   1   1  158.15   12.60   0
  -3  -6  -3   73.86    9.92   0
  -3  -5  -4   79.46   11.74   0
  -3  -5  -3  304.95   13.45   0
  -2  -9   2   15.95    4.67   0
  -2  -1  -8   34.25    8.98   0
  -1  -7   4  487.21    9.35   0
   0   3  -9  168.29    7.87   0
   0   3  -6  516.16    9.43   0
   1  -7   6   13.51    5.91   0
   1  -5   5   -3.23    3.67   0
   1   4 -10   31.49    4.99   0
   1   4  -7  437.11    9.06   0
   2  -4   5  873.65   12.23   0
   3  -7   7   77.96    7.02   0
   3  -5   6   24.99    6.07   0
   3   5  -7  169.95    7.17   0
   4   5  -6  746.99   10.48   0
   5   2   0  261.62   11.24   0
   6  -3   5  323.91   13.31   0
  -3  -6  -4   16.33   10.87   0
  -3  -6  -2  124.38    8.81   0
  -2  -6   2  389.04    8.39   0
  -2  -3   0   19.44    6.43   0
   0  -3   3  198.59    7.45   0
   0   3  -8   -1.06    5.90   0
   0   3  -7  656.70   11.10   0
   1  -2   3    4.22    4.64   0
   1   4  -9  141.72    5.94   0
   1   4  -8  783.39   10.18   0
   2  -8   7   87.03    4.95   0
   2   4  -5  496.64    8.82   0
   3  -2   4   91.25    7.71   0
   3   3  -2  425.53   10.29   0
   3   4  -4 2270.11   17.59   0
   4  -3   5   70.90    7.18   0
   5  -6   7 1053.09   14.53   0
   5   5  -6   39.59    6.68   0
   6   5  -6   18.21    6.84   0
  -3  -7  -2  359.66   11.96   0
  -3  -5  -2  170.13   10.78   0
  -2  -4   1  516.27   11.65   0
  -2  -2  -1   81.33    9.90   0
  -1  -2   1 2550.09   29.54   0
  -1   1  -9  134.34    7.97   0
   0 -10   6   14.41    4.80   0
   0  -9   6  115.12    7.12   0
   0  -6   5    5.67    4.01   0
   1 -10   7   32.00    6.54   0
   1   3  -4  532.03    9.95   0
   2   2  -1  697.13   14.80   0
   3   5 -10   19.27    4.83   0
   3   5  -9   28.80    4.70   0
   3   5  -8   40.00    4.69   0
   4  -6   7  172.09    7.87   0
   4   5  -7   35.08    6.20   0
   6  -6   7   37.42    7.98   0
   7   3  -2   31.46    6.77   0
   7   4  -4    8.56    6.76   0
  -3  -7  -1    3.15    6.51   0
  -3  -6  -1 1071.34   16.66   0
  -3  -4  -4   12.45   11.06   0
  -3  -4  -3  146.63   12.82   0
  -2 -10   3   10.50    6.83   0
  -2  -9   3  253.00    7.44   0
  -2  -8   3  331.10    7.79   0
  -1 -10   5   61.81    7.26   0
  -1  -9   5    1.12    5.68   0
  -1  -6   4    3.21    3.52   0
  -1  -3   2 4458.33   30.86   0
   0  -8   6  248.25    7.70   0
   0  -4   4 5915.95   30.83   0
   1  -9   7  197.39    6.41   0
   1  -3   4  718.18   13.34   0
   1   2  -2 1672.33   21.83   0
   1   3 -11   16.59    6.88   0
   2  -7   7    9.27    5.79   0
   2   3  -3    7.09    6.28   0
   2   4 -11    1.76    4.81   0
   2   4  -6    7.02    5.71   0
   3  -9   8  192.61    6.65   0
   4  -8   8  423.68    9.83   0
   4   4  -4  296.02    8.17   0
   5   5  -7  350.04    8.66   0
   6   5  -7   54.99    7.40   0
   8   2  -1  563.59   13.56   0
  -3  -8  -1  112.49    9.19   0
  -3  -7   0    7.48    7.93   0
  -2  -7   3   42.28    4.85   0
  -2  -5   2   -5.00    3.72   0
  -1  -8   5   12.89    6.33   0
  -1  -4   3   22.09    6.41   0
  -1   1  -4    1.94    5.73   0
   0   2 -10  572.45   11.33   0
   1  -8   7  123.46    6.97   0
   1  -6   6  142.44    5.68   0
   2 -10   8    5.03    4.80   0
   2  -5   6  223.38    6.76   0
   2   4 -10  184.88    8.34   0
   3  -6   7  192.03    7.97   0
   3  -3   5  167.98    8.29   0
   4   3  -2   16.35    6.02   0
   4   5 -10   50.79    5.28   0
   4   5  -9  123.85    5.74   0
   4   5  -8  389.82    7.61   0
   5  -4   6  592.66   13.09   0
   5   4  -4  766.79   11.62   0
   5   5  -8  113.29    7.46   0
   6   3  -2   57.55    6.64   0
   6   4  -4   82.33    5.51   0
   7   0   2   94.32   12.89   0
  -3  -8   0  155.86    8.69   0
  -3  -6   0   47.72    7.66   0
  -3  -5  -5   50.00   15.71   0
  -3  -5  -1  547.29   13.13   0
  -2  -1  -7   22.35    8.82   0
  -1   1  -8    7.96    5.94   0
   0  -7   6  171.02    7.29   0
   0   2  -4 3878.21   28.78   0
   1   3 -10   20.08    7.29   0
   1   3  -5  254.28    8.27   0
   2  -9   8    8.77    6.94   0
   2   4  -9    6.47    5.79   0
   2   4  -8  364.69    8.78   0
   2   4  -7  525.66    8.88   0
   3  -8   8   17.38    6.69   0
   3   4  -5   51.57    4.76   0
   4  -4   6    3.65    5.80   0
   5   3  -2  435.75   10.68   0
   5   5  -9   58.09    5.24   0
   6  -4   6   40.08    8.99   0
   6   1   1  270.59   13.22   0
   6   5  -8   50.23    5.74   0
   7  -3   5  174.20   12.62   0
   8   3  -3  228.84    9.61   0
  -3  -4  -2  855.20   19.34   0
  -2 -10   4   65.68    8.05   0
  -2  -9   4  312.68    9.14   0
  -2  -6   3  673.06   10.96   0
  -2  -2  -8   63.74   10.88   0
  -1  -7   5   87.25    4.95   0
  -1  -5   4 1078.71   13.49   0
   0 -10   7  100.20    7.31   0
   0  -5   5   23.25    5.75   0
   0   2  -9  205.24    8.39   0
   1  -4   5  162.31    6.20   0
   4   1   1  318.34   14.42   0
   5  -7   8    6.72    7.18   0
   7   4  -5  297.84    7.75   0
  -3  -8   1   17.62    6.72   0
  -3  -7   1  261.19    8.97   0
  -2  -8   4   99.37    5.65   0
  -1 -10   6   99.77    5.65   0
  -1  -1   0  215.04   15.07   0
  -1   0  -9   62.77    7.65   0
  -1   1  -7  120.10    7.82   0
  -1   1  -5 2569.97   25.13   0
   0  -9   7   97.99    7.29   0
   1 -10   8  453.36    9.28   0
   1  -7   7   32.78    5.99   0
   1   3  -9  428.38    8.39   0
   1   3  -6 1221.22   13.77   0
   2  -8   8  431.64    9.64   0
   2  -6   7  884.67   12.27   0
   2   3 -11  358.04    9.61   0
   3  -4   6 5238.46   30.77   0
   3   4 -10  388.87    9.05   0
   3   4  -6 2034.50   16.74   0
   4  -7   8  120.60    7.81   0
   4   4  -5   23.52    3.94   0
   5   1   1  172.37   11.86   0
   5   4  -5  685.24   10.77   0
   6   4  -5   17.18    6.26   0
  -3  -5   0   44.97    7.21   0
  -2  -7   4 1360.14   14.20   0
  -1  -9   6   65.73    5.21   0
  -1   1  -6  161.78    8.18   0
   0   1 -10  149.67    8.24   0
   0   2  -8   24.11    6.22   0
   0   2  -5 1335.81   16.81   0
   1  -9   8   71.80    7.05   0
   1   3  -8  706.02   10.10   0
   1   3  -7  105.12    6.40   0
   2   3  -4  149.22    7.41   0
   3  -7   8   11.88    6.40   0
   3   3  -3 1289.86   15.41   0
   3   4  -9  109.05    7.42   0
   3   4  -8  198.80    7.62   0
   3   4  -7 1786.83   15.27   0
   5  -5   7    1.87    6.31   0
   7   2  -1   15.00    6.66   0
   7   3  -3  250.54    8.92   0
   7   4  -6  180.20    8.52   0
  -3  -9   2  167.49    8.77   0
  -3  -8   2  164.23    8.48   0
  -3  -6   1  111.75    7.35   0
  -2 -10   5   45.56    7.51   0
  -2  -4   2  692.63   12.72   0
  -2  -1  -6    5.42    7.56   0
  -2  -1  -3  163.45   17.70   0
  -1  -8   6  298.39    8.53   0
  -1  -6   5  672.83    9.72   0
   0  -8   7  222.04    7.60   0
   0  -6   6 1051.56   12.89   0
   0   2  -7   35.33    6.14   0
   0   2  -6  317.76    8.99   0
   1  -5   6    3.83    3.62   0
   2  -3   5   85.08    6.99   0
   2  -2   4    5.69    5.77   0
   2   3 -10    9.13    6.50   0
   3   2  -1 2485.71   25.50   0
   4  -5   7    4.29    6.08   0
   4   4 -10  261.39    8.33   0
   4   4  -6  182.60    7.71   0
   6  -5   7   20.93    9.24   0
   6   4  -6   16.19    6.22   0
   8   1   0  255.18   11.02   0
  -3  -7   2   11.67    6.38   0
  -3  -4  -1   18.11    6.23   0
  -2  -9   5  251.19    7.29   0
  -2  -5   3  840.39   11.45   0
  -2  -3   1    3.22    6.52   0
   0   1  -2 1499.07   25.49   0
   1   2 -10    6.12    6.41   0
   3  -5   7  136.75    7.33   0
   4   3  -3   -0.05    5.15   0
   4   4  -9  371.94    9.02   0
   4   4  -8   40.16    6.29   0
   4   4  -7   62.85    6.61   0
   5   4  -6  310.77    7.09   0
   6   3  -3   -1.60    6.42   0
   8   2  -2   47.29    8.93   0
  -3  -9   3    9.07    6.97   0
  -2  -8   5  295.93    8.16   0
  -2  -6   4  125.80    6.72   0
  -1 -10   7   11.80    6.54   0
  -1  -7   6   88.68    6.63   0
  -1   0  -8    2.33    5.94   0
   0 -10   8   49.48    5.29   0
   1  -8   8  124.49    5.67   0
   1  -6   7   18.38    5.88   0
   1   2  -3  904.60   15.08   0
   2  -9   9  569.80   10.73   0
   2  -7   8  400.00    8.12   0
   2  -4   6  273.34    8.80   0
   2  -1   3    6.91    6.39   0
   2   3  -9   37.60    6.75   0
   2   3  -5 1563.40   15.77   0
   5   3  -3  402.21    9.62   0
   5   4  -9   83.77    5.54   0
   5   4  -8   29.58    6.79   0
   5   4  -7   62.65    5.16   0
   6   2  -1   75.10    6.91   0
   6   4  -8  277.46    8.32   0
   6   4  -7   40.38    5.29   0
  -3  -8   3  542.72   10.64   0
  -3  -6   2    6.86    6.07   0
  -3  -5   1  377.89   10.51   0
  -2  -1  -5 1148.27   22.97   0
  -1  -9   7   13.29    6.57   0
  -1  -1  -9   11.80    7.33   0
   0  -9   8   37.79    6.78   0
   0  -7   7   91.87    5.59   0
   0  -3   4 1224.36   16.16   0
   0   1  -9   37.02    6.80   0
   1   2  -9  485.98   10.23   0
   2   3  -8   10.18    5.77   0
   3  -8   9  108.40    7.47   0
   3   3 -10   95.12    7.39   0
   3   3  -4  213.14    7.55   0
   4  -6   8  191.50    8.35   0
   4   2  -1  124.28    8.07   0
   5  -6   8  157.17    8.56   0
   5   2  -1   57.45    6.91   0
   7   3  -4  734.69   11.60   0
  -3  -7   3   60.55    6.44   0
  -2 -10   6   32.13    5.06   0
  -2  -7   5   59.07    6.59   0
  -2  -2  -7   -0.25    8.51   0
  -1  -4   4 1378.06   14.71   0
  -1  -3   3 2735.21   22.60   0
  -1   0  -2 1187.85   31.75   0
   0  -4   5 1049.25   12.83   0
   0   0 -10   27.97    5.21   0
   2  -5   7  292.13    8.49   0
   2   2  -2  981.99   15.47   0
   2   3  -7  615.16    9.43   0
   2   3  -6  783.15   10.62   0
   3  -6   8  185.47    8.04   0
   7  -1   3    5.21   12.50   0
  -3  -9   4   33.80    6.73   0
  -3  -4   0  532.77   12.69   0
  -2  -9   6   74.21    5.25   0
  -2  -1  -4 1106.96   26.40   0
  -1  -8   7   13.10    6.06   0
  -1  -5   5  165.30    6.13   0
   0  -5   6   55.86    6.26   0
   0  -2   3 2575.92   25.19   0
   1  -9   9  449.74    9.99   0
   1  -7   8   36.62    6.33   0
   1   2  -8   87.37    7.02   0
   2  -8   9   -1.58    6.76   0
   2   2 -10   22.97    6.86   0
   3   3  -9   43.40    6.53   0
   4   3 -10    2.41    6.53   0
   4   3  -4  256.36    7.66   0
   6   0   2  542.85   19.70   0
   6   3  -4  402.05    8.33   0
   7   2  -2   95.80    7.27   0
   7   3  -5   80.87    7.06   0
  -3  -8   4  730.05   11.40   0
  -2  -8   6  518.61    9.50   0
  -2  -2   0    0.03    7.59   0
  -1 -10   8  207.06    8.33   0
  -1  -6   6  495.81    9.73   0
  -1   0  -7   61.91    6.89   0
   0  -8   8    8.96    3.96   0
   0   1  -8   48.62    4.85   0
   1  -3   5  356.37    9.70   0
   1   1 -10   11.77    4.66   0
   1   2  -4   20.67    6.12   0
   2   1   0  158.52   10.91   0
   3   3  -8  106.45    7.03   0
   3   3  -5  413.77    8.10   0
   4  -7   9   18.92    7.13   0
   5   3  -4 1137.65   12.55   0
   7   1   0  438.73   12.37   0
   8   0   1  295.62   13.26   0
   8   2  -3   23.69    6.82   0
  -3  -6   3   39.40    6.10   0
  -3  -5   2   45.33    6.53   0
  -2 -10   7  299.70    8.84   0
  -2  -6   5  145.61    6.94   0
  -2  -5   4   28.17    4.13   0
  -2  -4   3 1021.46   13.21   0
  -1  -2   2 1606.87   21.19   0
   0  -6   7  149.95    5.62   0
   1  -4   6    6.00    5.17   0
   1   2  -7  931.67   12.06   0
   2  -6   8   11.02    4.56   0
   3  -7   9   24.17    6.85   0
   3   3  -7  167.23    5.94   0
   3   3  -6   30.54    4.52   0
   4   3  -9    6.12    4.42   0
   4   3  -5  301.06    8.14   0
   5   3  -9  204.42    7.97   0
   6   3  -5    8.92    6.32   0
   7   3  -7    8.83    6.73   0
   7   3  -6  310.78    7.75   0
  -3  -9   5  404.72    9.60   0
  -3  -7   4   11.78    6.34   0
  -1  -9   8  404.21    8.00   0
  -1  -7   7  785.21   10.87   0
  -1  -1  -8  185.06    9.10   0
   0   0  -9  192.43    8.55   0
   0   1  -7  184.07    8.24   0
   1  -8   9   34.66    6.64   0
   1  -5   7  972.52   12.35   0
   1  -2   4    5.82    6.82   0
   1   1  -1    8.44    9.38   0
   1   2  -6  673.20   10.37   0
   1   2  -5  215.71    7.13   0
   2   2  -9   36.21    4.70   0
   3   2 -10   69.82    6.97   0
   4   3  -8   95.66    5.46   0
   4   3  -7 1862.08   15.46   0
   4   3  -6   27.86    6.23   0
   5   3  -8   71.58    6.85   0
   5   3  -5  110.21    5.56   0
   6   2  -2  202.03    8.14   0
   6   3  -8  121.63    7.47   0
   6   3  -7  204.12    8.08   0
   6   3  -6  148.23    7.46   0
   8   1  -1  111.84    8.25   0
  -3  -8   5  456.19    9.71   0
  -3  -4   1 1792.56   20.14   0
  -2  -9   7  235.89    6.45   0
  -2  -7   6   16.77    4.33   0
  -2  -3   2  229.77    8.34   0
  -1   0  -6  375.10   11.04   0
   0  -9   9   47.75    5.00   0
   0  -7   8   90.17    6.69   0
   0   1  -3  635.98   14.22   0
   1   1  -9   15.77    6.45   0
   2  -7   9  160.71    8.00   0
   2   2  -3  955.36   14.25   0
   3   2  -2 4585.04   30.40   0
   4  -4   7   46.16    7.08   0
   4  -3   6  159.40    9.14   0
   5   3  -7    4.03    4.00   0
   5   3  -6   35.43    4.28   0
   8   2  -4   10.74    6.91   0
  -4  -8   1    4.68    7.05   0
  -4  -7   0   45.74    9.20   0
  -3  -3  -2    6.99    8.23   0
  -2  -3  -7   24.15    9.44   0
  -1  -8   8   21.66    6.36   0
   0   1  -6  116.52    7.33   0
   1  -6   8  162.81    6.22   0
   1   0 -10    4.50    6.84   0
   2   1 -10  205.18    8.39   0
   2   2  -8  111.35    5.89   0
   3  -4   7  585.96   11.76   0
   3  -3   6  411.24   11.06   0
   4   2 -10   -3.28    6.56   0
   4   2  -2  791.95   13.10   0
   5  -4   7  334.09   12.33   0
   5  -3   6   43.67    9.27   0
   5   2  -2  671.16   12.46   0
   6   1   0  306.69   11.27   0
   7   2  -3   25.06    4.79   0
  -4  -8   2  134.86    8.33   0
  -4  -7  -1    9.84    7.32   0
  -4  -7   1   13.24    6.76   0
  -3  -9   6   15.28    6.80   0
  -3  -6   4   63.33    6.34   0
  -2  -8   7  105.43    5.65   0
  -2  -2  -6  147.35   11.02   0
  -1  -5   6    3.14    5.75   0
  -1  -4   5  315.13    8.75   0
  -1   0  -5  948.47   16.59   0
   0  -8   9  300.14    8.69   0
   0  -1   2 1700.41   26.66   0
   0   1  -5  159.42    7.87   0
   0   1  -4 1365.53   18.71   0
   2   2  -7  384.56    8.87   0
   3   2  -9   46.61    4.90   0
   4  -5   8   13.36    6.73   0
   4  -2   5  152.62   10.78   0
   8   2  -5   10.31    5.16   0
  -3  -7   5  122.10    5.70   0
  -3  -5   3  561.53    9.94   0
  -3  -3  -1  208.06   11.54   0
  -2  -5   5   35.89    5.73   0
  -1  -6   7   35.42    5.95   0
  -1   0  -3  197.66   11.85   0
   0  -4   6  504.14    9.80   0
   0  -1  -9   30.46    7.23   0
   0   0  -8  206.74    8.37   0
   1  -7   9    4.97    6.42   0
   1   1  -8  121.35    7.29   0
   2  -8  10  397.64    9.84   0
   2   2  -4    5.96    6.02   0
   3  -5   8  328.61    8.19   0
   3  -2   5 1941.47   24.68   0
   4   2  -9   93.81    7.12   0
   5  -5   8  190.76    9.48   0
   6   2  -3   66.68    6.42   0
   7   2  -4  651.32   11.12   0
  -4  -8   3   22.50    7.21   0
  -4  -7   2    5.65    6.57   0
  -4  -6  -1    5.09    8.58   0
  -4  -6   0  220.29    9.70   0
  -3  -8   6   47.88    6.60   0
  -2  -9   8   77.36    5.49   0
  -2  -6   6   21.18    4.41   0
  -2  -4   4   68.89    6.50   0
  -1  -9   9  312.51    7.31   0
  -1  -7   8  158.25    7.21   0
  -1  -3   4  525.99   10.06   0
  -1  -2  -8  380.93   11.43   0
  -1  -1  -7  323.27   10.42   0
  -1   0  -4 1908.50   24.73   0
   0  -5   7 1731.85   14.85   0
   0  -3   5  379.21    9.70   0
   2  -5   8  104.06    7.01   0
   2  -4   7  271.28    7.51   0
   2  -3   6  509.15   11.42   0
   2   1  -9  732.16   11.42   0
   2   2  -6  529.51    8.84   0
   2   2  -5   10.57    4.21   0
   3  -6   9  330.42    9.67   0
   3   1 -10   68.91    5.70   0
   3   2  -8 3816.03   21.10   0
   3   2  -3  362.83    9.72   0
   4  -6   9    3.43    6.92   0
   5  -2   5  235.87   15.98   0
   5   0   2  250.78   14.69   0
   5   2  -9  196.81    6.60   0
   7   1  -1  112.98    7.14   0
   7   2  -7    8.08    7.29   0
   7   2  -5  354.42    9.39   0
   8   1  -2   19.36    6.89   0
  -4  -9   4  260.83    7.61   0
  -4  -6   1    1.59    5.90   0
  -3  -4   2   15.65    5.98   0
  -2  -7   7   -2.19    4.12   0
   0  -6   8 1202.63   12.12   0
   1  -8  10   49.26    7.34   0
   1  -1   3 4418.67   40.52   0
   1   0  -9   75.75    6.97   0
   2   0 -10   10.35    7.43   0
   3   1   0  237.72   10.91   0
   3   2  -7  866.52   11.73   0
   4   1 -10   51.66    7.04   0
   4   2  -8   13.43    6.26   0
   4   2  -3  247.46    7.99   0
   5   1   0 1245.95   18.43   0
   5   2  -8  314.92    8.89   0
   5   2  -3  634.58   11.12   0
   6  -4   7  248.76   13.28   0
   6   2  -8  285.64    6.94   0
   6   2  -4  134.32    7.29   0
   7   2  -6    3.23    4.82   0
  -4  -8   4   88.45    7.26   0
  -4  -7   3  285.83    9.05   0
  -3  -9   7   -0.20    4.76   0
  -3  -6   5 3443.28   20.90   0
  -2  -8   8   10.68    6.71   0
  -2  -2   1  673.78   15.54   0
  -1  -8   9  555.40   10.39   0
   0  -7   9   69.01    7.03   0
   1   1  -7 1180.21   13.15   0
   2  -6   9  283.16    7.35   0
   3   2  -6  385.48    9.15   0
   3   2  -4   26.04    5.97   0
   4   1   0    5.07    7.02   0
   4   2  -7    9.72    6.10   0
   6  -3   6   43.12   12.17   0
   6   2  -7   51.96    5.05   0
   6   2  -6   33.59    6.66   0
   6   2  -5 1092.01   13.11   0
   7   0   1    2.67    6.99   0
   8  -1   2  343.45   14.53   0
   8   0   0  134.80   10.11   0
  -4  -9   5   24.72    5.55   0
  -4  -6  -2   68.87   10.40   0
  -4  -6   2  181.34    8.28   0
  -3  -7   6   38.64    4.40   0
  -3  -5   4  180.58    7.21   0
  -3  -3   0   59.03    7.43   0
  -2  -3   3    4.57    4.59   0
   0   0  -7   87.12    6.90   0
   1  -5   8  104.42    6.96   0
   1  -4   7  248.33    8.30   0
   2  -2   5   26.72    6.38   0
   2   1  -8  273.34    8.51   0
   3   1  -9    9.57    4.88   0
   3   2  -5  120.54    5.74   0
   4   2  -6  877.43   11.74   0
   4   2  -4  192.23    7.26   0
   5   2  -7  160.40    6.07   0
   5   2  -6   78.19    6.95   0
   5   2  -5  986.67   12.06   0
   5   2  -4   76.25    5.18   0
   8   1  -3    4.91    4.96   0
  -4  -8   5  220.46    8.54   0
  -4  -7   4  960.25   12.92   0
  -3  -8   7   -0.06    4.69   0
  -3  -5  -5   50.78   16.27   0
  -2  -9   9   -9.49    6.94   0
  -1  -2   3  900.27   14.29   0
  -1  -1   1    9.52    9.44   0
   0  -8  10  572.59   10.69   0
   0  -2   4 3783.78   27.99   0
   0  -1  -8   16.71    6.44   0
   1  -6   9   59.89    6.92   0
   1  -3   6 2260.04   20.09   0
   1   1  -6   26.57    5.77   0
   1   1  -2 1262.66   20.82   0
   2  -7  10  190.72    6.63   0
   3   0 -10  311.14    7.82   0
   4   1  -9  377.32    9.02   0
   4   2  -5  280.33    6.92   0
   5   1  -9  470.99    9.81   0
   6   1  -1   64.02    6.91   0
   7   1  -2  870.43   13.07   0
   8   1  -4   65.17    7.56   0
  -4  -9   6  138.12    7.96   0
  -4  -6   3  138.92    7.41   0
  -4  -5  -1   52.43    9.43   0
  -4  -5   0  379.15   11.78   0
  -3  -9   8   37.56    7.01   0
  -3  -4   3 1303.02   15.04   0
  -2  -7   8   89.27    6.71   0
  -2  -6   7   12.67    4.19   0
  -2  -5   6 1990.11   15.90   0
  -1  -6   8   89.41    6.60   0
  -1  -5   7   14.22    4.25   0
  -1  -4   6   22.58    5.43   0
   1  -1  -9  164.07    8.42   0
   1   0  -8   65.53    6.85   0
   2   0  -9   71.37    7.02   0
   3   1  -8  136.90    7.10   0
   8   1  -5  104.80    6.17   0
  -4  -5   1   20.33    6.31   0
  -3  -3   1 1093.95   16.92   0
  -2  -4   5  520.90    9.11   0
  -2  -2  -5  241.50   12.29   0
  -1  -7   9   -1.58    6.09   0
  -1  -1  -6   10.84    6.31   0
   0   0  -6 3028.66   23.66   0
   1  -7  10   11.83    4.50   0
   1   1  -5 2208.24   19.69   0
   2   1  -7   15.79    4.00   0
   2   1  -1 5194.14   41.05   0
   4   0   2  256.86   17.07   0
   6   1  -8   -3.70    6.40   0
   7   1  -7   -4.87    6.46   0
   7   1  -3  390.55    9.71   0
  -4  -8   6  505.81   10.12   0
  -4  -7   5  681.17   11.23   0
  -4  -5   2  961.94   14.31   0
  -3  -7   7  435.32    8.05   0
  -3  -6   6  966.02   11.22   0
  -3  -5   5  175.87    7.29   0
  -2  -8   9   52.79    5.02   0
  -2  -3  -6    6.27    7.21   0
  -1  -8  10  190.37    8.01   0
  -1  -3   5  242.65    8.31   0
  -1  -2  -7   15.23    7.20   0
   0  -6   9  299.35    8.56   0
   0  -5   8  160.93    6.01   0
   0  -4   7  377.09    8.79   0
   1   1  -4   12.09    6.39   0
   1   1  -3  422.01   10.84   0
   3   0  -9  663.94   11.23   0
   4   1  -8   32.17    4.82   0
   5   1  -8  114.24    5.72   0
   7   1  -6   23.24    6.78   0
   7   1  -4   23.85    6.73   0
   8   0  -1   -2.04    7.02   0
  -4  -6   4  631.47    9.82   0
  -3  -8   8  530.10    8.56   0
   0  -7  10  368.64    9.38   0
   1  -2   5 2596.16   23.05   0
   2   1  -6   87.62    6.22   0
   3  -5   9  102.28    7.79   0
   3  -4   8  162.84    8.35   0
   3   1  -7  805.38   11.46   0
   4   0  -9  102.30    8.01   0
   5   1  -1   14.65    4.48   0
   6   1  -7   18.62    4.97   0
   6   1  -2   40.36    6.27   0
   7   1  -5  269.08    7.65   0
  -4  -5  -2    8.24    9.72   0
  -3  -4   4 2067.57   17.77   0
  -2  -3   4  139.13    6.19   0
  -2  -2   2 1024.85   16.43   0
   0  -3   6  549.90    9.58   0
   0  -2  -8   77.70    7.81   0
   1  -2  -9   48.47    7.41   0
   1   0  -7    7.27    4.17   0
   2  -5   9    4.36    6.20   0
   2  -4   8   -4.51    5.68   0
   2  -1  -9  341.27    9.22   0
   2   0  -8  272.93    7.19   0
   3  -6  10  298.35    9.75   0
   3  -1   4 1151.88   26.11   0
   4  -5   9  255.43   10.01   0
   4  -4   8   45.12    7.02   0
   4   1  -7  205.23    6.24   0
   5   0  -9   19.74    5.25   0
   5   1  -7  176.32    6.06   0
   6   0   1  238.54   10.34   0
   6   1  -6  549.03    9.82   0
   7   0   0  245.83    9.82   0
  -5  -8   3    1.72    7.46   0
  -4  -8   7    7.72    7.20   0
  -4  -7   6  261.28    8.31   0
  -4  -5   3  657.94   11.38   0
  -3  -3   2  426.79   10.60   0
  -2  -7   9  290.10    8.67   0
  -2  -6   8  317.32    7.04   0
  -2  -5   7  149.27    7.12   0
   0  -1  -7  826.27   12.26   0
   0   0  -5    2.49    5.63   0
   1  -1  -8    0.22    6.62   0
   2  -6  10    2.61    4.53   0
   2   1  -5   28.67    6.10   0
   3  -3   7  345.81   10.38   0
   3   1  -6  215.52    8.04   0
   3   1  -1  757.72   15.02   0
   4   1  -1  458.73   10.49   0
   5   1  -6  377.95    8.85   0
   6   1  -5   45.75    6.21   0
   6   1  -4   43.44    6.12   0
   6   1  -3  124.06    5.71   0
   8   0  -2    2.78    6.85   0
  -5  -8   4   76.05    7.94   0
  -4  -6   5  167.82    6.36   0
  -3  -8   9  567.73   10.13   0
  -3  -7   8  145.45    6.20   0
  -3  -6   7    8.13    4.60   0
  -3  -5   6  175.68    7.59   0
  -2  -8  10  155.26    8.40   0
  -2  -4   6    7.09    6.13   0
  -1  -7  10   -4.68    6.19   0
  -1  -6   9   60.93    5.07   0
  -1  -5   8    5.75    4.25   0
  -1  -4   7  496.37    9.70   0
  -1  -1  -5    2.36    6.21   0
   1  -6  10   72.86    6.99   0
   1  -5   9  206.60    6.85   0
   1  -4   8 1390.52   15.23   0
   2  -3   7  250.11    9.25   0
   2   1  -2 1861.77   21.20   0
   3  -1  -9    5.39    7.46   0
   3   0  -8 1067.04   11.85   0
   4   1  -6  287.41    7.06   0
   5   1  -2   89.98    7.07   0
   6  -1   3  288.51   15.78   0
   6   0  -8  109.57    5.95   0
   7   0  -7   80.35    7.72   0
   8  -1   1   67.42    8.08   0
   8   0  -5  176.83    8.78   0
   8   0  -4   11.12    6.66   0
   8   0  -3  209.84    9.23   0
  -5  -7   2  122.22    8.31   0
  -4  -5   4   -3.41    5.94   0
  -1  -3  -7  261.87   10.67   0
  -1  -2   4   16.74    4.61   0
   0  -1   3  579.42   14.53   0
   2  -2  -9    9.82    7.24   0
   2  -1   4    3.43    5.79   0
   2   0  -7  159.74    7.48   0
   2   1  -4  784.64   11.82   0
   2   1  -3 1091.19   15.32   0
   3   1  -5    7.80    5.81   0
   4  -3   7  900.67   17.20   0
   4  -1  -9  219.71    9.15   0
   4   0  -8   73.22    5.30   0
   4   1  -5  104.97    7.00   0
   5  -4   8  130.98   11.09   0
   5   0  -8   36.89    5.13   0
   5   1  -5   19.86    4.56   0
   5   1  -4   56.75    5.84   0
   5   1  -3 1201.38   14.19   0
   7  -2   4  491.90   21.22   0
   8  -2   3  168.89   12.31   0
  -5  -8   5  180.11    8.68   0
  -5  -7   1   12.24    7.47   0
  -5  -7   3  178.74    7.19   0
  -4  -8   8  143.89    8.13   0
  -4  -7   7    9.69    6.56   0
  -4  -4   0 1240.38   19.07   0
  -4  -4   1  115.44    7.94   0
  -3  -4   5   50.73    6.27   0
  -2  -4  -6   13.91    8.85   0
   0  -6  10   15.52    6.90   0
   0  -5   9   14.34    6.35   0
   0  -3  -8    7.84    6.96   0
   0  -2   5 1455.52   16.57   0
   1  -3   7  627.44   11.89   0
   1   0  -6  924.82   12.37   0
   2  -1  -8   54.34    7.04   0
   3   1  -4  884.15   12.52   0
   3   1  -2    3.08    6.80   0
   4  -1   4  369.42   26.98   0
   4   1  -4  773.41   11.15   0
   4   1  -2   84.08    5.52   0
   6   0  -7   29.46    6.73   0
   7  -1   2  542.22   15.41   0
   7   0  -6   23.62    4.84   0
   7   0  -1  319.13    9.60   0
  -5  -7   4   97.39    7.83   0
  -4  -6   6   37.15    4.39   0
  -4  -4   2  669.84   12.65   0
  -3  -3   3 1216.14   14.56   0
  -2  -3   5 1683.09   16.32   0
  -1  -3   6 1287.19   13.43   0
  -1  -2  -6   54.49    6.69   0
  -1  -1   2 1444.28   22.31   0
   0  -7  11  215.66    8.50   0
   0  -4   8  139.60    7.20   0
   0   0  -4  958.56   15.93   0
   1  -2  -8  370.83    9.94   0
   3  -2  -9   12.11    7.50   0
   3   0  -7  340.09    8.74   0
   3   1  -3  177.86    6.84   0
   4   1  -3 2034.47   17.37   0
   5   0  -7  951.99   12.01   0
   7   0  -5    6.96    6.85   0
  -5  -8   6    5.61    5.24   0
  -5  -7   5    6.38    6.49   0
  -5  -6   2  136.84    7.95   0
  -4  -5   5  298.52    8.57   0
  -4  -4  -1   48.26    8.86   0
  -3  -7   9   59.99    5.47   0
  -3  -6   8  242.12    6.47   0
  -2  -7  10  645.02   10.30   0
  -2  -6   9  336.20    7.40   0
  -2  -5   8   49.32    6.38   0
  -2  -2   3  883.18   13.31   0
   0  -2  -7  380.32    9.96   0
   0  -1  -6   13.88    6.46   0
   1  -1  -7    3.64    6.08   0
   3  -1  -8    4.93    5.97   0
   4   0  -7   32.87    4.67   0
   5   0   1  166.01    9.85   0
   6   0  -6  429.85    9.28   0
   6   0   0 1582.53   18.75   0
   7   0  -4  264.54    8.47   0
   7   0  -3  105.16    7.17   0
   7   0  -2   58.70    5.28   0
   8  -1   0    5.02    6.97   0
  -5  -6   1  387.38   11.77   0
  -5  -6   3  165.70    7.97   0
  -4  -7   8    4.67    6.87   0
  -4  -4   3    6.36    5.63   0
  -3  -5   7  162.03    6.08   0
  -2  -4   7  595.79   10.31   0
  -2  -2  -4   99.21    9.73   0
  -1  -6  10   14.28    6.64   0
  -1  -5   9  331.80    8.84   0
  -1  -4  -7    8.48    7.74   0
   0  -3   7  616.07   11.02   0
   1  -1   4    1.14    5.70   0
   1   0  -5  393.62    9.76   0
   2  -2   6    5.62    5.88   0
   2   0  -6   93.46    6.43   0
   3  -2   6  408.32   12.62   0
   4  -1  -8  128.47    7.51   0
   5  -1  -8  211.47    6.43   0
  -5  -7   6   93.95    7.36   0
  -5  -6   4  159.24    7.86   0
  -4  -6   7  126.98    6.66   0
  -3  -4  -4   13.67   12.03   0
  -3  -3   4  225.32    7.77   0
  -1  -7  11   44.74    5.39   0
  -1  -4   8  823.48   11.12   0
   0   0  -3   32.14    6.91   0
   2  -5  10   63.05    7.43   0
   3  -5  10   -2.38    6.72   0
   3   0  -6  307.50    8.24   0
   5  -3   7    8.09    8.05   0
   5   0  -6   54.44    4.87   0
   6   0  -5   16.46    4.50   0
   8  -1  -1   -3.87    6.64   0
  -5  -6   0  115.69   10.31   0
  -4  -5   6  645.82   10.03   0
  -4  -4   4  346.27    8.79   0
  -3  -4   6 1966.13   15.66   0
  -2  -3  -5    0.57    6.74   0
  -1  -2   5  230.63    8.26   0
  -1  -1  -4  585.98   14.31   0
   1  -6  11    9.61    7.11   0
   1  -5  10  383.29    9.44   0
   1  -3  -8   96.04    7.90   0
   1  -2   6  223.59    7.38   0
   2  -4   9   78.80    6.86   0
   2  -2  -8   56.25    5.08   0
   2  -1  -7  443.16    9.67   0
   4   0  -6  141.38    5.61   0
   6  -1  -7    7.54    4.49   0
   6   0  -4  518.10    9.72   0
   6   0  -1 2028.30   19.27   0
   7  -1  -6    0.31    4.64   0
   8  -1  -4  416.91    8.43   0
   8  -1  -3  189.66    8.44   0
   8  -1  -2  182.18    8.04   0
  -5  -6   5    7.37    6.25   0
  -3  -7  10  437.44    9.51   0
  -3  -6   9   34.37    6.54   0
  -2  -6  10   94.50    7.18   0
  -2  -3   6  720.64   11.00   0
   0  -6  11   64.25    7.64   0
   1  -4   9  107.95    7.45   0
   3  -4   9  349.13   10.45   0
   3  -2  -8   24.73    6.95   0
   3  -1  -7  134.19    6.97   0
   4  -2   6   68.84   10.74   0
   5  -2  -8   62.15    7.07   0
   5  -1  -7  114.59    6.93   0
   5   0  -5   20.52    4.38   0
   6   0  -3  448.41    9.51   0
   6   0  -2   75.59    6.47   0
   7  -1   1  461.70   12.79   0
  -5  -7   7   -2.48    5.19   0
  -5  -5   2    9.65    6.25   0
  -4  -7   9   69.39    5.06   0
  -4  -6   8   28.79    6.29   0
  -3  -5   8   52.64    4.62   0
  -3  -2   0 1757.00   25.00   0
  -3  -2   1 2216.21   24.30   0
  -2  -5   9  553.38    9.68   0
  -2  -2   4    5.46    4.04   0
  -1  -3  -6  721.28   14.96   0
  -1  -3   7  101.87    6.35   0
   0  -5  10   75.79    5.76   0
   0  -3  -7  169.31    8.15   0
   1  -2  -7  116.83    7.25   0
   1  -1  -6  146.37    7.36   0
   1   0  -4  920.95   14.54   0
   2   0  -5   77.17    4.93   0
   4  -2  -8   11.05    4.56   0
   4  -1  -7    3.45    4.11   0
   4   0  -5  200.15    7.84   0
   6  -1  -6  111.74    7.37   0
   7  -1  -5   -3.71    4.52   0
   8  -2   2   46.93    9.13   0
  -5  -6   6   58.99    6.70   0
  -5  -5   1   26.16    6.87   0
  -5  -5   3   73.66    5.68   0
  -4  -4   5   29.35    5.73   0
  -3  -3   5  412.33    8.91   0
  -2  -4   8  333.55    8.51   0
  -1  -1   3  347.17   11.11   0
   0  -4   9  124.98    5.80   0
   0  -2   6  351.95    8.28   0
   0  -1  -5   10.26    5.82   0
   0  -1   4 1537.87   19.45   0
   0   0  -2   16.32    8.75   0
   1  -3   8  417.98    9.74   0
   2  -3  -8   24.49    5.42   0
   2  -3   8  160.58    7.96   0
   3   0  -5 1262.02   13.22   0
   4  -4   9   79.53    8.37   0
   5   0  -4   10.41    3.96   0
   5   0   0    6.87    5.92   0
   6  -2  -7   42.13    7.00   0
   7  -1  -4   21.80    6.28   0
  -5  -7   8   35.80    6.98   0
  -5  -5   4   66.51    5.04   0
  -4  -5   7   31.36    4.52   0
  -4  -3   1  872.71   14.82   0
  -3  -4   7 2017.71   15.18   0
  -3  -2   2 4853.90   31.90   0
  -1  -6  11  131.71    6.22   0
  -1  -5  10  166.47    6.34   0
  -1  -2  -5   11.36    6.52   0
   0  -2  -6  222.82    8.66   0
   3  -3  -8   39.25    7.01   0
   3  -3   8  118.19    8.18   0
   4  -3  -8  110.49    7.80   0
   4   0   1   54.91    8.42   0
   5  -1  -6  104.58    6.75   0
   5   0  -3   66.81    5.87   0
   7  -2  -6  222.13    8.31   0
   7  -1   0  144.65    7.67   0
  -5  -6   7  364.67    9.66   0
  -5  -5   5  252.80    8.24   0
  -4  -3   2   15.68    4.38   0
  -3  -6  10    0.56    6.43   0
  -3  -2  -1   39.51    9.49   0
  -2  -1   0  154.99   10.92   0
  -1  -4   9  118.12    7.05   0
   0  -4  -7   34.66    7.50   0
   0  -3   8    3.97    5.48   0
   2  -2  -7   99.74    5.99   0
   2  -1  -6 1139.25   12.29   0
   2   0  -4    4.18    5.91   0
   4  -1  -6  195.56    7.54   0
   4   0  -4   72.59    5.11   0
   5  -2  -7  329.39    7.32   0
   5   0  -2  280.28    8.72   0
   5   0  -1 1117.90   14.78   0
   6  -1  -5   57.43    4.69   0
   6  -1   2    4.28    7.67   0
   7  -1  -3    6.34    4.57   0
   7  -1  -2    4.78    6.41   0
   7  -1  -1  822.99   12.69   0
   8  -2  -4  144.66    8.32   0
  -6  -7   4    7.79    5.05   0
  -6  -7   5  132.87    8.27   0
  -5  -5   0  314.40   12.93   0
  -4  -6   9    0.62    4.65   0
  -4  -4   6  180.69    7.64   0
  -4  -3   0   21.70    7.36   0
  -4  -3   3    8.82    5.52   0
  -3  -5   9   33.97    6.68   0
  -3  -2   3  286.71    9.06   0
  -2  -6  11  410.69    9.45   0
  -2  -3   7  633.78   10.31   0
  -2  -2   5   13.07    5.68   0
  -2  -1   1 5349.71   41.39   0
  -1  -2   6  598.90   10.49   0
   1  -3  -7   17.95    6.52   0
   1   0  -3   98.51    8.00   0
   3  -2  -7   -1.52    4.50   0
   3  -1  -6  432.06    8.22   0
   3   0  -4 1026.45   12.33   0
   4  -2  -7   97.66    5.33   0
   8  -2  -3  109.72    8.09   0
   8  -2   1  158.29    8.80   0
  -5  -6  -1   70.94   10.87   0
  -5  -5   6   49.29    6.45   0
  -4  -5   8  422.13    7.82   0
  -3  -3   6   33.13    4.73   0
  -2  -5  10   22.83    4.86   0
  -2  -4  -5   75.41    9.96   0
  -1  -4  -6   -1.41    6.73   0
   1  -5  11   76.21    8.00   0
   1  -1  -5  287.12    8.33   0
   4   0  -3  969.61   11.94   0
   5  -1  -5  445.17    9.25   0
   6  -2  -6   16.89    4.85   0
   6  -1  -4  157.32    7.14   0
   7  -2  -5   76.54    5.17   0
   8  -2  -2  288.14    8.96   0
   8  -2   0  263.55    9.59   0
  -5  -6   8    1.03    6.45   0
  -5  -4   2    2.24    6.06   0
  -5  -4   3  331.26    9.13   0
  -4  -3   4  273.92    6.94   0
  -3  -4   8  220.38    6.22   0
  -2  -4   9    6.97    5.90   0
  -2  -1   2 1426.96   19.22   0
  -1  -3   8  708.10    9.98   0
  -1  -1  -3   21.36    7.86   0
   0  -5  11   65.60    5.53   0
   1  -4  10   37.47    7.07   0
   1  -2  -6   94.36    6.72   0
   1  -2   7  392.43   10.29   0
   1  -1   5 2507.36   24.37   0
   2  -4  10   28.45    7.61   0
   2  -3  -7   18.69    6.46   0
   2  -2   7  610.96   12.76   0
   2  -1   5 1093.76   19.28   0
   3   0  -3 1831.80   17.57   0
   4  -3   8   17.43    8.90   0
   4   0  -2 1517.09   16.39   0
   4   0   0   22.48    5.99   0
   5  -3  -7    7.45    6.25   0
   7  -2   3  173.32   11.04   0
   8  -2  -1   54.63    7.18   0
  -6  -6   3  326.24    9.90   0
  -6  -6   4  100.69    7.65   0
  -6  -6   5   28.56    6.65   0
  -5  -4   4  658.21   11.10   0
  -4  -6  10  358.29    9.06   0
  -4  -4   7   55.92    6.29   0
  -3  -2   4   32.09    5.91   0
  -1  -5  11    9.54    6.89   0
  -1  -1   4   12.67    4.53   0
   0  -4  10  120.14    7.23   0
   0  -3  -6  111.69    7.60   0
   0  -2   7   41.45    6.08   0
   0  -1  -4  534.58   12.13   0
   1  -4  -7  137.99    8.00   0
   2  -1  -5   96.28    6.07   0
   2   0  -3   34.08    4.80   0
   3  -3  -7   19.73    6.34   0
   4  -3  -7  272.30    8.66   0
   4  -1  -5    3.00    4.48   0
   4   0  -1  348.96    9.64   0
   5  -2  -6  137.91    5.83   0
   6  -1  -3   99.68    5.43   0
   7  -2  -4   53.96    7.02   0
  -5  -5   7  341.74    7.50   0
   3  -1  -5  126.13    5.53   0
   6  -2  -5   21.47    4.61   0
  -8  -2   2   53.32    5.28   0
  -8   0   3  181.57    7.50   0
  -6  -4   0   72.03    5.53   0
  -6  -1   3  122.66    5.34   0
  -5  -4   0  182.38    8.02   0
  -5   5   3  773.54   11.83   0
  -4  -2   2  755.22   11.63   0
  -4   7   2   99.56    7.40   0
  -3  -4  -1   18.79    7.09   0
   1  -2  -4    8.18    5.56   0
   1   1  -1    5.48    6.27   0
   2  -1  -8   60.27    6.88   0
   2  -1  -6 1060.97   12.65   0
   3   1 -10   65.33    7.45   0
   3   1  -6  212.53    7.52   0
   3   2  -5  114.77    5.37   0
   4   4 -10  288.71    8.28   0
   4   4  -9  367.05    8.63   0
   4   5  -8  390.94    8.52   0
   4   6  -8   31.64    6.49   0
   4   7  -9   41.40    5.36   0
  -7  -3   1    7.26    6.26   0
  -7  -2   2   98.91    6.79   0
  -7   0   3  121.12    6.72   0
  -5   0   3   74.05    6.26   0
  -4  -3   1  813.46   12.79   0
  -4   1   3 1161.38   12.78   0
  -4   2   3  132.48    6.28   0
  -4   3   3   11.34    4.11   0
  -3  -1   2    4.45    5.52   0
  -3   8   1   81.53    9.22   0
  -2   1   2 1640.00   19.60   0
  -2   3   2    2.03    5.66   0
   0  -3  -8    2.08    8.86   0
   1  -2  -9   51.70    7.31   0
   1   5  -1  614.68   18.27   0
   2  -1  -9  376.91    9.91   0
   2  -1  -5   94.35    6.45   0
   3   7  -5  118.26    7.17   0
   4   4  -8   42.54    4.46   0
   4   7  -8    8.39    6.42   0
  -8   1   3  193.44    6.36   0
  -7   5   3  609.98   10.88   0
  -6  -3   1  372.45    9.31   0
  -6  -2   2  219.65    7.71   0
  -6   0   3  518.91    9.21   0
  -6   5   3   33.28    4.44   0
  -5  -3   1   59.83    6.28   0
  -5  -2   2  725.51   10.81   0
  -5   4   3  278.50    8.01   0
  -2   2   2 1136.14   17.05   0
  -1   0   1 2580.10   33.58   0
   1  -1  -2   59.46    7.98   0
   2  10  -5   44.57    7.40   0
   3   1  -5    5.38    5.29   0
   3   3  -4  226.82    7.62   0
   3   4  -4 2488.26   19.31   0
   4   3 -10    1.81    4.54   0
   4   3  -9    9.43    4.10   0
   4   3  -8  103.68    6.47   0
   4   4  -7   53.35    6.40   0
   4   5  -7   44.02    5.95   0
   4   6  -7  121.45    7.17   0
  -8  -2   1  560.60   10.65   0
  -8  -1   2   14.13    4.35   0
  -8   2   3  120.59    5.62   0
  -8   3   3  502.26    8.55   0
  -7   1   3    7.82    4.09   0
  -7   4   3   22.89    6.31   0
  -6  -4  -1  801.30   13.41   0
  -6   1   3  100.74    6.31   0
  -6   4   3  601.18   10.33   0
  -5   1   3   -0.16    3.75   0
  -5   2   3  474.91    9.02   0
  -5   3   3  665.60   10.46   0
  -5   7   2    0.64    6.57   0
  -1  -4  -5    5.32    8.09   0
   0  -3  -3  441.58   14.93   0
   2   0  -3   29.63    6.28   0
   2   3  -2  241.13    9.56   0
   2   7  -3   37.02    6.30   0
   3   0  -9  627.17   11.15   0
   3   0  -8 1029.75   11.56   0
   3   0  -7  339.13    8.44   0
   3   5  -4  169.46    6.23   0
   3   9  -6   15.13    4.93   0
   4   3  -7 1806.61   14.96   0
   4   8  -8  160.91    6.22   0
  -7  -1   2  932.94   11.80   0
  -7   2   3   12.51    4.18   0
  -7   3   3  692.88    9.56   0
  -6   2   3    8.00    5.63   0
  -6   3   3   25.00    5.89   0
  -5  -4  -1  136.70    8.16   0
  -4  -4  -1   51.05    6.79   0
  -3   5   2   62.11    6.73   0
  -1  -4  -6    0.46    7.96   0
   2  -1  -4  329.18    9.29   0
   2   2  -2  962.96   15.83   0
   2   4  -2  660.27   13.44   0
   2   9  -4  300.26   12.02   0
   3   0 -10  314.25    9.42   0
   3   0  -6  310.94    8.16   0
   3   2  -4   31.83    4.27   0
   3   8  -5  420.32   10.24   0
   4   2 -10    8.95    6.35   0
   4   2  -9  102.80    5.63   0
   4   2  -8   14.98    5.60   0
   4   7  -7    5.06    4.38   0
  -8   0   2   -1.23    6.41   0
  -7  -3   0  107.38    5.95   0
  -6   7   2   85.07    5.97   0
  -4  -1   2   69.53    4.90   0
  -4   6   2  276.61    7.68   0
  -3   0   2  894.21   13.12   0
  -1  -4  -4  549.06   21.11   0
   1  -2  -3   22.80    6.03   0
   3   6  -4   76.19    6.67   0
   4   2  -7   13.89    5.70   0
   4   3  -6   15.51    5.50   0
   4   4  -6  184.04    6.14   0
   4   5  -6  800.91   10.17   0
   4   8  -7   -1.83    5.98   0
  -7  -2   1   10.94    4.36   0
  -6  -4  -2  275.76   10.01   0
  -6  -1   2   37.01    4.40   0
  -5  -1   2   69.47    4.58   0
  -3  -3   0   57.57    6.69   0
  -3  -2   1 2373.42   21.90   0
  -1  -4  -7    8.10    9.24   0
  -1   4   1  802.49   18.66   0
   2  -2  -8   44.29    6.63   0
   2  -2  -7  101.80    6.91   0
   2  -2  -6   41.06    6.04   0
   3   0  -5 1156.68   13.05   0
   3   1  -4  819.60   11.87   0
   4   1  -9  414.54    9.43   0
   4   6  -6   28.08    4.66   0
  -8  -2   0  238.81    8.77   0
  -8  -1   1  123.80    6.14   0
  -8   1   2  166.82    6.03   0
  -7   0   2   58.49    6.08   0
  -7   6   2   41.26    6.83   0
  -6  -3   0  181.14    7.91   0
  -6  -2   1   76.33    6.62   0
  -6   6   2   13.72    6.18   0
  -5   6   2   62.63    6.79   0
  -4   8   1  217.93    9.10   0
  -3   4   2  352.00    9.09   0
  -2   6   1  300.43   11.31   0
   1  -3  -7   31.28    6.69   0
   1  -3  -6   71.16    6.83   0
   2   1  -2 1556.25   19.17   0
   2   5  -2    1.90    5.67   0
   3  -1  -8    4.96    6.23   0
   4   1 -10   39.36    7.18   0
   4   1  -8   32.91    4.31   0
   4   2  -6  908.12   11.78   0
   4   7  -6  221.38    8.01   0
   5   5  -9   78.46    6.81   0
   5   6  -9   28.33    6.69   0
  -8   2   2  325.89    7.12   0
  -8   3   2   24.25    6.49   0
  -8   4   2  114.11    7.63   0
  -7  -3  -1  219.43    8.84   0
  -6   0   2   71.65    6.35   0
  -5  -4  -2  472.14   13.18   0
  -5  -3   0   56.69    6.50   0
  -5  -2   1   71.80    5.96   0
  -4  -3   0   19.49    6.01   0
  -4  -2   1  107.90    6.55   0
  -4   0   2 1497.64   15.20   0
  -4   5   2   13.08    5.64   0
  -3   1   2  483.94    9.56   0
  -3   3   2  658.09   11.43   0
  -3   7   1   64.37    8.28   0
  -2  -1   1 5178.39   35.95   0
  -2  10  -1   28.27    9.39   0
  -1   1   1 8396.01   57.99   0
   1  -3  -8   97.81    7.88   0
   1  -3  -5  565.35   12.53   0
   1   8  -2   12.13    8.39   0
   2  -2  -9    9.23    4.81   0
   2  -2  -5  304.32    9.01   0
   3  -1  -9    3.16    6.54   0
   3  -1  -7  132.41    5.60   0
   3   7  -4   17.62    5.87   0
   4   1  -7  209.52    6.20   0
   4   4  -5   29.14    5.65   0
   5   4  -9   82.87    5.36   0
  -7  -1   1  104.17    7.01   0
  -7   1   2    4.05    4.31   0
  -7   5   2  366.49    8.05   0
  -6   5   2   69.82    6.78   0
  -5   0   2  287.65    7.02   0
  -5   5   2  136.37    6.99   0
  -5   8   1    4.13    6.82   0
  -3  -4  -2  830.48   19.20   0
  -3   2   2  175.50    6.59   0
  -3   9   0    0.24    6.68   0
  -1   7   0   51.49    9.59   0
  -1   9  -1   14.78   10.56   0
   2   8  -3  359.62   13.07   0
   3  -1  -6  411.33    8.16   0
   3   3  -3 1241.91   14.98   0
   3   4  -3 1269.17   15.46   0
   3   9  -5  400.04   10.85   0
   4   1  -6  268.93    7.78   0
   4   3  -5  295.61    6.88   0
   4   5  -5  305.11    7.31   0
   5   3  -9  201.45    7.80   0
   5   4  -8   27.00    6.41   0
   5   5  -8   99.39    5.44   0
   5   6  -8    3.70    4.50   0
  -8   0   1   -0.13    4.35   0
  -7  -2   0   26.21    4.61   0
  -7   2   2    6.31    4.59   0
  -7   3   2   55.82    6.65   0
  -7   4   2  195.78    6.32   0
  -6   1   2  631.50    9.92   0
  -4  -4  -2    3.97    6.47   0
  -4   1   2 1631.83   15.63   0
  -4   4   2   11.52    5.22   0
  -1   3   1  106.87    8.38   0
   0   5   0    2.68   12.06   0
   2  -1  -3  558.02   11.14   0
   3   0  -4 1005.41   12.96   0
   3   2  -3  353.95    9.28   0
   4   0  -9   99.71    7.79   0
   4   0  -8   82.88    6.89   0
   4   2  -5  302.50    7.96   0
   4   6  -5  170.90    7.58   0
   4   8  -6  539.29   11.22   0
   5   3  -8   73.92    6.89   0
   5   7  -8   38.30    5.36   0
  -8  -1   0  232.45    7.04   0
  -6  -3  -1   -0.50    5.99   0
  -6  -1   1   61.49    6.23   0
  -6   2   2 2727.48   17.93   0
  -6   3   2  187.59    7.15   0
  -6   4   2 1327.03   12.69   0
  -5   1   2  382.69    7.66   0
  -5   4   2  353.92    8.63   0
  -4   2   2  182.43    7.06   0
  -4   3   2   47.69    5.27   0
  -2   8   0   22.10    8.12   0
  -1   2   1 2674.37   32.27   0
   1  -3  -4   67.47    7.77   0
   3  -1  -5  114.68    6.30   0
   3   5  -3  561.22   11.18   0
   4   0  -7   28.04    5.78   0
   5   2  -9  196.97    6.14   0
   5   4  -7   61.49    4.79   0
   5   5  -7  327.74    7.28   0
   5   6  -7  427.64    9.23   0
  -8   1   1    4.53    4.11   0
  -7   0   1  288.18    7.96   0
  -6  -2   0  834.00   11.59   0
  -5  -4  -3  381.16   11.34   0
  -5   2   2   39.06    4.28   0
  -5   3   2 1118.35   11.91   0
  -4   7   1    4.74    5.75   0
   0  -4  -6    2.79    8.37   0
   2  -2  -4 1422.06   15.95   0
   2   0  -2 2346.45   22.88   0
   2   6  -2  376.50   11.57   0
   3   1  -3  157.74    7.31   0
   4   1  -5   94.80    6.36   0
   5   2  -8  338.00    7.12   0
   5   3  -7   -0.97    3.98   0
  -8   2   1   46.65    4.85   0
  -8   3   1  163.53    7.35   0
  -6   7   1  106.30    7.45   0
  -5  -1   1   16.06    5.00   0
  -5   7   1    3.67    5.93   0
  -4   9   0   -2.95    6.56   0
  -3  -1   1  671.75   11.87   0
  -2   5   1  626.72   13.76   0
   0  -4  -7   40.97    9.17   0
   1   6  -1    6.79    9.22   0
   2  10  -4   73.82    9.92   0
   3  -2  -8   18.89    6.44   0
   3  -2  -7   -3.08    6.16   0
   3   8  -4  681.44   13.26   0
   4   0  -6  145.89    5.46   0
   4   7  -5  658.98   10.48   0
   4   9  -6  152.09    8.13   0
   5   1  -9  465.07    9.76   0
   5   2  -7  172.44    7.01   0
   5   7  -7   -1.06    4.53   0
  -8  -1  -1  391.58    9.29   0
  -8   0   0  126.27    6.00   0
  -8   4   1  953.59   10.72   0
  -7  -2  -1  198.88    6.79   0
  -7  -1   0  466.69    9.37   0
  -7   1   1  689.92   10.28   0
  -7   6   1  163.16    6.31   0
  -5  -4  -4   19.47    9.09   0
  -5  -3  -1    0.21    5.68   0
  -4  -1   1  438.86    8.75   0
  -3   6   1  607.69   11.80   0
  -2  -3  -1 1523.24   26.10   0
  -2  -2   0    1.57    5.83   0
  -2   0   1   52.10    8.01   0
   0  -4  -5   86.34    9.73   0
   1  10  -3    4.40   10.96   0
   2  -3  -8   21.76    6.84   0
   2  -3  -7   23.87    5.93   0
   3   6  -3   41.58    6.41   0
   4  -1  -9  266.19    8.49   0
   4  -1  -8  164.02    7.60   0
   4   3  -4  272.79    6.76   0
   4   4  -4  308.93    7.43   0
   5   1  -8   99.76    7.06   0
   5   3  -6   32.85    6.11   0
   5   4  -6  303.02    6.86   0
   5   5  -6   45.80    6.59   0
  -7   5   1   34.89    6.51   0
  -6  -3  -2   67.54    7.06   0
  -6   0   1 2237.86   15.96   0
  -6   6   1   46.70    6.74   0
  -5  -2   0  275.89    8.22   0
  -4  -4  -3    4.55    6.50   0
   1  -2  -2  222.03   10.11   0
   2  -3  -6  305.96    9.00   0
   3  -2  -6    7.83    3.87   0
   3  -1  -4   27.39    4.04   0
   4  -1  -7   10.13    5.81   0
   4   0  -5  178.36    7.00   0
   4   2  -4  213.30    6.34   0
   4   5  -4   -0.72    3.63   0
   5   1  -7  177.88    6.90   0
   5   6  -6   59.57    6.41   0
  -8   1   0    6.06    6.02   0
  -7   2   1   16.13    4.22   0
  -7   3   1   18.41    5.91   0
  -7   4   1   97.78    6.50   0
  -5   0   1 1137.34   12.58   0
  -5   6   1  206.54    7.83   0
  -4  -3  -1  616.18   12.44   0
  -4  -2   0  238.86    8.18   0
  -4   6   1   18.20    5.74   0
  -3  10  -1  146.47    9.54   0
   3   0  -3 1738.78   16.42   0
   4   8  -5  187.60    8.44   0
   5   0  -9   17.29    7.05   0
   5   2  -6   83.79    4.80   0
   6   5  -8   51.28    6.86   0
  -7  -2  -2  246.56    8.59   0
  -7   0   0  246.75    8.05   0
  -6  -2  -1 2724.86   19.94   0
  -6  -1   0  309.37    8.40   0
  -6   1   1  162.97    5.69   0
  -6   5   1  202.64    7.55   0
  -3  -4  -3  160.45   12.14   0
  -3  -3  -1  203.79    9.08   0
  -3  -2   0 1654.35   19.45   0
  -3   0   1  223.81    8.19   0
  -3   8   0   16.91    6.41   0
  -2  -4  -3   51.05   11.84   0
  -2   4   1  208.94    8.82   0
   2  -3  -5 1480.16   17.08   0
   3  -2  -5    5.20    5.45   0
   4  -1  -6  221.39    6.35   0
   4   1  -4  771.26   10.36   0
   4   6  -4  614.29   10.94   0
   5   0  -8   41.24    6.87   0
   5   7  -6   83.83    6.90   0
   6   3  -8  113.42    6.93   0
   6   4  -8  229.97    6.20   0
  -8   0  -1  292.49    7.29   0
  -8   2   0  303.87    7.11   0
  -8   3   0  206.22    7.52   0
  -7  -1  -1  163.81    7.36   0
  -6  -3  -3    0.86    6.90   0
  -6   2   1 2693.36   17.67   0
  -6   3   1  560.43    9.60   0
  -6   4   1   28.85    5.70   0
  -6   8   0  571.20    9.50   0
  -5   5   1  347.88    8.50   0
  -4   0   1  374.79    8.00   0
  -3   5   1  586.43   11.31   0
  -2   1   1 3665.97   29.52   0
   1  -3  -3   70.14    8.00   0
   2  -2  -3   59.59    5.21   0
   5   0  -7  997.78   11.84   0
   5   1  -6  385.94    7.28   0
   5   3  -5  116.45    6.76   0
   5   4  -5  707.68   10.59   0
  -8   4   0    5.15    4.43   0
  -7   1   0  161.29    6.73   0
  -5  -3  -2 1076.30   14.75   0
  -5   1   1  183.55    5.84   0
  -5   8   0   -0.97    4.75   0
  -4  -4  -4   16.52    8.47   0
  -4   5   1    8.39    5.45   0
  -4   8   0  253.02    8.89   0
   0  -4  -4  177.26   11.13   0
   1  -4  -7  135.95    8.77   0
   1  -4  -6  136.31    8.82   0
   2  -1  -2 1649.85   19.10   0
   3   2  -2 4279.03   27.67   0
   3   3  -2  438.82   10.17   0
   3   7  -3   63.92    6.79   0
   3   9  -4   35.52    8.54   0
   4  -2  -8   12.17    6.29   0
   4  -1  -5    3.54    5.04   0
   4   0  -4   60.02    5.88   0
   5   2  -5 1052.55   11.98   0
   5   5  -5  265.84    6.93   0
   6   2  -8  289.40    6.87   0
   6   3  -7  214.45    7.59   0
   6   4  -7   37.75    4.92   0
   6   5  -7   54.08    7.17   0
  -8   1  -1   66.91    6.90   0
  -7   6   0  346.35    9.19   0
  -6   0   0 1944.59   15.67   0
  -5  -1   0 1265.38   13.64   0
  -5   2   1  116.42    6.54   0
  -5   3   1  462.27    8.81   0
  -5   4   1  192.47    5.89   0
  -4   1   1    9.56    5.39   0
  -3   1   1 1515.95   16.38   0
  -3   4   1   38.35    6.11   0
  -2   2   1 1575.17   19.83   0
  -2   3   1    1.72    3.94   0
  -2   7   0  648.35   14.53   0
   0  -3  -2  103.64   11.61   0
   2   2  -1  725.48   15.02   0
   2   3  -1    1.34    5.78   0
   2   7  -2  606.93   16.52   0
   2   9  -3  264.39   12.98   0
   3  -3  -8   37.71    7.17   0
   3  -3  -7   18.05    6.32   0
   3  -1  -3  864.33   12.53   0
   3   4  -2   12.91    5.78   0
   4  -2  -7   87.88    7.08   0
   4   7  -4 1014.44   14.22   0
   5   0  -6   55.66    6.15   0
   5   6  -5   14.87    6.16   0
   5   8  -6   -1.83    4.60   0
   6   6  -7   82.32    5.50   0
  -8   0  -2  645.69   10.82   0
  -7   2   0  406.01    8.66   0
  -7   5   0  219.95    7.78   0
  -6   7   0   61.71    5.08   0
  -5  -2  -1   37.46    6.15   0
  -4   2   1 2254.56   17.93   0
  -4   4   1    5.43    3.53   0
   1  -4  -5   34.20    8.12   0
   1  -1  -1 9999.99   62.19   0
   2  -3  -4   36.43    6.08   0
   3  -3  -6  250.34    8.53   0
   3  -2  -4 3039.71   20.82   0
   3   1  -2   21.94    5.82   0
   4   2  -3  313.00    8.12   0
   4   3  -3   12.53    3.66   0
   4   4  -3   12.05    5.73   0
   4   9  -5   23.89    7.29   0
   5  -1  -8  230.78    6.82   0
   5   1  -5   31.54    4.20   0
   6   1  -8    9.86    4.69   0
   6   2  -7   38.92    4.92   0
  -8   2  -1  138.00    5.77   0
  -7  -1  -2    4.36    6.19   0
  -7   0  -1    6.11    4.62   0
  -7   3   0   12.85    4.61   0
  -7   4   0  134.64    5.43   0
  -6  -2  -2    6.23    4.50   0
  -6  -1  -1  265.41    7.96   0
  -5   7   0  175.20    7.75   0
  -4  -4  -5  130.19   11.16   0
  -4   3   1  701.22   10.09   0
  -3   2   1 1135.87   14.78   0
  -3   3   1 2112.64   19.38   0
  -2   9  -1  199.67   10.10   0
  -1  -1   0  270.75   15.15   0
  -1   6   0    6.18    7.14   0
   2   1  -1 5224.19   36.25   0
   2   4  -1  519.68   14.34   0
   4  -2  -6  167.29    6.15   0
   5  -1  -7  117.62    5.66   0
   6   1  -7   25.96    6.46   0
   6   3  -6  144.87    7.30   0
   6   4  -6   22.55    6.58   0
  -8   3  -1    5.67    4.57   0
  -8   4  -1    6.72    6.57   0
  -8   5  -1  288.95    8.61   0
  -6   1   0    3.43    4.12   0
  -6   6   0    8.79    4.30   0
  -5  -3  -3    5.16    6.51   0
  -5   9  -1   67.13    7.53   0
  -4  -3  -2 1013.54   15.38   0
  -4  -1   0   -0.09    3.91   0
  -4   7   0  167.95    7.81   0
  -3   7   0   28.87    6.15   0
   3   5  -2   44.29    6.36   0
   4  -1  -4   97.15    6.32   0
   4   1  -3 1897.28   15.75   0
   4   5  -3  633.50   11.60   0
   5   0  -5   29.86    6.03   0
   5   3  -4 1205.95   12.80   0
   5   4  -4  809.44   11.24   0
   5   7  -5    1.98    4.78   0
   6   0  -8  107.98    7.39   0
   6   2  -6   42.84    6.34   0
   6   5  -6   15.55    5.02   0
  -8   1  -2  316.90    7.43   0
  -7   1  -1  432.29    8.79   0
  -7   7  -1  607.27   10.82   0
  -6   2   0  505.13    9.12   0
  -6   5   0  156.88    6.79   0
  -5   0   0    5.87    4.05   0
  -4   9  -1  478.71   10.92   0
  -3   9  -1   14.08    6.64   0
   2  -4  -7   30.16    7.46   0
   3  -3  -5  108.59    6.95   0
   3   0  -2  955.37   13.31   0
   4  -2  -5   66.53    6.49   0
   5  -1  -6  113.74    5.31   0
   5   2  -4   66.75    4.85   0
   6   6  -6  482.25    8.55   0
  -7  -1  -3   77.76    7.06   0
  -6  -2  -3   17.38    6.36   0
  -6   3   0   39.94    6.01   0
  -6   4   0   74.43    6.52   0
  -6   8  -1    3.73    6.73   0
  -5   6   0  120.04    6.83   0
  -4  -2  -1  287.62    7.73   0
  -3  -4  -4    9.93    7.83   0
  -3  -1   0  249.88    8.17   0
  -1  10  -2  130.07   11.85   0
   2  -4  -6   29.93    6.63   0
   4  -3  -8  121.95    8.05   0
   4   0  -3  949.05   12.23   0
   4   8  -4   68.25    7.53   0
   5  -2  -8   50.63    7.05   0
   5   1  -4   49.88    6.12   0
   5   5  -4   62.25    4.80   0
   6   0  -7   27.68    4.33   0
   6   1  -6  637.87    9.12   0
  -8   2  -2   39.43    4.44   0
  -7   0  -2   96.52    5.11   0
  -7   2  -1   42.47    6.34   0
  -7   6  -1   32.14    6.50   0
  -6   0  -1  255.03    7.74   0
  -5  -3  -4  179.53    8.79   0
  -5  -2  -2    5.22    5.59   0
  -5  -1  -1  168.00    7.07   0
  -5   1   0 1116.03   12.40   0
  -2  -1   0  155.76    7.99   0
   1  -4  -4  116.36    9.36   0
   2   0  -1   47.28    7.74   0
   3  -2  -3  122.81    6.72   0
   3   8  -3  535.29   13.75   0
   4  -3  -7  293.99    8.98   0
   4   6  -3  126.28    7.24   0
   5  -2  -7  361.02    9.41   0
   5  -1  -5  522.26    9.41   0
   5   8  -5  169.31    8.34   0
   6   3  -5    1.33    5.59   0
   6   4  -5   13.88    5.60   0
   7   3  -7    6.50    6.45   0
  -8   3  -2    8.85    6.06   0
  -7   3  -1   21.90    5.91   0
  -7   4  -1   15.92    5.95   0
  -7   5  -1   10.44    6.15   0
  -6  -1  -2   67.29    6.72   0
  -5   5   0  546.86    9.63   0
  -5   8  -1    2.92    6.13   0
  -4   0   0   28.97    5.65   0
  -4   6   0    4.84    5.59   0
  -3  -3  -2    8.60    5.48   0
  -2   6   0   30.72    5.96   0
   2  -4  -5   39.53    6.23   0
   2  -3  -3 1182.54   15.98   0
   2  -2  -2 1036.09   15.16   0
   4  -3  -6   -3.27    6.23   0
   5   0  -4   10.08    5.60   0
   5   6  -4  187.12    7.74   0
   6   0  -6  474.89    9.20   0
   6   2  -5 1113.55   11.29   0
   6   5  -5  245.25    8.42   0
   7   2  -7   13.50    6.31   0
  -8   4  -2   80.64    5.26   0
  -6  -2  -4   72.00    7.33   0
  -6   7  -1  132.35    5.41   0
  -5   2   0    5.38    3.58   0
  -5   3   0   26.14    5.38   0
  -5   4   0   60.97    5.77   0
  -3  -2  -1   39.63    6.06   0
  -3   6   0  308.89    9.20   0
  -1   8  -1  352.22   13.42   0
   2   5  -1  368.07   12.98   0
   3  -4  -7   -0.35    6.47   0
   3  -3  -4    3.93    3.92   0
   3  -1  -2  484.90   10.36   0
   3   6  -2    3.27    5.48   0
   4  -2  -4  534.96    8.64   0
   5  -2  -6  120.09    5.41   0
   6  -1  -7   10.94    4.27   0
   6   1  -5   46.72    6.05   0
  -8   2  -3  165.82    7.43   0
  -7   0  -3   22.92    6.34   0
  -7   1  -2  542.22    8.37   0
  -6   1  -1   44.88    4.64   0
  -5  -3  -5   31.82    6.99   0
  -4  -3  -3    1.18    5.17   0
  -4   5   0   17.46    5.15   0
  -4   8  -1   16.76    5.93   0
  -2  10  -2   65.73    8.88   0
   4  -1  -3 1225.27   12.75   0
   6   6  -5   23.01    6.22   0
   7   1  -7   -0.01    4.44   0
   7   4  -6  218.08    7.97   0
  -7   7  -2   81.42    7.27   0
  -6   2  -1  174.93    6.68   0
  -6   6  -1   12.57    4.20   0
  -4   1   0 2525.91   18.60   0
  -3  -4  -5  334.41   14.19   0
  -3   0   0  438.69   10.48   0
  -3  10  -2  368.81   10.75   0
   3  -4  -6  305.84    9.13   0
   4  -3  -5  588.73    9.40   0
   4   1  -2   77.63    5.99   0
   4   2  -2  792.97   10.88   0
   4   3  -2   16.27    3.61   0
   5  -2  -5    6.75    5.34   0
   5  -1  -4    6.35    5.12   0
   5   2  -3  563.63    8.70   0
   5   3  -3  375.13    7.54   0
   5   7  -4   83.39    7.09   0
   6  -1  -6  123.05    5.16   0
   6   0  -5   12.30    5.67   0
   7   2  -6    0.32    6.15   0
   7   3  -6  318.09    6.82   0
  -8   3  -3   48.74    4.99   0
  -7   2  -2   18.04    3.98   0
  -7   6  -2   86.54    6.63   0
  -6  -1  -3  249.00    8.16   0
  -6   0  -2  540.44    9.57   0
  -6   3  -1   46.48    5.74   0
  -6   5  -1    0.06    5.41   0
  -5  -2  -3  247.88    8.31   0
  -5   0  -1  154.71    5.36   0
  -5   7  -1  655.31    9.66   0
  -4  -1  -1  293.32    8.23   0
  -4   2   0 1990.89   16.60   0
  -4   4   0  796.62   11.00   0
  -3   5   0   27.01    5.58   0
  -3   8  -1    0.47    5.54   0
  -2   8  -1  112.69    8.15   0
  -1   5   0    0.06    6.45   0
   1  -3  -2 4236.72   36.68   0
   2  -4  -4  580.58   13.00   0
   4   4  -2  684.80   11.81   0
   4   7  -3  257.96    9.53   0
   5  -3  -7    2.27    6.31   0
   5   1  -3 1323.67   12.55   0
   5   4  -3  327.61    7.26   0
   6   2  -4  132.68    6.24   0
   6   3  -4  409.91    8.64   0
   6   7  -5  145.15    8.09   0
   7   0  -7   95.61    5.35   0
   7   1  -6   21.34    6.31   0
  -7   0  -4   48.35    6.88   0
  -7   1  -3    8.35    6.29   0
  -7   3  -2  573.95    8.38   0
  -7   4  -2   66.27    6.60   0
  -7   5  -2   94.53    6.92   0
  -6   4  -1  845.95    9.90   0
  -6   8  -2   18.50    4.96   0
  -5  -1  -2   14.70    5.62   0
  -5   9  -2  198.06    6.68   0
  -4  -2  -2    0.97    5.95   0
  -4   3   0  241.92    6.45   0
   2  -1  -1 3776.51   29.54   0
   3  -4  -5   17.53    6.35   0
   3   2  -1 2353.27   21.89   0
   4   0  -2 1624.36   15.30   0
   4   9  -4  298.44   10.89   0
   5   0  -3   94.78    6.35   0
   5   5  -3   66.26    6.54   0
   6  -2  -7   39.37    5.13   0
   6   1  -4   38.36    5.89   0
   6   4  -4  100.05    5.45   0
  -5   1  -1 1156.28   12.59   0
  -5   6  -1  245.72    7.69   0
  -4  -3  -4   72.85    8.75   0
  -3  -4  -6    4.72    8.46   0
  -3   1   0    5.82    5.57   0
  -2  -3  -2   90.03    8.79   0
  -2  -2  -1   97.42    7.59   0
  -2   0   0 2617.89   26.31   0
  -2   5   0    3.46    5.67   0
   0  -4  -3 2926.64   43.64   0
   3  -3  -3  314.86    8.73   0
   3   1  -1  750.95   12.91   0
   3   3  -1 1134.62   15.78   0
   4  -4  -7   27.22    6.81   0
   4  -3  -4   51.29    5.78   0
   4  -2  -3  126.49    6.16   0
   5  -3  -6    3.17    4.36   0
   6  -2  -6   17.48    6.49   0
   6  -1  -5   49.91    4.42   0
   6   5  -4  324.43    8.66   0
   7   0  -6   11.74    6.30   0
   7   3  -5   78.87    6.90   0
  -6  -1  -4   34.05    6.50   0
  -6   1  -2    4.95    4.12   0
  -6   7  -2   -0.45    6.11   0
  -4   7  -1  382.25    7.88   0
  -4   9  -2  550.34   11.21   0
  -3   4   0 5627.78   29.40   0
  -2  -4  -4  299.05   15.36   0
   0   4   0   12.00    9.60   0
   1  -2  -1 2619.92   31.29   0
   1   2   0   46.27    9.36   0
   3  -2  -2  180.49    7.63   0
   4  -4  -6  127.78    7.61   0
   4   5  -2  917.07   13.78   0
   5  -2  -4   47.17    4.58   0
   6   0  -4  638.81    8.78   0
   7   2  -5  348.58    7.18   0
   7   4  -5  299.38    7.31   0
  -7   1  -4   -1.80    6.54   0
  -7   2  -3  178.47    5.98   0
  -7   7  -3   12.73    6.36   0
  -6   0  -3  373.54    8.96   0
  -5  -2  -4  171.17    7.77   0
  -5   2  -1    9.44    5.40   0
  -5   5  -1    4.18    5.22   0
  -5   8  -2  312.17    8.11   0
  -3   2   0  701.82   11.98   0
  -3   3   0    1.00    5.80   0
   1  -4  -3  166.56    9.49   0
   2   8  -2   16.71    9.81   0
   3   0  -1  157.37    7.41   0
   4  -1  -2 1902.21   16.28   0
   5  -3  -5  160.35    7.39   0
   5  -1  -3    2.64    5.41   0
   5   8  -4   69.94    7.40   0
   6   6  -4   92.17    7.15   0
   7   1  -5  292.22    6.60   0
   7   5  -5   19.24    4.86   0
  -7   3  -3  943.60   11.07   0
  -7   6  -3   36.41    6.17   0
  -6   2  -2    3.10    3.84   0
  -6   6  -2  672.04    9.17   0
  -5   3  -1  119.73    6.64   0
  -5   4  -1  408.18    7.48   0
  -4   0  -1   55.55    4.58   0
  -3  -3  -3   37.02    6.50   0
  -3   7  -1   -3.44    5.40   0
  -2   4   0  839.47   13.90   0
   1  -5  -6   37.44    8.48   0
   1   1   0  232.75   13.59   0
   2  -3  -2    2.24    5.10   0
   3  -4  -4   27.47    5.87   0
   3   4  -1 1816.62   20.50   0
   3   7  -2    8.99    6.24   0
   4  -4  -5  781.82   12.21   0
   5   6  -3  168.03    7.60   0
   6  -2  -5   29.16    4.52   0
   6  -1  -4  174.07    6.89   0
   7  -1  -6    5.10    4.38   0
   7   0  -5   -1.32    5.96   0
  -7   4  -3   35.90    4.31   0
  -7   5  -3  235.62    6.36   0
  -6  -1  -5    2.03    4.47   0
  -6   3  -2   64.26    5.70   0
  -6   4  -2  227.62    7.05   0
  -6   5  -2    1.18    3.90   0
  -5  -1  -3   14.09    5.21   0
  -5   0  -2  242.50    6.44   0
  -4  -3  -5   92.17    7.36   0
  -4   6  -1   23.82    4.10   0
  -3  -1  -1  199.23    7.24   0
  -3   9  -2   -4.49    5.77   0
   0   9  -2   37.17   10.70   0
   2  -5  -6   29.03    6.80   0
   3   9  -3    5.30    8.39   0
   5   2  -2  652.93    9.86   0
   6  -3  -6  177.36    8.04   0
   6   1  -3  129.65    6.53   0
   6   2  -3   68.59    5.86   0
   6   3  -3   -0.79    5.41   0
  -7   1  -5  171.45    7.83   0
  -7   2  -4  524.12    8.27   0
  -6   1  -3  279.15    7.65   0
  -6   8  -3   14.81    4.78   0
  -5  -2  -5   30.92    6.82   0
  -5   7  -2   20.02    5.82   0
  -4  -2  -3  852.75   13.07   0
  -4  10  -3  160.67    7.88   0
  -2   1   0 3929.69   29.74   0
  -1   4   0  682.56   15.39   0
   0  -5  -6    5.20   11.03   0
   0   7  -1   10.90    8.48   0
   2  -4  -3  388.40   10.41   0
   4  -3  -3   10.70    5.18   0
   4   8  -3   21.74    6.43   0
   5  -4  -6   64.56    6.99   0
   5  -3  -4  153.72    6.82   0
   5  -2  -3  424.45    8.46   0
   5   1  -2   78.80    4.77   0
   5   3  -2  437.76    8.97   0
   6   4  -3  608.84   10.13   0
   7  -2  -6  237.83    8.38   0
   7  -1  -5    3.32    6.14   0
   7   2  -4  638.95    9.92   0
   7   3  -4  770.67   10.73   0
  -7   3  -4   48.01    5.99   0
  -6   0  -4  214.89    6.20   0
  -5   9  -3   16.53    4.62   0
  -4  -3  -6    2.38    6.93   0
  -4  -1  -2  912.74   11.89   0
  -4   1  -1   98.87    5.14   0
  -4   5  -1   47.53    5.22   0
  -4   8  -2  308.10    8.64   0
  -3  -2  -2    4.61    5.30   0
  -2   2   0 1404.53   18.26   0
  -2   3   0  882.62   14.09   0
  -2   7  -1    0.94    5.60   0
  -2   9  -2  158.81    8.56   0
   1  -5  -5  179.12   10.82   0
   1   3   0 1881.80   41.05   0
   3  -5  -6  421.30   11.15   0
   3  -1  -1 1273.84   14.45   0
   4  -2  -2  186.90    6.86   0
   4   6  -2  181.66    8.34   0
   5   0  -2  300.76    7.73   0
   5   4  -2    6.32    5.38   0
   6  -2  -4    1.90    5.28   0
   6   0  -3  472.72    7.65   0
   6   7  -4   11.30    6.47   0
   7   1  -4   13.75    4.23   0
   7   4  -4    1.53    4.26   0
  -7   2  -5    5.81    6.32   0
  -7   4  -4  577.45    9.42   0
  -7   6  -4   10.53    6.03   0
  -6   2  -3  273.53    7.74   0
  -6   7  -3   45.46    4.46   0
  -5   1  -2   66.11    4.32   0
  -5   6  -2  420.81    8.33   0
  -1   7  -1   36.35    7.79   0
  -1   9  -2    9.46    7.96   0
   2  -5  -5   57.86    7.40   0
   2  -2  -1 1492.93   18.30   0
   2   6  -1   42.01    9.00   0
   3  -3  -2  621.21   10.75   0
   4  -4  -4   13.43    4.09   0
   4   1  -1  400.65    8.84   0
   4   2  -1  118.55    6.22   0
   5  -4  -5   -0.67    5.77   0
   5   7  -3  168.30    8.36   0
   6  -3  -5    2.80    3.80   0
   6   5  -3  338.16    8.82   0
   7   0  -4  259.93    6.34   0
   7   5  -4   15.78    6.16   0
  -7   5  -4  253.54    6.48   0
  -6   0  -5  689.57   10.82   0
  -6   6  -3    5.24    5.29   0
  -5  -1  -4  105.83    6.94   0
  -4   2  -1   60.74    4.59   0
  -4   3  -1 2345.56   17.58   0
  -4   4  -1   53.16    4.14   0
  -3   6  -1  801.36   11.21   0
  -3  10  -3  344.99    9.75   0
  -1  -2  -1    2.82    7.00   0
   3  -4  -3  135.52    7.45   0
   3   5  -1  412.39   11.34   0
   4   3  -1  947.28   12.97   0
   5  -1  -2  422.35    8.59   0
   6  -1  -3  103.56    4.88   0
   7  -2  -5   71.87    6.68   0
   8   1  -5  112.80    5.33   0
  -7   3  -5  182.02    7.47   0
  -6   1  -4  376.55    8.49   0
  -6   3  -3  303.98    6.74   0
  -6   4  -3  421.59    8.32   0
  -6   5  -3  371.28    8.10   0
  -5   0  -3  186.41    5.97   0
  -5   2  -2  149.55    5.32   0
  -5   5  -2  499.84    8.89   0
  -5   8  -3  376.59    8.74   0
  -3   0  -1 1010.01   14.34   0
   3  -5  -5    4.55    5.75   0
   4  -5  -6  128.32    7.55   0
   4   0  -1  401.87    8.07   0
   5   5  -2   13.61    5.61   0
   7  -1  -4   17.78    4.26   0
   8   0  -5  163.48    5.93   0
  -7   4  -5  185.17    7.22   0
  -6   0  -6   32.86    6.62   0
  -6   8  -4  110.32    5.36   0
  -5   3  -2  425.34    7.67   0
  -5   4  -2   11.57    3.88   0
  -4  -2  -4   98.96    6.45   0
  -4   0  -2  256.05    7.48   0
  -4   7  -2   72.37    4.76   0
  -4   9  -3  192.54    7.72   0
  -3  -3  -4  651.41   13.83   0
  -3   8  -2   97.08    6.62   0
  -2  -4  -5   78.60   10.14   0
  -1   1   0  377.28   14.93   0
  -1   3   0  554.01   14.57   0
   5  -4  -4   11.96    5.88   0
   5  -3  -3  665.80    9.14   0
   6  -3  -4   20.36    4.20   0
   6  -2  -3    6.99    5.40   0
   6   6  -3  321.00    9.21   0
   7   1  -3  362.83    7.94   0
   7   2  -3   23.43    5.71   0
  -7   5  -5   67.82    4.88   0
  -6   2  -4  586.00    9.33   0
  -5  -1  -5  190.10    7.67   0
  -3   5  -1   38.28    5.32   0
  -2  -1  -1   12.38    5.93   0
  -2  10  -3   12.85    6.29   0
   2  -5  -4  443.25   11.76   0
   2   1   0  159.55    7.51   0
   2   2   0    1.54    5.49   0
   3  -2  -1 1169.65   13.87   0
   4  -5  -5   38.16    6.16   0
   4  -4  -3  132.75    6.47   0
   4  -3  -2   39.87    5.08   0
   4  -1  -1    2.73    3.37   0
   4   4  -1  100.52    6.92   0
   5  -2  -2   34.67    5.49   0
   6  -4  -5  239.71    7.71   0
   6   0  -2   80.32    5.87   0
   6   1  -2   43.33    3.94   0
   6   2  -2  193.87    5.90   0
   6   3  -2   73.54    5.77   0
   7  -3  -5   12.39    6.15   0
   7  -2  -4   54.74    6.16   0
   7   0  -3  100.23    6.21   0
   7   3  -3  223.27    6.25   0
   8   1  -4   75.33    6.26   0
   8   2  -4   -0.13    6.03   0
  -6   1  -5  269.81    7.96   0
  -6   7  -4  169.86    5.60   0
  -5   1  -3   71.65    5.73   0
  -5   7  -3  535.52    8.44   0
  -5   9  -4  129.46    7.02   0
  -4  -1  -3 1305.29   14.81   0
  -2   6  -1 1163.26   15.12   0
  -1   2   0   87.18    8.77   0
   0  -5  -5    8.26   14.46   0
   3  -5  -4   22.27    5.58   0
   7   4  -3    5.67    5.64   0
   8   0  -4   -0.85    5.54   0
  -6   3  -4   61.39    4.38   0
  -6   6  -4  142.86    5.45   0
  -5  -1  -6  375.86    9.51   0
  -5   0  -4   20.42    5.36   0
  -4   6  -2  158.51    5.35   0
  -4  10  -4   47.31    4.90   0
  -3   1  -1  110.56    5.37   0
  -3   4  -1    2.39    5.02   0
   1  -5  -4  604.98   16.74   0
   2   0   0 3418.98   29.00   0
   4   7  -2    6.02    6.44   0
   5   1  -1   15.85    4.55   0
   5   2  -1   57.95    5.46   0
   6  -1  -2  653.24    9.52   0
   6   4  -2  159.28    7.10   0
   7  -1  -3    7.80    4.04   0
  -6   1  -6   80.41    6.57   0
  -6   2  -5  500.06    9.26   0
  -6   4  -4   13.74    3.91   0
  -6   5  -4   89.04    4.95   0
  -6   8  -5  103.65    6.94   0
  -5   2  -3 1331.95   12.82   0
  -5   6  -3   15.59    4.04   0
  -4  -2  -5    8.33    6.04   0
  -4   1  -2  257.04    6.49   0
  -4   8  -3   24.29    5.88   0
  -3  -3  -5   41.96    8.24   0
  -3  -2  -3   34.48    5.90   0
  -3  -1  -2  954.60   13.97   0
  -3   2  -1  823.80   11.97   0
  -3   3  -1  154.81    7.04   0
  -3   7  -2  379.06    8.72   0
  -3   9  -3   54.98    6.12   0
  -2  -4  -6   10.44    9.29   0
  -2  -3  -3  128.82    8.93   0
  -2   8  -2  765.84   12.43   0
  -1  -3  -2 2591.58   45.43   0
  -1  10  -3   35.93    6.74   0
   2  -4  -2  225.47    8.62   0
   2   3   0   25.04    6.90   0
   4  -5  -4  332.23    8.91   0
   4  -2  -1 2316.68   17.59   0
   5  -5  -5  226.14    7.03   0
   5  -4  -3  249.39    7.46   0
   5   0  -1 1064.15   11.34   0
   5   6  -2  140.15    7.50   0
   5   8  -3    6.03    6.57   0
   6  -4  -4  682.82   10.19   0
   6  -3  -3   28.21    4.12   0
   7  -3  -4  180.16    7.74   0
   7   5  -3  128.01    7.29   0
   8  -1  -4  412.19    7.51   0
  -5   3  -3  286.45    7.49   0
  -5   5  -3   16.76    5.26   0
  -5   8  -4   14.75    5.88   0
  -4   5  -2  126.02    4.94   0
   1  -4  -2   16.41    6.67   0
   2  -3  -1    0.65    5.49   0
   3  -4  -2  337.08    8.69   0
   3   1   0  256.06    8.98   0
   5  -3  -2 1123.44   11.43   0
   5  -1  -1  183.69    6.68   0
   5   3  -1   59.27    4.63   0
   6  -2  -2 2585.31   16.84   0
   7  -2  -3    4.91    3.97   0
  -6   3  -5  322.60    7.95   0
  -6   7  -5  268.06    6.30   0
  -5   0  -5    1.23    5.73   0
  -5   1  -4  362.92    8.41   0
  -5   4  -3   49.16    4.26   0
  -4  -2  -6   30.65    6.72   0
  -4   2  -2   12.57    3.60   0
  -4   3  -2  445.15    8.68   0
  -4   4  -2  133.11    5.98   0
  -1   6  -1   58.28    7.16   0
   0   3   0   14.38    8.30   0
   0  10  -3    7.50    7.61   0
   1  10  -3    1.73   10.49   0
   3  -3  -1 2108.47   18.83   0
   3   0   0  467.97   10.54   0
   3   2   0 1782.37   19.03   0
   4   5  -1   23.56    5.63   0
   5  -5  -4   71.27    6.21   0
   6   5  -2   84.70    6.42   0
   7   0  -2   67.13    5.88   0
   7   1  -2  878.87   10.87   0
   7   2  -2   93.84    6.36   0
   8  -2  -4  154.88    5.68   0
   8   0  -3  203.50    7.07   0
   8   1  -3    6.00    4.34   0
   8   2  -3   19.68    4.36   0
  -6   2  -6  259.05    6.84   0
  -6   4  -5    7.73    5.52   0
  -6   5  -5   -0.76    5.86   0
  -6   6  -5  608.96    8.49   0
  -5   7  -4   33.36    5.41   0
  -5   9  -5  168.17    7.63   0
  -4  -1  -4  178.92    7.09   0
  -4   0  -3  451.79    9.36   0
  -4   7  -3   35.46    5.80   0
  -4   9  -4    3.63    5.93   0
  -3  -3  -6    5.51    6.24   0
  -3  10  -4   46.19    6.47   0
  -2  -2  -2   83.11    7.08   0
  -2   5  -1   30.19    3.95   0
   1  -3  -1  109.77    8.05   0
   2  -1   0 3818.83   29.13   0
   3  -5  -3   25.26    5.74   0
   3   6  -1   97.89    9.05   0
   3   8  -2  151.96   12.08   0
   4  -4  -2    8.60    3.47   0
   5   4  -1    6.47    5.25   0
   7   3  -2   32.17    6.03   0
   8  -1  -3  195.41    7.26   0
   8   3  -3  220.92    6.45   0
  -5   0  -6   29.86    6.23   0
  -3   6  -2  156.72    6.90   0
  -2   0  -1 5258.30   35.33   0
  -1   8  -2   20.17    5.82   0
   1  -1   0  487.54   16.11   0
   2  -5  -3   12.98    5.65   0
   3  -1   0    3.91    5.26   0
   4  -5  -3  307.78    8.33   0
   4  -3  -1  722.00   10.44   0
   5  -2  -1  102.45    4.94   0
   6  -4  -3  599.22    8.74   0
   6  -3  -2  205.52    7.43   0
   6   0  -1 2220.68   15.95   0
   6   1  -1   56.06    5.63   0
   6   2  -1   72.46    6.19   0
   7  -4  -4  128.99    5.76   0
   7  -3  -3  679.17    8.98   0
   7  -1  -2    6.98    3.75   0
  -6   3  -6   38.33    4.22   0
  -6   7  -6  294.82    7.94   0
  -5   2  -4  280.43    6.30   0
  -5   6  -4   64.85    5.99   0
  -4  10  -5    3.70    6.21   0
  -3   0  -2 2248.57   19.72   0
  -3   8  -3  733.42   11.13   0
  -2   9  -3 1366.39   15.89   0
   3   3   0   66.92    6.36   0
   4   0   0   28.24    5.37   0
   4   1   0    1.89    3.45   0
   5  -4  -2  371.34    8.30   0
   6  -5  -4   30.18    6.61   0
   6  -1  -1  154.46    6.60   0
   7  -2  -2    9.97    5.54   0
   7   4  -2  100.81    7.25   0
   8  -2  -3  133.69    6.98   0
  -6   3  -7   -0.15    6.32   0
  -6   4  -6   35.91    4.48   0
  -6   5  -6  157.07    7.16   0
  -6   6  -6   37.34    4.49   0
  -5   0  -7  215.04    6.74   0
  -5   1  -5    1.73    3.91   0
  -5   3  -4  566.65    9.12   0
  -5   4  -4  868.93   10.32   0
  -5   5  -4   22.55    5.63   0
  -5   8  -5  182.20    6.04   0
  -4  -1  -5  577.75   10.44   0
  -4   1  -3  456.54    8.47   0
  -4   6  -3   40.56    5.40   0
  -2   4  -1 1000.05   14.30   0
  -2   7  -2  516.79   10.70   0
   3  -6  -5  179.16    8.89   0
   4  -6  -5  116.44    7.98   0
   4   2   0  238.01    7.72   0
   5  -5  -3  754.09   11.15   0
   5   7  -2  125.12    8.89   0
   6   3  -1  404.99    8.70   0
   6   6  -2  114.96    7.41   0
  -4   8  -4    4.18    3.98   0
  -3  -2  -4  365.82    9.74   0
  -3   5  -2 1484.14   14.22   0
   4  -1   0 2578.47   18.16   0
   5  -3  -1  405.70    7.32   0
   5   5  -1   24.99    5.58   0
   6  -2  -1 2724.85   17.04   0
   7  -4  -3   17.38    4.55   0
   8  -3  -3  497.89    9.28   0
   8   0  -2    4.33    5.97   0
   8   1  -2   18.07    6.16   0
   8   2  -2   55.25    6.41   0
  -6   4  -7  241.46    6.27   0
  -6   5  -7   17.98    5.77   0
  -6   6  -7   28.94    6.38   0
  -5   1  -6   23.08    5.69   0
  -5   2  -5  199.81    6.81   0
  -5   7  -5   37.21    4.21   0
  -4   0  -4 1057.70   11.87   0
  -4   2  -3    8.99    4.49   0
  -4   5  -3  766.25    9.48   0
  -3  -1  -3   48.77    5.83   0
  -3   9  -4    2.52    5.34   0
  -2   1  -1   19.30    6.54   0
  -2  10  -4    2.95    6.09   0
   2  -2   0 1733.51   19.69   0
   3  -2   0  637.08   10.40   0
   4  -6  -4  145.98    7.32   0
   4   3   0   21.00    5.35   0
   5   0   0    5.65    4.84   0
   5   1   0 1223.94   12.63   0
   6  -5  -3   33.35    6.11   0
   6  -4  -2 1283.19   11.82   0
   7  -3  -2   49.23    4.37   0
   7   0  -1  285.19    7.12   0
   7   1  -1   99.25    6.41   0
   7   5  -2   61.03    6.96   0
   8  -1  -2  158.56    5.52   0
  -5   1  -7  274.85    8.06   0
  -5   6  -5   26.81    5.35   0
  -4  -1  -6  144.87    5.73   0
  -4   3  -3   13.71    5.06   0
  -4   4  -3  122.77    5.04   0
  -4   9  -5   11.35    4.06   0
  -3   1  -2  999.03   12.41   0
  -3   4  -2  166.27    6.59   0
  -2  -3  -4  434.08   12.85   0
  -2   2  -1 5006.17   30.88   0
  -2   3  -1 3225.21   24.13   0
   0   6  -1  584.34   15.98   0
   0   8  -2   -3.14    7.40   0
   1  -5  -3  402.34   15.06   0
   2  -6  -5    7.39    7.82   0
   2   4   0  768.55   18.78   0
   3  -6  -4  102.19    7.94   0
   3  -5  -2   58.68    6.20   0
   3  -4  -1   34.21    5.63   0
   4  -5  -2   10.21    5.17   0
   4  -4  -1    3.64    4.55   0
   4  -2   0 1748.17   15.41   0
   4   6  -1   -1.28    5.72   0
   5  -6  -4   27.96    6.41   0
   5  -1   0  978.71   11.22   0
   6  -3  -1  498.68    8.91   0
   6   4  -1   43.21    4.38   0
   7  -1  -1  831.22   10.08   0
   7   2  -1    5.72    5.49   0
   8  -2  -2  310.37    7.59   0
  -5   3  -5  673.83    8.96   0
  -5   4  -5   55.04    5.76   0
  -5   5  -5  855.74   10.21   0
  -5   8  -6    0.91    4.28   0
  -4  -1  -7    3.45    6.31   0
  -4   7  -4  510.45    8.01   0
  -3   2  -2 3230.46   21.14   0
  -3   3  -2  440.88    9.07   0
  -3   7  -3  707.64    9.62   0
  -3  10  -5    5.84    5.90   0
  -1  -4  -4  521.51   18.94   0
  -1   5  -1 2520.67   24.50   0
  -1   9  -3   61.51    6.86   0
   3   4   0  518.83   12.79   0
   5  -5  -2  120.49    6.38   0
   5   2   0  250.08    6.66   0
   7  -2  -1   16.60    5.63   0
  -5   2  -6   37.55    4.24   0
  -5   7  -6   55.09    5.99   0
  -4   0  -5  270.05    7.67   0
  -4   1  -4  344.49    7.77   0
  -3  -2  -5  291.26    8.70   0
  -2   6  -2  603.24   10.70   0
  -2   8  -3    2.71    5.09   0
   2  -4  -1  196.66    8.08   0
   4   8  -2  150.47   11.07   0
   5  -4  -1  201.07    5.83   0
   5  -2   0    5.36    3.63   0
   7  -5  -3  556.72    8.84   0
   7  -4  -2  198.08    5.81   0
   7   3  -1    3.29    5.78   0
   8  -3  -2   26.87    5.88   0
  -5   2  -7   93.12    6.57   0
  -5   3  -6   44.32    5.83   0
  -4   6  -4  644.94    8.60   0
  -4   8  -5   62.09    5.97   0
  -2  -1  -2  170.66    7.90   0
   2  -5  -2  532.14   11.88   0
   3  -3   0   11.66    5.59   0
   4  -6  -3    4.53    5.60   0
   4  -3   0  257.90    7.32   0
   5  -6  -3   50.00    6.28   0
   5   3   0   60.27    5.70   0
   6  -5  -2   80.71    6.14   0
   6  -1   0    2.23    5.14   0
   6   0   0 1742.25   13.49   0
   6   1   0  326.47    7.99   0
   6   5  -1   61.91    6.40   0
   7  -3  -1   21.61    5.53   0
   8   0  -1   -0.98    5.90   0
  -5   2  -8   40.39    6.39   0
  -5   4  -6  651.35    9.32   0
  -5   5  -6  316.39    7.65   0
  -5   6  -6    1.11    3.85   0
  -5   8  -7   84.66    5.05   0
  -4   2  -4  239.97    6.90   0
  -4   5  -4   30.89    5.58   0
  -4   9  -6   27.35    6.14   0
  -3  -2  -6  223.28    8.40   0
  -3   0  -3 1500.77   15.33   0
  -3   6  -3  945.55   11.62   0
  -3   8  -4 2365.06   17.18   0
  -1   7  -2  810.55   13.68   0
  -1  10  -4   70.40    7.01   0
   2  -6  -4   12.49    7.44   0
   3  -6  -3   52.48    7.52   0
   4   4   0 1252.79   16.04   0
   5  -3   0   16.69    5.15   0
   6  -6  -3   18.47    6.17   0
   6  -4  -1   22.09    3.94   0
   6  -2   0  468.85    8.38   0
   6   2   0  828.46   10.88   0
   7   4  -1    9.09    6.11   0
   8  -1  -1    1.24    4.30   0
   8   1  -1  124.37    5.57   0
  -5   3  -7    6.95    5.53   0
  -5   7  -7   74.05    6.29   0
  -4   0  -6    6.10    3.92   0
  -4   3  -4  155.95    6.27   0
  -4   4  -4  486.56    8.69   0
  -3  -2  -7  120.57    7.49   0
  -3  -1  -4  947.72   13.04   0
  -2  -3  -5    4.98    6.81   0
  -2  -2  -3 3460.90   28.48   0
  -2   9  -4   15.93    5.64   0
   1  -2   0   91.04    8.84   0
   5   6  -1  392.21   10.77   0
   7  -5  -2  367.09    8.75   0
   8  -4  -2  120.09    5.21   0
   8  -2  -1   39.61    4.36   0
   8   2  -1  553.93    8.43   0
  -5   3  -8    0.24    6.37   0
  -5   4  -7  322.40    7.90   0
  -5   5  -7   -1.28    5.82   0
  -5   6  -7 1167.70   11.61   0
  -4   0  -8   -3.33    6.09   0
  -4   0  -7   13.78    5.93   0
  -4   1  -5    8.01    3.85   0
  -4   7  -5  361.46    6.74   0
  -3   9  -5   40.75    6.02   0
   2  -3   0  953.58   14.07   0
   4  -5  -1   10.47    5.15   0
   5  -5  -1  331.00    7.89   0
   6  -3   0   37.14    5.41   0
   7  -4  -1   94.89    4.68   0
   7  -1   0  173.42    6.46   0
   7   0   0  278.02    7.71   0
   7   1   0  471.62    8.75   0
   8  -3  -1  137.05    6.82   0
  -5   4  -8  146.08    7.29   0
  -5   7  -8   -6.19    6.48   0
  -4   8  -6   62.59    6.62   0
  -3   1  -3   62.08    6.05   0
  -3   5  -3  210.33    5.83   0
  -3  10  -6  290.24    7.10   0
  -2   5  -2   99.76    6.16   0
  -2  10  -5  373.87    9.30   0
   0   9  -3  238.99   10.71   0
   1   8  -2   12.06    8.77   0
   3  -5  -1  555.57   10.74   0
   4  -6  -2  271.62    8.45   0
   4  -4   0  755.02   10.37   0
   5  -6  -2   67.63    6.42   0
   5   4   0  188.07    7.58   0
   6  -5  -1  217.66    7.21   0
   6   3   0  168.12    6.10   0
   7  -2   0  375.37    7.85   0
  -5   5  -8  182.89    5.69   0
  -5   6  -8  137.04    5.64   0
  -4   1  -6 1017.65   11.75   0
  -4   2  -5  144.68    6.43   0
  -4   6  -5  384.08    7.04   0
  -4   9  -7  276.48    6.71   0
  -3  -1  -5    5.65    5.48   0
  -3   4  -3   25.10    5.25   0
  -3   7  -4   74.05    4.74   0
  -2  -3  -7   22.89    8.57   0
  -2  -3  -6    7.20    6.43   0
  -2   7  -3  811.53   11.88   0
  -1   4  -1  110.08    7.52   0
   3   0   1 1064.41   13.65   0
   4  -1   1   86.73    6.02   0
   4   0   1   56.98    4.51   0
   4   1   1  333.73    8.25   0
   5  -4   0   56.29    4.19   0
   6  -6  -2    6.54    4.27   0
   7  -3   0   19.32    5.54   0
   7   2   0   19.20    5.69   0
   8  -4  -1  986.32   11.15   0
  -4   1  -7  576.36    9.76   0
  -4   3  -5   75.83    5.74   0
  -4   4  -5   24.87    5.39   0
  -4   5  -5 1880.10   13.64   0
  -4   7  -6  911.17   10.70   0
  -3   2  -3  547.18    9.70   0
  -3   3  -3   70.03    5.75   0
  -2   0  -2  552.97   11.97   0
  -1  -4  -5    5.78    7.40   0
  -1   8  -3  110.33    6.76   0
   3  -4   0 5450.74   27.54   0
   3  -1   1  107.97    5.41   0
   3   1   1  211.07    7.04   0
   4  -7  -4   23.41    7.18   0
   4  -2   1   56.30    5.57   0
   5  -1   1 1174.67   11.56   0
   5   0   1  171.28    5.30   0
   6  -4   0   73.46    4.75   0
   6   6  -1    3.77    6.25   0
   7  -6  -2   31.27    6.60   0
   7  -5  -1   29.33    6.32   0
   8  -1   0    5.45    5.68   0
   8   0   0  122.31    7.21   0
  -4   1  -8  191.10    7.70   0
  -4   2  -6   62.87    5.73   0
  -4   8  -7    0.02    5.53   0
  -3   0  -4  308.12    7.30   0
  -3   8  -5   29.69    4.27   0
  -2   4  -2   75.52    6.45   0
   0  10  -4  314.45    9.89   0
   1  -4  -1  801.82   17.62   0
   2  -6  -3    8.37    6.01   0
   3  -6  -2   97.43    6.52   0
   5  -7  -3   57.25    6.75   0
   5  -2   1   11.84    3.82   0
   5   1   1  177.40    5.64   0
   6   4   0   85.34    6.64   0
   7   3   0  105.53    6.93   0
   8  -2   0  297.17    6.62   0
   8   1   0  288.98    7.94   0
  -4   6  -6   12.04    5.26   0
  -3  -1  -8  223.80    8.30   0
  -3  -1  -7   39.08    5.93   0
  -3  -1  -6   35.76    5.62   0
  -3   6  -4 2191.79   15.10   0
  -3   9  -6   48.31    4.89   0
  -3  10  -7    3.86    4.41   0
  -2   8  -4   29.65    5.78   0
  -1  -4  -7    5.52    8.12   0
  -1  -4  -6    2.78    7.01   0
   2   0   1 5169.48   33.97   0
   3  -2   1 1067.26   12.56   0
   3   2   1   37.49    5.69   0
   3   5   0   41.43    7.53   0
   4   2   1  313.88    8.39   0
   4   5   0  350.61   10.71   0
   5  -6  -1  204.46    7.38   0
   5  -5   0  537.24    9.11   0
   6  -2   1  191.30    6.64   0
   6  -1   1   46.37    4.13   0
   6   0   1  250.43    6.29   0
   7  -4   0  134.81    5.02   0
   8  -3   0  195.63    6.88   0
  -4   2  -7   82.55    6.24   0
  -4   3  -6  154.67    5.12   0
  -4   4  -6    6.59    5.08   0
  -4   5  -6    3.71    4.86   0
  -4   7  -7  481.48    8.52   0
  -2  -2  -4   89.97    6.55   0
  -2   1  -2 1925.36   19.40   0
  -2   3  -2   26.08    5.86   0
  -2   9  -5   66.59    6.05   0
  -1   6  -2    1.75    5.20   0
  -1   9  -4   -1.14    5.33   0
   2  -5  -1  608.25   12.28   0
   2  -1   1   19.44    6.61   0
   2   1   1   14.45    5.70   0
   4  -7  -3  137.05    8.00   0
   4  -6  -1   33.43    5.36   0
   4  -5   0   22.67    4.94   0
   4  -3   1 2516.36   17.40   0
   5  -3   1  117.56    5.09   0
   5   2   1   39.05    5.59   0
   6  -6  -1   49.84    4.43   0
   6  -5   0  167.16    6.75   0
   6  -3   1   48.55    5.36   0
   6   1   1  265.54    6.28   0
   8   2   0  225.19    6.38   0
  -4   2  -9  108.65    5.37   0
  -4   2  -8   80.06    4.81   0
  -4   3  -7  915.96   10.87   0
  -4   6  -7  170.80    6.67   0
  -4   8  -8  401.04    7.13   0
  -3   0  -5  222.75    7.40   0
  -3   1  -4 1146.35   12.28   0
  -3   5  -4    1.19    4.94   0
  -3   7  -5   24.09    5.08   0
  -2  -1  -3  165.91    7.55   0
  -2   2  -2   75.20    6.34   0
  -2   6  -3    3.06    3.13   0
  -2  10  -6  278.26    7.99   0
  -1   3  -1  731.02   14.74   0
  -1  10  -5    0.58    5.87   0
   0   7  -2 1748.08   21.75   0
   2  -4   0  755.23   13.02   0
   3  -7  -4   13.60    8.30   0
   4   7  -1   12.95    7.51   0
   5  -7  -2   -3.20    6.15   0
   5   5   0  330.12    9.95   0
   6  -7  -2   88.74    6.65   0
   7  -6  -1  177.57    5.89   0
   7  -5   0  195.11    7.02   0
   7  -2   1   45.98    5.79   0
   7  -1   1  436.28    7.27   0
   7   0   1    6.18    5.56   0
   8  -4   0   12.53    4.27   0
  -4   3  -8   19.33    5.94   0
  -4   4  -7   35.90    5.35   0
  -4   5  -7    7.07    5.18   0
  -4   7  -8  104.77    6.31   0
  -3   2  -4   90.07    5.63   0
  -3   4  -4  543.36    9.08   0
  -3   8  -6  142.49    6.38   0
  -3   9  -7  376.55    8.30   0
   3  -3   1  122.77    5.50   0
   5  -4   1  398.69    7.86   0
   6   2   1 2534.41   17.31   0
   7  -3   1    8.10    5.63   0
   7   1   1  165.80    6.62   0
   7   4   0  251.03    6.96   0
  -4   3  -9   36.15    4.80   0
  -1   0  -1    2.04    5.65   0
   4  -4   1   56.85    3.99   0
   6  -4   1  852.27    9.51   0
;
_shelx_hkl_checksum              46053
_shelx_res_file
;
    vs3_23.res created by SHELXL-2014/7
TITL vs3_23 in P-1
CELL 0.71073   7.0475   8.9534   9.2802 115.790  95.753  95.791
ZERR    2.00   0.0009   0.0012   0.0013   0.010   0.011   0.010
LATT  1
SFAC C H N O S
UNIT 14 20 4 8 4
SIZE 0.30 0.25 0.15
REM colorless block
ACTA 50
L.S. 10
BOND $H
CONF
FMAP 2
PLAN 10
DFIX 0.88 0.02 N1A H1A
DFIX 0.88 0.02 N3A H3A
DFIX 0.84 0.02 O52A H52A
HTAB
HTAB N1A O11X
HTAB N3A O11X_$1
HTAB O52A O41A
EQIV $1 x+1,y,z
MPLA N1A C2A S21A N3A C4A O41A C5A C51A O51A O52A C6A
TEMP -100
WGHT    0.037000    0.128800
FVAR       1.27803
N1A   3    0.590881    0.206259    0.580157    11.00000    0.01313    0.02449 =
         0.02132    0.01211    0.00230    0.00311
H1A   2    0.485778    0.189718    0.619077    11.00000   -1.20000
C2A   1    0.758067    0.166945    0.634313    11.00000    0.01427    0.01632 =
         0.01903    0.00707    0.00017    0.00058
S21A  5    0.763128    0.082170    0.761805    11.00000    0.01854    0.02907 =
         0.02890    0.02022    0.00037    0.00175
N3A   3    0.918664    0.204143    0.577012    11.00000    0.01226    0.02353 =
         0.02315    0.01232    0.00148    0.00310
H3A   2    1.028460    0.190364    0.621568    11.00000   -1.20000
C4A   1    0.922440    0.268937    0.467351    11.00000    0.01813    0.01751 =
         0.02015    0.00601    0.00450    0.00146
O41A  4    1.075813    0.296046    0.421668    11.00000    0.02201    0.03300 =
         0.03161    0.01654    0.01090    0.00459
C5A   1    0.739563    0.303975    0.413386    11.00000    0.02145    0.01848 =
         0.01781    0.00736    0.00062    0.00200
C51A  1    0.722730    0.375430    0.296073    11.00000    0.03232    0.02170 =
         0.01976    0.00881    0.00264    0.00021
O51A  4    0.574509    0.414221    0.255159    11.00000    0.03556    0.03711 =
         0.03054    0.02205   -0.00224    0.00593
O52A  4    0.882562    0.391297    0.235158    11.00000    0.03880    0.03837 =
         0.02883    0.02167    0.01156    0.00615
H52A  2    0.968988    0.360059    0.276904    11.00000   -1.20000
C6A   1    0.581468    0.272348    0.474628    11.00000    0.01761    0.01837 =
         0.01806    0.00702   -0.00114    0.00304
AFIX  43
H6A   2    0.461485    0.297476    0.442195    11.00000   -1.20000
AFIX   0
S1X   5    0.357290    0.258088    0.898064    11.00000    0.01389    0.02647 =
         0.02053    0.01223    0.00238    0.00437
O11X  4    0.276064    0.177035    0.716891    11.00000    0.01484    0.03616 =
         0.01907    0.01340    0.00160    0.00451
C11X  1    0.280056    0.102769    0.961212    11.00000    0.03383    0.02798 =
         0.03017    0.01813   -0.00047    0.00534
AFIX 137
H1XA  2    0.141097    0.063092    0.923628    11.00000   -1.50000
H1XB  2    0.306334    0.152019    1.079807    11.00000   -1.50000
H1XC  2    0.350384    0.008026    0.914828    11.00000   -1.50000
AFIX   0
C12X  1    0.205215    0.406296    0.997017    11.00000    0.02278    0.02563 =
         0.02647    0.01274    0.00585    0.00747
AFIX 137
H2XA  2    0.217761    0.496367    0.963815    11.00000   -1.50000
H2XB  2    0.243642    0.454159    1.114740    11.00000   -1.50000
H2XC  2    0.070627    0.349853    0.966906    11.00000   -1.50000
AFIX   0
HKLF 4
REM  vs3_23 in P-1
REM R1 =  0.0270 for    1703 Fo > 4sig(Fo)  and  0.0340 for all    1976 data
REM    147 parameters refined using      3 restraints
END
WGHT      0.0370      0.1288
REM Instructions for potential hydrogen bonds
HTAB N1A S1X
HTAB N1A O11X
HTAB N3A O11X_$1
HTAB O52A O41A
EQIV $2 x-1, y, z
HTAB C11X S21A_$2
EQIV $3 x, y, z+1
HTAB C11X O51A_$3
EQIV $4 -x+1, -y+1, -z+1
HTAB C12X O52A_$4
HTAB C12X S21A_$2
REM Highest difference peak  0.397,  deepest hole -0.229,  1-sigma level  0.049
Q1    1   0.8240  0.2923  0.4445  11.00000  0.05    0.35
Q2    1   0.2867  0.3417  0.9564  11.00000  0.05    0.24
Q3    1   0.3164  0.1663  0.9205  11.00000  0.05    0.23
Q4    1   0.7274  0.3385  0.3624  11.00000  0.05    0.23
Q5    1   0.6698  0.1885  0.5954  11.00000  0.05    0.21
Q6    1   0.4772  0.3167  0.9207  11.00000  0.05    0.19
Q7    1   0.9348 -0.0385  0.6242  11.00000  0.05    0.17
Q8    1   0.7881  0.3482  0.2343  11.00000  0.05    0.17
Q9    1   0.6670  0.3295  0.4708  11.00000  0.05    0.17
Q10   1   0.6548  0.2661  0.4151  11.00000  0.05    0.16
;
_shelx_res_checksum              56172
loop_
_space_group_symop_operation_xyz
'x, y, z'
'-x, -y, -z'
loop_
_atom_site_type_symbol
_atom_site_label
_atom_site_fract_x
_atom_site_fract_y
_atom_site_fract_z
_atom_site_U_iso_or_equiv
_atom_site_adp_type
_atom_site_calc_flag
_atom_site_occupancy
N N1A 0.59088(19) 0.20626(17) 0.58016(17) 0.0190(3) Uani d 1
H H1A 0.486(2) 0.190(2) 0.619(2) 0.023 Uiso d 1
C C2A 0.7581(2) 0.16694(19) 0.63431(19) 0.0172(3) Uani d 1
S S21A 0.76313(6) 0.08217(5) 0.76181(5) 0.02329(13) Uani d 1
N N3A 0.91866(18) 0.20414(17) 0.57701(17) 0.0191(3) Uani d 1
H H3A 1.028(2) 0.190(2) 0.622(2) 0.023 Uiso d 1
C C4A 0.9224(2) 0.2689(2) 0.4674(2) 0.0195(3) Uani d 1
O O41A 1.07581(17) 0.29605(16) 0.42167(16) 0.0276(3) Uani d 1
C C5A 0.7396(2) 0.3040(2) 0.4134(2) 0.0198(3) Uani d 1
C C51A 0.7227(3) 0.3754(2) 0.2961(2) 0.0252(4) Uani d 1
O O51A 0.57451(19) 0.41422(17) 0.25516(17) 0.0325(3) Uani d 1
O O52A 0.8826(2) 0.39130(18) 0.23516(17) 0.0325(3) Uani d 1
H H52A 0.969(3) 0.360(3) 0.277(3) 0.039 Uiso d 1
C C6A 0.5815(2) 0.27235(19) 0.47463(19) 0.0187(3) Uani d 1
H H6A 0.4615 0.2975 0.4422 0.022 Uiso calc 1
S S1X 0.35729(5) 0.25809(5) 0.89806(5) 0.01963(12) Uani d 1
O O11X 0.27606(15) 0.17703(15) 0.71689(14) 0.0231(3) Uani d 1
C C11X 0.2801(3) 0.1028(2) 0.9612(2) 0.0292(4) Uani d 1
H H1XA 0.1411 0.0631 0.9236 0.044 Uiso calc 1
H H1XB 0.3063 0.1520 1.0798 0.044 Uiso calc 1
H H1XC 0.3504 0.0080 0.9148 0.044 Uiso calc 1
C C12X 0.2052(2) 0.4063(2) 0.9970(2) 0.0242(4) Uani d 1
H H2XA 0.2178 0.4964 0.9638 0.036 Uiso calc 1
H H2XB 0.2436 0.4542 1.1147 0.036 Uiso calc 1
H H2XC 0.0706 0.3499 0.9669 0.036 Uiso calc 1
loop_
_atom_site_aniso_label
_atom_site_aniso_U_11
_atom_site_aniso_U_22
_atom_site_aniso_U_33
_atom_site_aniso_U_12
_atom_site_aniso_U_13
_atom_site_aniso_U_23
N1A 0.0131(6) 0.0245(7) 0.0213(7) 0.0031(5) 0.0023(5) 0.0121(6)
C2A 0.0143(7) 0.0163(7) 0.0190(8) 0.0006(6) 0.0002(6) 0.0071(6)
S21A 0.0185(2) 0.0291(2) 0.0289(2) 0.00175(16) 0.00037(17) 0.0202(2)
N3A 0.0123(6) 0.0235(7) 0.0232(7) 0.0031(5) 0.0015(5) 0.0123(6)
C4A 0.0181(8) 0.0175(8) 0.0202(8) 0.0015(6) 0.0045(6) 0.0060(7)
O41A 0.0220(6) 0.0330(7) 0.0316(7) 0.0046(5) 0.0109(5) 0.0165(6)
C5A 0.0215(8) 0.0185(8) 0.0178(8) 0.0020(6) 0.0006(6) 0.0074(7)
C51A 0.0323(9) 0.0217(8) 0.0198(9) 0.0002(7) 0.0026(7) 0.0088(7)
O51A 0.0356(7) 0.0371(7) 0.0305(7) 0.0059(6) -0.0022(6) 0.0220(6)
O52A 0.0388(8) 0.0384(8) 0.0288(7) 0.0062(6) 0.0116(6) 0.0217(6)
C6A 0.0176(7) 0.0184(7) 0.0181(8) 0.0030(6) -0.0011(6) 0.0070(7)
S1X 0.01389(19) 0.0265(2) 0.0205(2) 0.00437(15) 0.00238(15) 0.01223(17)
O11X 0.0148(5) 0.0362(7) 0.0191(6) 0.0045(5) 0.0016(5) 0.0134(5)
C11X 0.0338(9) 0.0280(9) 0.0302(10) 0.0053(8) -0.0005(8) 0.0181(8)
C12X 0.0228(8) 0.0256(8) 0.0265(9) 0.0075(7) 0.0058(7) 0.0127(7)
loop_
_atom_type_symbol
_atom_type_description
_atom_type_scat_dispersion_real
_atom_type_scat_dispersion_imag
_atom_type_scat_source
C C 0.0033 0.0016 'International Tables Vol C Tables 4.2.6.8 and 6.1.1.4'
H H 0.0000 0.0000 'International Tables Vol C Tables 4.2.6.8 and 6.1.1.4'
N N 0.0061 0.0033 'International Tables Vol C Tables 4.2.6.8 and 6.1.1.4'
O O 0.0106 0.0060 'International Tables Vol C Tables 4.2.6.8 and 6.1.1.4'
S S 0.1246 0.1234 'International Tables Vol C Tables 4.2.6.8 and 6.1.1.4'
loop_
_geom_angle_atom_site_label_1
_geom_angle_atom_site_label_2
_geom_angle_atom_site_label_3
_geom_angle
C6A N1A C2A 123.20(14)
C6A N1A H1A 119.0(13)
C2A N1A H1A 117.8(13)
N3A C2A N1A 115.25(14)
N3A C2A S21A 122.94(12)
N1A C2A S21A 121.81(12)
C2A N3A C4A 125.63(13)
C2A N3A H3A 114.8(13)
C4A N3A H3A 119.4(13)
O41A C4A N3A 120.45(14)
O41A C4A C5A 123.73(15)
N3A C4A C5A 115.81(14)
C6A C5A C4A 118.48(15)
C6A C5A C51A 119.91(14)
C4A C5A C51A 121.60(15)
O51A C51A O52A 121.60(16)
O51A C51A C5A 123.16(16)
O52A C51A C5A 115.22(15)
C51A O52A H52A 108.5(17)
N1A C6A C5A 121.57(14)
N1A C6A H6A 119.2
C5A C6A H6A 119.2
O11X S1X C12X 106.23(8)
O11X S1X C11X 104.29(8)
C12X S1X C11X 98.50(9)
S1X C11X H1XA 109.5
S1X C11X H1XB 109.5
H1XA C11X H1XB 109.5
S1X C11X H1XC 109.5
H1XA C11X H1XC 109.5
H1XB C11X H1XC 109.5
S1X C12X H2XA 109.5
S1X C12X H2XB 109.5
H2XA C12X H2XB 109.5
S1X C12X H2XC 109.5
H2XA C12X H2XC 109.5
H2XB C12X H2XC 109.5
loop_
_geom_bond_atom_site_label_1
_geom_bond_atom_site_label_2
_geom_bond_distance
N1A C6A 1.346(2)
N1A C2A 1.372(2)
N1A H1A 0.883(15)
C2A N3A 1.369(2)
C2A S21A 1.6600(16)
N3A C4A 1.374(2)
N3A H3A 0.886(15)
C4A O41A 1.239(2)
C4A C5A 1.449(2)
C5A C6A 1.359(2)
C5A C51A 1.485(2)
C51A O51A 1.210(2)
C51A O52A 1.332(2)
O52A H52A 0.825(16)
C6A H6A 0.9500
S1X O11X 1.5306(12)
S1X C12X 1.7823(17)
S1X C11X 1.7871(18)
C11X H1XA 0.9800
C11X H1XB 0.9800
C11X H1XC 0.9800
C12X H2XA 0.9800
C12X H2XB 0.9800
C12X H2XC 0.9800
loop_
_geom_hbond_atom_site_label_D
_geom_hbond_atom_site_label_H
_geom_hbond_atom_site_label_A
_geom_hbond_site_symmetry_A
_geom_hbond_distance_DH
_geom_hbond_distance_HA
_geom_hbond_distance_DA
_geom_hbond_angle_DHA
N1A H1A O11X . 0.883(15) 1.829(15) 2.7087(17) 174.1(19)
N3A H3A O11X 1_655 0.886(15) 1.915(15) 2.7983(18) 175.2(19)
O52A H52A O41A . 0.825(16) 1.804(18) 2.5738(19) 155(2)
loop_
_geom_torsion_atom_site_label_1
_geom_torsion_atom_site_label_2
_geom_torsion_atom_site_label_3
_geom_torsion_atom_site_label_4
_geom_torsion
C6A N1A C2A N3A 1.8(2)
C6A N1A C2A S21A -178.80(12)
N1A C2A N3A C4A -3.0(2)
S21A C2A N3A C4A 177.66(13)
C2A N3A C4A O41A -179.03(15)
C2A N3A C4A C5A 1.8(2)
O41A C4A C5A C6A -178.59(16)
N3A C4A C5A C6A 0.5(2)
O41A C4A C5A C51A 0.4(3)
N3A C4A C5A C51A 179.53(15)
C6A C5A C51A O51A 3.0(3)
C4A C5A C51A O51A -176.02(17)
C6A C5A C51A O52A -175.72(15)
C4A C5A C51A O52A 5.3(2)
C2A N1A C6A C5A 0.4(2)
C4A C5A C6A N1A -1.6(2)
C51A C5A C6A N1A 179.42(15)
