#------------------------------------------------------------------------------
#$Date: 2015-11-14 03:52:11 +0200 (Sat, 14 Nov 2015) $
#$Revision: 170285 $
#$URL: svn://www.crystallography.net/cod/cif/2/02/02/2020294.cif $
#------------------------------------------------------------------------------
#
# This file is available in the Crystallography Open Database (COD),
# http://www.crystallography.net/. The original data for this entry
# were provided by IUCr Journals, http://journals.iucr.org/.
#
# The file may be used within the scientific community so long as
# proper attribution is given to the journal article from which the
# data were obtained.
#
data_2020294
loop_
_publ_author_name
'Acosta, Lina M.'
'Jurado, Jorge'
'Palma, Alirio'
'Cobo, Justo'
'Glidewell, Christopher'
_publ_section_title
;
 Five closely related
 4-chloro-6,11-dihydro-5<i>H</i>-benzo[<i>b</i>]pyrimido[5,4-<i>f</i>]azepines:
 similar molecular structures but different supramolecular assemblies
;
_journal_coeditor_code           YF3094
_journal_issue                   12
_journal_name_full               'Acta Crystallographica Section C'
_journal_page_first
;
;
_journal_paper_doi               10.1107/S2053229615020811
_journal_volume                  71
_journal_year                    2015
_chemical_formula_iupac          'C14 H14 Cl N3'
_chemical_formula_moiety         'C14 H14 Cl N3'
_chemical_formula_sum            'C14 H14 Cl N3'
_chemical_formula_weight         259.73
_chemical_name_systematic
(6<i>RS</i>)-4-Chloro-6,11-dimethyl-6,11-dihydro-5<i>H</i>-benzo[<i>b</i>]pyrimido[5,4-<i>f</i>]azepine
_space_group_crystal_system      triclinic
_space_group_IT_number           2
_space_group_name_Hall           '-P 1'
_space_group_name_H-M_alt        'P -1'
_symmetry_space_group_name_Hall  '-P 1'
_symmetry_space_group_name_H-M   'P -1'
_atom_sites_solution_hydrogens   geom
_audit_creation_method           SHELXL2014
_cell_angle_alpha                92.649(13)
_cell_angle_beta                 113.635(9)
_cell_angle_gamma                100.632(12)
_cell_formula_units_Z            2
_cell_length_a                   8.6570(5)
_cell_length_b                   8.8622(17)
_cell_length_c                   9.0321(11)
_cell_measurement_reflns_used    2836
_cell_measurement_temperature    120(2)
_cell_measurement_theta_max      27.494
_cell_measurement_theta_min      2.766
_cell_volume                     618.34(16)
_computing_cell_refinement
;
DIRAX/LSQ (Duisenberg <i>et al.</i>,  2000)
;
_computing_data_collection
;
COLLECT (Nonius, 1999)
;
_computing_data_reduction
;
EVALCCD (Duisenberg <i>et al.</i>,  2003)
;
_computing_molecular_graphics
;
PLATON (Spek, 2009)
;
_computing_publication_material
;
SHELXL2014 (Sheldrick, 2015) and PLATON (Spek, 2009)
;
_computing_structure_refinement
;
SHELXL2014 (Sheldrick, 2015)
;
_computing_structure_solution
;
SHELXS97 (Sheldrick, 2008)
;
_diffrn_ambient_temperature      120(2)
_diffrn_detector_area_resol_mean 9.091
_diffrn_measured_fraction_theta_full 0.995
_diffrn_measured_fraction_theta_max 0.994
_diffrn_measurement_device_type  'Bruker Nonius KappaCCD area-detector'
_diffrn_measurement_method       '\f and \w'
_diffrn_radiation_monochromator  graphite
_diffrn_radiation_source         'Bruker Nonius FR591 rotating anode'
_diffrn_radiation_type           MoK\a
_diffrn_radiation_wavelength     0.71073
_diffrn_reflns_av_R_equivalents  0.0809
_diffrn_reflns_limit_h_max       11
_diffrn_reflns_limit_h_min       -11
_diffrn_reflns_limit_k_max       11
_diffrn_reflns_limit_k_min       -11
_diffrn_reflns_limit_l_max       11
_diffrn_reflns_limit_l_min       -11
_diffrn_reflns_number            11681
_diffrn_reflns_theta_full        25.242
_diffrn_reflns_theta_max         27.494
_diffrn_reflns_theta_min         2.766
_diffrn_standards_decay_%        0
_diffrn_standards_interval_count 0
_diffrn_standards_interval_time  0
_diffrn_standards_number         0
_exptl_absorpt_coefficient_mu    0.293
_exptl_absorpt_correction_T_max  0.951
_exptl_absorpt_correction_T_min  0.719
_exptl_absorpt_correction_type   multi-scan
_exptl_absorpt_process_details
;
(SADABS; Sheldrick, 2003)
;
_exptl_crystal_colour            colourless
_exptl_crystal_density_diffrn    1.395
_exptl_crystal_description       block
_exptl_crystal_F_000             272
_exptl_crystal_size_max          0.370
_exptl_crystal_size_mid          0.210
_exptl_crystal_size_min          0.170
_refine_diff_density_max         0.405
_refine_diff_density_min         -0.388
_refine_ls_extinction_method     none
_refine_ls_goodness_of_fit_ref   1.082
_refine_ls_hydrogen_treatment    constr
_refine_ls_matrix_type           full
_refine_ls_number_parameters     165
_refine_ls_number_reflns         2835
_refine_ls_number_restraints     0
_refine_ls_restrained_S_all      1.082
_refine_ls_R_factor_all          0.0858
_refine_ls_R_factor_gt           0.0528
_refine_ls_shift/su_max          0.000
_refine_ls_shift/su_mean         0.000
_refine_ls_structure_factor_coef Fsqd
_refine_ls_weighting_details
'w = 1/[\s^2^(Fo^2^)+(0.0422P)^2^+0.6668P] where P=(Fo^2^+2Fc^2^)/3'
_refine_ls_weighting_scheme      calc
_refine_ls_wR_factor_gt          0.1163
_refine_ls_wR_factor_ref         0.1362
_reflns_number_gt                2068
_reflns_number_total             2835
_reflns_threshold_expression     I>2\s(I)
_cod_data_source_file            yf3094sup1.cif
_cod_data_source_block           I
_cod_database_code               2020294
_shelx_space_group_comment
;
The symmetry employed for this shelxl refinement is uniquely defined
by the following loop, which should always be used as a source of
symmetry information in preference to the above space-group names.
They are only intended as comments.
;
_shelx_estimated_absorpt_t_min   0.899
_shelx_estimated_absorpt_t_max   0.952
_shelx_hkl_file
;
 -11   0   4   28.20   20.82   1
 -11   0   5   65.93   21.76   1
 -11   1   3  -23.43   22.26   1
 -11   1   4  143.52   27.31   1
 -11   1   6   27.35   20.19   1
 -11   2   3  396.01   42.98   1
 -11   2   4   79.39   22.81   1
 -11   2   5  135.02   25.80   1
 -11   2   6  -10.24   22.21   1
 -11   3   3   19.10   25.35   1
 -11   3   5  106.71   20.25   1
 -11   4   4    4.75   25.20   1
 -10  -2   3   61.94   11.49   1
 -10  -2   4   78.50   20.20   1
 -10  -1   1  195.16   26.54   1
 -10  -1   2   -9.42   11.60   1
 -10  -1   2   13.76   19.66   1
 -10  -1   3   60.37    9.63   1
 -10  -1   3   74.48    9.84   1
 -10  -1   4  158.51   26.94   1
 -10  -1   4  220.23   29.09   1
 -10  -1   5   95.65   24.06   1
 -10  -1   5  125.66   26.01   1
 -10   0   0   -0.14   14.18   1
 -10   0   0   11.70   19.97   1
 -10   0   1  149.82   24.97   1
 -10   0   1  126.11   16.62   1
 -10   0   2  -17.06   17.35   1
 -10   0   2  -13.62   22.07   1
 -10   0   2   10.37   10.37   1
 -10   0   3   28.20   21.77   1
 -10   0   3  -17.81   20.76   1
 -10   0   4  -38.69   22.52   1
 -10   0   4    4.33   21.05   1
 -10   0   5    4.97   20.34   1
 -10   0   6   24.11   20.33   1
 -10   1   0   16.24   13.70   1
 -10   1   1  439.74   38.58   1
 -10   1   1  507.60   47.76   1
 -10   1   1  500.42   47.42   1
 -10   1   2  104.24   25.32   1
 -10   1   2  113.00   23.39   1
 -10   1   2   77.44   10.91   1
 -10   1   3  495.06   51.62   1
 -10   1   3  573.12   54.10   1
 -10   1   4   30.03   22.47   1
 -10   1   5   52.42   23.17   1
 -10   1   6  -41.22   20.93   1
 -10   1   7   94.67   22.38   1
 -10   2   0   18.06   13.35   1
 -10   2   1   12.04   20.54   1
 -10   2   2   28.20   26.34   1
 -10   2   2   -3.03    8.07   1
 -10   2   3    8.18   22.54   1
 -10   2   4   24.80   24.40   1
 -10   2   5  101.81   24.62   1
 -10   2   6   68.89   24.40   1
 -10   2   7   17.56   18.94   1
 -10   3   0   85.19   16.06   1
 -10   3   1   60.06   12.24   1
 -10   3   2    9.99    8.28   1
 -10   3   2   32.38   28.11   1
 -10   3   3   43.82   26.48   1
 -10   3   4  -18.75   18.27   1
 -10   3   5  371.33   37.38   1
 -10   3   6  129.05   27.95   1
 -10   3   7   64.00   21.12   1
 -10   4   0   98.80   15.71   1
 -10   4   1   23.72   11.69   1
 -10   4   2  189.89   33.35   1
 -10   4   2  193.77   18.10   1
 -10   4   3   12.74   27.92   1
 -10   4   4  121.44   22.70   1
 -10   4   5  275.56   34.53   1
 -10   4   6  183.87   29.02   1
 -10   4   8  179.56   27.07   1
 -10   5   0  162.56   18.87   1
 -10   5   1   12.25   11.06   1
 -10   5   1  -24.80   18.33   1
 -10   5   2    7.13    9.51   1
 -10   5   2   16.56   16.44   1
 -10   5   3   30.80   27.42   1
 -10   5   3   26.11   17.99   1
 -10   5   4   99.60   20.16   1
 -10   5   4  141.61   28.80   1
 -10   5   5  214.92   25.51   1
 -10   5   5  208.80   26.01   1
 -10   5   6   11.09   17.38   1
 -10   5   6   16.08   22.30   1
 -10   5   7   28.73   21.33   1
 -10   5   7   42.12   18.30   1
 -10   6   1  274.90   27.19   1
 -10   6   2  227.10   25.32   1
 -10   6   3  153.51   30.98   1
 -10   6   3  136.66   21.04   1
 -10   6   4   26.32   25.75   1
 -10   6   5   37.82   17.71   1
 -10   6   6  106.50   23.94   1
 -10   6   6   91.78   19.73   1
 -10   7   3   13.54   16.34   1
 -10   7   3   -3.39   24.10   1
 -10   7   4    3.35   24.49   1
 -10   7   4   38.81   17.07   1
  -9  -5   4   31.36   13.55   1
  -9  -5   5    3.24   12.56   1
  -9  -4   2  146.65   20.34   1
  -9  -4   3    7.08   12.71   1
  -9  -4   4   63.04   13.66   1
  -9  -4   5   14.98   10.45   1
  -9  -4   6   59.14   22.45   1
  -9  -4   6   20.34    8.21   1
  -9  -3   0   -5.76   16.08   1
  -9  -3   2  602.21   62.82   1
  -9  -3   2  815.67   62.26   1
  -9  -3   2  776.74   62.99   1
  -9  -3   3   93.70   20.72   1
  -9  -3   3   97.22   24.06   1
  -9  -3   3   62.57   13.29   1
  -9  -3   4   28.73   22.30   1
  -9  -3   4   49.84   10.87   1
  -9  -3   5   10.11    7.12   1
  -9  -3   5   47.75   20.45   1
  -9  -3   6   25.91   22.60   1
  -9  -2  -1  102.21   20.42   1
  -9  -2   0    4.49   17.98   1
  -9  -2   1  -10.05   19.97   1
  -9  -2   2  776.74   62.43   1
  -9  -2   2  680.69   57.40   1
  -9  -2   2  794.11   67.07   1
  -9  -2   3  227.71   29.88   1
  -9  -2   3  172.92   18.94   1
  -9  -2   3  197.12   27.24   1
  -9  -2   4  237.47   27.12   1
  -9  -2   4  184.69   21.47   1
  -9  -2   4  238.08   29.63   1
  -9  -1  -1  -22.85   18.83   1
  -9  -1   0   51.27   21.05   1
  -9  -1   1   86.68   26.07   1
  -9  -1   1  126.11   23.58   1
  -9  -1   2  344.10   33.76   1
  -9  -1   2  271.26   32.61   1
  -9  -1   2  323.64   31.30   1
  -9  -1   3  -22.18   21.01   1
  -9  -1   3    2.69    9.54   1
  -9  -1   4  235.01   29.13   1
  -9  -1   4  225.30   28.82   1
  -9  -1   5  433.89   40.41   1
  -9  -1   5  452.41   44.67   1
  -9   0  -1  202.78   30.76   1
  -9   0   0    1.44   21.67   1
  -9   0   0   15.68   20.43   1
  -9   0   1   10.89   23.76   1
  -9   0   1    1.02   21.88   1
  -9   0   2   42.38   18.49   1
  -9   0   2   42.64   10.97   1
  -9   0   2   22.00   23.07   1
  -9   0   3   90.25   23.18   1
  -9   0   3   56.10   17.98   1
  -9   0   4   96.43   22.59   1
  -9   0   4   57.00   24.01   1
  -9   0   5  202.49   28.46   1
  -9   1  -2   52.56   19.58   1
  -9   1  -2   21.72   22.27   1
  -9   1  -1    6.50   19.38   1
  -9   1  -1   13.99   16.61   1
  -9   1   0    7.02   15.37   1
  -9   1   0   -3.92   22.93   1
  -9   1   1   39.56   13.59   1
  -9   1   1   -3.53   21.32   1
  -9   1   1   22.37   22.99   1
  -9   1   2   -1.90   23.52   1
  -9   1   2    7.95    8.52   1
  -9   1   2    9.67   22.95   1
  -9   1   3  203.63   29.40   1
  -9   1   3  267.00   31.05   1
  -9   1   4  221.71   30.97   1
  -9   1   5  526.70   49.11   1
  -9   1   6   -0.71   17.10   1
  -9   1   7   40.58   21.02   1
  -9   2  -2  104.45   20.64   1
  -9   2  -2  144.24   22.82   1
  -9   2  -1  107.54   22.81   1
  -9   2  -1   68.06   17.16   1
  -9   2   0    3.76   12.92   1
  -9   2   0   13.10   20.20   1
  -9   2   1  274.90   28.19   1
  -9   2   1  381.03   37.48   1
  -9   2   2  278.89   25.72   1
  -9   2   2  345.22   37.53   1
  -9   2   3   62.41   22.44   1
  -9   2   4  -16.32   23.76   1
  -9   2   5  416.57   42.04   1
  -9   2   6   87.24   23.16   1
  -9   2   7  123.65   24.24   1
  -9   3  -1   29.70   19.73   1
  -9   3  -1   34.81   16.40   1
  -9   3   0   -2.19   13.56   1
  -9   3   1  541.03   46.05   1
  -9   3   2   35.52   26.46   1
  -9   3   2    1.54    8.68   1
  -9   3   3  300.68   37.11   1
  -9   3   4   24.60   25.00   1
  -9   3   5   13.40   22.03   1
  -9   3   6  -23.23   21.59   1
  -9   3   7   45.56   21.74   1
  -9   4  -2   10.76   18.17   1
  -9   4  -1  113.21   21.07   1
  -9   4   0   79.74   15.18   1
  -9   4   1   64.32   20.21   1
  -9   4   1   49.42   13.64   1
  -9   4   2   25.30    9.05   1
  -9   4   2   15.60   18.41   1
  -9   4   3  283.25   28.61   1
  -9   4   3  314.00   37.92   1
  -9   4   4  430.98   39.03   1
  -9   4   4  515.29   45.85   1
  -9   4   5   45.70   19.60   1
  -9   4   5   78.85   23.62   1
  -9   4   6   36.97   14.59   1
  -9   4   7   29.27   17.74   1
  -9   5  -2    7.18   17.85   1
  -9   5  -1    5.76   15.46   1
  -9   5  -1  -10.76   15.61   1
  -9   5   0  332.70   31.01   1
  -9   5   0  339.66   32.44   1
  -9   5   1   66.42   15.48   1
  -9   5   2   26.32   17.44   1
  -9   5   2   23.33   12.36   1
  -9   5   3   56.85   18.25   1
  -9   5   4  668.74   53.79   1
  -9   5   4  554.13   47.55   1
  -9   5   5   25.40   13.91   1
  -9   5   5  -16.16   22.59   1
  -9   5   6  136.19   21.01   1
  -9   5   6  135.72   24.46   1
  -9   5   7    9.92   17.83   1
  -9   5   7    9.92   22.18   1
  -9   5   8   18.06   17.59   1
  -9   5   8   36.60   17.67   1
  -9   6  -1   54.32   17.25   1
  -9   6  -1   70.90   17.68   1
  -9   6   0   68.39   16.37   1
  -9   6   0   94.28   19.03   1
  -9   6   1   15.21   17.08   1
  -9   6   1   26.11   13.18   1
  -9   6   2   49.84   13.70   1
  -9   6   2   50.84   17.25   1
  -9   6   3   22.85   25.72   1
  -9   6   3  -42.90   18.73   1
  -9   6   4  293.78   36.68   1
  -9   6   4  293.09   29.79   1
  -9   6   5   17.64   17.30   1
  -9   6   5  -44.36   23.71   1
  -9   6   6  267.98   27.83   1
  -9   6   6  310.46   32.07   1
  -9   6   8   41.99   20.35   1
  -9   7   0    6.35   17.19   1
  -9   7   1   -9.86   18.09   1
  -9   7   1    1.32   13.80   1
  -9   7   2   41.86   14.10   1
  -9   7   3  -20.43   17.18   1
  -9   7   3   52.56   25.52   1
  -9   7   4   86.30   25.83   1
  -9   7   4   77.26   19.34   1
  -9   7   5    5.20    6.89   1
  -9   7   5   -6.92   13.68   1
  -9   7   5  -11.29   23.65   1
  -9   7   6   45.43   21.97   1
  -9   7   6   -2.04   18.50   1
  -9   7   7  -11.16   18.97   1
  -9   7   7    3.46   19.20   1
  -9   8   1   51.12   16.73   1
  -9   8   2  303.11   28.90   1
  -9   8   2  290.70   26.60   1
  -9   8   3    0.46   16.85   1
  -9   8   3   55.06   24.04   1
  -9   8   4   58.83   18.56   1
  -9   8   4   72.76   24.91   1
  -8  -6   2   15.05   17.30   1
  -8  -6   3   19.27   17.21   1
  -8  -6   5    4.93   14.65   1
  -8  -6   6   -5.71   13.53   1
  -8  -6   6   -6.76   20.23   1
  -8  -5   0  228.61   26.91   1
  -8  -5   1   25.20   17.17   1
  -8  -5   2  234.70   34.01   1
  -8  -5   2  238.70   25.65   1
  -8  -5   3   42.38   15.49   1
  -8  -5   3    8.07   24.14   1
  -8  -5   4  176.09   29.19   1
  -8  -5   4  191.82   22.16   1
  -8  -5   5  394.82   32.59   1
  -8  -5   5  390.46   43.87   1
  -8  -5   6  236.54   22.76   1
  -8  -5   6  187.14   51.16   1
  -8  -5   7  129.28   25.70   1
  -8  -5   7   99.00   13.93   1
  -8  -4  -1   76.21   15.02   1
  -8  -4   0   42.25   17.94   1
  -8  -4   0   52.85   15.12   1
  -8  -4   1   94.28   18.64   1
  -8  -4   1   78.85   18.47   1
  -8  -4   1  126.79   27.92   1
  -8  -4   2   80.46   18.12   1
  -8  -4   2   50.27   26.94   1
  -8  -4   2   90.44   18.26   1
  -8  -4   3  -12.82   23.27   1
  -8  -4   3   26.73   15.20   1
  -8  -4   4   39.82   24.74   1
  -8  -4   4   25.40   14.41   1
  -8  -4   5  125.22   26.41   1
  -8  -4   5  126.11   16.40   1
  -8  -4   6  192.38   19.42   1
  -8  -4   6  249.32   29.69   1
  -8  -3  -2  186.32   21.02   1
  -8  -3   0   70.39   18.63   1
  -8  -3   0   80.10   27.92   1
  -8  -3   1    4.71   15.41   1
  -8  -3   1   27.77   24.98   1
  -8  -3   2  253.13   30.55   1
  -8  -3   2  296.18   36.14   1
  -8  -3   2  330.15   27.98   1
  -8  -3   3   22.18   19.31   1
  -8  -3   3   37.33   13.44   1
  -8  -3   3   52.13   24.98   1
  -8  -3   4  175.56   18.55   1
  -8  -3   5  252.81   31.80   1
  -8  -3   6   -4.58    7.53   1
  -8  -3   6    8.64   23.52   1
  -8  -2  -2  165.64   29.60   1
  -8  -2  -2  100.40   21.04   1
  -8  -2  -1  -29.81   18.35   1
  -8  -2   0  -29.16   18.90   1
  -8  -2   0  -18.92   25.84   1
  -8  -2   1   24.70   18.49   1
  -8  -2   1  -15.21   24.02   1
  -8  -2   2    7.24   11.57   1
  -8  -2   2    5.66   17.75   1
  -8  -2   3   37.82   20.66   1
  -8  -2   3   53.73   12.17   1
  -8  -2   4  219.63   28.75   1
  -8  -2   4  147.38   17.24   1
  -8  -2   5  334.89   36.97   1
  -8  -1  -3  191.82   25.21   1
  -8  -1  -3  134.33   28.98   1
  -8  -1  -2  -19.80   23.23   1
  -8  -1  -1  192.10   25.23   1
  -8  -1  -1  166.15   28.36   1
  -8  -1   0   -4.37   21.36   1
  -8  -1   0   26.21   25.29   1
  -8  -1   1   55.95   20.79   1
  -8  -1   1   55.35   22.77   1
  -8  -1   2  236.24   23.06   1
  -8  -1   2  282.58   32.61   1
  -8  -1   2  287.98   29.53   1
  -8  -1   3    0.06    8.04   1
  -8  -1   3   23.23   20.63   1
  -8  -1   3    7.84   21.78   1
  -8  -1   4  210.83   28.46   1
  -8  -1   4  167.18   25.86   1
  -8  -1   5   26.94   24.50   1
  -8  -1   5   42.38   21.61   1
  -8   0  -3  163.33   24.54   1
  -8   0  -3  187.69   29.59   1
  -8   0  -2    9.86   20.54   1
  -8   0  -2   21.34   16.72   1
  -8   0  -1  695.90   66.48   1
  -8   0   0   -0.25   24.55   1
  -8   0   1  369.02   39.19   1
  -8   0   1  358.72   36.74   1
  -8   0   2  142.80   26.77   1
  -8   0   2  168.22   27.24   1
  -8   0   3  420.66   42.66   1
  -8   0   3  496.40   45.01   1
  -8   0   4   20.16   22.09   1
  -8   0   4   15.52   20.65   1
  -8   0   5  182.25   27.27   1
  -8   0   6   98.80   21.47   1
  -8   1  -4   18.15   17.21   1
  -8   1  -3  149.33   28.35   1
  -8   1  -3  171.35   22.51   1
  -8   1  -2   18.06   14.28   1
  -8   1  -2  -29.27   24.13   1
  -8   1  -1  270.93   35.88   1
  -8   1   0    7.62   14.30   1
  -8   1   0   35.76   20.45   1
  -8   1   1   72.25   23.63   1
  -8   1   1   43.30   12.50   1
  -8   1   2   -1.74    8.08   1
  -8   1   2  -27.88   25.34   1
  -8   1   2    4.97   21.90   1
  -8   1   3   10.82   22.64   1
  -8   1   3    2.86   23.49   1
  -8   1   4   43.69   22.87   1
  -8   1   5  533.61   45.28   1
  -8   1   6  536.39   44.47   1
  -8   2  -4    5.43   17.89   1
  -8   2  -3  578.88   54.38   1
  -8   2  -3  560.74   47.83   1
  -8   2  -3  460.53   45.07   1
  -8   2  -2   53.44   12.57   1
  -8   2  -2   65.61   22.52   1
  -8   2  -2   55.80   18.97   1
  -8   2  -1  365.57   36.71   1
  -8   2  -1  331.60   31.69   1
  -8   2   0  155.25   24.92   1
  -8   2   0  216.38   20.59   1
  -8   2   1  324.36   35.66   1
  -8   2   2    2.22    8.17   1
  -8   2   2   -4.37   19.69   1
  -8   2   3  -39.44   24.74   1
  -8   2   4   54.61   22.61   1
  -8   2   5   85.75   21.85   1
  -8   2   6  130.87   24.25   1
  -8   2   7    8.47   19.79   1
  -8   3  -4  -33.18   20.51   1
  -8   3  -4  -14.29   13.99   1
  -8   3  -4    1.64   11.78   1
  -8   3  -3   38.44   13.39   1
  -8   3  -3   56.70   17.77   1
  -8   3  -3   26.32   18.57   1
  -8   3  -2  137.59   22.29   1
  -8   3  -2  117.07   14.28   1
  -8   3  -1    9.36   19.09   1
  -8   3   0   72.25   15.30   1
  -8   3   0   92.93   20.82   1
  -8   3   1   38.32   11.39   1
  -8   3   2  204.20   18.01   1
  -8   3   2  171.35   20.94   1
  -8   3   3 1139.74   97.23   1
  -8   3   3 1252.45   91.31   1
  -8   3   4  173.98   23.21   1
  -8   3   4  171.09   29.30   1
  -8   3   5  730.08   58.36   1
  -8   3   5  785.68   63.91   1
  -8   3   6  163.07   21.45   1
  -8   3   6  136.89   24.10   1
  -8   3   7  539.63   46.92   1
  -8   4  -4  304.85   28.98   1
  -8   4  -4  294.12   34.64   1
  -8   4  -3   58.06   20.27   1
  -8   4  -3   51.41   11.47   1
  -8   4  -2  217.56   24.19   1
  -8   4  -2  152.77   16.07   1
  -8   4  -1   26.01   17.95   1
  -8   4  -1   17.64   16.88   1
  -8   4   0  132.02   18.84   1
  -8   4   0  165.38   21.86   1
  -8   4   1   -0.83   11.63   1
  -8   4   1   22.85   17.69   1
  -8   4   2    3.24   16.20   1
  -8   4   2   10.37   10.63   1
  -8   4   3  361.38   36.50   1
  -8   4   3  335.26   31.49   1
  -8   4   3  379.86   33.13   1
  -8   4   4  159.01   21.44   1
  -8   4   4  133.63   28.21   1
  -8   4   5   87.24   24.28   1
  -8   4   6  262.12   30.11   1
  -8   4   6  272.25   26.07   1
  -8   4   7   -1.85   16.51   1
  -8   4   7   22.18   16.01   1
  -8   4   8   19.98   18.15   1
  -8   5  -3  125.22   21.71   1
  -8   5  -3   94.09   18.24   1
  -8   5  -3   70.73   12.11   1
  -8   5  -2  115.13   13.52   1
  -8   5  -2  154.26   21.86   1
  -8   5  -2  160.28   21.02   1
  -8   5  -1   14.44   16.57   1
  -8   5  -1   10.76   17.12   1
  -8   5   0   90.63   16.95   1
  -8   5   0   62.73   19.48   1
  -8   5   1  -23.43   18.10   1
  -8   5   1    8.41   14.44   1
  -8   5   2   14.44   12.24   1
  -8   5   2   20.98   18.50   1
  -8   5   3  175.56   22.53   1
  -8   5   5   57.00   19.93   1
  -8   5   5   59.75   21.33   1
  -8   5   6  315.77   28.43   1
  -8   5   7   44.09   17.00   1
  -8   5   7   25.40   20.36   1
  -8   5   8   69.56   17.68   1
  -8   5   9   75.17   18.03   1
  -8   6  -3    5.11   19.12   1
  -8   6  -3    9.49    9.49   1
  -8   6  -3  -11.42   15.07   1
  -8   6  -2  273.90   25.82   1
  -8   6  -2  325.80   29.60   1
  -8   6  -2  375.97   32.19   1
  -8   6  -1  152.77   21.51   1
  -8   6   0  213.45   23.67   1
  -8   6   0  234.09   25.70   1
  -8   6   1   -7.51   13.97   1
  -8   6   1  -10.24   18.37   1
  -8   6   2  -17.64   17.64   1
  -8   6   2   -8.58   14.42   1
  -8   6   3  344.84   32.68   1
  -8   6   4  -15.13   23.50   1
  -8   6   4   40.32   18.29   1
  -8   6   5   60.84   10.92   1
  -8   6   6   58.68   12.26   1
  -8   6   6   85.75   21.67   1
  -8   6   6   56.55   19.25   1
  -8   6   7    9.55   16.81   1
  -8   6   8   22.28   13.12   1
  -8   6   8  -10.69   16.48   1
  -8   7  -2  104.86   13.72   1
  -8   7  -2  166.67   20.14   1
  -8   7  -1  139.71   21.28   1
  -8   7  -1  101.81   11.91   1
  -8   7  -1   95.45   19.34   1
  -8   7  -1  109.62   15.91   1
  -8   7   0  117.94   18.68   1
  -8   7   0   79.03    9.96   1
  -8   7   0   81.00   12.60   1
  -8   7   0   71.57   18.44   1
  -8   7   1  233.48   24.75   1
  -8   7   1  247.43   24.22   1
  -8   7   1  181.44   21.55   1
  -8   7   2   43.96    9.02   1
  -8   7   2   47.47   17.09   1
  -8   7   3   10.43    8.59   1
  -8   7   3   22.09   16.17   1
  -8   7   4   24.50   22.57   1
  -8   7   4   79.03   18.31   1
  -8   7   4   38.56   10.06   1
  -8   7   5  113.64   20.68   1
  -8   7   5   99.20   14.34   1
  -8   7   6  166.93   20.41   1
  -8   7   6  158.26   17.86   1
  -8   7   7   16.40   12.96   1
  -8   7   7    9.24   17.57   1
  -8   7   8  122.32   21.24   1
  -8   7   8   94.87   18.90   1
  -8   8  -1   96.63   18.48   1
  -8   8   0   -6.45   16.71   1
  -8   8   0   36.97   13.38   1
  -8   8   1   27.46   12.26   1
  -8   8   1   40.20   18.13   1
  -8   8   1   15.29   17.83   1
  -8   8   2   42.51   12.52   1
  -8   8   2   58.37   18.64   1
  -8   8   2   35.76   16.03   1
  -8   8   3   55.06   18.25   1
  -8   8   3   54.32   13.41   1
  -8   8   4   86.30   23.78   1
  -8   8   4   81.00   13.32   1
  -8   8   4   83.36   19.72   1
  -8   8   5    6.05   11.81   1
  -8   8   5   18.75   18.01   1
  -8   8   5   20.07   19.80   1
  -8   8   6  232.56   28.67   1
  -8   8   6  228.01   23.56   1
  -8   8   6  277.89   27.34   1
  -8   9   0   12.25   17.29   1
  -8   9   0   -5.71   16.35   1
  -8   9   1   17.22   17.76   1
  -8   9   1   -2.37   16.79   1
  -8   9   2   74.82   18.16   1
  -8   9   2   88.17   14.27   1
  -8   9   3  129.28   23.65   1
  -8   9   3   79.03   15.82   1
  -8   9   4    0.21   13.67   1
  -8   9   4   -3.24   18.40   1
  -8   9   4   17.47   20.65   1
  -7  -7   2    8.58   17.23   1
  -7  -7   3  101.40   20.14   1
  -7  -7   3  118.81   28.78   1
  -7  -7   4  -27.35   23.74   1
  -7  -7   4   -4.75   16.79   1
  -7  -7   5   20.88   22.30   1
  -7  -7   6    7.24   16.19   1
  -7  -7   6   15.60   22.12   1
  -7  -6   0  105.06   22.55   1
  -7  -6   1  301.02   30.54   1
  -7  -6   1  331.60   40.06   1
  -7  -6   2  223.20   25.70   1
  -7  -6   2  178.22   32.84   1
  -7  -6   3  388.88   43.38   1
  -7  -6   3  397.20   34.68   1
  -7  -6   4   50.55   23.89   1
  -7  -6   4    0.59   16.43   1
  -7  -6   5  156.50   20.52   1
  -7  -6   5  149.82   27.17   1
  -7  -6   6   -3.39   14.79   1
  -7  -6   6  -12.04   21.51   1
  -7  -6   7  -16.65   22.03   1
  -7  -6   7  -15.29   14.39   1
  -7  -5  -1   77.97   20.49   1
  -7  -5   0   82.81   29.30   1
  -7  -5   0   44.89   18.76   1
  -7  -5   1  231.04   29.79   1
  -7  -5   1  251.86   27.61   1
  -7  -5   2   67.40   27.42   1
  -7  -5   3   86.30   25.64   1
  -7  -5   3   51.84   16.27   1
  -7  -5   4   14.44   16.11   1
  -7  -5   4   46.38   24.79   1
  -7  -5   5  335.62   37.01   1
  -7  -5   5  297.91   29.34   1
  -7  -5   6   78.68   14.90   1
  -7  -5   6   99.80   23.58   1
  -7  -5   7   30.47   13.14   1
  -7  -4  -2  245.24   25.68   1
  -7  -4  -1   18.75   29.70   1
  -7  -4  -1   14.82   15.48   1
  -7  -4   0  163.84   22.27   1
  -7  -4   0  179.29   33.74   1
  -7  -4   0  231.04   25.23   1
  -7  -4   1  102.41   24.09   1
  -7  -4   1  130.19   20.08   1
  -7  -4   1  118.16   28.91   1
  -7  -4   2  304.85   29.33   1
  -7  -4   2  377.52   39.25   1
  -7  -4   3    1.02   16.04   1
  -7  -4   3   15.13   19.99   1
  -7  -4   4   10.50   13.48   1
  -7  -4   4   18.92   23.66   1
  -7  -4   5   34.69   23.80   1
  -7  -4   5   21.44   13.80   1
  -7  -4   6  159.77   18.71   1
  -7  -4   6  209.67   28.38   1
  -7  -3  -3   41.09   14.49   1
  -7  -3  -3   13.54   30.91   1
  -7  -3  -3   21.62   25.39   1
  -7  -3  -2    0.48   28.33   1
  -7  -3  -2   12.18   15.98   1
  -7  -3  -1   30.69   16.95   1
  -7  -3  -1  -29.70   22.56   1
  -7  -3   0  374.42   43.34   1
  -7  -3   0  366.72   34.09   1
  -7  -3   1  142.56   20.30   1
  -7  -3   1   86.49   24.55   1
  -7  -3   1  103.63   17.51   1
  -7  -3   2   84.82   20.63   1
  -7  -3   2  130.64   23.09   1
  -7  -3   2  128.37   17.67   1
  -7  -3   3  107.95   16.83   1
  -7  -3   3  100.60   26.68   1
  -7  -3   3  126.11   20.21   1
  -7  -3   4  192.38   19.70   1
  -7  -3   5   21.44   21.85   1
  -7  -3   5    4.88   10.03   1
  -7  -3   6  207.07   27.05   1
  -7  -3   6  158.00   22.12   1
  -7  -2  -4   32.26   27.83   1
  -7  -2  -3  182.52   28.91   1
  -7  -2  -3  289.68   37.78   1
  -7  -2  -2  102.62   33.23   1
  -7  -2  -2  141.85   25.25   1
  -7  -2  -1  216.97   35.35   1
  -7  -2  -1  211.12   25.57   1
  -7  -2   0 2431.48  197.24   1
  -7  -2   0 2465.12  181.72   1
  -7  -2   1   51.98   20.19   1
  -7  -2   1   20.98   27.94   1
  -7  -2   2  423.95   39.12   1
  -7  -2   2  451.56   34.85   1
  -7  -2   2  438.90   43.58   1
  -7  -2   3   -7.18   12.17   1
  -7  -2   3   21.53   21.44   1
  -7  -2   3  -33.99   26.47   1
  -7  -2   4  183.33   26.00   1
  -7  -2   4  158.00   16.34   1
  -7  -2   4  216.68   28.85   1
  -7  -2   5   32.26    7.16   1
  -7  -2   5   70.39   23.49   1
  -7  -1  -4   53.58   21.23   1
  -7  -1  -4   85.38   28.09   1
  -7  -1  -3  123.43   29.55   1
  -7  -1  -3  169.26   24.46   1
  -7  -1  -2   60.68   29.60   1
  -7  -1  -2   26.73   18.72   1
  -7  -1  -1  130.19   23.05   1
  -7  -1   0  550.84   46.47   1
  -7  -1   0  578.40   51.95   1
  -7  -1   1  275.23   33.51   1
  -7  -1   1  269.62   30.21   1
  -7  -1   2  295.50   29.22   1
  -7  -1   2  235.62   32.54   1
  -7  -1   3 1051.06   81.05   1
  -7  -1   3  953.57   75.96   1
  -7  -1   5    8.82   21.09   1
  -7  -1   5   20.25   20.25   1
  -7   0  -5  196.84   26.94   1
  -7   0  -5  190.44   30.08   1
  -7   0  -4   22.28   24.45   1
  -7   0  -4   63.84   19.18   1
  -7   0  -3  113.85   19.85   1
  -7   0  -3   83.91   25.83   1
  -7   0  -2  151.54   27.82   1
  -7   0  -2  125.66   20.18   1
  -7   0  -1   -6.35   25.15   1
  -7   0  -1   22.66   15.80   1
  -7   0   0  345.96   37.94   1
  -7   0   1  105.88   23.87   1
  -7   0   1   45.83   22.07   1
  -7   0   2  923.55   82.05   1
  -7   0   2 1045.23   82.76   1
  -7   0   3 1250.33  101.84   1
  -7   0   3 1462.30  108.60   1
  -7   0   4  181.44   28.02   1
  -7   0   5  298.60   30.76   1
  -7   1  -5  291.38   32.43   1
  -7   1  -5  239.01   27.21   1
  -7   1  -4   15.05   15.99   1
  -7   1  -4   16.40   20.41   1
  -7   1  -3  135.96   20.52   1
  -7   1  -3  146.41   28.07   1
  -7   1  -2   27.67   23.04   1
  -7   1  -1    8.76   11.96   1
  -7   1  -1   -8.70   21.71   1
  -7   1   0  -49.28   25.69   1
  -7   1   1  -15.92   11.49   1
  -7   1   1   17.72   22.99   1
  -7   1   2  103.23   12.40   1
  -7   1   3   -6.55   24.68   1
  -7   1   4  286.62   32.17   1
  -7   1   5    9.80   24.16   1
  -7   1   6  296.18   30.63   1
  -7   2  -5   46.79   21.34   1
  -7   2  -5   77.09   16.86   1
  -7   2  -5   78.15   18.92   1
  -7   2  -4   10.50   14.32   1
  -7   2  -4   48.30   20.29   1
  -7   2  -4  -14.14   20.15   1
  -7   2  -3  105.27   22.78   1
  -7   2  -3   60.84   20.59   1
  -7   2  -2  289.00   27.88   1
  -7   2  -2  374.04   31.72   1
  -7   2  -2  299.64   34.62   1
  -7   2  -1  979.69   78.88   1
  -7   2  -1  811.11   95.69   1
  -7   2  -1  940.04   71.74   1
  -7   2   0  524.87   45.36   1
  -7   2   0  666.67   53.19   1
  -7   2   1 2538.14  201.52   1
  -7   2   2  151.78   16.02   1
  -7   2   3 4303.36  283.39   1
  -7   2   3 3903.75  303.65   1
  -7   2   4   67.73   17.78   1
  -7   2   4   83.36   25.20   1
  -7   2   5  912.64   73.71   1
  -7   2   6 1202.70   90.86   1
  -7   3  -5  456.25   38.88   1
  -7   3  -5  378.69   34.64   1
  -7   3  -5  353.82   37.24   1
  -7   3  -4   13.99   19.45   1
  -7   3  -4   -3.31   12.74   1
  -7   3  -4   36.72   17.21   1
  -7   3  -3  116.86   21.62   1
  -7   3  -3  134.10   22.00   1
  -7   3  -2  198.81   25.10   1
  -7   3  -2  181.98   23.20   1
  -7   3  -2  176.36   18.06   1
  -7   3  -1  345.96   34.97   1
  -7   3  -1  365.19   31.72   1
  -7   3  -1  372.49   32.04   1
  -7   3   0  -28.20   20.39   1
  -7   3   0   18.32   18.58   1
  -7   3   0    2.19   14.03   1
  -7   3   1   98.80   16.10   1
  -7   3   1  119.90   20.81   1
  -7   3   2   85.19   19.01   1
  -7   3   2   77.79   12.00   1
  -7   3   3  141.13   19.48   1
  -7   3   4  270.60   28.62   1
  -7   3   4  310.11   33.11   1
  -7   3   5   48.86   22.37   1
  -7   3   5   97.22   18.93   1
  -7   3   6    2.89   20.43   1
  -7   3   6    7.84   17.08   1
  -7   3   7  181.71   21.57   1
  -7   4  -5   78.15   14.67   1
  -7   4  -5  108.99   22.97   1
  -7   4  -4  106.30   22.48   1
  -7   4  -4  160.28   17.72   1
  -7   4  -4  162.31   19.87   1
  -7   4  -3   14.90   19.99   1
  -7   4  -3   33.18   16.47   1
  -7   4  -3   12.18   15.15   1
  -7   4  -3   35.52   11.20   1
  -7   4  -2  130.87   15.10   1
  -7   4  -2  138.53   22.60   1
  -7   4  -2  198.25   21.40   1
  -7   4  -1  708.62   51.64   1
  -7   4  -1  554.60   56.05   1
  -7   4  -1  671.33   52.86   1
  -7   4   0  124.55   19.20   1
  -7   4   0   97.81   16.62   1
  -7   4   1 1082.41   78.30   1
  -7   4   1  940.04   80.33   1
  -7   4   2  557.43   47.69   1
  -7   4   2  626.00   48.04   1
  -7   4   3    4.84   19.36   1
  -7   4   4   72.42   18.72   1
  -7   4   4   32.04   24.79   1
  -7   4   5  127.46   20.10   1
  -7   4   5  138.06   23.97   1
  -7   4   6   44.09   20.19   1
  -7   4   6   21.07   16.07   1
  -7   4   7   81.54   17.34   1
  -7   4   7   82.08   20.66   1
  -7   4   8   29.38   15.83   1
  -7   5  -5   -5.24   14.34   1
  -7   5  -4   29.16   13.72   1
  -7   5  -4   26.63   11.15   1
  -7   5  -4   19.71   54.88   1
  -7   5  -3  -20.16   19.85   1
  -7   5  -3  -28.84   15.90   1
  -7   5  -3   -1.28    9.74   1
  -7   5  -2  178.49   23.25   1
  -7   5  -2  173.45   16.59   1
  -7   5  -2  157.50   21.34   1
  -7   5  -1    3.31   16.74   1
  -7   5  -1   -4.75   17.57   1
  -7   5   0   33.18   18.32   1
  -7   5   0   20.43   15.28   1
  -7   5   1  350.44   33.70   1
  -7   5   1  367.49   32.21   1
  -7   5   2 1107.56   75.88   1
  -7   5   2  894.01   72.36   1
  -7   5   3   35.28   18.30   1
  -7   5   3   23.33    6.67   1
  -7   5   4   59.44    9.25   1
  -7   5   4   62.88   16.34   1
  -7   5   4   79.92   25.21   1
  -7   5   5   21.44   17.87   1
  -7   5   5   12.39    9.29   1
  -7   5   6   51.84   18.00   1
  -7   5   6   51.12   19.31   1
  -7   5   6   55.80   13.45   1
  -7   5   7   13.47   19.67   1
  -7   5   7   25.70   13.69   1
  -7   5   7   40.32   16.26   1
  -7   5   8    5.43   15.10   1
  -7   5   8   19.62   14.44   1
  -7   5   9  159.26   20.44   1
  -7   5   9  119.25   18.13   1
  -7   6  -4   17.22   11.21   1
  -7   6  -4   34.11   21.37   1
  -7   6  -3   31.70   12.16   1
  -7   6  -3   16.32   20.28   1
  -7   6  -3   14.67   15.55   1
  -7   6  -2  128.60   14.97   1
  -7   6  -2  123.65   22.68   1
  -7   6  -2  116.64   19.87   1
  -7   6  -1   43.82   17.34   1
  -7   6  -1   22.28   17.94   1
  -7   6  -1   49.14   12.90   1
  -7   6   0    5.66   16.37   1
  -7   6   0  -25.00   17.10   1
  -7   6   0   13.32   13.43   1
  -7   6   1    2.34   15.21   1
  -7   6   1   13.40   14.64   1
  -7   6   1   13.84   10.94   1
  -7   6   2  842.16   63.26   1
  -7   6   2  942.49   71.84   1
  -7   6   2  804.86   74.90   1
  -7   6   3   48.02   18.43   1
  -7   6   4  711.29   56.54   1
  -7   6   4  661.52   56.07   1
  -7   6   4  657.92   56.43   1
  -7   6   5   43.56   14.26   1
  -7   6   5   31.47   19.07   1
  -7   6   6   72.93   14.86   1
  -7   6   6   65.29   19.07   1
  -7   6   6  118.16   21.52   1
  -7   6   7   10.24   17.15   1
  -7   6   7   12.11   18.44   1
  -7   6   7   21.81   14.48   1
  -7   6   8   55.06   16.92   1
  -7   6   9  351.19   34.86   1
  -7   6   9  394.42   32.57   1
  -7   7  -4  253.45   24.84   1
  -7   7  -4  284.93   30.72   1
  -7   7  -4  222.90   30.76   1
  -7   7  -4  245.86   24.77   1
  -7   7  -3   25.00   15.50   1
  -7   7  -3   -0.48   18.45   1
  -7   7  -3   19.54   23.16   1
  -7   7  -2  171.09   26.68   1
  -7   7  -2  180.90   21.79   1
  -7   7  -2  241.18   26.09   1
  -7   7  -2  167.70   19.17   1
  -7   7  -1   24.90   20.86   1
  -7   7  -1   33.41   15.49   1
  -7   7  -1  -11.16   18.64   1
  -7   7  -1  -16.97   16.64   1
  -7   7   0  322.56   29.81   1
  -7   7   0  336.72   30.09   1
  -7   7   0  254.72   27.45   1
  -7   7   1   65.93   14.29   1
  -7   7   1   45.56   15.66   1
  -7   7   1   76.21   19.73   1
  -7   7   2  421.07   36.94   1
  -7   7   2  454.54   38.38   1
  -7   7   3  109.62   15.08   1
  -7   7   3   85.93   20.21   1
  -7   7   4   91.20   19.86   1
  -7   7   5    6.40   18.82   1
  -7   7   5   30.14   14.71   1
  -7   7   5   14.52   20.95   1
  -7   7   6    4.71   18.49   1
  -7   7   6   -2.76   18.96   1
  -7   7   6    3.84   14.97   1
  -7   7   7   29.05   18.33   1
  -7   7   7   50.69   18.23   1
  -7   7   7   66.26   18.56   1
  -7   7   8  -26.73   18.10   1
  -7   7   8  -14.98   17.34   1
  -7   8  -3   -5.90   18.13   1
  -7   8  -3  -23.04   21.70   1
  -7   8  -3    2.76   14.31   1
  -7   8  -3    8.76   12.55   1
  -7   8  -2  -33.87   21.18   1
  -7   8  -2    7.02   17.76   1
  -7   8  -2    3.84   16.31   1
  -7   8  -1   48.72   16.61   1
  -7   8  -1   20.34   19.66   1
  -7   8  -1   15.05   15.29   1
  -7   8   0   18.66   18.75   1
  -7   8   0   16.08   16.28   1
  -7   8   0   -2.02   13.66   1
  -7   8   1    4.20   18.29   1
  -7   8   1    9.55   17.12   1
  -7   8   1    7.90   17.93   1
  -7   8   2   70.56   19.15   1
  -7   8   2   63.52   15.78   1
  -7   8   3   23.91   15.55   1
  -7   8   3   -9.55   17.67   1
  -7   8   4  104.04   21.22   1
  -7   8   4  123.88   23.82   1
  -7   8   4   68.89   17.60   1
  -7   8   5   40.58   15.80   1
  -7   8   5   72.08   20.38   1
  -7   8   5   61.94   15.90   1
  -7   8   6   54.76   18.50   1
  -7   8   6   53.44   16.37   1
  -7   8   6   24.80   17.33   1
  -7   8   7   20.07   17.56   1
  -7   9  -2    4.24   20.60   1
  -7   9  -2   -0.62   17.25   1
  -7   9  -2   43.43   17.79   1
  -7   9  -1   66.26   18.40   1
  -7   9  -1  107.74   20.97   1
  -7   9  -1  109.41   19.46   1
  -7   9  -1   94.09   21.15   1
  -7   9   0   74.65   18.84   1
  -7   9   0  101.00   21.10   1
  -7   9   0   77.97   19.96   1
  -7   9   0   66.91   19.14   1
  -7   9   1   89.87   17.63   1
  -7   9   1  111.09   19.60   1
  -7   9   1   91.01   21.18   1
  -7   9   2    7.51   16.77   1
  -7   9   2  -23.04   13.73   1
  -7   9   3   23.52   17.46   1
  -7   9   3    4.62   15.74   1
  -7   9   4  -14.75   16.36   1
  -7   9   4   -6.10   18.92   1
  -7   9   4   42.25   19.24   1
  -7   9   5  280.23   30.13   1
  -7   9   5  302.06   30.94   1
  -7   9   5  328.70   29.37   1
  -7   9   6   59.60   19.45   1
  -7   9   6   54.61   18.77   1
  -7  10   1  144.00   22.32   1
  -7  10   1   87.24   21.11   1
  -7  10   1  118.81   20.06   1
  -7  10   2  -28.84   17.18   1
  -7  10   3   63.52   18.01   1
  -6  -8   3   14.52   24.23   1
  -6  -8   4  326.89   32.54   1
  -6  -8   4  317.55   38.49   1
  -6  -8   5  296.53   29.62   1
  -6  -8   5  292.75   35.25   1
  -6  -8   6   23.23   20.44   1
  -6  -8   6    9.06   18.36   1
  -6  -7  -1  127.24   24.14   1
  -6  -7   0   68.23   21.97   1
  -6  -7   1   17.39   18.43   1
  -6  -7   1   44.62   31.93   1
  -6  -7   2   26.11   18.60   1
  -6  -7   2  -45.02   26.44   1
  -6  -7   3   -7.62   18.33   1
  -6  -7   3  -11.90   26.70   1
  -6  -7   4  193.49   24.76   1
  -6  -7   4  257.60   31.78   1
  -6  -7   5   58.83   18.41   1
  -6  -7   5   55.80   22.71   1
  -6  -7   6   54.32   18.57   1
  -6  -7   6   79.74   21.61   1
  -6  -7   7  137.83   23.71   1
  -6  -7   7  159.77   21.74   1
  -6  -7   8   -9.80   17.28   1
  -6  -6  -2   32.38   19.80   1
  -6  -6  -1  304.85   33.87   1
  -6  -6  -1  315.42   44.40   1
  -6  -6   0   54.76   20.57   1
  -6  -6   0   71.57   27.58   1
  -6  -6   1   11.63   17.60   1
  -6  -6   1    1.46   31.10   1
  -6  -6   2   19.62   30.04   1
  -6  -6   3  108.99   29.23   1
  -6  -6   3  119.90   20.37   1
  -6  -6   4   60.06   25.73   1
  -6  -6   5  310.46   35.59   1
  -6  -6   5  346.33   36.10   1
  -6  -6   6   26.01   20.81   1
  -6  -6   6   19.98   17.97   1
  -6  -6   7  179.02   21.94   1
  -6  -6   7  156.75   25.29   1
  -6  -5  -2   31.25   33.76   1
  -6  -5  -2   75.52   10.95   1
  -6  -5  -1   33.06   30.01   1
  -6  -5   0   29.38   20.27   1
  -6  -5   0   -3.28   31.24   1
  -6  -5   1   33.18   28.11   1
  -6  -5   1    9.73   17.47   1
  -6  -5   2   51.98   17.16   1
  -6  -5   2   38.94   23.96   1
  -6  -5   3   45.70   16.76   1
  -6  -5   4  381.03   38.65   1
  -6  -5   4  336.72   32.30   1
  -6  -5   5  112.36   18.02   1
  -6  -5   5   97.22   24.06   1
  -6  -5   6   39.44   19.97   1
  -6  -5   6   36.72   15.39   1
  -6  -5   7  701.72   56.69   1
  -6  -4  -4   97.22   28.40   1
  -6  -4  -3  119.25   15.29   1
  -6  -4  -3   51.41   31.69   1
  -6  -4  -3  116.64   27.22   1
  -6  -4  -2  297.22   35.51   1
  -6  -4  -2  316.84   44.50   1
  -6  -4  -1  108.78   33.38   1
  -6  -4  -1   85.93   15.02   1
  -6  -4   0  289.68   35.40   1
  -6  -4   1   65.77   29.03   1
  -6  -4   1   66.91   16.69   1
  -6  -4   1  105.06   17.84   1
  -6  -4   2  186.32   22.11   1
  -6  -4   2  155.25   24.67   1
  -6  -4   3 1200.62   94.25   1
  -6  -4   3 1062.11   82.78   1
  -6  -4   4  377.52   32.64   1
  -6  -4   4  384.55   38.83   1
  -6  -4   5  112.57   17.40   1
  -6  -4   5  115.56   24.08   1
  -6  -4   6   21.90   20.97   1
  -6  -3  -5   36.00   24.60   1
  -6  -3  -4  270.60   43.76   1
  -6  -3  -4  302.76   36.54   1
  -6  -3  -3   40.45   14.25   1
  -6  -3  -3   -3.46   33.03   1
  -6  -3  -3   29.05   28.35   1
  -6  -3  -2  108.16   18.51   1
  -6  -3  -2  164.10   28.44   1
  -6  -3  -2   98.41   34.92   1
  -6  -3  -1  154.50   21.38   1
  -6  -3  -1  155.75   34.94   1
  -6  -3   0  135.96   32.65   1
  -6  -3   0  225.90   22.55   1
  -6  -3   1   20.43   18.62   1
  -6  -3   1   23.62   21.68   1
  -6  -3   1   20.25   16.56   1
  -6  -3   2  -16.32   28.93   1
  -6  -3   2    6.55   18.59   1
  -6  -3   2   -9.61   16.06   1
  -6  -3   3  738.21   66.29   1
  -6  -3   3  717.70   56.79   1
  -6  -3   4  141.37   18.07   1
  -6  -3   5  286.96   26.09   1
  -6  -3   5  335.26   34.06   1
  -6  -3   6  658.44   53.89   1
  -6  -3   6  782.32   62.65   1
  -6  -2  -5   68.23   23.95   1
  -6  -2  -5   -0.45   29.71   1
  -6  -2  -4  112.78   25.28   1
  -6  -2  -3   34.93   31.91   1
  -6  -2  -2   74.48   31.76   1
  -6  -2  -1   59.60   22.39   1
  -6  -2  -1   64.48   28.27   1
  -6  -2   0  140.19   23.44   1
  -6  -2   0  157.25   33.86   1
  -6  -2   1  114.49   29.53   1
  -6  -2   1  129.28   22.51   1
  -6  -2   2  324.36   31.70   1
  -6  -2   2  272.25   25.41   1
  -6  -2   2  295.15   37.45   1
  -6  -2   3   45.02   11.14   1
  -6  -2   3   74.48   25.20   1
  -6  -2   3   38.69   21.52   1
  -6  -2   4   85.56   12.40   1
  -6  -2   4  108.58   22.09   1
  -6  -2   5  167.70   18.91   1
  -6  -2   5  201.92   30.13   1
  -6  -1  -6  245.24   33.20   1
  -6  -1  -6  206.50   28.45   1
  -6  -1  -5  165.64   32.69   1
  -6  -1  -5  150.80   24.56   1
  -6  -1  -4  273.57   38.70   1
  -6  -1  -4  245.24   29.13   1
  -6  -1  -3  155.50   26.44   1
  -6  -1  -3   90.44   33.09   1
  -6  -1  -2  216.38   37.07   1
  -6  -1  -2  248.38   27.74   1
  -6  -1  -1  214.92   26.97   1
  -6  -1  -1  226.80   36.75   1
  -6  -1   0  202.21   34.13   1
  -6  -1   1   28.73   21.33   1
  -6  -1   2  263.41   32.46   1
  -6  -1   2  364.05   33.20   1
  -6  -1   3   60.84    9.67   1
  -6  -1   3   55.65   21.78   1
  -6  -1   3   64.48   25.86   1
  -6  -1   4   26.32   21.75   1
  -6  -1   4  -14.67   18.77   1
  -6   0  -6  179.83   25.21   1
  -6   0  -5   76.56   29.58   1
  -6   0  -5  149.82   23.01   1
  -6   0  -4   -9.73   26.58   1
  -6   0  -4  -23.43   19.46   1
  -6   0  -3  291.73   29.04   1
  -6   0  -3  354.95   38.06   1
  -6   0  -2   27.46   20.33   1
  -6   0  -1  180.10   32.48   1
  -6   0  -1  159.52   22.23   1
  -6   0   0  366.34   41.73   1
  -6   0   1   75.17   26.01   1
  -6   0   2  191.82   31.30   1
  -6   0   2  216.68   27.97   1
  -6   0   3   68.23   23.46   1
  -6   0   4  898.80   69.55   1
  -6   1  -6  108.58   20.84   1
  -6   1  -6   75.00   23.38   1
  -6   1  -5  297.56   30.36   1
  -6   1  -5  321.84   37.67   1
  -6   1  -4   33.41   17.22   1
  -6   1  -4  -31.81   25.27   1
  -6   1  -3 1443.24  121.57   1
  -6   1  -3 1546.85  132.15   1
  -6   1  -2   79.57   26.76   1
  -6   1  -2   70.90   15.66   1
  -6   1  -1  897.60   80.29   1
  -6   1  -1  914.46   82.86   1
  -6   1   0  138.06   26.56   1
  -6   1   1 1544.49  128.12   1
  -6   1   2   48.72    8.24   1
  -6   1   2   59.75   23.19   1
  -6   1   2   68.72   19.73   1
  -6   1   3  646.18   55.42   1
  -6   1   4  785.68   60.54   1
  -6   1   5  142.32   25.29   1
  -6   2  -6  211.70   26.19   1
  -6   2  -6  272.25   29.04   1
  -6   2  -5  391.64   35.62   1
  -6   2  -5  359.10   32.22   1
  -6   2  -5  322.20   36.26   1
  -6   2  -4  460.53   40.34   1
  -6   2  -4  520.30   43.34   1
  -6   2  -4  512.57   47.09   1
  -6   2  -3   87.42   23.56   1
  -6   2  -3  117.94   17.59   1
  -6   2  -3  127.24   21.66   1
  -6   2  -2  952.34   82.70   1
  -6   2  -2  929.03   74.37   1
  -6   2  -1  101.20   13.48   1
  -6   2  -1   80.10   18.26   1
  -6   2   0  111.94   24.12   1
  -6   2   0   91.39   16.06   1
  -6   2   0  137.59   20.88   1
  -6   2   1  280.23   27.45   1
  -6   2   1  327.97   34.41   1
  -6   2   1  320.05   30.06   1
  -6   2   2    6.00    7.94   1
  -6   2   2   13.18   17.57   1
  -6   2   3   54.32   24.62   1
  -6   2   3   87.24   18.31   1
  -6   2   4   35.52   18.12   1
  -6   2   5  434.31   34.59   1
  -6   2   5  374.81   36.78   1
  -6   2   6   59.14   17.53   1
  -6   2   6   49.14   21.03   1
  -6   3  -6  132.02   19.30   1
  -6   3  -6  109.62   17.80   1
  -6   3  -6  152.52   23.47   1
  -6   3  -5  156.00   22.98   1
  -6   3  -5  121.22   19.16   1
  -6   3  -5  109.83   20.12   1
  -6   3  -4 1143.12   89.93   1
  -6   3  -4 1120.24  108.44   1
  -6   3  -4 1168.96   89.58   1
  -6   3  -3  145.44   17.37   1
  -6   3  -3  172.92   22.62   1
  -6   3  -3  187.14   23.53   1
  -6   3  -2  440.16   34.83   1
  -6   3  -2  322.56   30.53   1
  -6   3  -2  388.09   32.31   1
  -6   3  -2  379.08   36.21   1
  -6   3  -1  771.17   74.98   1
  -6   3  -1  932.69   73.30   1
  -6   3  -1  899.40   68.38   1
  -6   3  -1  913.85   79.20   1
  -6   3   0  692.74   57.90   1
  -6   3   0  750.76   58.09   1
  -6   3   0  699.07   63.98   1
  -6   3   1  882.09   71.28   1
  -6   3   1 1011.88   69.98   1
  -6   3   2  196.00   19.32   1
  -6   3   2  167.70   23.57   1
  -6   3   3  341.51   34.74   1
  -6   3   3  296.53   27.21   1
  -6   3   4  -26.01   21.32   1
  -6   3   4   -8.58   17.93   1
  -6   3   5  482.68   40.86   1
  -6   3   5  412.90   34.95   1
  -6   3   6  492.40   38.17   1
  -6   3   6  507.15   42.79   1
  -6   3   8   16.16   13.91   1
  -6   4  -6  -15.29   16.50   1
  -6   4  -5  251.54   30.45   1
  -6   4  -5  238.70   27.19   1
  -6   4  -5  289.34   27.22   1
  -6   4  -5  335.99   31.16   1
  -6   4  -4    4.20   20.09   1
  -6   4  -4  -17.56   14.16   1
  -6   4  -4   -4.00   12.24   1
  -6   4  -4    2.72   15.18   1
  -6   4  -4   -2.37   23.56   1
  -6   4  -3   15.29   15.09   1
  -6   4  -3   13.69   18.28   1
  -6   4  -3  -13.03   13.36   1
  -6   4  -3   11.42   22.24   1
  -6   4  -2    1.82    9.45   1
  -6   4  -2    6.20   16.23   1
  -6   4  -2   -6.50   17.08   1
  -6   4  -1   41.73   17.70   1
  -6   4  -1   20.25   17.28   1
  -6   4   0   20.43   15.91   1
  -6   4   0    8.53   10.45   1
  -6   4   0    2.62    6.54   1
  -6   4   0   44.09   17.80   1
  -6   4   1 1054.95   85.75   1
  -6   4   1 1121.58   87.07   1
  -6   4   2   97.61   19.17   1
  -6   4   2  126.79   15.99   1
  -6   4   3  399.20   33.97   1
  -6   4   3  449.86   40.72   1
  -6   4   3  330.15   37.07   1
  -6   4   4    1.17   17.69   1
  -6   4   4    8.35    9.25   1
  -6   4   5  477.86   41.97   1
  -6   4   5  558.38   45.37   1
  -6   4   5  590.00   46.15   1
  -6   4   6  -35.05   19.77   1
  -6   4   6  -24.90   17.07   1
  -6   4   6  -11.09   13.19   1
  -6   4   7  609.60   43.45   1
  -6   4   7  506.25   44.55   1
  -6   4   8  120.12   16.66   1
  -6   4   8  122.77   18.61   1
  -6   4   9   21.90   12.54   1
  -6   4   9  -14.14   15.94   1
  -6   5  -6  637.06   49.47   1
  -6   5  -6  542.89   50.79   1
  -6   5  -5   13.69   12.14   1
  -6   5  -5   -9.86   23.17   1
  -6   5  -5   22.75   25.28   1
  -6   5  -4  282.24   25.20   1
  -6   5  -4  298.60   29.38   1
  -6   5  -4  228.31   28.71   1
  -6   5  -4  238.70   24.72   1
  -6   5  -3  -23.52   16.20   1
  -6   5  -3  -11.97   19.58   1
  -6   5  -3   -7.51   12.22   1
  -6   5  -3  -25.20   19.48   1
  -6   5  -2  390.85   34.00   1
  -6   5  -2  392.04   30.49   1
  -6   5  -2  368.64   36.48   1
  -6   5  -2  392.44   31.70   1
  -6   5  -1    8.70   10.62   1
  -6   5  -1  -15.13   23.26   1
  -6   5  -1   21.53   17.63   1
  -6   5  -1   15.52   17.02   1
  -6   5   0   69.39   14.83   1
  -6   5   0   63.36   18.31   1
  -6   5   0   71.06   17.37   1
  -6   5   1  321.13   31.18   1
  -6   5   1  356.08   32.08   1
  -6   5   1  358.72   31.06   1
  -6   5   2  124.10   21.17   1
  -6   5   2  139.24   19.35   1
  -6   5   2  148.11   15.09   1
  -6   5   3  130.87   16.24   1
  -6   5   3  134.56   21.11   1
  -6   5   4  566.44   41.41   1
  -6   5   4  519.84   45.14   1
  -6   5   4  506.25   44.10   1
  -6   5   5  -11.36   13.48   1
  -6   5   5  -24.11   16.89   1
  -6   5   5  -19.45   19.14   1
  -6   5   6   31.92   19.10   1
  -6   5   6   18.15   16.27   1
  -6   5   6    5.29   14.54   1
  -6   5   7  429.73   36.48   1
  -6   5   7  438.48   38.53   1
  -6   5   8  125.44   19.26   1
  -6   5   8  119.90   20.59   1
  -6   5   9   76.39   18.70   1
  -6   5   9   43.96   12.99   1
  -6   5  10   66.75   18.30   1
  -6   5  10   32.83   12.38   1
  -6   6  -5   64.48   21.20   1
  -6   6  -5   28.94   12.59   1
  -6   6  -5   41.47   15.46   1
  -6   6  -4  495.51   40.96   1
  -6   6  -4  428.08   41.38   1
  -6   6  -4  486.64   38.38   1
  -6   6  -4  440.16   36.51   1
  -6   6  -3  -13.10   13.97   1
  -6   6  -3   -3.50   19.30   1
  -6   6  -3  -14.59   15.28   1
  -6   6  -3   23.33   23.28   1
  -6   6  -2  270.93   24.69   1
  -6   6  -2  217.56   26.85   1
  -6   6  -2  192.10   29.11   1
  -6   6  -1  113.42   22.79   1
  -6   6  -1  129.73   21.41   1
  -6   6  -1  118.81   17.66   1
  -6   6   0    3.24   19.80   1
  -6   6   0    6.71   15.75   1
  -6   6   0   -2.92   14.98   1
  -6   6   1  424.36   34.20   1
  -6   6   1  414.12   34.60   1
  -6   6   1  348.57   33.98   1
  -6   6   2   14.90   15.52   1
  -6   6   2   -1.25   15.57   1
  -6   6   2  -12.60   16.90   1
  -6   6   3  114.92   16.29   1
  -6   6   3   91.39   16.25   1
  -6   6   4  147.87   22.62   1
  -6   6   4  189.61   25.06   1
  -6   6   4  205.06   20.62   1
  -6   6   5    1.10   14.26   1
  -6   6   5  -19.18   17.17   1
  -6   6   5  -19.36   17.69   1
  -6   6   6   65.61   18.63   1
  -6   6   6   14.75   18.05   1
  -6   6   7   38.56   17.76   1
  -6   6   7   63.36   19.26   1
  -6   6   8   55.80   17.18   1
  -6   6   8   51.70   18.41   1
  -6   6   9   -3.39   18.07   1
  -6   7  -5   20.52   13.23   1
  -6   7  -5   35.76   22.60   1
  -6   7  -5   15.29   14.47   1
  -6   7  -4   48.86   53.54   1
  -6   7  -4   96.04   16.07   1
  -6   7  -4   81.54   24.56   1
  -6   7  -4   87.61   15.72   1
  -6   7  -3  272.58   26.09   1
  -6   7  -3  333.06   31.03   1
  -6   7  -3  266.34   25.13   1
  -6   7  -3  223.50   30.50   1
  -6   7  -2   75.52   21.03   1
  -6   7  -1  265.36   29.32   1
  -6   7  -1  270.27   28.28   1
  -6   7  -1  235.62   27.32   1
  -6   7  -1  259.85   27.40   1
  -6   7   0   24.21   17.91   1
  -6   7   0   14.21   15.16   1
  -6   7   0   12.04   18.11   1
  -6   7   1  -10.89   18.02   1
  -6   7   1    5.02   17.70   1
  -6   7   1  -13.40   17.93   1
  -6   7   1  -10.37   16.04   1
  -6   7   2  314.35   27.66   1
  -6   7   2  261.15   27.15   1
  -6   7   2  308.00   27.73   1
  -6   7   3   22.28   18.41   1
  -6   7   3   26.01   15.91   1
  -6   7   4  398.00   36.31   1
  -6   7   4  398.80   35.15   1
  -6   7   4  415.75   35.48   1
  -6   7   5   22.09   19.08   1
  -6   7   5   10.76   19.48   1
  -6   7   5   23.43   18.10   1
  -6   7   6  216.09   24.99   1
  -6   7   6  195.44   25.44   1
  -6   7   6  203.35   24.24   1
  -6   7   7    0.40   16.93   1
  -6   7   7   -2.40   16.55   1
  -6   7   8   60.68   19.01   1
  -6   7   8   99.60   20.76   1
  -6   8  -4  291.04   27.64   1
  -6   8  -4  344.10   33.02   1
  -6   8  -4  277.89   26.67   1
  -6   8  -4  311.88   33.20   1
  -6   8  -3   12.53   67.54   1
  -6   8  -3   84.27   23.50   1
  -6   8  -2  211.70   25.90   1
  -6   8  -2  252.81   28.30   1
  -6   8  -2  268.63   28.19   1
  -6   8  -1   92.74   20.61   1
  -6   8  -1   95.45   21.88   1
  -6   8   0    6.50   19.28   1
  -6   8   0   22.75   17.46   1
  -6   8   0   17.89   19.54   1
  -6   8   0  -20.16   18.95   1
  -6   8   1   -0.35   15.23   1
  -6   8   1    9.67   19.03   1
  -6   8   2   46.51   19.23   1
  -6   8   2   26.01   19.48   1
  -6   8   3   30.25   18.81   1
  -6   8   3  -18.32   18.32   1
  -6   8   4  146.89   22.06   1
  -6   8   4  130.87   22.65   1
  -6   8   4  117.94   21.94   1
  -6   8   5  -12.46   18.07   1
  -6   8   5   11.49   18.37   1
  -6   8   6   47.33   19.68   1
  -6   8   6   39.56   19.62   1
  -6   8   6   28.62   14.66   1
  -6   8   7  -14.59   18.87   1
  -6   8   7  -33.29   18.58   1
  -6   9  -3  180.63   25.54   1
  -6   9  -3  172.40   24.95   1
  -6   9  -3  148.84   21.72   1
  -6   9  -2   44.62   16.97   1
  -6   9  -2  -23.33   61.53   1
  -6   9  -2   21.81   21.39   1
  -6   9  -1  115.78   22.81   1
  -6   9  -1   94.87   20.45   1
  -6   9  -1   77.97   19.60   1
  -6   9  -1   92.93   21.02   1
  -6   9   0  302.06   28.85   1
  -6   9   0  289.68   28.93   1
  -6   9   0  204.78   28.62   1
  -6   9   0  242.42   25.85   1
  -6   9   1  249.32   24.95   1
  -6   9   1  325.08   29.57   1
  -6   9   1  264.06   30.23   1
  -6   9   1  243.05   26.19   1
  -6   9   2  227.41   29.26   1
  -6   9   2  298.60   29.38   1
  -6   9   3   12.60   18.74   1
  -6   9   3   22.18   14.70   1
  -6   9   3    4.12   18.92   1
  -6   9   4  372.49   33.20   1
  -6   9   4  330.51   33.09   1
  -6   9   4  331.97   32.43   1
  -6   9   5   -7.73   18.35   1
  -6   9   5   12.96   15.48   1
  -6   9   6   82.08   14.86   1
  -6   9   6   83.36   21.18   1
  -6   9   6  129.05   21.36   1
  -6  10  -2    8.07   17.72   1
  -6  10  -2   27.04   19.55   1
  -6  10  -1   72.93   21.01   1
  -6  10  -1   48.30   20.02   1
  -6  10  -1   76.21   21.30   1
  -6  10  -1   69.89   18.89   1
  -6  10   0   10.56   15.14   1
  -6  10   0   22.18   19.22   1
  -6  10   1  -33.87   19.32   1
  -6  10   1  -15.05   12.49   1
  -6  10   1    0.96   20.80   1
  -6  10   1   14.67   19.15   1
  -6  10   2   38.07   20.11   1
  -6  10   2   10.96   19.46   1
  -6  10   3  -16.65   19.67   1
  -6  10   3  -17.56   19.36   1
  -6  10   3   24.01   17.64   1
  -6  10   4   67.57   20.39   1
  -6  10   4   72.08   20.38   1
  -6  10   4   90.82   17.15   1
  -5  -9   2   22.18   19.69   1
  -5  -9   2  -28.62   29.53   1
  -5  -9   3   22.94   26.54   1
  -5  -9   3   -4.58   19.65   1
  -5  -9   4   14.21   23.15   1
  -5  -9   4  -10.37   19.96   1
  -5  -9   5   14.67   18.61   1
  -5  -8  -1  122.99   24.84   1
  -5  -8   0   28.20   21.77   1
  -5  -8   1  134.33   22.95   1
  -5  -8   1  125.22   35.14   1
  -5  -8   2   57.91  117.35   1
  -5  -8   2   56.55   19.10   1
  -5  -8   3  151.78   33.76   1
  -5  -8   3  161.54   24.91   1
  -5  -8   4  100.40   26.45   1
  -5  -8   4  133.17   21.23   1
  -5  -8   5  -19.54   19.18   1
  -5  -8   5   23.04   21.89   1
  -5  -8   6   85.75   21.48   1
  -5  -8   6  139.00   21.46   1
  -5  -8   7    9.99   16.18   1
  -5  -8   7   19.36   18.66   1
  -5  -7  -1  174.77   24.59   1
  -5  -7  -1   95.84   38.18   1
  -5  -7   0   62.09   35.62   1
  -5  -7   1  164.35   32.82   1
  -5  -7   1  154.50   24.11   1
  -5  -7   2  -20.43   29.02   1
  -5  -7   2   26.94   19.10   1
  -5  -7   3  213.16   28.03   1
  -5  -7   3  263.09   35.68   1
  -5  -7   4   32.38   19.69   1
  -5  -7   5   16.24   21.52   1
  -5  -7   6   12.04   17.70   1
  -5  -7   6  -20.07   19.89   1
  -5  -7   7    0.03   16.32   1
  -5  -7   7   10.18   17.55   1
  -5  -7   8   47.61   19.32   1
  -5  -6  -2  103.43   25.83   1
  -5  -6  -1  338.56   47.84   1
  -5  -6  -1  381.03   35.53   1
  -5  -6   0    8.41   20.59   1
  -5  -6   0   -2.99   33.94   1
  -5  -6   1  402.00   46.92   1
  -5  -6   1  357.97   35.95   1
  -5  -6   2   57.61   18.22   1
  -5  -6   2    4.58   29.96   1
  -5  -6   3  254.40   35.41   1
  -5  -6   3  249.96   27.83   1
  -5  -6   4   67.90   18.13   1
  -5  -6   4   71.74   25.41   1
  -5  -6   5  914.46   67.74   1
  -5  -6   5  884.47   72.57   1
  -5  -6   6   89.49   19.30   1
  -5  -6   6   98.41   20.63   1
  -5  -6   7  955.43   74.18   1
  -5  -5  -4  118.37   30.68   1
  -5  -5  -3   27.35   28.76   1
  -5  -5  -3   34.34    7.62   1
  -5  -5  -3   64.64   37.47   1
  -5  -5  -2   77.09   37.75   1
  -5  -5  -1  582.74   65.66   1
  -5  -5   0   33.64   20.42   1
  -5  -5   0   32.95   33.64   1
  -5  -5   1  676.52   65.55   1
  -5  -5   1  703.84   55.18   1
  -5  -5   2  294.12   29.84   1
  -5  -5   2  242.11   39.21   1
  -5  -5   3   63.20   27.67   1
  -5  -5   3   86.30   19.51   1
  -5  -5   4  253.13   26.73   1
  -5  -5   4  246.80   32.36   1
  -5  -5   5  260.18   31.61   1
  -5  -5   5  271.59   27.36   1
  -5  -5   6  145.44   23.64   1
  -5  -5   6  135.26   19.07   1
  -5  -5   7  152.52   20.75   1
  -5  -4  -5  273.24   35.04   1
  -5  -4  -4   31.47   35.79   1
  -5  -4  -4   30.47   26.61   1
  -5  -4  -3   11.70   25.92   1
  -5  -4  -3  -34.93   37.00   1
  -5  -4  -2    0.85   10.65   1
  -5  -4  -2   -2.79   26.39   1
  -5  -4  -2  -17.22   36.10   1
  -5  -4  -1  125.44   16.13   1
  -5  -4  -1  124.99   33.09   1
  -5  -4   0  513.48   42.60   1
  -5  -4   0  468.29   54.10   1
  -5  -4   1   17.56   18.02   1
  -5  -4   1   93.70   33.30   1
  -5  -4   2  290.36   39.19   1
  -5  -4   2  283.25   29.62   1
  -5  -4   3  441.42   44.12   1
  -5  -4   3  420.25   36.90   1
  -5  -4   4 2297.28  181.18   1
  -5  -4   4 2095.81  164.81   1
  -5  -4   5  528.08   51.02   1
  -5  -4   5  525.78   47.24   1
  -5  -4   6  695.90   52.23   1
  -5  -4   6  667.19   57.86   1
  -5  -3  -5  -10.11   25.76   1
  -5  -3  -5  -64.96   37.08   1
  -5  -3  -4  231.34   45.02   1
  -5  -3  -4  232.87   32.96   1
  -5  -3  -3   75.00   25.81   1
  -5  -3  -2  383.77   39.57   1
  -5  -3  -2  287.30   45.43   1
  -5  -3  -2  361.76   33.86   1
  -5  -3  -1    6.40   15.48   1
  -5  -3  -1   61.94   37.30   1
  -5  -3  -1   65.77   26.28   1
  -5  -3   0  300.33   43.67   1
  -5  -3   0  374.04   32.10   1
  -5  -3   1   97.81   18.40   1
  -5  -3   1  105.06   19.27   1
  -5  -3   2   -5.81   20.20   1
  -5  -3   2    7.62   16.23   1
  -5  -3   2   12.11   17.33   1
  -5  -3   3   23.33   25.70   1
  -5  -3   3  -14.21   13.27   1
  -5  -3   4  158.76   28.48   1
  -5  -3   4  190.16   19.31   1
  -5  -3   5  367.49   34.51   1
  -5  -3   5  266.02   26.10   1
  -5  -2  -6   33.52   30.34   1
  -5  -2  -5  -36.36   24.00   1
  -5  -2  -5  -42.25   34.45   1
  -5  -2  -4  345.59   47.22   1
  -5  -2  -4  303.11   36.91   1
  -5  -2  -3  312.23   32.16   1
  -5  -2  -3  216.97   43.01   1
  -5  -2  -2 2140.91  212.84   1
  -5  -2  -2 2547.22  194.81   1
  -5  -2  -1   49.56   24.50   1
  -5  -2  -1  -31.47   34.56   1
  -5  -2   0  761.21   60.70   1
  -5  -2   0  742.56   69.76   1
  -5  -2   1   22.75   20.61   1
  -5  -2   2  696.96   53.33   1
  -5  -2   2  584.19   47.86   1
  -5  -2   2  648.72   58.07   1
  -5  -2   3  -24.80   25.20   1
  -5  -2   3   30.14    9.88   1
  -5  -2   3   14.21   19.45   1
  -5  -2   4  164.10   26.64   1
  -5  -2   4  143.28   15.56   1
  -5  -2   5  317.55   34.57   1
  -5  -1  -7   26.73   24.82   1
  -5  -1  -7  110.88   23.38   1
  -5  -1  -6   14.75   29.57   1
  -5  -1  -5  274.90   40.12   1
  -5  -1  -5  281.90   30.56   1
  -5  -1  -4   29.92   30.85   1
  -5  -1  -3  357.21   38.18   1
  -5  -1  -3  416.57   49.39   1
  -5  -1  -2 2123.37  171.42   1
  -5  -1  -2 1976.69  197.40   1
  -5  -1  -1  726.84   58.77   1
  -5  -1  -1  767.84   67.06   1
  -5  -1   0  627.50   59.12   1
  -5  -1   1  808.83   62.00   1
  -5  -1   1  767.84   69.83   1
  -5  -1   2  781.76   67.10   1
  -5  -1   2  939.42   71.11   1
  -5  -1   2  952.96   76.56   1
  -5  -1   3   41.73   20.03   1
  -5  -1   3   52.85   23.12   1
  -5  -1   3   18.15    8.26   1
  -5  -1   4  379.86   37.03   1
  -5  -1   4  382.98   34.44   1
  -5   0  -7  152.03   27.87   1
  -5   0  -7  186.60   25.41   1
  -5   0  -6   93.70   21.88   1
  -5   0  -6   99.60   29.34   1
  -5   0  -5  280.56   38.19   1
  -5   0  -5  253.76   29.95   1
  -5   0  -4   18.66   17.63   1
  -5   0  -4  -22.47   30.05   1
  -5   0  -3  292.75   41.06   1
  -5   0  -3  259.85   28.69   1
  -5   0  -2  833.48   70.44   1
  -5   0  -2  717.70   63.76   1
  -5   0  -1   60.68   18.23   1
  -5   0  -1   48.16   29.70   1
  -5   0   0  720.39   68.71   1
  -5   0   0  902.40   66.69   1
  -5   0   1 1437.93  113.76   1
  -5   0   2   54.02   21.61   1
  -5   0   3  132.25   22.31   1
  -5   0   3  146.89   23.76   1
  -5   0   4  467.42   41.51   1
  -5   1  -7  349.32   31.77   1
  -5   1  -7  248.06   33.39   1
  -5   1  -6   99.00   20.89   1
  -5   1  -5   81.54   18.96   1
  -5   1  -5   40.70   25.52   1
  -5   1  -4   85.75   18.52   1
  -5   1  -3   31.47   29.62   1
  -5   1  -2   60.37   16.94   1
  -5   1  -1  127.01   27.27   1
  -5   1  -1   74.82   13.49   1
  -5   1   0  883.87   83.24   1
  -5   1   0 1056.90   79.97   1
  -5   1   1 2474.07  206.92   1
  -5   1   2   -1.06   13.86   1
  -5   1   2   16.00   19.12   1
  -5   1   2    2.07    5.18   1
  -5   1   2    6.97   13.89   1
  -5   1   3 1157.36   91.85   1
  -5   1   3 1290.96   85.51   1
  -5   1   4   -4.45   20.09   1
  -5   1   5  447.75   40.20   1
  -5   2  -7  102.21   18.80   1
  -5   2  -6  372.10   35.49   1
  -5   2  -6  304.50   37.34   1
  -5   2  -6  459.24   37.72   1
  -5   2  -5  182.25   27.00   1
  -5   2  -5  168.22   22.31   1
  -5   2  -5  194.04   23.40   1
  -5   2  -4  470.02   39.89   1
  -5   2  -4  421.89   44.78   1
  -5   2  -3  636.55   56.52   1
  -5   2  -3  727.38   66.89   1
  -5   2  -2   95.45   20.52   1
  -5   2  -2  119.68   15.97   1
  -5   2  -2   98.01   23.36   1
  -5   2  -2   88.36   16.73   1
  -5   2  -1 1046.52   84.76   1
  -5   2  -1  908.42   71.73   1
  -5   2  -1  929.03   79.25   1
  -5   2  -1  931.47   75.69   1
  -5   2   0  778.41   56.92   1
  -5   2   0  820.25   65.30   1
  -5   2   0  654.34   58.32   1
  -5   2   1 1088.34   74.56   1
  -5   2   1  840.42   83.49   1
  -5   2   2   -3.65    6.65   1
  -5   2   2  -25.81   13.61   1
  -5   2   3  106.30   16.29   1
  -5   2   3  113.42   21.51   1
  -5   2   4  222.61   21.78   1
  -5   2   4  277.56   28.32   1
  -5   2   5 1051.70   75.89   1
  -5   2   5 1105.56   82.46   1
  -5   3  -7  648.21   49.39   1
  -5   3  -7  496.84   52.60   1
  -5   3  -6  105.27   26.47   1
  -5   3  -6  137.83   25.12   1
  -5   3  -6  114.92   18.87   1
  -5   3  -6  154.50   23.12   1
  -5   3  -5  274.23   28.48   1
  -5   3  -5  235.62   30.39   1
  -5   3  -5  263.74   25.98   1
  -5   3  -5  199.94   25.45   1
  -5   3  -4   37.33   13.08   1
  -5   3  -4   62.88   15.23   1
  -5   3  -4   48.58   15.47   1
  -5   3  -4   15.44   20.12   1
  -5   3  -4   33.87   24.09   1
  -5   3  -3  689.59   60.40   1
  -5   3  -3  700.13   54.51   1
  -5   3  -3  744.20   56.74   1
  -5   3  -3  745.84   64.45   1
  -5   3  -3  716.10   55.66   1
  -5   3  -2   90.44   18.45   1
  -5   3  -2  107.95   14.96   1
  -5   3  -2   98.41   17.46   1
  -5   3  -2   80.46   25.30   1
  -5   3  -2  136.42   20.32   1
  -5   3  -1  590.98   47.16   1
  -5   3  -1  609.60   51.36   1
  -5   3  -1  590.49   48.60   1
  -5   3  -1  530.84   50.23   1
  -5   3   0  180.90   21.52   1
  -5   3   0  140.42   19.91   1
  -5   3   1 1354.24  114.82   1
  -5   3   1 1437.93  111.48   1
  -5   3   2  225.90   21.94   1
  -5   3   2  208.22   19.34   1
  -5   3   3  180.36   24.71   1
  -5   3   3  191.82   21.05   1
  -5   3   4  548.03   45.42   1
  -5   3   4  637.56   44.44   1
  -5   3   5  631.01   50.24   1
  -5   3   5  659.46   48.28   1
  -5   3   5  716.10   55.13   1
  -5   3   6   -2.82   15.49   1
  -5   3   6    6.60   14.70   1
  -5   3   7  -23.72   16.07   1
  -5   3   7    1.82   12.42   1
  -5   3   8  344.84   30.08   1
  -5   3   8  307.65   25.96   1
  -5   4  -7   12.11   17.68   1
  -5   4  -7   -0.92   18.41   1
  -5   4  -6  126.34   17.76   1
  -5   4  -6  164.10   26.64   1
  -5   4  -6  174.77   24.06   1
  -5   4  -6  165.12   22.62   1
  -5   4  -5   26.21   15.16   1
  -5   4  -5  -14.14    9.63   1
  -5   4  -5  -50.27   24.11   1
  -5   4  -5   21.90   18.44   1
  -5   4  -5   12.04   12.08   1
  -5   4  -4    6.15   10.07   1
  -5   4  -4  -14.36   12.73   1
  -5   4  -4  -11.83   22.84   1
  -5   4  -4   20.43   19.62   1
  -5   4  -4   -9.73   15.23   1
  -5   4  -3  577.44   47.10   1
  -5   4  -3  558.85   50.59   1
  -5   4  -3  642.62   48.67   1
  -5   4  -3  625.50   50.02   1
  -5   4  -2   36.60   14.40   1
  -5   4  -2   52.56   18.70   1
  -5   4  -2   44.62   16.97   1
  -5   4  -1  100.60   18.86   1
  -5   4  -1   95.45   19.15   1
  -5   4  -1   50.84   23.96   1
  -5   4   0   74.65   17.63   1
  -5   4   0   78.32   21.95   1
  -5   4   1   64.16   14.90   1
  -5   4   1   88.92   18.67   1
  -5   4   2  231.04   24.32   1
  -5   4   2  232.56   21.35   1
  -5   4   2  261.47   23.28   1
  -5   4   3   48.30   17.65   1
  -5   4   3   40.20   13.31   1
  -5   4   4   84.09   14.49   1
  -5   4   4   84.46   18.93   1
  -5   4   5  475.68   40.13   1
  -5   4   5  491.95   43.92   1
  -5   4   5  515.74   41.79   1
  -5   4   6  132.25   20.24   1
  -5   4   6  130.87   20.59   1
  -5   4   7  757.90   67.17   1
  -5   4   7  800.32   63.94   1
  -5   4   8   95.45   15.05   1
  -5   4   8   93.51   19.53   1
  -5   4   9   76.56   18.55   1
  -5   4   9   67.90   11.87   1
  -5   4  10   72.42   59.06   1
  -5   5  -7   89.87   19.15   1
  -5   5  -7   98.21   24.38   1
  -5   5  -6  211.41   25.59   1
  -5   5  -6  211.99   23.88   1
  -5   5  -6  197.40   27.26   1
  -5   5  -6  144.00   17.52   1
  -5   5  -5   44.49   13.74   1
  -5   5  -5   51.12   16.73   1
  -5   5  -5   59.75   21.64   1
  -5   5  -4  170.04   19.82   1
  -5   5  -4  146.17   26.84   1
  -5   5  -4  176.89   20.48   1
  -5   5  -4  191.82   25.76   1
  -5   5  -3  342.62   35.17   1
  -5   5  -3  346.70   29.05   1
  -5   5  -3  320.77   29.37   1
  -5   5  -3  361.38   33.08   1
  -5   5  -2   21.62   16.27   1
  -5   5  -2   15.84   19.02   1
  -5   5  -2   36.36   22.79   1
  -5   5  -1  993.51   80.06   1
  -5   5  -1 1047.17   78.31   1
  -5   5  -1  992.25   76.23   1
  -5   5   0 1846.42  130.63   1
  -5   5   0 1822.44  136.61   1
  -5   5   0 1599.20  127.17   1
  -5   5   0 1956.29  148.61   1
  -5   5   1   85.38   20.14   1
  -5   5   1   76.74   18.05   1
  -5   5   1   75.52   18.77   1
  -5   5   1   71.06   17.87   1
  -5   5   2  276.56   24.61   1
  -5   5   2  227.10   26.22   1
  -5   5   2  299.98   26.67   1
  -5   5   3    8.29   15.44   1
  -5   5   3   31.47   19.19   1
  -5   5   4   84.82   19.34   1
  -5   5   4   88.74   19.41   1
  -5   5   4   98.01   21.38   1
  -5   5   5  -10.82   17.96   1
  -5   5   5   -0.76   18.84   1
  -5   5   5   14.59   16.20   1
  -5   5   6   52.13   17.04   1
  -5   5   7  365.57   32.50   1
  -5   5   7  409.25   36.01   1
  -5   5   8  461.39   38.23   1
  -5   5   8  529.00   43.24   1
  -5   5   9   45.97   12.88   1
  -5   5   9   56.70   19.58   1
  -5   6  -6  -11.36   15.70   1
  -5   6  -6   15.44   15.88   1
  -5   6  -6   -7.08   10.85   1
  -5   6  -6   -3.65   22.84   1
  -5   6  -5   26.21   17.51   1
  -5   6  -5   -8.18   20.36   1
  -5   6  -5    1.51   22.16   1
  -5   6  -5    4.12   12.34   1
  -5   6  -4   65.93   21.11   1
  -5   6  -4   78.68   16.68   1
  -5   6  -4   40.20   20.67   1
  -5   6  -4   65.93   15.43   1
  -5   6  -3  115.56   16.56   1
  -5   6  -3  105.27   22.57   1
  -5   6  -3   87.42   23.19   1
  -5   6  -2   29.81   19.00   1
  -5   6  -2   -6.50   19.53   1
  -5   6  -1  312.23   30.39   1
  -5   6  -1  273.57   29.44   1
  -5   6  -1  299.98   30.14   1
  -5   6   0 1796.06  133.07   1
  -5   6   0 1923.70  141.23   1
  -5   6   0 1926.33  137.81   1
  -5   6   0 1829.27  156.54   1
  -5   6   1   40.83   18.79   1
  -5   6   1   13.99   20.87   1
  -5   6   1   -3.42   18.43   1
  -5   6   2  430.98   34.05   1
  -5   6   2  327.61   30.77   1
  -5   6   2  434.31   34.59   1
  -5   6   3   49.84   19.06   1
  -5   6   3    8.53   19.51   1
  -5   6   4   27.25   17.96   1
  -5   6   4   29.38   17.56   1
  -5   6   4   -6.40   18.87   1
  -5   6   5   72.76   18.08   1
  -5   6   5   44.89   17.55   1
  -5   6   5    3.39   18.84   1
  -5   6   6  -22.00   17.54   1
  -5   6   6  -21.16   18.12   1
  -5   6   7  315.06   29.11   1
  -5   6   7  274.23   31.13   1
  -5   6   8  395.21   33.40   1
  -5   6   8  449.86   37.75   1
  -5   6   9   99.00   15.52   1
  -5   6   9   98.60   53.03   1
  -5   7  -6  396.01   37.01   1
  -5   7  -6  317.20   30.28   1
  -5   7  -6  402.40   34.50   1
  -5   7  -5   10.43   13.57   1
  -5   7  -5    4.49   15.65   1
  -5   7  -5   31.70   22.07   1
  -5   7  -5   -7.95   18.61   1
  -5   7  -4  383.38   36.81   1
  -5   7  -4  372.88   33.21   1
  -5   7  -4  421.07   38.58   1
  -5   7  -3    5.29   15.46   1
  -5   7  -3    5.43   17.29   1
  -5   7  -3    1.80   20.98   1
  -5   7  -2  101.20   16.90   1
  -5   7  -1   90.44   22.44   1
  -5   7  -1  175.56   23.06   1
  -5   7  -1  130.42   23.75   1
  -5   7  -1  155.00   21.17   1
  -5   7   0  911.44   72.46   1
  -5   7   0  993.51   83.84   1
  -5   7   0  841.58   70.78   1
  -5   7   0 1077.81   74.20   1
  -5   7   1   51.55   22.40   1
  -5   7   1   35.88   18.93   1
  -5   7   1   14.06   16.05   1
  -5   7   1   26.21   18.94   1
  -5   7   2  737.12   55.93   1
  -5   7   2  667.71   69.77   1
  -5   7   2  730.62   54.06   1
  -5   7   2  580.81   53.02   1
  -5   7   3    2.31   20.55   1
  -5   7   3   -2.89   19.38   1
  -5   7   4   33.64   19.60   1
  -5   7   4   79.57   19.80   1
  -5   7   4   46.79   16.55   1
  -5   7   5   73.27   19.52   1
  -5   7   5   69.72   16.53   1
  -5   7   5   43.16   19.97   1
  -5   7   6    1.19   19.75   1
  -5   7   6   19.01   17.88   1
  -5   7   7  563.59   49.38   1
  -5   7   7  557.90   46.30   1
  -5   7   8   -9.00   15.30   1
  -5   7   8  -14.21   31.29   1
  -5   8  -5   -9.73   23.28   1
  -5   8  -5   44.09   13.15   1
  -5   8  -5   39.56   15.73   1
  -5   8  -4    6.45   20.83   1
  -5   8  -4   13.54   15.60   1
  -5   8  -3   13.03   15.74   1
  -5   8  -3  -23.91   21.32   1
  -5   8  -2  147.38   24.28   1
  -5   8  -2  114.28   22.88   1
  -5   8  -2  111.51   20.49   1
  -5   8  -1   12.60   19.88   1
  -5   8  -1   -0.44   22.00   1
  -5   8  -1   18.32   20.97   1
  -5   8  -1   11.36   18.33   1
  -5   8   0  163.84   26.37   1
  -5   8   0  182.79   24.88   1
  -5   8   0  158.76   21.67   1
  -5   8   0  159.77   23.00   1
  -5   8   1   16.89   23.02   1
  -5   8   1   23.52   14.45   1
  -5   8   1   31.25   17.44   1
  -5   8   1  -20.34   19.57   1
  -5   8   2   37.70   11.42   1
  -5   8   2   42.25   20.02   1
  -5   8   3  150.55   24.05   1
  -5   8   3  154.26   24.59   1
  -5   8   3  145.68   20.52   1
  -5   8   4   15.60   14.85   1
  -5   8   4   13.32   19.35   1
  -5   8   5  128.14   18.34   1
  -5   8   5  142.32   22.19   1
  -5   8   5  147.14   24.75   1
  -5   8   6   53.73   19.50   1
  -5   8   6   26.11   20.44   1
  -5   8   7  -25.91   18.02   1
  -5   8   7   19.45   17.11   1
  -5   8   8   75.34   18.40   1
  -5   9  -4   14.75   15.51   1
  -5   9  -4   -6.60   22.82   1
  -5   9  -3   15.84   21.73   1
  -5   9  -3  -35.64   19.94   1
  -5   9  -2   37.70   19.03   1
  -5   9  -2   24.80   24.90   1
  -5   9  -2   64.16   20.99   1
  -5   9  -2   16.48   19.65   1
  -5   9  -1  -15.37   17.64   1
  -5   9  -1  -22.85   23.23   1
  -5   9  -1  -15.52   20.96   1
  -5   9  -1  -25.70   20.08   1
  -5   9   0  -11.36   15.37   1
  -5   9   0   17.14   19.71   1
  -5   9   0  -12.60   22.72   1
  -5   9   0  -11.02   18.59   1
  -5   9   1  -28.94   18.40   1
  -5   9   1   10.24   13.76   1
  -5   9   1  -32.72   23.22   1
  -5   9   1    2.69   20.11   1
  -5   9   2   42.25   23.01   1
  -5   9   2   29.38   10.95   1
  -5   9   3  166.93   23.26   1
  -5   9   3  231.34   28.59   1
  -5   9   3  211.12   26.15   1
  -5   9   4   16.56   20.35   1
  -5   9   4   12.18   13.82   1
  -5   9   4   29.48   20.96   1
  -5   9   5   -5.57   19.64   1
  -5   9   5   -1.30   10.81   1
  -5   9   5  -35.88   20.61   1
  -5   9   6  235.62   28.24   1
  -5   9   6  219.63   25.79   1
  -5  10  -3  295.50   31.29   1
  -5  10  -3  282.58   28.24   1
  -5  10  -3  269.29   34.79   1
  -5  10  -2   88.92   20.56   1
  -5  10  -2  101.20   20.52   1
  -5  10  -2   71.91   20.86   1
  -5  10  -2  101.61   27.01   1
  -5  10  -1  392.04   39.20   1
  -5  10  -1  470.46   62.47   1
  -5  10  -1  359.48   33.75   1
  -5  10  -1  374.04   33.65   1
  -5  10   0   18.32   15.32   1
  -5  10   0  -64.48   63.44   1
  -5  10   0   18.15   22.15   1
  -5  10   0   -8.41   23.78   1
  -5  10   1   80.28   23.83   1
  -5  10   1   42.38   13.54   1
  -5  10   1   55.35   20.98   1
  -5  10   2  111.30   22.79   1
  -5  10   2   82.81   12.56   1
  -5  10   3  119.68   25.60   1
  -5  10   3  115.35   24.70   1
  -5  10   3  147.38   20.15   1
  -5  10   4   28.62   20.22   1
  -5  10   4    7.56   18.15   1
  -5  10   4    8.70   11.51   1
  -5  10   5   62.25   20.04   1
  -5  11   0   27.56   13.23   1
  -5  11   0  -33.99   20.99   1
  -5  11   0  -22.28   23.22   1
  -5  11   1   57.76   12.62   1
  -5  11   1   92.16   22.08   1
  -5  11   1  102.21   22.85   1
  -5  11   2  -10.96   20.52   1
  -4  -9   0  171.09   26.94   1
  -4  -9   0  135.02   38.58   1
  -4  -9   1   -2.31   26.54   1
  -4  -9   1  -31.02   90.79   1
  -4  -9   2  945.56   77.49   1
  -4  -9   2  971.57   96.00   1
  -4  -9   3  203.63   25.97   1
  -4  -9   3  160.53   32.94   1
  -4  -9   4   53.29   23.65   1
  -4  -9   5    6.60   19.17   1
  -4  -9   5    1.59   18.40   1
  -4  -9   6  124.32   19.40   1
  -4  -9   6  144.96   23.36   1
  -4  -8  -2  -18.32   24.05   1
  -4  -8  -1   49.00   23.66   1
  -4  -8  -1    4.67   35.29   1
  -4  -8   0  -78.32   37.88   1
  -4  -8   0   -4.88   21.61   1
  -4  -8   1  127.01   34.71   1
  -4  -8   1  172.66   25.49   1
  -4  -8   2  681.21   56.90   1
  -4  -8   2  668.74   66.20   1
  -4  -8   3  581.77   49.20   1
  -4  -8   3  606.14   55.64   1
  -4  -8   4  -23.43   23.33   1
  -4  -8   4   -9.00   19.44   1
  -4  -8   5  152.52   22.97   1
  -4  -8   5  159.26   24.74   1
  -4  -8   6   59.60   18.22   1
  -4  -8   6   55.06   21.07   1
  -4  -8   7  -10.18   20.10   1
  -4  -8   8    5.34   18.90   1
  -4  -7  -4   -8.01   23.66   1
  -4  -7  -3  323.64   36.70   1
  -4  -7  -2    5.71   38.05   1
  -4  -7  -2    3.42   22.72   1
  -4  -7  -1  171.87   28.06   1
  -4  -7  -1  215.21   41.96   1
  -4  -7   0   27.14   21.88   1
  -4  -7   0   36.84   34.11   1
  -4  -7   1   87.98   34.52   1
  -4  -7   1   16.16   19.70   1
  -4  -7   2  268.30   35.71   1
  -4  -7   2  263.09   27.25   1
  -4  -7   3  601.23   50.51   1
  -4  -7   3  590.98   58.83   1
  -4  -7   4   -7.40   19.37   1
  -4  -7   4   -7.62   22.85   1
  -4  -7   5  840.42   66.68   1
  -4  -7   5  800.89   71.88   1
  -4  -7   6   44.62   20.31   1
  -4  -7   7    0.37   20.18   1
  -4  -6  -5  122.10   31.60   1
  -4  -6  -4  -14.36   25.92   1
  -4  -6  -4   15.76   37.16   1
  -4  -6  -3  578.88   54.38   1
  -4  -6  -2   -8.07   37.60   1
  -4  -6  -2   24.11   24.75   1
  -4  -6  -1  142.09   26.22   1
  -4  -6   0  282.91   45.08   1
  -4  -6   0  307.30   31.90   1
  -4  -6   1  -22.37   19.49   1
  -4  -6   1  -30.91   34.81   1
  -4  -6   2  548.96   56.70   1
  -4  -6   2  562.64   46.97   1
  -4  -6   3   -5.20   26.17   1
  -4  -6   3    8.76   20.48   1
  -4  -6   4  517.11   42.30   1
  -4  -6   4  440.58   47.44   1
  -4  -6   5   85.75   20.93   1
  -4  -6   5   96.63   19.46   1
  -4  -6   6   23.91   18.09   1
  -4  -6   6   44.22   15.56   1
  -4  -6   7   14.14   18.57   1
  -4  -5  -5  -60.37   39.94   1
  -4  -5  -4  -73.79   40.37   1
  -4  -5  -4   -7.13   28.09   1
  -4  -5  -2  615.54   54.09   1
  -4  -5  -2  539.63   64.11   1
  -4  -5  -1   -4.80   38.72   1
  -4  -5   0 1482.25  127.05   1
  -4  -5   0 1492.28  111.25   1
  -4  -5   1  169.00   39.78   1
  -4  -5   1  161.29   24.38   1
  -4  -5   2 2329.03  190.14   1
  -4  -5   2 2298.24  176.42   1
  -4  -5   3 1347.62  104.99   1
  -4  -5   3 1384.58  120.56   1
  -4  -5   4  266.67   30.05   1
  -4  -5   4  331.24   35.67   1
  -4  -5   5 2097.64  168.54   1
  -4  -5   5 2091.23  155.48   1
  -4  -5   6  164.87   21.06   1
  -4  -5   6  152.03   21.21   1
  -4  -5   7  353.82   31.98   1
  -4  -4  -6  331.60   38.61   1
  -4  -4  -6  275.23   46.78   1
  -4  -4  -5  231.04   46.82   1
  -4  -4  -5  258.89   33.79   1
  -4  -4  -4  242.11   45.12   1
  -4  -4  -4  160.78   32.71   1
  -4  -4  -3  918.70   73.35   1
  -4  -4  -3  737.12   81.99   1
  -4  -4  -2  -62.41   28.91   1
  -4  -4  -2   43.30   43.03   1
  -4  -4  -2  -23.81   11.32   1
  -4  -4  -1  868.48   77.21   1
  -4  -4  -1  796.93   77.35   1
  -4  -4   0  250.59   26.91   1
  -4  -4   0  178.22   20.03   1
  -4  -4   1 1483.79  120.18   1
  -4  -4   1 1456.19  106.85   1
  -4  -4   2   38.44   17.48   1
  -4  -4   3  158.51   20.40   1
  -4  -4   3  166.93   28.94   1
  -4  -4   4  354.19   31.24   1
  -4  -4   4  335.26   35.89   1
  -4  -4   5  239.63   23.84   1
  -4  -4   5  198.25   26.19   1
  -4  -4   6  151.78   20.20   1
  -4  -3  -7  -11.29   30.84   1
  -4  -3  -7    6.92   25.72   1
  -4  -3  -6  204.20   32.01   1
  -4  -3  -6  159.77   41.96   1
  -4  -3  -5   17.81   36.46   1
  -4  -3  -4  323.28   48.19   1
  -4  -3  -4  432.64   41.60   1
  -4  -3  -3  -35.52   28.13   1
  -4  -3  -3  -20.07   42.65   1
  -4  -3  -2  738.21   76.08   1
  -4  -3  -2  674.96   67.03   1
  -4  -3  -1   45.16   39.92   1
  -4  -3  -1   61.62   26.53   1
  -4  -3   0  433.89   34.99   1
  -4  -3   0  344.84   45.31   1
  -4  -3   1 1139.06   85.05   1
  -4  -3   1 1209.65   96.69   1
  -4  -3   1 1147.18   94.84   1
  -4  -3   2 1433.38  118.88   1
  -4  -3   2 1684.28  132.15   1
  -4  -3   3   69.22   14.48   1
  -4  -3   3   17.98   23.66   1
  -4  -3   4  544.29   43.39   1
  -4  -3   4  576.48   49.94   1
  -4  -3   5  239.01   27.83   1
  -4  -3   5  215.50   22.31   1
  -4  -2  -7   -2.92   24.86   1
  -4  -2  -7  -26.42   34.13   1
  -4  -2  -6  138.30   38.10   1
  -4  -2  -6  104.45   26.16   1
  -4  -2  -5   69.89   23.74   1
  -4  -2  -4    1.44   38.57   1
  -4  -2  -4   18.23   24.34   1
  -4  -2  -3   21.90   23.96   1
  -4  -2  -2  277.22   33.30   1
  -4  -2  -2  293.09   46.57   1
  -4  -2  -1    5.57   21.62   1
  -4  -2  -1  -27.25   33.30   1
  -4  -2   0  126.11   18.64   1
  -4  -2   0  111.30   30.60   1
  -4  -2   1 1567.37  115.60   1
  -4  -2   1 1570.54  124.44   1
  -4  -2   2  789.61   60.13   1
  -4  -2   2  677.04   57.24   1
  -4  -2   2  811.11   65.50   1
  -4  -2   3 2308.80  179.71   1
  -4  -2   3 2077.54  164.09   1
  -4  -2   4 4879.02  360.43   1
  -4  -2   4 4600.91  392.06   1
  -4  -1  -7  -20.34   23.81   1
  -4  -1  -7    2.62   30.68   1
  -4  -1  -6  387.30   48.41   1
  -4  -1  -6  458.39   38.54   1
  -4  -1  -5   64.64   34.09   1
  -4  -1  -5  -11.49   21.29   1
  -4  -1  -4  129.50   41.65   1
  -4  -1  -4  151.54   25.60   1
  -4  -1  -3  106.09   36.46   1
  -4  -1  -3   92.16   23.42   1
  -4  -1  -2  111.94   36.82   1
  -4  -1  -2   76.74   21.37   1
  -4  -1  -1   31.58   28.32   1
  -4  -1  -1  -15.13   16.73   1
  -4  -1   0   11.49   14.17   1
  -4  -1   0   18.49   26.23   1
  -4  -1   1  684.87   55.48   1
  -4  -1   1  636.05   50.44   1
  -4  -1   2  512.12   44.81   1
  -4  -1   2  533.61   41.58   1
  -4  -1   2  589.03   50.48   1
  -4  -1   3   32.26   17.84   1
  -4  -1   3   19.71   17.58   1
  -4  -1   3   27.77    7.27   1
  -4   0  -8   88.55   23.15   1
  -4   0  -8   91.58   24.31   1
  -4   0  -7  127.24   24.36   1
  -4   0  -6    9.00   29.94   1
  -4   0  -6  -22.00   19.98   1
  -4   0  -5  374.42   33.67   1
  -4   0  -5  308.70   43.22   1
  -4   0  -4  247.12   41.82   1
  -4   0  -4  246.18   27.93   1
  -4   0  -3 1410.75  108.92   1
  -4   0  -3 1493.05  125.97   1
  -4   0  -2  957.90   81.09   1
  -4   0  -2  907.82   71.71   1
  -4   0  -1  336.72   30.09   1
  -4   0  -1  389.67   38.69   1
  -4   0   0 2272.43  176.38   1
  -4   0   0 2204.30  166.20   1
  -4   0   1   43.96   14.32   1
  -4   0   2 2504.00  192.15   1
  -4   0   2 2226.90  193.48   1
  -4   0   2 2757.30  203.74   1
  -4   0   3  868.48   67.78   1
  -4   0   3  925.38   72.40   1
  -4   0   4 5955.21  419.80   1
  -4   1  -8   58.22   21.36   1
  -4   1  -8   97.42   22.50   1
  -4   1  -7  292.07   37.60   1
  -4   1  -7  363.66   34.71   1
  -4   1  -6  -41.09   24.87   1
  -4   1  -6    3.28   18.35   1
  -4   1  -5  615.04   71.42   1
  -4   1  -5  734.41   53.66   1
  -4   1  -4  208.80   33.24   1
  -4   1  -4  172.13   24.14   1
  -4   1  -3  175.56   20.67   1
  -4   1  -3  148.84   32.94   1
  -4   1  -2  979.06   80.73   1
  -4   1  -2  895.80   72.43   1
  -4   1  -1  266.67   31.35   1
  -4   1  -1  287.98   23.76   1
  -4   1   0   19.80   18.24   1
  -4   1   0   -2.56   12.35   1
  -4   1   0   -2.76    6.47   1
  -4   1   1   55.80    8.07   1
  -4   1   1   89.30   17.58   1
  -4   1   2 1416.02  116.65   1
  -4   1   2 1475.33  109.85   1
  -4   1   2 1454.66  102.22   1
  -4   1   3  320.77   28.66   1
  -4   1   3  353.44   27.07   1
  -4   1   4  907.82   71.71   1
  -4   1   4  994.14   66.21   1
  -4   2  -8  222.61   30.44   1
  -4   2  -8  285.27   30.06   1
  -4   2  -7  150.06   24.99   1
  -4   2  -7  247.43   26.74   1
  -4   2  -7  214.62   26.66   1
  -4   2  -7  214.62   26.66   1
  -4   2  -6   71.23   17.05   1
  -4   2  -6  102.82   21.29   1
  -4   2  -6   80.10   24.34   1
  -4   2  -6  114.49   21.83   1
  -4   2  -5  497.29   45.05   1
  -4   2  -5  553.66   50.35   1
  -4   2  -5  577.44   44.70   1
  -4   2  -4   10.50   17.30   1
  -4   2  -4   19.45   23.02   1
  -4   2  -4   -7.56   23.05   1
  -4   2  -3   66.91   14.07   1
  -4   2  -3   45.56   24.43   1
  -4   2  -3   50.84   21.25   1
  -4   2  -2  121.44   23.36   1
  -4   2  -2  108.16   15.60   1
  -4   2  -2   87.05   20.53   1
  -4   2  -2  103.23   18.08   1
  -4   2  -2   86.86   13.23   1
  -4   2  -1  249.64   26.86   1
  -4   2  -1  239.63   24.77   1
  -4   2  -1  265.36   21.50   1
  -4   2  -1  262.44   23.33   1
  -4   2  -1  260.50   24.21   1
  -4   2   0   22.18   10.17   1
  -4   2   0   12.67    5.13   1
  -4   2   0    9.80   14.46   1
  -4   2   0   31.47   14.47   1
  -4   2   1  297.91   24.16   1
  -4   2   1  241.49   23.31   1
  -4   2   2  337.82   25.36   1
  -4   2   2  286.29   25.38   1
  -4   2   3   39.56   16.98   1
  -4   2   3   28.62   13.70   1
  -4   2   4   66.91   18.16   1
  -4   2   4   44.89   11.66   1
  -4   2   4   64.00   13.92   1
  -4   2   5   87.61   14.23   1
  -4   2   5   60.68   15.42   1
  -4   2   6   48.44   13.08   1
  -4   2   7  279.89   27.10   1
  -4   2   7  239.01   21.64   1
  -4   3  -8   41.47   21.25   1
  -4   3  -8   29.27   22.83   1
  -4   3  -7  227.41   26.84   1
  -4   3  -7  179.56   26.80   1
  -4   3  -7  144.96   20.47   1
  -4   3  -7  192.93   25.84   1
  -4   3  -6    8.35   17.46   1
  -4   3  -6   20.52   20.48   1
  -4   3  -6   16.16   13.59   1
  -4   3  -6   49.84   20.76   1
  -4   3  -5  252.81   26.71   1
  -4   3  -5  163.07   21.96   1
  -4   3  -5  193.49   25.04   1
  -4   3  -5  200.79   18.42   1
  -4   3  -5  209.09   28.34   1
  -4   3  -4   70.56   22.34   1
  -4   3  -4   48.72   17.17   1
  -4   3  -4   48.30   20.29   1
  -4   3  -4   50.27   13.47   1
  -4   3  -4   11.36   17.32   1
  -4   3  -3   88.74   16.58   1
  -4   3  -3  111.72   17.12   1
  -4   3  -3  103.43   24.41   1
  -4   3  -3   78.85   15.63   1
  -4   3  -3  131.10   20.61   1
  -4   3  -2  184.14   20.35   1
  -4   3  -2  199.09   20.04   1
  -4   3  -2  203.63   25.69   1
  -4   3  -2  215.21   22.59   1
  -4   3  -2  160.02   20.75   1
  -4   3  -1  165.64   20.08   1
  -4   3  -1  194.60   23.16   1
  -4   3  -1  199.94   19.80   1
  -4   3   0  139.71   19.38   1
  -4   3   0  114.70   15.64   1
  -4   3   0  108.16   15.18   1
  -4   3   1 1964.26  142.71   1
  -4   3   1 1852.44  147.20   1
  -4   3   1 1831.84  149.80   1
  -4   3   2   15.13    9.96   1
  -4   3   2   19.45    9.70   1
  -4   3   2   14.59   10.47   1
  -4   3   3 4928.04  329.94   1
  -4   3   3 4914.01  325.26   1
  -4   3   3 4514.50  306.39   1
  -4   3   4  246.80   22.62   1
  -4   3   4  220.23   21.96   1
  -4   3   4  275.56   25.90   1
  -4   3   5 1647.55  139.63   1
  -4   3   5 1653.24  132.55   1
  -4   3   5 2123.37  143.77   1
  -4   3   6  230.74   22.78   1
  -4   3   6  274.23   26.16   1
  -4   3   7 1267.36   91.14   1
  -4   3   7 1095.61   89.37   1
  -4   3   8  157.25   14.80   1
  -4   3   9   34.11   16.12   1
  -4   4  -8   41.86   18.89   1
  -4   4  -7  302.76   30.62   1
  -4   4  -7  294.12   30.18   1
  -4   4  -7  260.82   31.65   1
  -4   4  -6  472.19   39.11   1
  -4   4  -6  369.79   33.08   1
  -4   4  -6  377.14   38.45   1
  -4   4  -6  487.53   39.30   1
  -4   4  -5   45.97   17.22   1
  -4   4  -5   38.69   11.69   1
  -4   4  -5   54.91   18.97   1
  -4   4  -5   39.44    9.17   1
  -4   4  -4  115.35   24.49   1
  -4   4  -4   86.12   21.72   1
  -4   4  -4  129.96   15.50   1
  -4   4  -4  100.20   18.42   1
  -4   4  -3  282.58   31.60   1
  -4   4  -3  297.56   30.70   1
  -4   4  -3  312.94   26.89   1
  -4   4  -3  292.07   27.69   1
  -4   4  -2  236.85   23.39   1
  -4   4  -2  259.21   26.73   1
  -4   4  -2  246.49   27.95   1
  -4   4  -1  809.97   62.04   1
  -4   4  -1  781.20   59.81   1
  -4   4  -1  867.30   58.31   1
  -4   4   0   36.84   15.78   1
  -4   4   0    6.92   14.62   1
  -4   4   0   29.81   16.16   1
  -4   4   1   11.09   14.72   1
  -4   4   1  -12.96   14.33   1
  -4   4   1    1.64   14.39   1
  -4   4   1    5.38   13.92   1
  -4   4   2  263.09   24.01   1
  -4   4   2  255.36   24.93   1
  -4   4   2  278.22   24.69   1
  -4   4   3  190.44   20.42   1
  -4   4   3  177.69   20.26   1
  -4   4   3  190.72   22.65   1
  -4   4   4  496.40   43.67   1
  -4   4   4  586.61   44.56   1
  -4   4   4  483.56   40.46   1
  -4   4   5   25.60   15.69   1
  -4   4   5   33.52   17.95   1
  -4   4   5   60.22   16.76   1
  -4   4   6  130.19   17.11   1
  -4   4   6  138.30   21.87   1
  -4   4   7    5.43   11.51   1
  -4   4   7  -21.62   17.86   1
  -4   4   8  124.99   21.02   1
  -4   4   8   98.21   14.67   1
  -4   4   9    1.69    9.10   1
  -4   4   9   36.97   19.58   1
  -4   4  10   26.01   18.36   1
  -4   5  -7  110.04   22.03   1
  -4   5  -7  120.34   25.23   1
  -4   5  -7  121.44   12.56   1
  -4   5  -6   47.47   12.54   1
  -4   5  -6   66.59   20.07   1
  -4   5  -6   65.29   19.55   1
  -4   5  -5   29.59   12.19   1
  -4   5  -5   -6.60   19.89   1
  -4   5  -5   52.56   22.62   1
  -4   5  -4  212.58   27.41   1
  -4   5  -4  159.52   22.48   1
  -4   5  -4  207.94   20.48   1
  -4   5  -4  207.07   25.90   1
  -4   5  -3   96.63   22.02   1
  -4   5  -3   82.63   17.63   1
  -4   5  -3   69.72   24.05   1
  -4   5  -2  143.04   24.40   1
  -4   5  -2  156.75   23.54   1
  -4   5  -2  166.93   20.16   1
  -4   5  -1 1751.42  129.73   1
  -4   5  -1 1604.80  123.38   1
  -4   5  -1 1638.63  117.39   1
  -4   5   0  245.86   26.66   1
  -4   5   0  204.20   24.01   1
  -4   5   0  210.54   23.51   1
  -4   5   0  187.69   24.39   1
  -4   5   1 1126.27   83.90   1
  -4   5   1  915.67   75.04   1
  -4   5   1 1083.73   78.35   1
  -4   5   1 1063.41   85.44   1
  -4   5   2  147.14   20.14   1
  -4   5   2  105.68   19.94   1
  -4   5   2  105.47   13.56   1
  -4   5   2  114.06   22.43   1
  -4   5   3  882.68   67.74   1
  -4   5   3  884.47   79.11   1
  -4   5   3  885.06   72.00   1
  -4   5   4   78.15   20.33   1
  -4   5   4   53.29   18.98   1
  -4   5   4   74.48   18.64   1
  -4   5   5 1450.85  103.60   1
  -4   5   5 1394.28   98.58   1
  -4   5   5 1326.42  107.07   1
  -4   5   6  918.09   70.90   1
  -4   5   6  836.37   75.77   1
  -4   5   7   43.69   14.41   1
  -4   5   7   64.16   20.19   1
  -4   5   8   11.36   18.67   1
  -4   5   8  -12.82   13.03   1
  -4   5   9  138.30   14.58   1
  -4   5   9  146.41   23.72   1
  -4   5  10   33.99    8.28   1
  -4   6  -7   19.89   18.02   1
  -4   6  -7   12.25    9.73   1
  -4   6  -7    9.24   15.81   1
  -4   6  -6  317.20   31.70   1
  -4   6  -6  241.80   30.79   1
  -4   6  -6  300.33   30.15   1
  -4   6  -5   -6.30   13.10   1
  -4   6  -5   18.32   15.84   1
  -4   6  -5   -4.93   16.29   1
  -4   6  -5   53.29   21.17   1
  -4   6  -4  300.33   29.46   1
  -4   6  -4  198.25   30.41   1
  -4   6  -4  235.01   23.30   1
  -4   6  -3  -27.04   21.74   1
  -4   6  -3   11.97   14.88   1
  -4   6  -3  -43.69   21.28   1
  -4   6  -2   19.54   18.56   1
  -4   6  -2   15.52   20.25   1
  -4   6  -1   45.43   19.68   1
  -4   6  -1   39.94   14.66   1
  -4   6  -1   89.11   22.09   1
  -4   6   0   -0.71   18.45   1
  -4   6   0   11.90   23.94   1
  -4   6   0  -16.00   16.88   1
  -4   6   0   -0.79   19.88   1
  -4   6   1  202.78   28.48   1
  -4   6   1  172.66   19.45   1
  -4   6   1  216.97   25.34   1
  -4   6   1  172.13   24.40   1
  -4   6   2  386.91   48.78   1
  -4   6   2  428.08   39.31   1
  -4   6   2  518.47   44.17   1
  -4   6   3   72.76   22.86   1
  -4   6   3   94.48   21.77   1
  -4   6   3  109.20   20.69   1
  -4   6   4   96.63   21.63   1
  -4   6   4   48.58   16.59   1
  -4   6   4   52.56   17.55   1
  -4   6   5  773.40   69.53   1
  -4   6   5  930.25   64.66   1
  -4   6   5  947.41   70.79   1
  -4   6   6   15.05   16.68   1
  -4   6   6  -20.07   19.26   1
  -4   6   7   86.30   17.65   1
  -4   6   7  117.94   20.85   1
  -4   6   8  166.15   19.59   1
  -4   6   8  158.76   24.19   1
  -4   6   9   11.70   12.04   1
  -4   6   9   28.73   19.94   1
  -4   7  -7   25.91   16.29   1
  -4   7  -7   -4.71   18.27   1
  -4   7  -6  162.31   18.86   1
  -4   7  -6  249.96   29.09   1
  -4   7  -6  164.35   23.33   1
  -4   7  -5   15.60   21.49   1
  -4   7  -5   13.84   13.24   1
  -4   7  -4  181.17   24.50   1
  -4   7  -4  170.56   20.11   1
  -4   7  -4  163.33   26.58   1
  -4   7  -3    3.10   19.18   1
  -4   7  -3   11.97   15.99   1
  -4   7  -3   13.03   19.93   1
  -4   7  -2  -44.76   20.74   1
  -4   7  -2  -32.83   18.79   1
  -4   7  -2   13.76   17.88   1
  -4   7  -1   32.83   17.99   1
  -4   7  -1    5.57   19.40   1
  -4   7  -1   -2.28   20.05   1
  -4   7   0   35.05   24.63   1
  -4   7   0   -1.56   19.62   1
  -4   7   0   26.21   20.68   1
  -4   7   0   40.96   16.00   1
  -4   7   1   77.79   21.52   1
  -4   7   1   46.38   14.30   1
  -4   7   1   76.74   26.10   1
  -4   7   1   58.68   21.29   1
  -4   7   2  251.86   28.25   1
  -4   7   2  247.75   22.67   1
  -4   7   2  275.56   32.20   1
  -4   7   3  227.10   25.62   1
  -4   7   3  248.38   31.20   1
  -4   7   3  228.01   26.88   1
  -4   7   4  658.44   49.78   1
  -4   7   4  532.69   56.32   1
  -4   7   4  654.85   52.20   1
  -4   7   5  176.62   22.86   1
  -4   7   5  142.56   16.72   1
  -4   7   5  159.52   23.24   1
  -4   7   6 1327.87  102.03   1
  -4   7   6 1314.79   97.90   1
  -4   7   7  -13.18   20.47   1
  -4   7   7    7.90   24.05   1
  -4   7   8 1012.51   77.00   1
  -4   7   8  830.59   76.08   1
  -4   8  -6  186.87   22.15   1
  -4   8  -6  244.61   29.72   1
  -4   8  -6  264.71   26.36   1
  -4   8  -5  229.83   28.80   1
  -4   8  -5  248.69   29.65   1
  -4   8  -5  245.55   23.51   1
  -4   8  -4  129.96   21.43   1
  -4   8  -4  164.10   25.62   1
  -4   8  -4  191.27   25.45   1
  -4   8  -3  301.72   32.31   1
  -4   8  -3  321.13   30.82   1
  -4   8  -3  334.52   33.29   1
  -4   8  -2   22.09   18.42   1
  -4   8  -2   25.00   20.30   1
  -4   8  -2   18.84   18.58   1
  -4   8  -1   13.10   26.35   1
  -4   8  -1    4.45   17.18   1
  -4   8  -1    1.21   19.56   1
  -4   8   0  791.86   65.85   1
  -4   8   0  737.12   60.82   1
  -4   8   0  743.65   64.90   1
  -4   8   0  843.90   63.33   1
  -4   8   1  -18.92   20.79   1
  -4   8   1   16.32   21.41   1
  -4   8   1   -4.28   13.74   1
  -4   8   1   49.42   27.28   1
  -4   8   2  501.76   40.32   1
  -4   8   2  512.57   43.92   1
  -4   8   2  413.31   45.13   1
  -4   8   3  404.41   37.00   1
  -4   8   3  444.37   37.94   1
  -4   8   3  401.20   40.06   1
  -4   8   4   99.20   19.92   1
  -4   8   4  126.34   24.73   1
  -4   8   4   64.00   14.88   1
  -4   8   5   70.90   18.86   1
  -4   8   5   70.39   22.82   1
  -4   8   6   11.16   18.30   1
  -4   8   7   -8.76   17.52   1
  -4   8   7    8.76   19.65   1
  -4   8   8   -0.44   15.59   1
  -4   9  -5   89.68   16.48   1
  -4   9  -5   96.04   23.91   1
  -4   9  -4  134.33   25.27   1
  -4   9  -4  214.92   25.80   1
  -4   9  -4  158.51   21.65   1
  -4   9  -3  172.66   22.08   1
  -4   9  -3  122.77   24.38   1
  -4   9  -3  159.77   25.03   1
  -4   9  -2   10.37   21.57   1
  -4   9  -2   19.98   26.10   1
  -4   9  -2   24.90   18.36   1
  -4   9  -2   20.16   19.67   1
  -4   9  -1   70.06   19.92   1
  -4   9  -1    9.00   16.74   1
  -4   9  -1   -4.58   25.64   1
  -4   9   0  197.40   24.73   1
  -4   9   0  170.04   19.82   1
  -4   9   0  133.86   25.69   1
  -4   9   0  192.93   28.89   1
  -4   9   1   46.92   21.92   1
  -4   9   1   62.25   26.04   1
  -4   9   2  110.88   13.27   1
  -4   9   2  127.24   26.85   1
  -4   9   2  140.42   23.70   1
  -4   9   3   11.02   12.42   1
  -4   9   3   18.92   20.36   1
  -4   9   3   61.47   21.32   1
  -4   9   4   65.29   24.24   1
  -4   9   4   67.40   12.64   1
  -4   9   5   24.01   18.82   1
  -4   9   5   67.24   21.65   1
  -4   9   6   94.67   22.77   1
  -4   9   6   88.17   20.28   1
  -4  10  -4   33.18   17.63   1
  -4  10  -4   13.76   20.48   1
  -4  10  -3   12.04   27.20   1
  -4  10  -3   -7.18   18.06   1
  -4  10  -3   -4.41   18.23   1
  -4  10  -2   68.89   21.41   1
  -4  10  -2   88.74   26.94   1
  -4  10  -2   41.34   18.90   1
  -4  10  -1  106.92   20.89   1
  -4  10  -1   64.00   18.72   1
  -4  10  -1  105.06   27.47   1
  -4  10  -1   93.90   23.45   1
  -4  10   0   21.81   19.89   1
  -4  10   0    3.06   14.18   1
  -4  10   0  -33.64   25.52   1
  -4  10   0    6.86   22.01   1
  -4  10   1   13.69   25.09   1
  -4  10   1   -4.20   10.91   1
  -4  10   1  -25.60   19.63   1
  -4  10   2    0.92    7.99   1
  -4  10   2   23.72   21.82   1
  -4  10   2   -6.76   20.44   1
  -4  10   3   81.36   74.69   1
  -4  10   3   63.36   13.21   1
  -4  10   3   73.10   20.35   1
  -4  10   4   32.04    9.17   1
  -4  10   4    3.39   19.54   1
  -4  10   5  129.28   25.01   1
  -4  10   5  130.64   22.17   1
  -4  11  -2   83.36   22.28   1
  -4  11  -2   70.56   26.38   1
  -4  11  -2   82.45   20.16   1
  -4  11  -1   22.85   22.56   1
  -4  11  -1   12.04   20.68   1
  -4  11  -1   23.33   15.75   1
  -4  11   0   89.68   23.30   1
  -4  11   0   56.55   14.74   1
  -4  11   1   -2.04   22.65   1
  -4  11   1    4.16   11.34   1
  -4  11   1  -33.06   21.39   1
  -4  11   2   14.44   20.52   1
  -4  11   2   39.44   21.98   1
  -4  11   2   30.03   12.60   1
  -3 -10   1   59.91   31.73   1
  -3 -10   2   88.92   23.95   1
  -3 -10   2   65.77   30.82   1
  -3 -10   3   -0.20   27.90   1
  -3 -10   3    0.86   19.42   1
  -3 -10   4   73.96   22.53   1
  -3 -10   4   87.42   23.19   1
  -3 -10   5  118.81   24.20   1
  -3  -9  -2   -5.43   23.07   1
  -3  -9  -1   26.94   35.60   1
  -3  -9  -1   -3.88   21.87   1
  -3  -9   0   45.29   22.88   1
  -3  -9   0 -135.96  122.20   1
  -3  -9   2  -23.81   30.16   1
  -3  -9   2  -15.29   16.42   1
  -3  -9   3   70.06   22.77   1
  -3  -9   3    2.79   26.42   1
  -3  -9   4   -1.90   21.36   1
  -3  -9   4   24.01   20.87   1
  -3  -9   5   20.25   16.20   1
  -3  -9   5   26.21   18.12   1
  -3  -9   6  106.30   17.32   1
  -3  -9   6  157.75   24.37   1
  -3  -9   7  -10.76   18.24   1
  -3  -8  -4    2.10   24.74   1
  -3  -8  -3   58.98   24.73   1
  -3  -8  -2  192.38   29.40   1
  -3  -8  -2  129.28   41.84   1
  -3  -8  -1   46.38   39.50   1
  -3  -8   0  124.32   38.58   1
  -3  -8   0   64.48   24.41   1
  -3  -8   1  188.24   27.17   1
  -3  -8   1  177.42   40.49   1
  -3  -8   2   79.57   22.48   1
  -3  -8   2   82.26   31.20   1
  -3  -8   3   56.25   21.75   1
  -3  -8   3  -28.41   26.22   1
  -3  -8   4   -8.88   22.29   1
  -3  -8   4   33.52   21.31   1
  -3  -8   5  -31.02   20.05   1
  -3  -8   5   20.34   18.22   1
  -3  -8   6    1.74   13.02   1
  -3  -8   6   -9.42   19.83   1
  -3  -8   7   -1.21   20.90   1
  -3  -7  -5  149.57   35.71   1
  -3  -7  -4   24.90   24.85   1
  -3  -7  -4   -6.86   31.49   1
  -3  -7  -4  -68.56   35.11   1
  -3  -7  -3  119.68   27.79   1
  -3  -7  -3   50.69   39.02   1
  -3  -7  -2  -12.32   41.42   1
  -3  -7  -2   -2.46   22.58   1
  -3  -7  -1  265.69   46.62   1
  -3  -7  -1  267.98   33.07   1
  -3  -7   0  -36.36   37.02   1
  -3  -7   0   21.62   22.88   1
  -3  -7   1  495.06   44.50   1
  -3  -7   1  511.66   57.91   1
  -3  -7   2    3.88   22.14   1
  -3  -7   2   63.84   29.56   1
  -3  -7   3  114.28   22.45   1
  -3  -7   3   87.24   28.21   1
  -3  -7   4   32.38   20.48   1
  -3  -7   4   36.72   19.88   1
  -3  -7   5  120.56   21.74   1
  -3  -7   5  122.77   23.71   1
  -3  -7   6  153.02   20.29   1
  -3  -7   6  232.87   26.25   1
  -3  -7   7  200.79   25.79   1
  -3  -6  -6  -16.40   30.70   1
  -3  -6  -5  -27.56   39.48   1
  -3  -6  -5   33.18   30.18   1
  -3  -6  -4  -21.90   31.26   1
  -3  -6  -4    3.20   40.06   1
  -3  -6  -3  119.03   32.73   1
  -3  -6  -3   98.01   42.17   1
  -3  -6  -2  393.23   54.73   1
  -3  -6  -2  412.50   40.62   1
  -3  -6  -1  428.08   41.38   1
  -3  -6  -1  421.89   55.87   1
  -3  -6   0  154.75   26.87   1
  -3  -6   0  149.33   40.08   1
  -3  -6   1  776.18   75.22   1
  -3  -6   1  787.92   66.81   1
  -3  -6   2   24.70   31.11   1
  -3  -6   2   34.93   22.22   1
  -3  -6   3  585.16   59.51   1
  -3  -6   3  627.50   52.10   1
  -3  -6   4    6.66   21.67   1
  -3  -6   4  -38.69   21.40   1
  -3  -6   5   28.84   17.83   1
  -3  -6   5   48.72   20.52   1
  -3  -6   6  452.41   38.71   1
  -3  -6   6  368.26   41.83   1
  -3  -6   7   76.04   20.58   1
  -3  -5  -6    5.62   28.87   1
  -3  -5  -5  784.56   68.34   1
  -3  -5  -5  738.75   94.04   1
  -3  -5  -4  144.96   31.79   1
  -3  -5  -4  122.77   44.10   1
  -3  -5  -3 1934.24  160.09   1
  -3  -5  -3 1920.19  176.16   1
  -3  -5  -2  208.22   45.89   1
  -3  -5  -2  247.43   36.49   1
  -3  -5  -1 1380.87   96.62   1
  -3  -5  -1 1209.65  124.51   1
  -3  -5   0  408.85   38.01   1
  -3  -5   0  368.26   45.29   1
  -3  -5   1   41.99   21.90   1
  -3  -5   2  112.57   22.07   1
  -3  -5   2  118.59   28.97   1
  -3  -5   3   64.96   26.44   1
  -3  -5   3   62.41   20.70   1
  -3  -5   4  113.85   23.69   1
  -3  -5   4  157.25   23.07   1
  -3  -5   5  315.06   29.82   1
  -3  -5   5  221.71   27.70   1
  -3  -5   6   -8.53   19.27   1
  -3  -4  -7   49.70   29.19   1
  -3  -4  -7  -26.32   33.14   1
  -3  -4  -6   29.27   39.49   1
  -3  -4  -6    8.70   28.50   1
  -3  -4  -5  242.42   48.27   1
  -3  -4  -5  312.58   38.54   1
  -3  -4  -4   83.54   29.98   1
  -3  -4  -3   25.81   43.79   1
  -3  -4  -3   -8.41   30.45   1
  -3  -4  -2  709.16   73.50   1
  -3  -4  -2  710.22   61.83   1
  -3  -4  -1   18.58    9.74   1
  -3  -4  -1   25.60   42.00   1
  -3  -4  -1   32.72   29.29   1
  -3  -4   0  228.31   29.01   1
  -3  -4   0  314.71   42.58   1
  -3  -4   1  203.63   23.69   1
  -3  -4   1  181.17   35.27   1
  -3  -4   2  435.14   37.97   1
  -3  -4   2  428.90   45.15   1
  -3  -4   3   53.88   17.76   1
  -3  -4   3   64.00   23.68   1
  -3  -4   4    0.62   18.39   1
  -3  -4   4   19.36   18.48   1
  -3  -4   5  215.80   24.68   1
  -3  -4   5  183.87   24.68   1
  -3  -4   6    6.45   17.42   1
  -3  -3  -7  259.53   45.75   1
  -3  -3  -7  357.59   37.44   1
  -3  -3  -6  359.10   51.17   1
  -3  -3  -6  330.15   38.88   1
  -3  -3  -5  192.10   32.16   1
  -3  -3  -5  124.55   43.52   1
  -3  -3  -4  142.80   46.37   1
  -3  -3  -3  979.06   91.37   1
  -3  -3  -3 1001.09   77.83   1
  -3  -3  -2  853.22   71.86   1
  -3  -3  -2  821.40   80.82   1
  -3  -3  -1  -39.94   23.89   1
  -3  -3  -1  -71.91   37.14   1
  -3  -3  -1   15.05   11.87   1
  -3  -3   0  335.99   28.59   1
  -3  -3   0  368.26   41.45   1
  -3  -3   1  413.72   33.76   1
  -3  -3   1  421.48   42.70   1
  -3  -3   2 2977.88  257.57   1
  -3  -3   2 3060.30  234.56   1
  -3  -3   3  766.18   58.68   1
  -3  -3   3  742.56   65.40   1
  -3  -3   4  899.40   82.17   1
  -3  -3   4  969.70   75.36   1
  -3  -3   5  459.67   38.59   1
  -3  -2  -8  -26.63   32.10   1
  -3  -2  -8  -38.32   25.38   1
  -3  -2  -7   15.05   24.06   1
  -3  -2  -7   12.25   36.61   1
  -3  -2  -6  267.00   32.35   1
  -3  -2  -5  -29.59   24.92   1
  -3  -2  -5    3.42   41.22   1
  -3  -2  -4  565.49   62.78   1
  -3  -2  -4  511.66   48.41   1
  -3  -2  -3   18.06   42.41   1
  -3  -2  -2  154.75   39.56   1
  -3  -2  -2  161.29   26.92   1
  -3  -2  -1  168.74   23.38   1
  -3  -2  -1  153.51   34.20   1
  -3  -2   0   11.02   26.69   1
  -3  -2   0   -4.67   17.54   1
  -3  -2   0   -5.43   12.54   1
  -3  -2   1   21.07   16.16   1
  -3  -2   1    9.30   18.91   1
  -3  -2   1   29.16   13.61   1
  -3  -2   2  102.41   13.36   1
  -3  -2   3  582.26   48.26   1
  -3  -2   3  628.50   54.65   1
  -3  -2   4  461.82   35.24   1
  -3  -2   4  494.17   39.57   1
  -3  -1  -8   -9.49   29.44   1
  -3  -1  -8    6.20   23.56   1
  -3  -1  -7  166.67   36.66   1
  -3  -1  -6  113.64   38.16   1
  -3  -1  -6  163.84   25.34   1
  -3  -1  -5  195.44   26.28   1
  -3  -1  -4 4701.84  382.62   1
  -3  -1  -4 4637.61  345.95   1
  -3  -1  -3  691.69   55.76   1
  -3  -1  -3  627.50   63.63   1
  -3  -1  -2 3386.08  254.87   1
  -3  -1  -2 3034.91  232.48   1
  -3  -1  -1   58.98   16.28   1
  -3  -1   0 6514.10  493.95   1
  -3  -1   0 6905.61  528.52   1
  -3  -1   1  454.97   42.66   1
  -3  -1   1  504.90   49.88   1
  -3  -1   2 1072.56   92.35   1
  -3  -1   2 1218.71   86.58   1
  -3  -1   2  946.79   81.23   1
  -3  -1   3 1890.51  147.83   1
  -3  -1   3 1793.52  134.67   1
  -3   0  -8  150.31   33.35   1
  -3   0  -8  206.50   27.88   1
  -3   0  -7   57.30   31.19   1
  -3   0  -7   46.51   22.37   1
  -3   0  -6   -9.92   31.94   1
  -3   0  -6  -35.64   20.89   1
  -3   0  -5 1823.29  162.26   1
  -3   0  -5 1911.44  137.28   1
  -3   0  -4  963.48   71.39   1
  -3   0  -4  973.44   82.99   1
  -3   0  -3   20.70   16.20   1
  -3   0  -3   25.10   32.06   1
  -3   0  -2    4.04   25.17   1
  -3   0  -1 1692.50  125.89   1
  -3   0  -1 1434.89  112.12   1
  -3   0   0  141.85   18.82   1
  -3   0   0  153.51   33.70   1
  -3   0   1   83.72   23.42   1
  -3   0   2  246.49   28.57   1
  -3   0   2  293.09   29.10   1
  -3   0   3   -7.73   15.62   1
  -3   1  -9  151.29   24.35   1
  -3   1  -8   15.05   22.12   1
  -3   1  -8  -30.36   21.71   1
  -3   1  -8    6.50   21.47   1
  -3   1  -7  290.02   30.65   1
  -3   1  -7  220.82   34.48   1
  -3   1  -6  -19.18   28.03   1
  -3   1  -6  -18.15   22.24   1
  -3   1  -6   30.91   21.46   1
  -3   1  -5    9.12   22.05   1
  -3   1  -5   15.52   21.04   1
  -3   1  -4  364.05   42.36   1
  -3   1  -4  378.30   32.29   1
  -3   1  -4  345.96   30.13   1
  -3   1  -3  449.86   36.91   1
  -3   1  -3  437.23   44.33   1
  -3   1  -3  488.85   38.47   1
  -3   1  -2 2961.54  193.74   1
  -3   1  -2 2602.02  220.36   1
  -3   1  -2 2595.90  204.82   1
  -3   1  -2 3102.49  198.29   1
  -3   1  -1 3876.31  307.56   1
  -3   1  -1 3911.25  270.17   1
  -3   1   0  395.61   39.38   1
  -3   1   0  419.02   32.34   1
  -3   1   0  343.73   50.80   1
  -3   1   1  351.94   34.52   1
  -3   1   1  375.97   29.08   1
  -3   1   2  151.78   17.00   1
  -3   1   2  165.89   22.93   1
  -3   1   3   57.91   21.61   1
  -3   1   3   74.65   19.70   1
  -3   1   3   78.68   11.89   1
  -3   1   4 1177.18   91.26   1
  -3   1   4 1198.54   85.86   1
  -3   1   5  605.65   48.24   1
  -3   1   5  620.01   43.82   1
  -3   2  -9  383.38   37.20   1
  -3   2  -9  331.24   33.85   1
  -3   2  -8   -1.21   19.60   1
  -3   2  -8    9.99   22.69   1
  -3   2  -8    7.78   19.64   1
  -3   2  -8  -25.60   22.16   1
  -3   2  -7  104.86   23.55   1
  -3   2  -7  108.16   21.84   1
  -3   2  -7   88.74   20.35   1
  -3   2  -7   60.84   20.90   1
  -3   2  -6  -23.43   19.46   1
  -3   2  -6  -27.77   20.55   1
  -3   2  -5   67.24   22.47   1
  -3   2  -5  114.70   20.35   1
  -3   2  -5   29.48   23.46   1
  -3   2  -4   67.40   19.05   1
  -3   2  -4  115.78   23.24   1
  -3   2  -3  442.68   47.13   1
  -3   2  -3  564.54   43.24   1
  -3   2  -3  478.30   38.49   1
  -3   2  -3  555.07   42.41   1
  -3   2  -2  469.59   35.97   1
  -3   2  -2  463.54   37.03   1
  -3   2  -2  444.37   34.99   1
  -3   2  -2  510.31   37.95   1
  -3   2  -2  404.81   43.86   1
  -3   2  -1 5035.32  339.19   1
  -3   2  -1 5090.82  342.48   1
  -3   2  -1 4120.36  385.14   1
  -3   2   0   28.62   14.87   1
  -3   2   0   23.91   23.08   1
  -3   2   0   15.68   19.17   1
  -3   2   1 5195.53  389.23   1
  -3   2   1 5806.44  374.90   1
  -3   2   1 4614.48  396.71   1
  -3   2   2  -12.60   16.97   1
  -3   2   2  -36.48   23.92   1
  -3   2   2   -9.86   10.93   1
  -3   2   3 3236.47  215.04   1
  -3   2   3 3310.85  230.16   1
  -3   2   3 3058.09  226.73   1
  -3   2   4 1467.66  112.63   1
  -3   2   4 1647.55  114.46   1
  -3   2   4 1380.12  105.51   1
  -3   2   5  324.36   29.90   1
  -3   2   5  312.58   27.93   1
  -3   2   6  949.87   66.57   1
  -3   2   6  821.97   64.22   1
  -3   2   7   57.46   10.76   1
  -3   2   7   81.72   20.79   1
  -3   2   8  131.79   20.43   1
  -3   3  -9  297.56   31.40   1
  -3   3  -9  331.97   34.25   1
  -3   3  -8   28.84   22.02   1
  -3   3  -8   31.70   18.13   1
  -3   3  -8   28.94   21.84   1
  -3   3  -7  269.29   30.52   1
  -3   3  -7  291.38   30.73   1
  -3   3  -6    0.83   18.55   1
  -3   3  -6    9.30   11.77   1
  -3   3  -6    8.58   19.40   1
  -3   3  -6  -10.82   21.12   1
  -3   3  -5  905.41   74.62   1
  -3   3  -5 1132.32   77.40   1
  -3   3  -5 1032.98   77.78   1
  -3   3  -5  994.77   80.11   1
  -3   3  -4   -1.59   19.13   1
  -3   3  -4    3.65   22.69   1
  -3   3  -4   28.41   12.69   1
  -3   3  -4   38.56   11.18   1
  -3   3  -3  902.40   64.89   1
  -3   3  -3  879.12   62.86   1
  -3   3  -3  861.42   62.81   1
  -3   3  -3  839.84   64.34   1
  -3   3  -2 3362.84  222.68   1
  -3   3  -2 3284.44  223.51   1
  -3   3  -2 2978.98  252.16   1
  -3   3  -2 3146.09  232.21   1
  -3   3  -1  440.16   33.99   1
  -3   3  -1  388.48   33.90   1
  -3   3  -1  425.60   32.60   1
  -3   3   0  507.60   38.30   1
  -3   3   0  481.36   39.93   1
  -3   3   0  581.29   40.50   1
  -3   3   1  472.63   36.52   1
  -3   3   1  480.49   44.28   1
  -3   3   1  525.33   46.30   1
  -3   3   2 1801.15  128.17   1
  -3   3   2 1794.37  122.00   1
  -3   3   3  285.95   25.36   1
  -3   3   3  332.70   27.72   1
  -3   3   3  330.51   26.91   1
  -3   3   4   11.02   14.41   1
  -3   3   4    0.20   15.31   1
  -3   3   4    5.81   12.15   1
  -3   3   5   34.46   12.33   1
  -3   3   5   38.07   18.26   1
  -3   3   6   23.04   18.14   1
  -3   3   6   16.40   11.18   1
  -3   3   7  247.75   23.30   1
  -3   3   7  324.72   29.55   1
  -3   3   8    3.80   13.18   1
  -3   3   9  318.62   31.06   1
  -3   4  -8   -6.30   15.36   1
  -3   4  -8  -33.29   19.96   1
  -3   4  -8   -1.19   21.80   1
  -3   4  -7   35.76    8.25   1
  -3   4  -7   20.16   21.28   1
  -3   4  -7   70.06   23.27   1
  -3   4  -7   34.22   17.78   1
  -3   4  -6   -9.30   16.53   1
  -3   4  -6   -7.67   17.01   1
  -3   4  -6    3.65   21.97   1
  -3   4  -6   10.24    9.09   1
  -3   4  -5  583.22   45.88   1
  -3   4  -5  584.19   45.92   1
  -3   4  -5  557.90   45.82   1
  -3   4  -5  473.93   43.10   1
  -3   4  -4  427.25   37.21   1
  -3   4  -4  487.08   41.93   1
  -3   4  -4  542.42   41.92   1
  -3   4  -4  487.53   41.07   1
  -3   4  -3  292.75   29.77   1
  -3   4  -3  299.29   30.10   1
  -3   4  -3  262.12   24.28   1
  -3   4  -2  267.32   25.51   1
  -3   4  -2  297.91   29.34   1
  -3   4  -2  319.69   28.61   1
  -3   4  -1  948.02   68.35   1
  -3   4  -1  888.04   66.75   1
  -3   4  -1  931.47   70.20   1
  -3   4   0 2219.35  153.58   1
  -3   4   0 2181.82  159.75   1
  -3   4   0 2228.78  153.90   1
  -3   4   1  346.33   29.78   1
  -3   4   1  381.81   30.48   1
  -3   4   1  403.61   28.93   1
  -3   4   1  335.99   32.26   1
  -3   4   2   62.88    9.04   1
  -3   4   2   74.48   15.71   1
  -3   4   2   72.08   16.98   1
  -3   4   3  999.82   83.48   1
  -3   4   3 1283.79   93.16   1
  -3   4   3 1177.18   89.89   1
  -3   4   4   25.30   19.01   1
  -3   4   4   30.03   13.92   1
  -3   4   5  205.35   21.21   1
  -3   4   5  208.51   25.70   1
  -3   4   6  336.72   30.83   1
  -3   4   6  372.10   35.49   1
  -3   4   7   -8.12   17.67   1
  -3   4   7   -0.46   10.05   1
  -3   4   8    2.99    9.65   1
  -3   4   8   -9.36   18.48   1
  -3   4   9   48.16    8.05   1
  -3   5  -8  103.02   24.77   1
  -3   5  -8  121.88   22.74   1
  -3   5  -7    5.38   21.07   1
  -3   5  -7  -13.47   19.67   1
  -3   5  -7   19.01   18.75   1
  -3   5  -6   30.69   18.39   1
  -3   5  -6  -21.44   21.39   1
  -3   5  -6   -1.35   19.46   1
  -3   5  -5  528.54   45.98   1
  -3   5  -5  591.95   46.23   1
  -3   5  -5  492.40   43.05   1
  -3   5  -5  619.01   47.27   1
  -3   5  -4   77.09   15.63   1
  -3   5  -3  332.33   35.73   1
  -3   5  -3  378.30   33.84   1
  -3   5  -3  329.79   33.41   1
  -3   5  -2  275.23   25.55   1
  -3   5  -2  286.29   27.41   1
  -3   5  -2  313.64   29.04   1
  -3   5  -1   21.53   16.15   1
  -3   5  -1   41.99   18.92   1
  -3   5  -1   58.83   17.18   1
  -3   5   0   58.52   22.49   1
  -3   5   0   56.40   12.92   1
  -3   5   0   84.27   19.83   1
  -3   5   0   95.06   15.41   1
  -3   5   1  194.04   27.30   1
  -3   5   1  196.28   22.42   1
  -3   5   1  194.88   22.06   1
  -3   5   1  186.32   17.20   1
  -3   5   2   61.62   21.82   1
  -3   5   2   70.56   18.31   1
  -3   5   2   71.06   10.45   1
  -3   5   3  573.12   46.92   1
  -3   5   3  590.98   44.73   1
  -3   5   3  609.10   47.88   1
  -3   5   4  234.09   23.87   1
  -3   5   4  226.20   27.37   1
  -3   5   4  181.98   22.66   1
  -3   5   5 1632.16  114.74   1
  -3   5   5 1718.10  124.35   1
  -3   5   6  214.62   21.97   1
  -3   5   6  196.56   26.08   1
  -3   5   7  308.00   30.19   1
  -3   5   7  284.93   25.32   1
  -3   5   8   -5.06   10.08   1
  -3   5   8    1.74   19.48   1
  -3   5   9   61.31   10.02   1
  -3   5   9   65.12   19.37   1
  -3   6  -8  167.70   23.31   1
  -3   6  -8  180.63   22.58   1
  -3   6  -7  -37.21   19.76   1
  -3   6  -7   -2.59   19.80   1
  -3   6  -7   -0.38   22.33   1
  -3   6  -7   -5.81   10.60   1
  -3   6  -6  166.15   18.56   1
  -3   6  -6  214.33   27.82   1
  -3   6  -6  172.40   23.63   1
  -3   6  -6  215.21   24.65   1
  -3   6  -5   51.27   13.46   1
  -3   6  -5   21.25   22.04   1
  -3   6  -5   20.43   20.25   1
  -3   6  -4  -22.66   16.56   1
  -3   6  -4  -15.52   15.52   1
  -3   6  -4  -34.46   21.01   1
  -3   6  -3  654.34   54.74   1
  -3   6  -3  645.67   54.38   1
  -3   6  -3  650.76   52.55   1
  -3   6  -2 2421.62  185.03   1
  -3   6  -2 2662.56  189.89   1
  -3   6  -2 2607.12  181.77   1
  -3   6  -1  414.94   34.63   1
  -3   6  -1  402.40   37.31   1
  -3   6   0  508.50   46.00   1
  -3   6   0  503.55   47.57   1
  -3   6   0  490.18   43.84   1
  -3   6   0  466.13   42.75   1
  -3   6   1  483.12   39.56   1
  -3   6   1  377.14   37.67   1
  -3   6   1  372.10   35.88   1
  -3   6   1  481.36   43.00   1
  -3   6   2  211.99   29.41   1
  -3   6   2  270.27   29.92   1
  -3   6   2  277.22   33.97   1
  -3   6   3  147.38   23.31   1
  -3   6   3  145.68   20.04   1
  -3   6   4  481.80   51.80   1
  -3   6   4  522.58   49.38   1
  -3   6   4  567.87   48.61   1
  -3   6   5  318.27   31.76   1
  -3   6   5  291.73   28.01   1
  -3   6   6  767.84   69.83   1
  -3   6   6  969.70   69.13   1
  -3   6   7  267.98   25.21   1
  -3   6   7  253.76   28.36   1
  -3   6   8  184.42   24.44   1
  -3   6   8  156.75   19.03   1
  -3   6   9   29.92   11.05   1
  -3   7  -7   27.04   10.82   1
  -3   7  -7   16.97   22.00   1
  -3   7  -6  171.87   19.14   1
  -3   7  -6  193.49   28.38   1
  -3   7  -6  227.71   26.56   1
  -3   7  -5   77.62   16.03   1
  -3   7  -5  117.51   21.68   1
  -3   7  -5   93.32   23.38   1
  -3   7  -4   89.68   21.59   1
  -3   7  -4   52.42   15.64   1
  -3   7  -4   77.26   18.11   1
  -3   7  -3  752.40   60.89   1
  -3   7  -3  834.05   61.23   1
  -3   7  -3  811.11   63.80   1
  -3   7  -2 3324.68  229.49   1
  -3   7  -2 3355.89  230.56   1
  -3   7  -2 3502.27  239.09   1
  -3   7  -1  792.42   68.12   1
  -3   7  -1  910.23   65.77   1
  -3   7  -1  793.55   62.54   1
  -3   7  -1  863.18   64.64   1
  -3   7   0 1104.90   87.75   1
  -3   7   0 1246.09   92.49   1
  -3   7   0 1087.68   85.75   1
  -3   7   0 1179.24   97.53   1
  -3   7   1  812.25   64.41   1
  -3   7   1  843.90   70.30   1
  -3   7   1  773.95   69.55   1
  -3   7   2   32.04   10.53   1
  -3   7   2   37.70   29.10   1
  -3   7   3  816.24   70.85   1
  -3   7   3 1126.94   77.21   1
  -3   7   3  852.06   77.65   1
  -3   7   4  162.56   26.52   1
  -3   7   4  139.71   20.09   1
  -3   7   4  113.85   14.72   1
  -3   7   5  836.94   67.70   1
  -3   7   5  844.48   69.16   1
  -3   7   6   54.02   22.78   1
  -3   7   6  -19.45   17.20   1
  -3   7   7   17.47   15.47   1
  -3   7   7   58.83   20.40   1
  -3   7   8   14.82   18.48   1
  -3   8  -7   29.59   15.56   1
  -3   8  -7   12.53   11.12   1
  -3   8  -7   12.39   17.32   1
  -3   8  -6   -6.00   13.08   1
  -3   8  -6   37.82   20.66   1
  -3   8  -6   13.69   22.27   1
  -3   8  -5    8.41   21.75   1
  -3   8  -5  -11.42   20.35   1
  -3   8  -5   11.16   15.36   1
  -3   8  -4   17.89   15.90   1
  -3   8  -4   13.76   21.44   1
  -3   8  -4   57.76   21.74   1
  -3   8  -3   33.41   20.46   1
  -3   8  -3   11.16   18.24   1
  -3   8  -3   -7.29   19.93   1
  -3   8  -2    5.34   18.48   1
  -3   8  -2    7.51   19.95   1
  -3   8  -2   17.72   21.30   1
  -3   8  -1   57.00   28.99   1
  -3   8  -1   88.74   19.03   1
  -3   8  -1   70.56   21.67   1
  -3   8   0   75.00   20.96   1
  -3   8   0   70.22   15.75   1
  -3   8   0   61.78   22.01   1
  -3   8   1 1283.07   95.28   1
  -3   8   1 1151.24   88.90   1
  -3   8   2   49.70   10.72   1
  -3   8   2   77.44   18.48   1
  -3   8   3  426.01   39.22   1
  -3   8   3  312.58   36.42   1
  -3   8   3  372.10   35.88   1
  -3   8   4   89.87   25.41   1
  -3   8   4  162.31   21.91   1
  -3   8   5   57.91   23.29   1
  -3   8   6  207.65   25.94   1
  -3   8   6  223.80   23.64   1
  -3   8   7  -26.94   19.00   1
  -3   8   7   29.81   16.38   1
  -3   9  -6  -32.04   21.51   1
  -3   9  -6   -6.55   13.31   1
  -3   9  -5   18.40   21.36   1
  -3   9  -5   -0.71   14.83   1
  -3   9  -4  221.71   29.48   1
  -3   9  -4  223.80   27.23   1
  -3   9  -4  282.58   30.26   1
  -3   9  -3    2.43   21.09   1
  -3   9  -3    1.80   19.75   1
  -3   9  -3   27.98   17.77   1
  -3   9  -2  176.89   31.12   1
  -3   9  -2  202.78   25.63   1
  -3   9  -2  222.90   28.07   1
  -3   9  -2  225.30   27.02   1
  -3   9  -1   30.36   18.18   1
  -3   9  -1   61.94   27.86   1
  -3   9  -1   85.19   22.34   1
  -3   9  -1   52.13   21.80   1
  -3   9   0  266.34   32.31   1
  -3   9   0  214.92   26.68   1
  -3   9   0  213.45   28.05   1
  -3   9   0  190.44   21.53   1
  -3   9   1   28.84   28.03   1
  -3   9   1   27.77   20.97   1
  -3   9   2   66.59   11.26   1
  -3   9   2   49.98   26.44   1
  -3   9   2   75.00   19.05   1
  -3   9   3   -3.06    9.41   1
  -3   9   3   14.36   21.38   1
  -3   9   3    6.66   24.46   1
  -3   9   4  130.87   21.96   1
  -3   9   4   96.63   25.56   1
  -3   9   5    3.96   18.27   1
  -3   9   5  -15.44   23.34   1
  -3   9   6   59.29   18.02   1
  -3  10  -5  113.00   19.35   1
  -3  10  -5  131.56   23.40   1
  -3  10  -4   72.59   21.64   1
  -3  10  -4   58.22   18.31   1
  -3  10  -3   11.63  127.53   1
  -3  10  -3  103.43   22.98   1
  -3  10  -3  153.76   22.57   1
  -3  10  -3  116.21   23.93   1
  -3  10  -2    0.01   20.24   1
  -3  10  -2  -26.73   19.03   1
  -3  10  -2  -53.58   28.26   1
  -3  10  -2   -2.56   19.07   1
  -3  10  -1   52.56   28.28   1
  -3  10  -1    3.13   16.85   1
  -3  10  -1   33.41   22.31   1
  -3  10  -1   41.99   21.77   1
  -3  10   0   87.80   16.12   1
  -3  10   0   91.78   28.74   1
  -3  10   0   90.25   18.81   1
  -3  10   1   87.61   18.16   1
  -3  10   1   95.26   15.23   1
  -3  10   2   10.43    8.07   1
  -3  10   2    5.81   23.04   1
  -3  10   2  -10.11   21.12   1
  -3  10   2   18.49   11.61   1
  -3  10   3   11.42   26.03   1
  -3  10   3   31.47   19.41   1
  -3  10   4   94.09   20.56   1
  -3  10   4   45.29   22.61   1
  -3  10   5  111.09   19.39   1
  -3  11  -3  176.36   25.23   1
  -3  11  -3  235.01   27.29   1
  -3  11  -2   73.79   24.05   1
  -3  11  -2   66.91   19.80   1
  -3  11  -1  170.30   28.19   1
  -3  11  -1  138.06   21.39   1
  -3  11  -1  207.07   28.20   1
  -3  11   0   23.52   21.15   1
  -3  11   1  187.69   19.45   1
  -3  11   1  200.22   30.00   1
  -3  11   1  173.19   27.37   1
  -3  11   2   25.70   20.69   1
  -3  11   2   27.56    9.14   1
  -2 -10  -1   26.94   35.91   1
  -2 -10  -1   40.45   24.80   1
  -2 -10   0  -12.32   16.92   1
  -2 -10   1  141.13   37.07   1
  -2 -10   1  118.59   26.35   1
  -2 -10   2   76.74   22.60   1
  -2 -10   2   25.30   30.18   1
  -2 -10   3   11.02   24.17   1
  -2 -10   3   27.25   22.55   1
  -2 -10   4  -37.21   21.72   1
  -2 -10   4   12.04   20.61   1
  -2 -10   5   19.98   15.11   1
  -2 -10   5   64.64   21.55   1
  -2  -9  -3   -7.78   23.27   1
  -2  -9  -2  418.61   41.74   1
  -2  -9  -2  428.08   54.62   1
  -2  -9  -1   41.86   40.50   1
  -2  -9   0  508.05   57.25   1
  -2  -9   0  449.86   45.39   1
  -2  -9   1   65.61   23.81   1
  -2  -9   2   37.33   23.10   1
  -2  -9   2   42.51   31.04   1
  -2  -9   3   47.89   23.25   1
  -2  -9   4   19.01   19.18   1
  -2  -9   4   43.30   17.77   1
  -2  -9   5   17.81   13.42   1
  -2  -9   5   25.40   22.68   1
  -2  -9   6   -0.59    9.53   1
  -2  -9   6   34.69   19.32   1
  -2  -9   7    7.18   21.82   1
  -2  -8  -5   18.92   31.15   1
  -2  -8  -4   16.89   17.67   1
  -2  -8  -3   -1.99   28.93   1
  -2  -8  -3   23.23   25.93   1
  -2  -8  -2   55.65   25.81   1
  -2  -8  -2   -9.92   40.19   1
  -2  -8  -1   22.18   39.47   1
  -2  -8  -1   44.62   25.12   1
  -2  -8   0  987.84   95.55   1
  -2  -8   0 1112.89   84.73   1
  -2  -8   1  894.01   65.18   1
  -2  -8   1  848.56   75.16   1
  -2  -8   2   68.06   23.59   1
  -2  -8   2   33.41   33.18   1
  -2  -8   3  114.49   19.90   1
  -2  -8   3  121.00   26.40   1
  -2  -8   4  784.56   63.30   1
  -2  -8   4  726.30   70.61   1
  -2  -8   5   12.60   14.84   1
  -2  -8   5   20.98   22.53   1
  -2  -8   6  277.89   32.01   1
  -2  -8   7   61.00   20.46   1
  -2  -7  -6  -38.94   31.45   1
  -2  -7  -5  269.62   39.08   1
  -2  -7  -4   49.98   25.45   1
  -2  -7  -4   31.02   34.53   1
  -2  -7  -3  181.98   41.01   1
  -2  -7  -3  139.71   23.40   1
  -2  -7  -3  122.77   29.25   1
  -2  -7  -2   97.02   43.54   1
  -2  -7  -1  280.56   48.58   1
  -2  -7  -1  266.67   33.64   1
  -2  -7   0 1108.22  105.86   1
  -2  -7   0 1215.92   94.15   1
  -2  -7   1  618.02   60.16   1
  -2  -7   1  608.61   51.31   1
  -2  -7   2  -32.83   30.60   1
  -2  -7   2   -5.57   22.28   1
  -2  -7   3  210.83   27.59   1
  -2  -7   3  184.14   30.40   1
  -2  -7   4  -11.29   17.67   1
  -2  -7   4  -18.15   15.93   1
  -2  -7   5  -40.83   21.21   1
  -2  -7   5   15.60   13.43   1
  -2  -7   6   32.60   21.13   1
  -2  -6  -6   52.56   37.99   1
  -2  -6  -5  517.56   49.60   1
  -2  -6  -5  442.26   56.36   1
  -2  -6  -4   31.81   40.04   1
  -2  -6  -4   22.94   32.38   1
  -2  -6  -3   46.79   33.11   1
  -2  -6  -3   99.80   39.76   1
  -2  -6  -2  -38.56   25.34   1
  -2  -6  -2    7.62   42.28   1
  -2  -6  -2  -11.56   23.39   1
  -2  -6  -1  159.01   43.13   1
  -2  -6   0  257.60   46.87   1
  -2  -6   0  234.40   28.78   1
  -2  -6   1  480.92   53.51   1
  -2  -6   1  527.62   43.18   1
  -2  -6   2  117.51   30.57   1
  -2  -6   2   61.15   23.62   1
  -2  -6   3 1529.59  113.42   1
  -2  -6   3 1380.87  130.06   1
  -2  -6   4   86.49   25.85   1
  -2  -6   5   57.76   13.22   1
  -2  -6   5   25.30   22.33   1
  -2  -6   6  -37.21   20.37   1
  -2  -5  -7   50.55   36.83   1
  -2  -5  -7   39.82   30.79   1
  -2  -5  -6  -12.46   36.01   1
  -2  -5  -5  174.50   33.55   1
  -2  -5  -5  142.32   43.66   1
  -2  -5  -4  463.97   59.02   1
  -2  -5  -4  459.24   48.86   1
  -2  -5  -3   27.88   43.93   1
  -2  -5  -3   32.72   33.40   1
  -2  -5  -2  254.40   48.17   1
  -2  -5  -2  226.80   37.05   1
  -2  -5  -1  315.06   50.06   1
  -2  -5  -1  342.25   35.15   1
  -2  -5   0   21.07   37.73   1
  -2  -5   1  848.56   73.99   1
  -2  -5   1  836.37   64.78   1
  -2  -5   2  189.61   33.32   1
  -2  -5   2  220.23   26.71   1
  -2  -5   3 1655.68  126.14   1
  -2  -5   3 1597.60  137.50   1
  -2  -5   4  194.32   26.21   1
  -2  -5   5  600.25   51.45   1
  -2  -5   6  139.00   23.11   1
  -2  -4  -8  423.12   44.02   1
  -2  -4  -7  328.70   47.14   1
  -2  -4  -7  353.06   39.83   1
  -2  -4  -6   31.02   37.76   1
  -2  -4  -5  920.52   76.46   1
  -2  -4  -5  870.84  103.29   1
  -2  -4  -4  205.64   36.14   1
  -2  -4  -4  140.66   48.86   1
  -2  -4  -3  104.04   32.23   1
  -2  -4  -3  100.20   43.24   1
  -2  -4  -2  327.25   39.44   1
  -2  -4  -1  971.57   82.29   1
  -2  -4  -1  997.93   73.92   1
  -2  -4   0  761.21   66.22   1
  -2  -4   0  697.49   54.93   1
  -2  -4   1 1001.72   82.29   1
  -2  -4   1 1004.26   73.52   1
  -2  -4   2   86.86   18.27   1
  -2  -4   2   66.91   22.25   1
  -2  -4   3 1181.30  105.86   1
  -2  -4   3 1349.09   98.44   1
  -2  -4   4   52.27   17.93   1
  -2  -4   4   23.72   12.95   1
  -2  -4   5   63.36   20.70   1
  -2  -3  -8   27.98   25.60   1
  -2  -3  -8   13.18   33.03   1
  -2  -3  -7    8.18   26.43   1
  -2  -3  -7   60.22   35.85   1
  -2  -3  -6  117.72   26.26   1
  -2  -3  -6  111.72   39.53   1
  -2  -3  -5   98.21   29.53   1
  -2  -3  -4   25.70   35.19   1
  -2  -3  -3  515.29   56.30   1
  -2  -3  -3  412.50   45.90   1
  -2  -3  -2   -2.89   23.26   1
  -2  -3  -2  -13.32   35.19   1
  -2  -3  -1 3898.75  273.49   1
  -2  -3  -1 3913.75  296.53   1
  -2  -3   0  522.58   43.43   1
  -2  -3   0  627.00   53.59   1
  -2  -3   1  349.69   28.42   1
  -2  -3   1  327.25   33.29   1
  -2  -3   2   32.04   20.26   1
  -2  -3   2   38.19   14.21   1
  -2  -3   3  235.01   23.91   1
  -2  -3   3  269.62   26.60   1
  -2  -3   4 1136.36   78.88   1
  -2  -3   4 1010.60   85.20   1
  -2  -2  -9   -7.34   24.82   1
  -2  -2  -9   27.88   28.41   1
  -2  -2  -8  234.70   42.90   1
  -2  -2  -8  315.77   35.54   1
  -2  -2  -7   23.43   25.07   1
  -2  -2  -7  -17.56   36.29   1
  -2  -2  -6  414.53   40.72   1
  -2  -2  -6  374.42   51.86   1
  -2  -2  -5   49.56   26.47   1
  -2  -2  -5  111.51   41.82   1
  -2  -2  -4 1001.09  104.41   1
  -2  -2  -4 1024.00   77.44   1
  -2  -2  -3  136.42   39.71   1
  -2  -2  -3  151.29   26.08   1
  -2  -2  -2   38.94   21.22   1
  -2  -2  -1 2304.96  169.00   1
  -2  -2  -1 1994.52  167.92   1
  -2  -2   0 1271.64   97.71   1
  -2  -2   0 1290.25  107.04   1
  -2  -2   1   -2.59   21.45   1
  -2  -2   2 2908.44  232.98   1
  -2  -2   2 2976.79  212.78   1
  -2  -2   3 2180.89  181.20   1
  -2  -2   3 2228.78  165.24   1
  -2  -2   4   -8.70   11.74   1
  -2  -2   8    6.86   16.72   1
  -2  -2   9  431.39   37.39   1
  -2  -1  -9  130.87   33.40   1
  -2  -1  -9  202.78   28.76   1
  -2  -1  -8  162.05   27.24   1
  -2  -1  -7  111.72   19.66   1
  -2  -1  -7   92.54   34.82   1
  -2  -1  -6   23.23   23.81   1
  -2  -1  -6  -28.20   36.00   1
  -2  -1  -5   -5.76   37.15   1
  -2  -1  -5   12.60   24.14   1
  -2  -1  -4   24.90   23.95   1
  -2  -1  -4   73.44   35.48   1
  -2  -1  -3  -16.89   30.41   1
  -2  -1  -3  -38.81   17.69   1
  -2  -1  -2    0.52   19.32   1
  -2  -1  -2  -17.72   54.56   1
  -2  -1  -1  332.33   44.12   1
  -2  -1  -1  317.91   32.81   1
  -2  -1   0  576.96   57.65   1
  -2  -1   0  581.29  256.05   1
  -2  -1   1 3876.31  357.37   1
  -2  -1   1 4749.97  348.74   1
  -2  -1   1 4134.49  354.94   1
  -2  -1   6   61.31   15.19   1
  -2  -1   7   85.93   17.98   1
  -2  -1   8  411.68   34.49   1
  -2  -1   9   22.18   16.77   1
  -2  -1  10 1142.44   89.23   1
  -2   0  -9  110.46   29.64   1
  -2   0  -9  183.87   27.39   1
  -2   0  -8  -17.14   27.90   1
  -2   0  -8   71.40   24.00   1
  -2   0  -8   32.38   20.03   1
  -2   0  -7  597.31   67.94   1
  -2   0  -7  733.33   58.49   1
  -2   0  -7  761.76   55.20   1
  -2   0  -6  582.26   72.39   1
  -2   0  -6  710.22   55.43   1
  -2   0  -6  685.39   52.36   1
  -2   0  -5 1650.80  124.33   1
  -2   0  -5 1720.59  120.29   1
  -2   0  -5 1619.26  150.50   1
  -2   0  -4  821.40   62.48   1
  -2   0  -4  829.44   59.33   1
  -2   0  -4  726.84   86.81   1
  -2   0  -3   74.48   27.44   1
  -2   0  -3  126.34   18.66   1
  -2   0  -3  105.27   17.85   1
  -2   0  -2  651.27   47.98   1
  -2   0  -2  540.10   63.68   1
  -2   0  -2  521.21   47.94   1
  -2   0  -1  850.31   75.23   1
  -2   0  -1 1010.60   94.10   1
  -2   0   0  243.98   76.54   1
  -2   0   5   19.45   12.70   1
  -2   0   6  281.57   24.50   1
  -2   0   7 1419.78  100.23   1
  -2   0   8  246.49   24.18   1
  -2   0   9 1154.64   84.27   1
  -2   0  10   26.94   15.88   1
  -2   0  11   78.50   17.72   1
  -2   1  -9   29.81   21.18   1
  -2   1  -9   46.38   25.74   1
  -2   1  -9   24.50   22.67   1
  -2   1  -8   44.89   25.19   1
  -2   1  -8   73.62   21.62   1
  -2   1  -7   87.42   23.19   1
  -2   1  -6  394.82   35.37   1
  -2   1  -6  372.88   46.73   1
  -2   1  -6  470.46   39.91   1
  -2   1  -5  333.43   41.63   1
  -2   1  -5  414.12   34.19   1
  -2   1  -5  390.85   35.19   1
  -2   1  -4  746.38   56.28   1
  -2   1  -4  744.74   54.58   1
  -2   1  -4  654.34   64.97   1
  -2   1  -3  404.01   32.16   1
  -2   1  -3  395.21   37.77   1
  -2   1  -3  394.02   31.76   1
  -2   1  -2   72.76   17.06   1
  -2   1  -2   24.60   33.53   1
  -2   1  -2   61.47   11.29   1
  -2   1  -1  117.94   17.59   1
  -2   1  -1   56.55   51.44   1
  -2   1  -1   74.48   27.96   1
  -2   1   0 4013.22  324.35   1
  -2   1   0 4540.06  289.73   1
  -2   1   0 4419.59  285.86   1
  -2   1   1  610.58   53.87   1
  -2   1   1  601.72   50.04   1
  -2   1   1  571.69   47.34   1
  -2   1   2 6160.68  445.82   1
  -2   1   2 6307.54  506.70   1
  -2   1   2 5721.41  461.40   1
  -2   1   3   71.40   16.06   1
  -2   1   4  439.32   37.73   1
  -2   1   4  537.31   40.80   1
  -2   1   5 1950.99  156.36   1
  -2   1   5 2360.02  167.12   1
  -2   1   5 2352.25  157.14   1
  -2   1   6  208.80   20.81   1
  -2   1   6  261.79   27.18   1
  -2   1   7  239.63   28.79   1
  -2   1   7  243.67   23.41   1
  -2   1   8  100.80   14.86   1
  -2   1   9   76.56   16.80   1
  -2   1  10  176.62   20.47   1
  -2   2  -9  391.25   31.25   1
  -2   2  -9  293.44   29.46   1
  -2   2  -9  270.27   31.89   1
  -2   2  -8   25.70   20.79   1
  -2   2  -8    3.88   18.56   1
  -2   2  -8   27.25   21.19   1
  -2   2  -8   26.83   19.58   1
  -2   2  -7  875.57   64.51   1
  -2   2  -7  819.68   65.28   1
  -2   2  -7  798.63   62.17   1
  -2   2  -6  300.68   28.44   1
  -2   2  -6  335.99   32.63   1
  -2   2  -6  281.23   33.54   1
  -2   2  -5   79.74    9.82   1
  -2   2  -5   71.06   21.58   1
  -2   2  -5   93.90   23.45   1
  -2   2  -5   58.68   23.75   1
  -2   2  -4 1270.21   91.24   1
  -2   2  -4 1263.09  111.60   1
  -2   2  -3  305.55   25.52   1
  -2   2  -3  243.36   20.28   1
  -2   2  -3  207.94   22.78   1
  -2   2  -3  252.17   24.77   1
  -2   2  -2   -2.69   23.75   1
  -2   2  -2  -18.75   12.30   1
  -2   2  -2   -9.61   17.30   1
  -2   2  -2  -19.54   14.23   1
  -2   2  -1   -4.58   15.32   1
  -2   2  -1  -24.80   13.94   1
  -2   2  -1  -17.98   11.87   1
  -2   2   0 1622.48  112.78   1
  -2   2   0 1360.87  149.77   1
  -2   2   0 1712.30  165.52   1
  -2   2   1   84.46   61.21   1
  -2   2   1   68.39   63.02   1
  -2   2   1   98.80   36.58   1
  -2   2   1   94.48   61.62   1
  -2   2   2   13.69   13.39   1
  -2   2   2   19.45   14.38   1
  -2   2   2    2.76   11.12   1
  -2   2   3   14.14   21.58   1
  -2   2   3    1.32   17.30   1
  -2   2   3   -5.71   16.63   1
  -2   2   4  135.49   13.50   1
  -2   2   4  142.32   18.13   1
  -2   2   5 1272.35   89.17   1
  -2   2   5 1155.32   82.26   1
  -2   2   5 1065.37   85.52   1
  -2   2   6   19.01   15.61   1
  -2   2   6   30.14   10.54   1
  -2   2   7   90.44   17.69   1
  -2   2   7   91.58   14.16   1
  -2   2   8  147.62   15.55   1
  -2   2   9   91.01   22.32   1
  -2   2   9  114.06   14.52   1
  -2   2  11   14.75   11.90   1
  -2   3  -9   -5.20   22.25   1
  -2   3  -8   -2.22   15.50   1
  -2   3  -8    3.88   13.24   1
  -2   3  -8  -19.01   21.02   1
  -2   3  -7   74.82   22.84   1
  -2   3  -7  107.12   23.18   1
  -2   3  -7   44.62   15.50   1
  -2   3  -7   59.44   14.19   1
  -2   3  -6   81.54   22.57   1
  -2   3  -6   64.80   17.23   1
  -2   3  -6   96.63   21.43   1
  -2   3  -6   58.52    9.49   1
  -2   3  -6   60.68   14.96   1
  -2   3  -5   14.06   10.35   1
  -2   3  -5   -3.17   11.07   1
  -2   3  -5   -1.56   21.05   1
  -2   3  -5   -5.29   19.32   1
  -2   3  -5   12.60   19.45   1
  -2   3  -4  333.43   33.96   1
  -2   3  -4  399.20   33.57   1
  -2   3  -4  362.52   31.23   1
  -2   3  -4  361.76   33.86   1
  -2   3  -3  703.31   56.22   1
  -2   3  -3  795.80   55.29   1
  -2   3  -3  719.85   52.59   1
  -2   3  -2  587.09   45.07   1
  -2   3  -2  584.67   43.52   1
  -2   3  -2  564.54   44.67   1
  -2   3  -1 3150.58  209.93   1
  -2   3  -1 2940.89  218.00   1
  -2   3  -1 3121.46  210.07   1
  -2   3   0  160.02   20.24   1
  -2   3   0  159.52   19.20   1
  -2   3   0  140.42   21.80   1
  -2   3   1 1717.27  109.40   1
  -2   3   1 1531.94  115.07   1
  -2   3   1 1603.20  110.51   1
  -2   3   1 1506.22  117.98   1
  -2   3   2  -49.56   23.37   1
  -2   3   2  -21.25   15.86   1
  -2   3   2  -10.50   16.46   1
  -2   3   3  620.51   46.83   1
  -2   3   3  708.62   50.58   1
  -2   3   3  599.27   49.94   1
  -2   3   4  209.38   19.10   1
  -2   3   4  235.01   24.22   1
  -2   3   5  641.61   50.15   1
  -2   3   5  695.38   62.23   1
  -2   3   5  799.76   56.56   1
  -2   3   6  151.54   14.77   1
  -2   3   6  152.28   14.81   1
  -2   3   6  157.25   24.08   1
  -2   3   7  -10.11    7.89   1
  -2   3   7   -1.54    9.55   1
  -2   3   8  217.86   26.57   1
  -2   3   8  212.87   18.97   1
  -2   3   9  219.63   26.68   1
  -2   3   9  224.70   20.39   1
  -2   3  10   20.25   10.35   1
  -2   4  -9  532.22   43.83   1
  -2   4  -9  433.89   39.99   1
  -2   4  -8   37.95   18.85   1
  -2   4  -7  387.70   34.65   1
  -2   4  -7  337.82   34.55   1
  -2   4  -7  364.43   35.51   1
  -2   4  -6   37.70    9.33   1
  -2   4  -6   15.29   19.00   1
  -2   4  -6   32.04   23.09   1
  -2   4  -6   16.65   20.64   1
  -2   4  -5  406.43   38.30   1
  -2   4  -5  461.39   38.66   1
  -2   4  -5  431.39   38.22   1
  -2   4  -5  388.48   34.30   1
  -2   4  -4   22.28   20.67   1
  -2   4  -4   45.16   13.17   1
  -2   4  -4   22.56   19.76   1
  -2   4  -3  632.02   45.75   1
  -2   4  -3  606.14   48.75   1
  -2   4  -3  586.12   44.06   1
  -2   4  -2   -4.97   13.96   1
  -2   4  -2  -11.56   16.39   1
  -2   4  -1 1019.52   75.99   1
  -2   4  -1 1000.46   72.75   1
  -2   4  -1  995.40   72.56   1
  -2   4   0  201.92   22.45   1
  -2   4   0  241.18   19.88   1
  -2   4   0  249.96   22.13   1
  -2   4   1 3970.26  293.63   1
  -2   4   1 4305.98  313.66   1
  -2   4   1 4506.44  294.03   1
  -2   4   1 4327.01  306.53   1
  -2   4   2 1458.48  107.70   1
  -2   4   2 1468.42  100.40   1
  -2   4   3  943.10   74.93   1
  -2   4   3  935.14   78.28   1
  -2   4   3 1075.18   79.35   1
  -2   4   4   72.25   15.47   1
  -2   4   5  795.24   72.76   1
  -2   4   5  870.25   68.44   1
  -2   4   6   25.81   19.51   1
  -2   4   6   37.58   12.51   1
  -2   4   7  193.21   19.46   1
  -2   4   7  226.80   25.60   1
  -2   4   7  184.96   17.14   1
  -2   4   8   82.08   11.23   1
  -2   4   8   99.00   20.89   1
  -2   4   8   87.42   10.47   1
  -2   4   9  732.78   57.93   1
  -2   4   9  667.19   50.63   1
  -2   5  -9  110.46   23.96   1
  -2   5  -9  106.30   23.30   1
  -2   5  -8  199.09   20.04   1
  -2   5  -8  193.21   26.97   1
  -2   5  -7  -16.56   20.51   1
  -2   5  -7    4.49    9.50   1
  -2   5  -7   17.89   17.43   1
  -2   5  -7   10.69   21.84   1
  -2   5  -6  216.09   27.05   1
  -2   5  -6  207.94   26.24   1
  -2   5  -6  217.86   26.27   1
  -2   5  -6  201.36   19.58   1
  -2   5  -5   82.63   15.09   1
  -2   5  -5   88.17   21.97   1
  -2   5  -4  217.86   26.57   1
  -2   5  -4  181.44   20.74   1
  -2   5  -3  712.89   54.47   1
  -2   5  -3  725.76   58.19   1
  -2   5  -3  760.10   56.79   1
  -2   5  -2   12.82   19.83   1
  -2   5  -2    3.65   17.99   1
  -2   5  -1    3.28   18.06   1
  -2   5  -1   36.97   17.51   1
  -2   5  -1   10.89   14.72   1
  -2   5   0  302.06   28.16   1
  -2   5   0  262.44   24.30   1
  -2   5   0  277.22   23.64   1
  -2   5   1  949.87   73.97   1
  -2   5   1 1015.06   71.37   1
  -2   5   1  786.80   67.32   1
  -2   5   1  943.10   70.02   1
  -2   5   2  136.66   21.28   1
  -2   5   2  127.46   14.45   1
  -2   5   2  177.42   21.05   1
  -2   5   3  674.96   54.04   1
  -2   5   3  632.52   50.80   1
  -2   5   4   76.39   20.10   1
  -2   5   5  122.10   18.12   1
  -2   5   5   86.30   18.39   1
  -2   5   6  313.29   32.92   1
  -2   5   6  341.88   29.21   1
  -2   5   7   48.44   14.62   1
  -2   5   7    0.41   19.12   1
  -2   5   8   23.72   14.51   1
  -2   5   8   24.21   10.14   1
  -2   5   9   53.58    8.34   1
  -2   5   9   77.26   19.51   1
  -2   6  -8  121.44   14.11   1
  -2   6  -8  161.54   21.86   1
  -2   6  -8  154.75   23.64   1
  -2   6  -8  161.29   24.89   1
  -2   6  -7   40.83   10.61   1
  -2   6  -7   22.66   19.99   1
  -2   6  -7   15.13   19.92   1
  -2   6  -7    9.86   20.91   1
  -2   6  -6  668.22   52.73   1
  -2   6  -6  669.26   52.77   1
  -2   6  -6  554.60   50.40   1
  -2   6  -5  134.33   21.56   1
  -2   6  -5  146.65   23.98   1
  -2   6  -5  165.64   18.79   1
  -2   6  -4  365.57   33.65   1
  -2   6  -4  444.79   37.96   1
  -2   6  -4  395.61   37.39   1
  -2   6  -3 1398.01  105.44   1
  -2   6  -3 1454.66  108.32   1
  -2   6  -3 1522.56  109.26   1
  -2   6  -2  246.80   26.08   1
  -2   6  -2  252.49   27.01   1
  -2   6  -2  201.92   27.57   1
  -2   6  -1 1432.62  109.01   1
  -2   6  -1 1444.00  108.68   1
  -2   6  -1 1434.14  104.52   1
  -2   6   0  161.80   25.95   1
  -2   6   0  171.09   24.33   1
  -2   6   0  180.90   19.64   1
  -2   6   0  225.60   33.04   1
  -2   6   1  874.98   67.44   1
  -2   6   1  795.24   63.73   1
  -2   6   1  845.65   63.98   1
  -2   6   2   30.58   21.24   1
  -2   6   2   20.16    9.52   1
  -2   6   3 1112.22   96.71   1
  -2   6   3 1300.32  101.69   1
  -2   6   3 1296.72  100.83   1
  -2   6   4 1065.37   82.25   1
  -2   6   4 1004.89   81.79   1
  -2   6   5  592.44   47.22   1
  -2   6   5  485.76   48.05   1
  -2   6   6   21.72   19.67   1
  -2   6   6   -8.12   16.13   1
  -2   6   7   31.70   19.48   1
  -2   6   7   17.14   15.40   1
  -2   6   8   87.05   20.71   1
  -2   6   9   48.16   10.13   1
  -2   7  -8   10.82   11.05   1
  -2   7  -8   29.27   20.56   1
  -2   7  -7  -12.82   12.17   1
  -2   7  -7  -15.92   21.71   1
  -2   7  -6   46.10   21.32   1
  -2   7  -6    2.99   21.66   1
  -2   7  -6   26.21   13.00   1
  -2   7  -5   -8.24   14.52   1
  -2   7  -5  -14.98   15.02   1
  -2   7  -5    3.20   20.44   1
  -2   7  -4  408.44   35.57   1
  -2   7  -4  428.08   38.07   1
  -2   7  -4  403.61   38.17   1
  -2   7  -3  391.64   35.62   1
  -2   7  -3  382.59   35.60   1
  -2   7  -3  394.02   36.92   1
  -2   7  -2  265.69   28.69   1
  -2   7  -2  225.30   29.12   1
  -2   7  -2  299.98   27.37   1
  -2   7  -1  351.94   36.77   1
  -2   7  -1  393.23   32.92   1
  -2   7  -1  344.10   43.78   1
  -2   7  -1  379.08   35.44   1
  -2   7   0  598.78   41.60   1
  -2   7   0  562.64   47.91   1
  -2   7   0  605.16   52.15   1
  -2   7   0  470.02   46.83   1
  -2   7   1  181.17   19.11   1
  -2   7   1  181.44   28.83   1
  -2   7   1  202.21   26.16   1
  -2   7   2  193.49   27.82   1
  -2   7   2  191.55   20.76   1
  -2   7   2  280.23   34.48   1
  -2   7   3  237.16   26.80   1
  -2   7   3  243.36   28.39   1
  -2   7   3  301.72   33.70   1
  -2   7   3  271.92   28.03   1
  -2   7   4  871.43   71.44   1
  -2   7   4  875.57   72.20   1
  -2   7   5    4.20   17.10   1
  -2   7   5   13.03   21.66   1
  -2   7   6  105.88   19.55   1
  -2   7   6  150.55   24.79   1
  -2   7   7   45.70   16.09   1
  -2   7   7   49.98   20.50   1
  -2   7   8    1.69   14.66   1
  -2   8  -7  278.22   25.35   1
  -2   8  -7  317.20   32.41   1
  -2   8  -6  816.82   68.02   1
  -2   8  -6 1043.94   73.67   1
  -2   8  -6  994.77   71.91   1
  -2   8  -5   -0.05   20.91   1
  -2   8  -5  -19.45   17.38   1
  -2   8  -5  -23.04   22.66   1
  -2   8  -4  827.71   63.87   1
  -2   8  -4  813.96   66.19   1
  -2   8  -4  860.84   64.55   1
  -2   8  -3   42.38   16.54   1
  -2   8  -3   44.76   19.00   1
  -2   8  -3   49.42   22.21   1
  -2   8  -2 1047.82   70.57   1
  -2   8  -2  954.19   74.14   1
  -2   8  -2  854.98   70.76   1
  -2   8  -1  172.40   25.73   1
  -2   8  -1  159.01   27.24   1
  -2   8  -1  163.33   33.23   1
  -2   8  -1  199.94   21.49   1
  -2   8   0  456.25   47.42   1
  -2   8   0  443.10   35.36   1
  -2   8   0  444.37   40.47   1
  -2   8   1  176.62   31.90   1
  -2   8   1  118.37   15.23   1
  -2   8   1  108.37   21.03   1
  -2   8   2  240.56   31.64   1
  -2   8   2  197.12   26.11   1
  -2   8   2  176.62   17.54   1
  -2   8   3   -4.28   19.38   1
  -2   8   3   16.89    7.15   1
  -2   8   3    4.12   24.73   1
  -2   8   4  308.70   29.17   1
  -2   8   4  278.89   34.07   1
  -2   8   5  -18.49   17.97   1
  -2   8   5   24.80   22.11   1
  -2   8   6  354.57   33.14   1
  -2   8   6  353.82   35.74   1
  -2   8   7   12.32   15.51   1
  -2   9  -6    4.20   14.88   1
  -2   9  -6   28.41   20.68   1
  -2   9  -5   95.45   18.56   1
  -2   9  -5  113.85   21.55   1
  -2   9  -5   54.91   23.12   1
  -2   9  -4   51.70   20.99   1
  -2   9  -4   55.35   19.05   1
  -2   9  -3   16.65   21.22   1
  -2   9  -3   41.22   17.21   1
  -2   9  -3   14.90   19.53   1
  -2   9  -2  296.87   28.60   1
  -2   9  -2  231.65   31.35   1
  -2   9  -2  297.56   37.95   1
  -2   9  -2  275.89   31.23   1
  -2   9  -1   36.97   23.59   1
  -2   9  -1  -17.39   21.77   1
  -2   9  -1   18.49   28.64   1
  -2   9  -1   16.73   16.44   1
  -2   9   0  123.88   25.38   1
  -2   9   0  144.48   20.67   1
  -2   9   1   60.22   22.66   1
  -2   9   1   76.91   29.82   1
  -2   9   1   86.49   14.14   1
  -2   9   2   78.85   21.84   1
  -2   9   2   61.62   11.46   1
  -2   9   2  109.83   26.62   1
  -2   9   2   69.56   10.34   1
  -2   9   3   51.41   22.94   1
  -2   9   3    0.44    7.92   1
  -2   9   3   29.38   20.27   1
  -2   9   4    8.24   22.85   1
  -2   9   5    1.93   17.29   1
  -2   9   6   80.10   18.08   1
  -2  10  -5   72.59   18.57   1
  -2  10  -4   43.03   20.07   1
  -2  10  -3  104.65   19.85   1
  -2  10  -3  123.43   22.22   1
  -2  10  -2  199.66   32.22   1
  -2  10  -2  170.82   27.45   1
  -2  10  -2  135.26   24.42   1
  -2  10  -2  150.55   23.07   1
  -2  10  -1   32.83   23.03   1
  -2  10  -1   81.00   22.68   1
  -2  10   0  106.92   20.06   1
  -2  10   0  157.25   23.58   1
  -2  10   1   66.91   14.23   1
  -2  10   1   90.06   25.81   1
  -2  10   1   85.19   20.12   1
  -2  10   2  132.94   24.67   1
  -2  10   2  149.08   29.55   1
  -2  10   2  129.73   15.95   1
  -2  10   3   33.06    8.16   1
  -2  10   3    9.49   23.10   1
  -2  11  -3   20.07   21.59   1
  -2  11  -3   22.37   17.22   1
  -2  11  -2   32.72   22.42   1
  -2  11  -2   27.14   18.44   1
  -2  11  -1   27.88   27.35   1
  -2  11  -1   57.15   23.13   1
  -2  11  -1   19.98   16.54   1
  -2  11   0  -25.91   26.37   1
  -2  11   0   23.81   22.25   1
  -2  11   2  -11.42   20.62   1
  -2  11   2    4.45    9.87   1
  -1 -11   1  104.45   32.91   1
  -1 -11   1   54.46   18.89   1
  -1 -11   2   -8.64   28.64   1
  -1 -11   2   31.81   23.69   1
  -1 -11   3  158.51   27.70   1
  -1 -11   3  150.80   29.47   1
  -1 -10  -2   -8.29   35.14   1
  -1 -10  -1  -13.40   64.56   1
  -1 -10   0  -26.94   23.67   1
  -1 -10   0  -37.58   36.78   1
  -1 -10   1  -26.52   34.09   1
  -1 -10   2   75.00   23.90   1
  -1 -10   2    0.32   32.71   1
  -1 -10   3  129.73   30.53   1
  -1 -10   3  193.77   28.40   1
  -1 -10   4   19.71   21.93   1
  -1 -10   5   -9.73    9.55   1
  -1 -10   5    7.84   18.48   1
  -1 -10   6  -25.81   21.64   1
  -1  -9  -4   92.93   20.63   1
  -1  -9  -3  -11.63   37.78   1
  -1  -9  -3   27.88   25.56   1
  -1  -9  -2  203.63   31.11   1
  -1  -9  -2  176.09   41.67   1
  -1  -9  -1  157.75   39.94   1
  -1  -9  -1   79.21   21.00   1
  -1  -9   0  115.13   36.70   1
  -1  -9   1    9.92   25.14   1
  -1  -9   1   35.05   35.88   1
  -1  -9   2  245.86   31.99   1
  -1  -9   2  212.87   39.98   1
  -1  -9   3   65.93   24.20   1
  -1  -9   3   99.80   24.18   1
  -1  -9   4  830.02   64.53   1
  -1  -9   5   14.29    9.90   1
  -1  -9   5   13.10   22.08   1
  -1  -9   6  433.06   37.46   1
  -1  -8  -5   -4.24   25.21   1
  -1  -8  -4  121.44   28.65   1
  -1  -8  -4  119.46   41.32   1
  -1  -8  -4  190.44   28.98   1
  -1  -8  -3    2.22   26.05   1
  -1  -8  -3  -11.90   36.43   1
  -1  -8  -2   66.91   26.99   1
  -1  -8  -1  -30.36   39.23   1
  -1  -8  -1    5.11   23.91   1
  -1  -8   0   -2.04   22.97   1
  -1  -8   1   44.36   35.03   1
  -1  -8   1  -10.11   23.40   1
  -1  -8   2   33.18   29.72   1
  -1  -8   2   62.41   22.28   1
  -1  -8   3   94.28   20.20   1
  -1  -8   4   -9.30   23.00   1
  -1  -8   4  -19.98   15.91   1
  -1  -8   5   12.39    9.15   1
  -1  -8   5   48.16   22.49   1
  -1  -8   6  749.66   60.24   1
  -1  -8   7  720.39   55.83   1
  -1  -7  -6  -38.32   32.68   1
  -1  -7  -5   13.99   36.13   1
  -1  -7  -5  -30.03   29.70   1
  -1  -7  -4   22.00   17.63   1
  -1  -7  -4   31.47   32.09   1
  -1  -7  -4   66.91   41.06   1
  -1  -7  -3  484.88   53.73   1
  -1  -7  -3  563.59   46.53   1
  -1  -7  -3  499.08   58.98   1
  -1  -7  -2   -6.97   40.39   1
  -1  -7  -2   62.57   25.79   1
  -1  -7  -1 1280.92  129.56   1
  -1  -7  -1 1355.71  101.62   1
  -1  -7   0   68.06   26.07   1
  -1  -7   0   95.65   38.73   1
  -1  -7   1  366.34   37.90   1
  -1  -7   2  249.01   30.61   1
  -1  -7   2  212.28   35.55   1
  -1  -7   3  266.02   28.38   1
  -1  -7   3  175.30   32.31   1
  -1  -7   4  337.09   34.15   1
  -1  -7   4  381.03   36.70   1
  -1  -7   5   24.70   21.17   1
  -1  -7   6 1748.08  121.25   1
  -1  -6  -6  -10.37   25.12   1
  -1  -6  -6  -13.10   36.27   1
  -1  -6  -5  265.36   45.61   1
  -1  -6  -5  199.66   35.61   1
  -1  -6  -4    9.61   31.93   1
  -1  -6  -4    4.93   39.60   1
  -1  -6  -3  255.36   51.14   1
  -1  -6  -3  286.96   40.32   1
  -1  -6  -3  344.47   35.64   1
  -1  -6  -2  290.02   34.06   1
  -1  -6  -2  323.28   41.35   1
  -1  -6  -1  485.32   42.74   1
  -1  -6  -1  506.25   57.15   1
  -1  -6   0   41.22   17.98   1
  -1  -6   0   79.74   38.58   1
  -1  -6   1   85.38   34.93   1
  -1  -6   1  121.66   24.71   1
  -1  -6   2   69.89   22.91   1
  -1  -6   3   55.50   23.09   1
  -1  -6   3   43.69   24.32   1
  -1  -6   4  253.76   28.99   1
  -1  -6   4  189.89   23.15   1
  -1  -6   5  409.66   35.62   1
  -1  -6   6  409.66   36.03   1
  -1  -5  -8   21.07   29.74   1
  -1  -5  -6   82.63   28.72   1
  -1  -5  -6   13.76   39.10   1
  -1  -5  -5  616.53   52.14   1
  -1  -5  -5  510.31   68.67   1
  -1  -5  -4  -28.41   30.91   1
  -1  -5  -4   48.44   38.84   1
  -1  -5  -3  624.50   65.47   1
  -1  -5  -3  847.39   72.78   1
  -1  -5  -2   44.62   22.04   1
  -1  -5  -1  794.68   77.80   1
  -1  -5  -1  831.17   65.16   1
  -1  -5   0  278.22   37.36   1
  -1  -5   0  291.38   28.68   1
  -1  -5   1 1111.56   99.35   1
  -1  -5   1 1183.36   88.06   1
  -1  -5   2   41.60   23.09   1
  -1  -5   2   57.61   20.34   1
  -1  -5   3   30.36   20.94   1
  -1  -5   3   -2.10   16.33   1
  -1  -5   4 1625.70  122.57   1
  -1  -5   5    6.00   20.78   1
  -1  -4  -8    7.51   26.80   1
  -1  -4  -8    4.08   34.91   1
  -1  -4  -8   -6.92    9.10   1
  -1  -4  -7   31.36    9.18   1
  -1  -4  -6  -19.01   38.37   1
  -1  -4  -6  -23.43   29.43   1
  -1  -4  -5  520.30   69.80   1
  -1  -4  -5  563.59   53.65   1
  -1  -4  -4    2.13   35.62   1
  -1  -4  -4   39.31   39.63   1
  -1  -4  -3  500.42   44.74   1
  -1  -4  -3  421.89   52.99   1
  -1  -4  -2   -6.25   32.35   1
  -1  -4  -2  -33.64   27.38   1
  -1  -4  -1  152.77   34.11   1
  -1  -4  -1  143.52   26.12   1
  -1  -4  -1  144.48   22.12   1
  -1  -4   0  672.88   57.07   1
  -1  -4   0  590.49   49.09   1
  -1  -4   1   23.91   22.30   1
  -1  -4   2 2320.35  210.02   1
  -1  -4   2 2498.00  190.92   1
  -1  -4   3  711.29   59.21   1
  -1  -4   3  725.76   64.66   1
  -1  -4   4  774.51   62.34   1
  -1  -4   5 1207.56   95.91   1
  -1  -4   5 1173.06   88.36   1
  -1  -4   6  859.08   62.14   1
  -1  -4   7  491.95   40.37   1
  -1  -4   8   10.56   18.33   1
  -1  -4   9  455.82   38.43   1
  -1  -4  10   16.08   18.45   1
  -1  -3  -9    5.66   29.99   1
  -1  -3  -9   28.52   25.20   1
  -1  -3  -8  -14.82   34.57   1
  -1  -3  -8   66.10   25.85   1
  -1  -3  -7  -28.84   34.90   1
  -1  -3  -6   87.24   39.41   1
  -1  -3  -6  114.70   29.35   1
  -1  -3  -5  140.42   25.83   1
  -1  -3  -5  206.21   42.79   1
  -1  -3  -4  442.26   45.42   1
  -1  -3  -4  445.21   52.33   1
  -1  -3  -3   35.16   34.16   1
  -1  -3  -3   23.43   26.62   1
  -1  -3  -2   91.58   22.97   1
  -1  -3  -2  161.29   29.97   1
  -1  -3  -1 1188.87   93.10   1
  -1  -3  -1 1019.52   95.79   1
  -1  -3   0  780.08   62.56   1
  -1  -3   0  739.84   73.44   1
  -1  -3   1 1343.22   95.29   1
  -1  -3   1 1239.74  105.63   1
  -1  -3   2  476.55   47.15   1
  -1  -3   2  541.96   44.23   1
  -1  -3   3 1251.04   87.01   1
  -1  -3   3 1091.64   93.17   1
  -1  -3   4  162.82   18.88   1
  -1  -3   4  171.87   20.19   1
  -1  -3   5 1211.74   85.63   1
  -1  -3   6  660.49   50.37   1
  -1  -3   8  -25.60   18.92   1
  -1  -3   9  229.52   26.66   1
  -1  -3  10    2.46   47.26   1
  -1  -2  -9   91.01   26.71   1
  -1  -2  -8  253.45   44.58   1
  -1  -2  -8  308.70   32.33   1
  -1  -2  -7   26.01   25.19   1
  -1  -2  -7  -13.54   32.46   1
  -1  -2  -6  438.90   40.22   1
  -1  -2  -6  351.19   49.47   1
  -1  -2  -5  282.58   46.06   1
  -1  -2  -5  323.64   36.34   1
  -1  -2  -4 1566.58  110.82   1
  -1  -2  -4 1476.10  137.54   1
  -1  -2  -3  248.38   36.56   1
  -1  -2  -3  284.60   29.35   1
  -1  -2  -2 2255.30  174.76   1
  -1  -2  -2 2669.79  190.15   1
  -1  -2  -1  186.05   24.82   1
  -1  -2  -1  186.05   31.10   1
  -1  -2   0 8390.56  637.54   1
  -1  -2   0 7523.83  579.42   1
  -1  -2   1 1422.04  213.44   1
  -1  -2   1 1315.51  153.06   1
  -1  -2   2  840.42   78.27   1
  -1  -2   2  918.70   85.47   1
  -1  -2   3  109.62   18.22   1
  -1  -2   4  103.02   15.83   1
  -1  -2   5  589.52   43.70   1
  -1  -2   6 1231.31   85.62   1
  -1  -2   7   52.71   17.86   1
  -1  -2   8  367.11   35.25   1
  -1  -2   9  256.64   26.27   1
  -1  -2  10  -22.00   18.20   1
  -1  -2  11  109.41   21.97   1
  -1  -1  -9  101.81   26.03   1
  -1  -1  -8  217.86   36.60   1
  -1  -1  -8  223.80   30.22   1
  -1  -1  -8  249.32   25.26   1
  -1  -1  -7   85.56   21.46   1
  -1  -1  -7  109.20   33.65   1
  -1  -1  -7   59.44   20.05   1
  -1  -1  -6 1176.49  123.48   1
  -1  -1  -6 1325.69   96.85   1
  -1  -1  -6 1274.49   97.10   1
  -1  -1  -5   17.47   18.14   1
  -1  -1  -5   36.97   33.44   1
  -1  -1  -5   45.70   20.55   1
  -1  -1  -4  295.84   26.49   1
  -1  -1  -4  248.69   37.85   1
  -1  -1  -4  298.25   29.01   1
  -1  -1  -3   17.98   15.26   1
  -1  -1  -3   -2.02   59.70   1
  -1  -1  -3   42.51   18.13   1
  -1  -1  -2 1139.74   87.10   1
  -1  -1  -2 1287.37   99.03   1
  -1  -1  -1  271.92   43.86   1
  -1  -1   1 2057.53  165.11   1
  -1  -1   2 2796.29  203.06   1
  -1  -1   3 2093.98  134.53   1
  -1  -1   4 3326.98  226.11   1
  -1  -1   5 4826.08  334.85   1
  -1  -1   6  480.92   39.91   1
  -1  -1   7 2726.93  192.17   1
  -1  -1   9   62.25   18.94   1
  -1  -1  10  262.44   27.86   1
  -1  -1  11  120.56   20.42   1
  -1   0 -10  122.32   28.53   1
  -1   0 -10  165.12   24.93   1
  -1   0 -10  159.01   22.45   1
  -1   0  -9   22.75   25.28   1
  -1   0  -9   33.06   19.44   1
  -1   0  -9   46.10   23.90   1
  -1   0  -8   14.21   19.45   1
  -1   0  -7  724.69   56.53   1
  -1   0  -7  767.84   60.41   1
  -1   0  -7  658.95   68.28   1
  -1   0  -6 2319.39  216.72   1
  -1   0  -6 1893.12  169.69   1
  -1   0  -6 2423.59  168.37   1
  -1   0  -5  504.45   54.35   1
  -1   0  -5  436.81   36.78   1
  -1   0  -4 1498.46   99.87   1
  -1   0  -4 1444.00  106.40   1
  -1   0  -4 1315.51  118.97   1
  -1   0  -3  118.59   28.53   1
  -1   0  -3   73.44   56.90   1
  -1   0  -3  119.25   24.68   1
  -1   0  -2 2943.06  227.85   1
  -1   0  -2 3212.62  352.55   1
  -1   0  -2 3068.05  237.07   1
  -1   0  -1  906.01   86.09   1
  -1   0  -1 1010.60   77.57   1
  -1   0  -1 1045.88  137.12   1
  -1   0   1    0.52    3.44   1
  -1   0   3 2860.11  222.48   1
  -1   0   3 3256.98  208.88   1
  -1   0   4   45.29   10.77   1
  -1   0   5 3124.81  233.66   1
  -1   0   6  105.47   17.05   1
  -1   0   7  745.84   64.45   1
  -1   0   8 1295.28  102.93   1
  -1   0   9  810.54   62.63   1
  -1   0  10  284.26   26.98   1
  -1   0  11    8.24   16.93   1
  -1   1 -10  -14.90   43.77   1
  -1   1  -9  171.87   25.70   1
  -1   1  -9  194.60   28.74   1
  -1   1  -8   99.80   21.78   1
  -1   1  -8   63.84   26.37   1
  -1   1  -8   83.17   20.43   1
  -1   1  -7  661.00   52.96   1
  -1   1  -7  498.18   66.07   1
  -1   1  -7  663.06   49.96   1
  -1   1  -6  381.03   39.04   1
  -1   1  -6  323.28   45.67   1
  -1   1  -6  324.72   33.52   1
  -1   1  -5  205.06   24.06   1
  -1   1  -5  200.51   24.64   1
  -1   1  -5  196.56   28.32   1
  -1   1  -4  591.95   47.69   1
  -1   1  -4  564.06   54.15   1
  -1   1  -4  606.64   44.83   1
  -1   1  -3 4370.53  333.19   1
  -1   1  -3 4327.01  293.38   1
  -1   1  -3 4069.16  310.02   1
  -1   1  -2  115.78   69.29   1
  -1   1  -2  123.21   44.62   1
  -1   1  -1  751.31   63.59   1
  -1   1  -1  751.86   71.29   1
  -1   1  -1  964.72   63.98   1
  -1   1   3   85.75    9.82   1
  -1   1   3   63.20    9.54   1
  -1   1   3   81.90   16.65   1
  -1   1   4 5709.31  394.42   1
  -1   1   4 5517.52  417.45   1
  -1   1   5  896.40   70.06   1
  -1   1   6 1306.10   99.75   1
  -1   1   6 1246.80  102.40   1
  -1   1   7   18.32   19.09   1
  -1   1   7    6.71   13.93   1
  -1   1   8  329.42   29.40   1
  -1   1   9    0.96   14.62   1
  -1   2 -10  -11.09   21.58   1
  -1   2 -10  -47.75   20.73   1
  -1   2  -9  149.82   22.77   1
  -1   2  -9  117.07   24.67   1
  -1   2  -9  153.02   26.72   1
  -1   2  -9  129.73   25.29   1
  -1   2  -8   65.12   23.08   1
  -1   2  -8  107.33   21.13   1
  -1   2  -8   91.97   20.14   1
  -1   2  -7   76.04   18.31   1
  -1   2  -7   46.24   25.43   1
  -1   2  -7   54.76   22.20   1
  -1   2  -7   12.89   23.12   1
  -1   2  -6   -7.34   19.30   1
  -1   2  -6   27.46   21.69   1
  -1   2  -6   12.46   21.32   1
  -1   2  -6   -7.56   20.51   1
  -1   2  -5  705.96   54.20   1
  -1   2  -5  715.56   54.03   1
  -1   2  -5  725.76   56.04   1
  -1   2  -5  596.82   69.38   1
  -1   2  -4 1855.89  121.49   1
  -1   2  -4 1742.23  126.05   1
  -1   2  -4 1820.73  128.86   1
  -1   2  -4 1533.51  119.83   1
  -1   2  -4 1628.12  140.42   1
  -1   2  -3 4442.22  299.93   1
  -1   2  -3 3733.21  339.72   1
  -1   2  -2  151.29   14.51   1
  -1   2  -2  161.54   18.05   1
  -1   2  -2  166.93   17.83   1
  -1   2  -1 2651.22  193.60   1
  -1   2  -1 2626.56  199.88   1
  -1   2  -1 2824.92  192.40   1
  -1   2   0  644.14   54.82   1
  -1   2   0  625.00   52.50   1
  -1   2   0  613.55   53.01   1
  -1   2   1 1649.17  200.61   1
  -1   2   1 1539.78  207.97   1
  -1   2   1 1309.72  105.67   1
  -1   2   2 2180.89  160.65   1
  -1   2   2 2093.98  161.99   1
  -1   2   2 2290.58  153.15   1
  -1   2   3 1306.10   94.69   1
  -1   2   3 1371.22   95.54   1
  -1   2   4  209.09   16.77   1
  -1   2   4  209.67   22.30   1
  -1   2   4  185.50   17.71   1
  -1   2   5   -4.33   11.56   1
  -1   2   5   24.21   18.99   1
  -1   2   6  340.03   35.04   1
  -1   2   7  214.92   27.85   1
  -1   2   7  233.78   21.41   1
  -1   2   8   61.47   21.01   1
  -1   2   8   60.84   14.35   1
  -1   2   9    9.49   13.43   1
  -1   2   9   14.14   18.50   1
  -1   2  10   71.74   14.74   1
  -1   3 -10    7.78   18.97   1
  -1   3 -10   -7.73   21.52   1
  -1   3  -9  239.94   26.95   1
  -1   3  -9  251.22   29.80   1
  -1   3  -9  236.85   29.55   1
  -1   3  -8  -19.10   14.07   1
  -1   3  -8   32.49   20.75   1
  -1   3  -8    6.05   21.94   1
  -1   3  -8   13.76   17.81   1
  -1   3  -7  470.02   40.32   1
  -1   3  -7  422.30   38.63   1
  -1   3  -7  425.18   37.53   1
  -1   3  -6   95.26   17.18   1
  -1   3  -6  119.68   11.82   1
  -1   3  -6  162.05   24.19   1
  -1   3  -6  133.86   18.97   1
  -1   3  -5  227.71   28.37   1
  -1   3  -5  250.91   27.88   1
  -1   3  -5  205.92   19.23   1
  -1   3  -5  248.69   26.18   1
  -1   3  -4 2110.48  148.85   1
  -1   3  -4 1924.58  151.79   1
  -1   3  -4 2233.51  146.51   1
  -1   3  -3  677.04   47.36   1
  -1   3  -3  579.36   48.62   1
  -1   3  -3  599.76   45.06   1
  -1   3  -2    5.90   19.25   1
  -1   3  -2    1.74   17.71   1
  -1   3  -2   34.93   17.49   1
  -1   3  -1  430.56   34.03   1
  -1   3  -1  426.84   36.77   1
  -1   3  -1  469.16   34.66   1
  -1   3   0   19.98   13.50   1
  -1   3   0    6.92   20.41   1
  -1   3   0    3.03    9.57   1
  -1   3   1  980.32   78.90   1
  -1   3   1 1114.89   72.79   1
  -1   3   2  118.59   17.21   1
  -1   3   2  136.42   18.92   1
  -1   3   3  163.84   16.38   1
  -1   3   3  139.00   15.80   1
  -1   3   3  174.50   21.14   1
  -1   3   4  209.38   21.42   1
  -1   3   4  210.25   23.20   1
  -1   3   4  207.07   18.13   1
  -1   3   5  749.12   56.93   1
  -1   3   5  682.78   61.67   1
  -1   3   5  644.14   55.84   1
  -1   3   6  102.21   23.25   1
  -1   3   6  123.88   14.47   1
  -1   3   6   96.43   11.39   1
  -1   3   7  609.10   49.85   1
  -1   3   7  586.12   47.45   1
  -1   3   8  205.92   20.09   1
  -1   3   8  215.80   25.85   1
  -1   3   9    8.01   13.36   1
  -1   3   9   16.32   11.80   1
  -1   4 -10   18.32   21.23   1
  -1   4 -10   -3.61   20.44   1
  -1   4  -9   17.14   17.31   1
  -1   4  -9   36.36   21.95   1
  -1   4  -8   82.08   19.21   1
  -1   4  -8   65.12   21.95   1
  -1   4  -8   18.06   21.93   1
  -1   4  -7  326.16   34.68   1
  -1   4  -7  463.11   36.58   1
  -1   4  -7  369.79   35.38   1
  -1   4  -7  414.53   36.24   1
  -1   4  -6  104.04   17.95   1
  -1   4  -6  123.65   21.57   1
  -1   4  -6   87.80   21.74   1
  -1   4  -6   94.28   12.04   1
  -1   4  -5  432.64   35.78   1
  -1   4  -5  443.94   38.35   1
  -1   4  -5  402.00   33.28   1
  -1   4  -4  127.01   16.68   1
  -1   4  -4  145.68   22.69   1
  -1   4  -4  107.33   16.99   1
  -1   4  -3 1199.24   84.50   1
  -1   4  -3 1213.83   85.01   1
  -1   4  -3 1160.08   88.56   1
  -1   4  -2  201.36   20.72   1
  -1   4  -2  187.42   18.89   1
  -1   4  -2  143.76   21.10   1
  -1   4  -1  416.16   31.42   1
  -1   4  -1  329.79   33.05   1
  -1   4  -1  440.16   31.05   1
  -1   4   0 2375.59  183.26   1
  -1   4   0 2504.00  167.13   1
  -1   4   0 2309.76  167.25   1
  -1   4   1 1982.03  147.81   1
  -1   4   1 1699.91  137.71   1
  -1   4   1 2177.16  139.98   1
  -1   4   2  290.36   26.24   1
  -1   4   2  302.06   31.28   1
  -1   4   3   -5.29   19.32   1
  -1   4   3    2.19    7.16   1
  -1   4   3   19.54   13.97   1
  -1   4   4   95.65   16.82   1
  -1   4   5   18.32   14.81   1
  -1   4   5   27.77   14.12   1
  -1   4   5   38.94    9.48   1
  -1   4   6  -17.98   19.84   1
  -1   4   6   -3.42   10.21   1
  -1   4   6   -4.71   11.67   1
  -1   4   7  118.59   21.78   1
  -1   4   7   97.22   13.21   1
  -1   4   7  130.42   13.25   1
  -1   4   8   82.81   11.10   1
  -1   4   8   59.91    8.05   1
  -1   4   8   93.12   20.84   1
  -1   4   9   39.69   16.63   1
  -1   4   9    8.24    9.82   1
  -1   5  -9   37.95   19.96   1
  -1   5  -9   29.59   21.43   1
  -1   5  -9   60.22   18.00   1
  -1   5  -8    3.31   18.20   1
  -1   5  -8   -7.56   20.74   1
  -1   5  -8    0.85   21.77   1
  -1   5  -8   -2.40    7.41   1
  -1   5  -7  591.46   50.10   1
  -1   5  -7  535.46   47.21   1
  -1   5  -7  609.10   49.85   1
  -1   5  -7  716.10   51.91   1
  -1   5  -6   61.47   12.70   1
  -1   5  -5  125.22   23.28   1
  -1   5  -5   89.30   24.19   1
  -1   5  -5  107.54   16.59   1
  -1   5  -4  225.00   22.50   1
  -1   5  -4  209.09   26.32   1
  -1   5  -4  232.26   26.82   1
  -1   5  -3   62.09   15.60   1
  -1   5  -3   91.20   17.95   1
  -1   5  -2  921.73   72.86   1
  -1   5  -2  995.40   76.98   1
  -1   5  -2 1193.01   75.30   1
  -1   5  -1  -40.32   18.54   1
  -1   5  -1  -12.53   13.52   1
  -1   5  -1    8.58   15.41   1
  -1   5   0   29.05   24.90   1
  -1   5   0   31.36   18.70   1
  -1   5   0   27.88   16.58   1
  -1   5   0  -12.60   11.00   1
  -1   5   1  233.17   29.93   1
  -1   5   1  162.05   18.59   1
  -1   5   1  180.90   16.68   1
  -1   5   2  308.35   34.42   1
  -1   5   2  318.27   24.26   1
  -1   5   2  302.06   28.50   1
  -1   5   3  816.24   66.28   1
  -1   5   3  805.42   66.98   1
  -1   5   4  703.31   66.83   1
  -1   5   4  917.48   66.64   1
  -1   5   4  735.49   67.80   1
  -1   5   5  457.10   41.90   1
  -1   5   5  523.04   45.74   1
  -1   5   5  438.90   46.51   1
  -1   5   6  -14.52   13.49   1
  -1   5   6   -6.86   20.23   1
  -1   5   6   -5.52    7.80   1
  -1   5   7  410.06   40.50   1
  -1   5   7  407.23   35.52   1
  -1   5   7  384.94   38.46   1
  -1   5   8  -20.70   14.20   1
  -1   5   8    5.62    8.34   1
  -1   5   8  -16.40    8.99   1
  -1   6  -9   16.81   20.01   1
  -1   6  -9   26.01   19.89   1
  -1   6  -8   48.58   10.87   1
  -1   6  -8   41.73   17.83   1
  -1   6  -8   45.70   19.06   1
  -1   6  -7  147.14   23.29   1
  -1   6  -7  169.00   25.22   1
  -1   6  -7  105.27   16.01   1
  -1   6  -6   68.39   21.34   1
  -1   6  -6   56.40   14.27   1
  -1   6  -6  106.50   21.88   1
  -1   6  -5  204.49   21.74   1
  -1   6  -5  190.16   27.30   1
  -1   6  -4 1253.16   87.08   1
  -1   6  -4 1184.05   87.40   1
  -1   6  -4 1108.22   89.22   1
  -1   6  -3   -7.08   21.65   1
  -1   6  -3   51.84   19.30   1
  -1   6  -3  -21.25   22.31   1
  -1   6  -2  482.68   44.38   1
  -1   6  -2  578.40   41.85   1
  -1   6  -2  518.47   42.81   1
  -1   6  -1  183.33   26.54   1
  -1   6  -1  226.20   26.17   1
  -1   6  -1  189.06   22.27   1
  -1   6   0  112.15   23.72   1
  -1   6   0  152.52   32.36   1
  -1   6   0  103.43   15.66   1
  -1   6   0   86.30   19.32   1
  -1   6   1  365.19   42.81   1
  -1   6   1  420.25   34.03   1
  -1   6   1  421.89   36.97   1
  -1   6   2    2.69   19.58   1
  -1   6   2   -8.12    9.75   1
  -1   6   2   15.37   26.73   1
  -1   6   3 1590.41  117.25   1
  -1   6   3 1723.08  136.15   1
  -1   6   3 1612.83  126.10   1
  -1   6   4  336.72   31.20   1
  -1   6   4  278.56   35.05   1
  -1   6   5  497.74   42.84   1
  -1   6   5  510.31   41.11   1
  -1   6   5  382.98   46.97   1
  -1   6   6   41.99   14.77   1
  -1   6   6   26.52   19.36   1
  -1   6   6   38.44    8.06   1
  -1   6   7   30.47   14.13   1
  -1   6   7   51.84   18.86   1
  -1   6   7   45.83    7.72   1
  -1   6   8   27.14    7.19   1
  -1   7  -8  655.87   54.29   1
  -1   7  -8  547.09   55.20   1
  -1   7  -8  727.92   55.58   1
  -1   7  -8  682.25   55.90   1
  -1   7  -7  -18.75   22.43   1
  -1   7  -7    6.45   18.95   1
  -1   7  -6  218.45   26.60   1
  -1   7  -6  198.81   21.43   1
  -1   7  -5 1198.54   90.01   1
  -1   7  -5 1171.01   92.39   1
  -1   7  -5 1278.06   94.38   1
  -1   7  -4 3401.22  250.78   1
  -1   7  -4 3588.01  242.00   1
  -1   7  -4 3290.17  239.76   1
  -1   7  -3  150.55   23.31   1
  -1   7  -3  123.88   24.26   1
  -1   7  -2  233.48   29.34   1
  -1   7  -2  273.57   31.43   1
  -1   7  -2  285.27   28.38   1
  -1   7  -1   38.94   17.10   1
  -1   7  -1   21.16   23.55   1
  -1   7  -1  -21.90   31.54   1
  -1   7   0  -20.52   34.25   1
  -1   7   0    7.08   23.99   1
  -1   7   0   38.07   21.47   1
  -1   7   0   -2.25   15.15   1
  -1   7   1   38.19   22.37   1
  -1   7   1   65.45   33.82   1
  -1   7   1   38.94   15.35   1
  -1   7   2   33.87   22.58   1
  -1   7   2   40.70   29.09   1
  -1   7   3  269.62   35.80   1
  -1   7   3  347.45   28.33   1
  -1   7   3  329.79   30.87   1
  -1   7   4   50.13   17.98   1
  -1   7   4   -0.85   20.64   1
  -1   7   5  118.81   13.30   1
  -1   7   5  178.22   21.09   1
  -1   7   6   29.70   19.62   1
  -1   7   6   13.18   16.84   1
  -1   7   7    0.48   18.69   1
  -1   7   7  -24.01   15.88   1
  -1   7   8   34.22   12.99   1
  -1   8  -8   39.94   11.25   1
  -1   8  -8    4.58   17.72   1
  -1   8  -7  -37.58   19.86   1
  -1   8  -7  -21.34   21.81   1
  -1   8  -7    9.18   13.39   1
  -1   8  -6   90.63   23.23   1
  -1   8  -6  119.25   19.22   1
  -1   8  -6  158.76   22.93   1
  -1   8  -5  314.00   30.48   1
  -1   8  -5  245.55   26.64   1
  -1   8  -4  546.62   47.23   1
  -1   8  -4  641.61   50.66   1
  -1   8  -4  544.76   47.15   1
  -1   8  -3   53.44   16.37   1
  -1   8  -3   76.74   21.02   1
  -1   8  -3   31.70   21.96   1
  -1   8  -2  549.43   44.54   1
  -1   8  -2  544.29   43.86   1
  -1   8  -1   27.88   23.34   1
  -1   8  -1   24.30   22.68   1
  -1   8  -1   57.76   17.48   1
  -1   8   0   21.53   14.66   1
  -1   8   0   33.06   30.94   1
  -1   8   0   48.72   22.20   1
  -1   8   1   27.67   12.94   1
  -1   8   1   21.07   22.86   1
  -1   8   2   31.58   17.65   1
  -1   8   2   55.50   26.37   1
  -1   8   2   32.95   14.24   1
  -1   8   3  144.24   27.86   1
  -1   8   3  153.02   15.59   1
  -1   8   3  141.85   22.39   1
  -1   8   4  191.55   27.40   1
  -1   8   4  155.00   23.16   1
  -1   8   4  149.08   14.90   1
  -1   8   4  121.66   14.34   1
  -1   8   5   24.60   16.96   1
  -1   8   5   -4.28   17.88   1
  -1   8   6  251.86   29.84   1
  -1   8   6  194.88   24.57   1
  -1   8   7    8.35   15.32   1
  -1   9  -7   39.82   20.19   1
  -1   9  -7   52.42   15.20   1
  -1   9  -6   74.48   20.19   1
  -1   9  -6   54.76   17.61   1
  -1   9  -5   13.76   19.96   1
  -1   9  -5   12.04   19.02   1
  -1   9  -5   17.06   20.73   1
  -1   9  -4   42.12   16.61   1
  -1   9  -4   52.13   21.52   1
  -1   9  -4   84.09   22.19   1
  -1   9  -3  -30.03   19.73   1
  -1   9  -3   24.70   23.16   1
  -1   9  -3    7.56   21.67   1
  -1   9  -2  143.76   22.06   1
  -1   9  -2   93.12   33.00   1
  -1   9  -2  177.42   25.84   1
  -1   9  -2  212.28   27.97   1
  -1   9  -1  469.16   42.89   1
  -1   9  -1  429.32   42.27   1
  -1   9  -1  446.90   49.04   1
  -1   9  -1  494.17   38.68   1
  -1   9   0   81.36   25.26   1
  -1   9   0   81.72   17.18   1
  -1   9   0   68.56   22.69   1
  -1   9   1   49.98   22.77   1
  -1   9   1  108.58   30.22   1
  -1   9   1   71.40   15.38   1
  -1   9   2   24.11   18.76   1
  -1   9   2   47.61   13.94   1
  -1   9   3   53.29   20.88   1
  -1   9   3   33.76   24.52   1
  -1   9   3   27.67   10.73   1
  -1   9   4   43.56   10.03   1
  -1   9   4   48.58    9.20   1
  -1  10  -6   98.41   18.05   1
  -1  10  -6  127.92   22.62   1
  -1  10  -5   18.23   21.01   1
  -1  10  -5  -22.47   18.96   1
  -1  10  -4   40.45   19.33   1
  -1  10  -4   39.94   20.35   1
  -1  10  -4   54.61   21.73   1
  -1  10  -3  -18.66   21.51   1
  -1  10  -3   12.11   19.56   1
  -1  10  -3  -50.69   29.90   1
  -1  10  -3   -3.72   20.15   1
  -1  10  -2  162.31   22.68   1
  -1  10  -2  186.60   28.96   1
  -1  10  -2  156.00   25.23   1
  -1  10  -2  102.82   30.62   1
  -1  10  -1  112.15   19.91   1
  -1  10  -1  121.22   25.10   1
  -1  10   0   58.68   17.31   1
  -1  10   0   76.56   18.90   1
  -1  10   0   43.43   29.00   1
  -1  10   1   20.25   26.82   1
  -1  10   1   11.56   22.92   1
  -1  10   1   10.37   16.10   1
  -1  10   2  195.44   30.20   1
  -1  10   2  175.83   27.32   1
  -1  10   3   77.62   13.04   1
  -1  10   3  115.99   22.40   1
  -1  10   4   23.52   18.24   1
  -1  11  -3  159.77   23.51   1
  -1  11  -2  107.54   20.33   1
  -1  11  -1  102.82   24.54   1
  -1  11  -1  118.81   20.49   1
  -1  11   0   -0.86   20.68   1
  -1  11   1    7.67   22.66   1
  -1  11   1   51.12   15.87   1
  -1  11   2  171.87   19.66   1
  -1  11   2  203.35   27.95   1
   0 -11  -1   28.52   24.03   1
   0 -11   0   55.95   21.39   1
   0 -11   0   43.43   34.27   1
   0 -11   1   72.59   32.55   1
   0 -11   2  -39.31   28.47   1
   0 -11   2  -38.19   22.37   1
   0 -11   3    6.86   20.70   1
   0 -11   3   12.46   20.33   1
   0 -10  -3    9.18   25.63   1
   0 -10  -2  -57.76  172.22   1
   0 -10  -1  -32.72   37.29   1
   0 -10  -1  -31.47   24.01   1
   0 -10   0  145.68   28.00   1
   0 -10   0  147.62   39.85   1
   0 -10   1   98.01   34.85   1
   0 -10   2   60.06   26.20   1
   0 -10   2   97.22   30.37   1
   0 -10   3  -42.90   23.19   1
   0 -10   3   -9.67   20.96   1
   0 -10   4  396.01   38.61   1
   0 -10   5  -21.81   22.42   1
   0 -10   6  -19.89   21.76   1
   0  -9  -5  100.40   25.65   1
   0  -9  -4  176.89   40.70   1
   0  -9  -4  208.51   30.04   1
   0  -9  -3  -22.85   26.86   1
   0  -9  -3   63.36   36.78   1
   0  -9  -2   91.01   24.99   1
   0  -9  -2   91.97   39.13   1
   0  -9  -1  106.50   38.60   1
   0  -9  -1  104.04   26.52   1
   0  -9   0  157.50   37.15   1
   0  -9   0  107.12   26.08   1
   0  -9   1   -0.16   24.00   1
   0  -9   1   -9.86   33.60   1
   0  -9   2   27.98   28.99   1
   0  -9   2   77.44   24.29   1
   0  -9   3    7.02   23.64   1
   0  -9   3   29.48   19.98   1
   0  -9   4  483.56   42.22   1
   0  -9   5   32.49   20.41   1
   0  -9   6  175.83   27.85   1
   0  -8  -6   80.64   34.66   1
   0  -8  -5   85.75   19.82   1
   0  -8  -5   96.04   26.07   1
   0  -8  -4  169.00   40.82   1
   0  -8  -4  178.76   37.97   1
   0  -8  -4  170.56   30.04   1
   0  -8  -3  166.93   41.86   1
   0  -8  -2  536.85   61.17   1
   0  -8  -2  510.76   52.43   1
   0  -8  -1  665.12   63.44   1
   0  -8  -1  545.69   71.48   1
   0  -8   0  114.06   27.55   1
   0  -8   1   80.64   26.58   1
   0  -8   1   82.26   33.74   1
   0  -8   2  530.38   45.60   1
   0  -8   2  445.63   50.66   1
   0  -8   3   10.30   23.75   1
   0  -8   3   26.32   24.32   1
   0  -8   4   41.34   16.46   1
   0  -8   4   17.47   11.20   1
   0  -8   6   31.58   23.27   1
   0  -7  -7  161.54   34.57   1
   0  -7  -6  144.72   31.52   1
   0  -7  -6  109.20   28.42   1
   0  -7  -5  -33.99   32.41   1
   0  -7  -5   34.81   25.49   1
   0  -7  -5    2.25   38.94   1
   0  -7  -4  182.25   34.56   1
   0  -7  -4  155.00   41.33   1
   0  -7  -3  626.00   55.54   1
   0  -7  -3  503.10   56.52   1
   0  -7  -2 1654.05  126.08   1
   0  -7  -2 1673.63  161.19   1
   0  -7  -1  572.64   49.30   1
   0  -7  -1  518.02   59.63   1
   0  -7   0   -0.72   35.62   1
   0  -7   1   18.06   17.42   1
   0  -7   1    7.84   32.54   1
   0  -7   2  430.98   48.99   1
   0  -7   2  465.70   45.75   1
   0  -7   3   22.37   21.76   1
   0  -7   4   70.73   23.04   1
   0  -7   4   36.60   10.04   1
   0  -7   6   64.80   21.90   1
   0  -6  -8  -13.91   24.10   1
   0  -6  -7  189.89   42.17   1
   0  -6  -7  241.80   36.39   1
   0  -6  -6    3.13   30.27   1
   0  -6  -6  -33.29   38.20   1
   0  -6  -5  255.04   39.61   1
   0  -6  -5  216.68   42.39   1
   0  -6  -4   51.27   40.24   1
   0  -6  -3  101.00   33.37   1
   0  -6  -3   88.55   26.91   1
   0  -6  -3  107.12   40.99   1
   0  -6  -2  680.69   78.79   1
   0  -6  -2  754.60   69.77   1
   0  -6  -2  647.70   62.61   1
   0  -6  -1 1508.55  105.64   1
   0  -6  -1 1414.51  130.88   1
   0  -6   0  190.44   35.33   1
   0  -6   0  177.96   28.01   1
   0  -6   1  989.10   76.11   1
   0  -6   1 1016.97   93.76   1
   0  -6   2   33.52   25.24   1
   0  -6   2   33.41   23.47   1
   0  -6   3   18.49   23.22   1
   0  -6   3  -32.04   15.85   1
   0  -6   4   20.70   16.65   1
   0  -6   5  332.70   33.20   1
   0  -6   5  392.44   36.45   1
   0  -6   6   22.47   17.73   1
   0  -6   7  102.21   22.04   1
   0  -6   8  202.21   24.74   1
   0  -5  -8  -16.00   25.28   1
   0  -5  -8    5.90   34.46   1
   0  -5  -7  314.00   39.34   1
   0  -5  -7  235.62   46.97   1
   0  -5  -6   -8.82   28.93   1
   0  -5  -6    1.04   38.39   1
   0  -5  -5   10.43   34.04   1
   0  -5  -4   46.38   41.54   1
   0  -5  -4   41.47   27.56   1
   0  -5  -3   42.38   31.90   1
   0  -5  -3   -6.30   27.46   1
   0  -5  -2   45.70   36.23   1
   0  -5  -2   51.41   21.94   1
   0  -5  -1  344.84   42.71   1
   0  -5  -1  418.61   35.19   1
   0  -5   0   28.52   20.61   1
   0  -5   0  -13.62   26.86   1
   0  -5   1 3404.72  291.75   1
   0  -5   1 3621.63  261.18   1
   0  -5   2  861.42   63.40   1
   0  -5   2  857.32   70.27   1
   0  -5   3 1027.20   79.48   1
   0  -5   5  943.72   71.88   1
   0  -5   5  930.25   68.93   1
   0  -5   6  236.24   27.05   1
   0  -5   7  334.52   31.09   1
   0  -5   8   78.15   21.04   1
   0  -5   9   13.99   20.05   1
   0  -4  -9   45.02   25.90   1
   0  -4  -9   15.29   31.67   1
   0  -4  -8    4.93   10.21   1
   0  -4  -8   21.72   18.64   1
   0  -4  -8    7.78   29.02   1
   0  -4  -7  756.80   62.72   1
   0  -4  -7  698.54   72.95   1
   0  -4  -6  610.58   54.36   1
   0  -4  -6  482.68   54.49   1
   0  -4  -6  641.10   68.87   1
   0  -4  -5  306.25   49.00   1
   0  -4  -5  345.96   42.41   1
   0  -4  -4  219.04   42.62   1
   0  -4  -3 2183.69  172.90   1
   0  -4  -2  -10.82   30.40   1
   0  -4  -2  -46.38   26.56   1
   0  -4  -1 3076.92  241.85   1
   0  -4  -1 2837.69  207.75   1
   0  -4   0 2539.15  201.56   1
   0  -4   0 2573.53  182.63   1
   0  -4   1 2040.33  190.62   1
   0  -4   1 2465.12  168.81   1
   0  -4   2   36.84   12.87   1
   0  -4   2   41.99   16.46   1
   0  -4   3  537.31   45.43   1
   0  -4   3  592.44   43.33   1
   0  -4   4   26.94   19.51   1
   0  -4   4   28.09   17.70   1
   0  -4   5  451.99   38.27   1
   0  -4   6   19.54   18.92   1
   0  -4   7   63.20   18.76   1
   0  -4   8   16.16   13.91   1
   0  -4   9  169.00   25.74   1
   0  -4  10  -36.84   20.03   1
   0  -3  -9   23.52   30.46   1
   0  -3  -9   71.57   12.01   1
   0  -3  -8   33.29   34.62   1
   0  -3  -8  -32.49   24.85   1
   0  -3  -7  170.82   38.43   1
   0  -3  -6   45.83   40.62   1
   0  -3  -5  -47.89   29.06   1
   0  -3  -5   10.56   37.90   1
   0  -3  -3  395.21   36.58   1
   0  -3  -2  832.32   67.51   1
   0  -3  -1  -15.92   24.42   1
   0  -3  -1  -32.72   20.82   1
   0  -3   0  144.00   16.80   1
   0  -3   1  516.20   39.53   1
   0  -3   1  486.20   44.98   1
   0  -3   2 1096.27   78.80   1
   0  -3   2  954.81   73.54   1
   0  -3   3  439.74   33.13   1
   0  -3   4  382.59   32.08   1
   0  -3   5  860.25   65.70   1
   0  -3   6   20.16   18.95   1
   0  -3   7   21.34   18.66   1
   0  -3   8   16.81   19.35   1
   0  -3   9  130.42   19.19   1
   0  -3  10   -6.25   17.80   1
   0  -2 -10  140.42   24.65   1
   0  -2  -9  106.71   25.21   1
   0  -2  -8  231.04   30.10   1
   0  -2  -8  156.50   34.03   1
   0  -2  -7   56.55   18.20   1
   0  -2  -6  269.29   33.15   1
   0  -2  -6  198.53   43.96   1
   0  -2  -5  456.68   39.32   1
   0  -2  -4   -7.02   18.55   1
   0  -2  -3 6207.86  450.68   1
   0  -2  -2 1875.76  129.93   1
   0  -2   0 3903.75  279.91   1
   0  -2   1  455.40   53.78   1
   0  -2   1  362.14   35.78   1
   0  -2   1  393.63   56.35   1
   0  -2   2 4826.08  370.97   1
   0  -2   3  837.52   63.09   1
   0  -2   4   30.91   13.68   1
   0  -2   5 1293.84   94.96   1
   0  -2   6  531.30   46.10   1
   0  -2   7  335.99   30.43   1
   0  -2   8  501.31   42.99   1
   0  -1 -10   84.82   18.79   1
   0  -1 -10   70.39   27.02   1
   0  -1  -9  -22.56   17.39   1
   0  -1  -9   18.49   17.54   1
   0  -1  -9    3.53   27.03   1
   0  -1  -8  145.68   20.04   1
   0  -1  -8  118.37   19.15   1
   0  -1  -8  107.54   32.98   1
   0  -1  -7  183.06   22.19   1
   0  -1  -7  181.17   39.57   1
   0  -1  -7  147.38   26.71   1
   0  -1  -6  507.15   39.64   1
   0  -1  -6  567.87   44.80   1
   0  -1  -6  446.48   66.77   1
   0  -1  -5   50.41   14.48   1
   0  -1  -5   44.09   15.14   1
   0  -1  -4  168.48   19.21   1
   0  -1  -4  202.21   17.63   1
   0  -1  -3 3143.84  238.86   1
   0  -1  -3 3601.20  253.24   1
   0  -1  -2  452.84   46.39   1
   0  -1  -2  526.24   44.04   1
   0  -1   2 4385.09  278.12   1
   0  -1   3 1594.40  103.82   1
   0  -1   4   30.69   12.52   1
   0  -1   5  373.65   31.31   1
   0  -1   6  740.93   56.62   1
   0  -1   7  441.00   37.38   1
   0  -1   8 1066.68   80.34   1
   0  -1   9  259.85   27.40   1
   0   0 -10  142.80   21.27   1
   0   0 -10  121.22   25.32   1
   0   0  -9   -6.15   26.93   1
   0   0  -9   41.60   18.58   1
   0   0  -9   -9.06   22.64   1
   0   0  -8  150.06   26.46   1
   0   0  -8  171.61   22.01   1
   0   0  -8  128.82   34.28   1
   0   0  -7  470.46   42.51   1
   0   0  -7  497.29   43.71   1
   0   0  -7  442.26   63.93   1
   0   0  -6  104.86   24.37   1
   0   0  -6  114.92   30.44   1
   0   0  -5 1072.56   78.60   1
   0   0  -5 1088.34   73.90   1
   0   0  -4  930.25   65.27   1
   0   0  -4  901.80   69.07   1
   0   0  -3 4155.09  290.07   1
   0   0   2 9189.14  703.61   1
   0   0   210000.00  664.00   1
   0   0   3 4357.32  306.29   1
   0   0   3 4015.76  288.97   1
   0   0   4  919.30   64.88   1
   0   0   4  877.34   69.31   1
   0   0   5  935.14   77.67   1
   0   0   5  985.96   74.10   1
   0   0   6  115.35   19.55   1
   0   0   7  471.32   39.08   1
   0   0   8  151.78   20.94   1
   0   0   9   26.21   17.82   1
   0   0  10   86.68   20.48   1
   0   1 -10   17.22   17.10   1
   0   1 -10   43.69   23.93   1
   0   1 -10   76.39   20.98   1
   0   1 -10   42.51   22.30   1
   0   1  -9  255.04   28.43   1
   0   1  -9  266.67   31.03   1
   0   1  -8  813.96  124.39   1
   0   1  -8 1029.77   78.94   1
   0   1  -8 1012.51   80.82   1
   0   1  -7  474.37   40.08   1
   0   1  -7  382.98   48.53   1
   0   1  -7  437.65   39.75   1
   0   1  -6  714.49   56.67   1
   0   1  -6  802.02   60.60   1
   0   1  -6  709.69   77.79   1
   0   1  -5  344.10   30.79   1
   0   1  -4   -4.41   14.99   1
   0   1  -4   13.84   13.69   1
   0   1  -3 1645.92  103.86   1
   0   1  -3 1263.09  102.36   1
   0   1  -3 1410.75  110.43   1
   0   1  -2 3419.91  286.55   1
   0   1  -2 4108.81  275.63   1
   0   1   1  782.88   62.12   1
   0   1   2  547.56  116.06   1
   0   1   2  576.96   43.72   1
   0   1   3 3167.44  237.50   1
   0   1   3 3614.41  253.71   1
   0   1   3 3678.42  238.96   1
   0   1   4  192.93   21.39   1
   0   1   4  194.32   17.84   1
   0   1   5   32.15   18.71   1
   0   1   5   64.96   14.83   1
   0   1   6  454.97   40.10   1
   0   1   6  466.56   43.20   1
   0   1   7  163.84   21.76   1
   0   1   7  192.38   24.97   1
   0   1   8  111.09   19.82   1
   0   1   8  149.57   20.79   1
   0   1   9    9.80   16.59   1
   0   1  10   85.75   18.89   1
   0   2 -10   25.40   22.98   1
   0   2 -10   56.55   18.05   1
   0   2 -10   20.16   20.47   1
   0   2 -10   75.86   21.60   1
   0   2  -9   60.53   23.18   1
   0   2  -9   60.53   19.76   1
   0   2  -9   30.91   18.13   1
   0   2  -9   48.44   18.93   1
   0   2  -8  457.53   56.04   1
   0   2  -8  495.51   42.74   1
   0   2  -8  510.76   43.39   1
   0   2  -8  581.29   46.77   1
   0   2  -7  310.82   30.32   1
   0   2  -7  273.57   30.76   1
   0   2  -7  328.33   32.62   1
   0   2  -7  278.22   33.36   1
   0   2  -6  532.69   46.62   1
   0   2  -6  520.75   44.27   1
   0   2  -6  577.44   44.70   1
   0   2  -6  538.70   54.31   1
   0   2  -5 1333.71   93.49   1
   0   2  -5 1306.82   99.05   1
   0   2  -5 1302.49   97.44   1
   0   2  -4   36.97   15.81   1
   0   2  -4   12.89   13.71   1
   0   2  -4   31.36    7.28   1
   0   2  -3  964.10   62.10   1
   0   2  -3  737.67   65.73   1
   0   2  -3  925.98   63.90   1
   0   2  -2 5836.96  357.55   1
   0   2  -2 4723.81  373.89   1
   0   2  -1  332.70   37.94   1
   0   2  -1  384.16   36.06   1
   0   2   0 3862.62  279.68   1
   0   2   0 3813.06  285.29   1
   0   2   2 1582.45  120.14   1
   0   2   2 1739.72  128.47   1
   0   2   3 6182.68  449.76   1
   0   2   3 6006.25  424.70   1
   0   2   4    7.95   11.84   1
   0   2   4   14.75   16.59   1
   0   2   4   14.21    8.97   1
   0   2   5  486.64   34.41   1
   0   2   5  351.94   34.89   1
   0   2   5  357.97   39.35   1
   0   2   6  288.32   31.24   1
   0   2   6  322.92   25.88   1
   0   2   7   77.09   19.14   1
   0   2   8  215.80   22.33   1
   0   2   8  196.28   26.34   1
   0   2   9  136.66   22.44   1
   0   2   9  125.22   19.02   1
   0   2  10  152.52   21.74   1
   0   3 -10  -23.81   16.20   1
   0   3 -10    5.02   14.83   1
   0   3 -10  -20.70   19.66   1
   0   3  -9  119.68   18.82   1
   0   3  -9  120.12   21.04   1
   0   3  -9  117.29   25.34   1
   0   3  -9   80.10   20.76   1
   0   3  -8   33.18   17.16   1
   0   3  -8  -13.54   16.12   1
   0   3  -8  -15.44   21.14   1
   0   3  -8  -10.24   21.25   1
   0   3  -7  -35.28   21.27   1
   0   3  -7   13.03   16.53   1
   0   3  -7  -49.42   22.21   1
   0   3  -7    2.72   13.83   1
   0   3  -6    0.40    6.40   1
   0   3  -6    5.02   14.20   1
   0   3  -6   26.73   18.20   1
   0   3  -6   23.14    8.47   1
   0   3  -6  -21.25   22.04   1
   0   3  -5  799.76   65.61   1
   0   3  -5  913.85   64.69   1
   0   3  -5  872.02   63.78   1
   0   3  -4  416.16   29.78   1
   0   3  -4  401.20   32.85   1
   0   3  -4  359.10   33.35   1
   0   3  -3  370.56   34.65   1
   0   3  -3  457.53   33.80   1
   0   3  -2 1066.02   77.71   1
   0   3  -1  504.45   39.98   1
   0   3  -1  445.21   36.71   1
   0   3   0  134.56   17.86   1
   0   3   1   -6.97   19.27   1
   0   3   2  813.39   63.31   1
   0   3   3  312.23   28.98   1
   0   3   3  369.02   32.66   1
   0   3   4  207.65   19.60   1
   0   3   4  141.85   20.72   1
   0   3   4  192.10   18.02   1
   0   3   5   32.38   19.80   1
   0   3   5    8.24   12.17   1
   0   3   6   84.46   14.70   1
   0   3   6   54.76    9.47   1
   0   3   6   48.16   21.10   1
   0   3   7  185.78   21.26   1
   0   3   7  206.21   25.85   1
   0   3   8  -12.04   18.81   1
   0   3   8  -12.11   13.78   1
   0   3   9   68.72   17.08   1
   0   4 -10   26.11   20.44   1
   0   4 -10   18.84   21.01   1
   0   4  -9  174.24   27.72   1
   0   4  -9  235.93   24.88   1
   0   4  -9  233.17   26.88   1
   0   4  -8    7.13   17.73   1
   0   4  -8    1.82    5.97   1
   0   4  -8   37.21   21.47   1
   0   4  -8  -11.97   18.13   1
   0   4  -7   34.11    8.41   1
   0   4  -7    5.95   20.69   1
   0   4  -7   28.73   13.61   1
   0   4  -7   76.91   21.22   1
   0   4  -6   27.67   21.57   1
   0   4  -6   13.76   19.29   1
   0   4  -6   13.91   10.82   1
   0   4  -5  435.56   35.48   1
   0   4  -5  453.69   40.04   1
   0   4  -5  494.17   39.12   1
   0   4  -4   59.14   18.15   1
   0   4  -4   29.05   17.46   1
   0   4  -3  560.74   42.15   1
   0   4  -3  568.35   45.30   1
   0   4  -2   31.70   16.66   1
   0   4  -2   58.98   14.13   1
   0   4  -1 2399.04  161.63   1
   0   4   0 2537.14  181.33   1
   0   4   0 2433.45  189.43   1
   0   4   0 2388.28  173.98   1
   0   4   1 2644.02  210.82   1
   0   4   2   31.47   22.10   1
   0   4   3 2302.08  163.13   1
   0   4   3 2484.03  173.44   1
   0   4   4  253.76   24.21   1
   0   4   4  219.34   26.66   1
   0   4   4  229.22   29.07   1
   0   4   5  337.46   28.66   1
   0   4   5  315.42   27.00   1
   0   4   5  290.02   33.38   1
   0   4   6  615.54   47.14   1
   0   4   6  580.33   55.89   1
   0   4   6  629.51   50.18   1
   0   4   7  752.40   56.51   1
   0   4   7  671.33   59.07   1
   0   4   8    3.84   12.98   1
   0   5 -10   57.91   22.68   1
   0   5 -10   86.30   16.54   1
   0   5  -9  -24.90   20.96   1
   0   5  -9   16.32    6.14   1
   0   5  -9   29.05   20.48   1
   0   5  -8   57.61    9.87   1
   0   5  -8   79.39   21.56   1
   0   5  -8   70.90   15.66   1
   0   5  -7  270.60   26.65   1
   0   5  -7  328.33   31.17   1
   0   5  -7  330.15   31.98   1
   0   5  -6  245.86   28.22   1
   0   5  -6  257.92   29.23   1
   0   5  -6  239.01   22.57   1
   0   5  -5  926.59   70.01   1
   0   5  -5  879.12   71.75   1
   0   5  -5  936.36   69.16   1
   0   5  -4   45.56   18.50   1
   0   5  -4   66.26   21.33   1
   0   5  -4   51.41   20.36   1
   0   5  -3  965.34   77.05   1
   0   5  -3 1057.55   74.15   1
   0   5  -2  712.36   58.18   1
   0   5  -2  798.06   62.72   1
   0   5  -1 3602.40  260.49   1
   0   5  -1 3746.66  249.74   1
   0   5   0    9.67   12.13   1
   0   5   0   30.25   18.70   1
   0   5   1  337.82   33.45   1
   0   5   3   23.72   23.47   1
   0   5   4   64.48   21.68   1
   0   5   4   57.61   17.46   1
   0   5   4   25.70   13.28   1
   0   5   5  -25.91   11.81   1
   0   5   5   -5.57   13.74   1
   0   5   5  -24.50   21.48   1
   0   5   6    0.76   19.33   1
   0   5   6   28.94   14.10   1
   0   5   6  -14.52   13.11   1
   0   5   7  302.41   27.48   1
   0   5   7  283.59   25.26   1
   0   5   7  325.44   31.75   1
   0   5   8    7.90   12.76   1
   0   5   8   24.90    8.88   1
   0   5   8    5.02   17.83   1
   0   6  -9   -5.15   16.93   1
   0   6  -9   14.75   20.74   1
   0   6  -9   10.30   18.04   1
   0   6  -8  239.01   26.28   1
   0   6  -8  145.68   26.55   1
   0   6  -8  197.68   18.28   1
   0   6  -7  139.00   23.58   1
   0   6  -7  147.14   23.05   1
   0   6  -7  133.17   16.16   1
   0   6  -6  -17.14   19.71   1
   0   6  -6   -2.16   19.90   1
   0   6  -6   21.25   15.58   1
   0   6  -5  374.42   34.44   1
   0   6  -5  330.88   35.29   1
   0   6  -5  378.69   32.30   1
   0   6  -4  -30.03   20.93   1
   0   6  -4    0.21   21.20   1
   0   6  -4  -26.21   22.84   1
   0   6  -3   -1.51   16.95   1
   0   6  -3   20.16   15.89   1
   0   6  -2   26.94   18.48   1
   0   6  -2   14.52   21.72   1
   0   6  -1  955.43   89.02   1
   0   6  -1  984.70   77.19   1
   0   6  -1  951.11   72.17   1
   0   6   0  163.07   34.73   1
   0   6   0  142.32   19.09   1
   0   6   1 1373.44  109.70   1
   0   6   1 1296.00   98.64   1
   0   6   3  105.06   28.09   1
   0   6   3  106.09   22.87   1
   0   6   4  121.00   15.62   1
   0   6   4  144.96   21.19   1
   0   6   4   82.63   24.18   1
   0   6   5  231.95   22.54   1
   0   6   5  218.15   20.38   1
   0   6   5  201.64   23.57   1
   0   6   6   10.24   14.21   1
   0   6   6   17.31   13.06   1
   0   6   6  -10.63   21.06   1
   0   6   7  181.71   19.95   1
   0   6   7  169.52   17.45   1
   0   7  -9   15.84   21.25   1
   0   7  -9   24.11   20.23   1
   0   7  -8   56.70   18.52   1
   0   7  -8   39.44   13.19   1
   0   7  -8   84.82   21.37   1
   0   7  -7    4.58   19.99   1
   0   7  -7   46.38   21.11   1
   0   7  -7   32.49   13.79   1
   0   7  -6    9.30   14.76   1
   0   7  -6   30.25   21.23   1
   0   7  -6   14.98   15.25   1
   0   7  -5  -21.34   18.48   1
   0   7  -5    5.52   20.73   1
   0   7  -5  -26.21   20.17   1
   0   7  -4   41.99   22.03   1
   0   7  -4   55.65   21.93   1
   0   7  -4   51.70   21.86   1
   0   7  -3   20.70   19.38   1
   0   7  -3   25.40   16.53   1
   0   7  -2  501.76   43.46   1
   0   7  -2  516.20   39.99   1
   0   7  -2  465.26   40.98   1
   0   7  -1   42.90   28.82   1
   0   7  -1   28.30   18.09   1
   0   7  -1   33.99   23.55   1
   0   7   0   32.49   33.29   1
   0   7   0   19.71   15.27   1
   0   7   1  497.29   46.38   1
   0   7   1  583.71   53.15   1
   0   7   2 1375.67  124.62   1
   0   7   2 1903.58  127.40   1
   0   7   3  502.66   47.08   1
   0   7   3  629.51   47.17   1
   0   7   4  241.80   27.99   1
   0   7   4  232.26   21.03   1
   0   7   4  204.78   24.61   1
   0   7   5   -3.42   16.28   1
   0   7   5    3.35   20.31   1
   0   7   5    1.14   11.15   1
   0   7   6  101.61   23.39   1
   0   7   6  102.62   12.97   1
   0   7   6   94.09   18.62   1
   0   7   7  111.30   16.88   1
   0   8  -8   91.39   14.53   1
   0   8  -7   45.43   15.37   1
   0   8  -7   -8.35   19.07   1
   0   8  -7   18.49   19.87   1
   0   8  -6   58.52   18.05   1
   0   8  -6   37.70   20.38   1
   0   8  -6   24.30   18.64   1
   0   8  -5   30.91   18.79   1
   0   8  -5   27.25   18.90   1
   0   8  -4   19.45   20.55   1
   0   8  -4   13.99   19.15   1
   0   8  -4   61.31   22.55   1
   0   8  -3   12.46   24.64   1
   0   8  -3   47.89   18.96   1
   0   8  -3   -0.08   21.16   1
   0   8  -2  501.31   45.68   1
   0   8  -2  556.02   41.03   1
   0   8  -2  511.21   50.19   1
   0   8  -2  463.11   44.33   1
   0   8  -1  118.16   29.13   1
   0   8  -1   72.76   18.08   1
   0   8  -1   90.06   31.51   1
   0   8   0  183.87   31.19   1
   0   8   0  167.18   20.17   1
   0   8   0  190.44   33.12   1
   0   8   1  671.85   58.58   1
   0   8   1  654.85   55.27   1
   0   8   1  664.09   50.51   1
   0   8   2  668.74   50.69   1
   0   8   2  667.71   53.75   1
   0   8   3  136.66   21.98   1
   0   8   3  164.35   21.79   1
   0   8   4  125.44   16.58   1
   0   8   4  151.54   23.14   1
   0   8   4  201.64   26.70   1
   0   8   5  111.72   19.03   1
   0   8   5   79.03   13.34   1
   0   8   5  124.10   22.73   1
   0   8   6   51.70   16.11   1
   0   9  -7   49.98   16.40   1
   0   9  -6  150.55   22.82   1
   0   9  -6  153.51   23.29   1
   0   9  -6  105.47   19.10   1
   0   9  -5   21.90   18.44   1
   0   9  -5   26.94   16.92   1
   0   9  -5   24.80   21.12   1
   0   9  -4  393.23   40.45   1
   0   9  -4  447.32   40.18   1
   0   9  -4  419.02   38.48   1
   0   9  -3    7.56   19.31   1
   0   9  -3    2.89   18.90   1
   0   9  -3  -46.79   29.55   1
   0   9  -2   59.91   30.81   1
   0   9  -2   71.40   26.70   1
   0   9  -2   88.92   22.07   1
   0   9  -2  121.22   20.48   1
   0   9  -1   17.98   17.55   1
   0   9  -1   -6.15   31.10   1
   0   9  -1    3.88   17.93   1
   0   9   0  110.04   18.46   1
   0   9   0   72.08   24.28   1
   0   9   0   91.97   25.70   1
   0   9   1  111.09   27.19   1
   0   9   1  154.01   30.53   1
   0   9   1  109.20   17.56   1
   0   9   2  130.42   27.41   1
   0   9   2   96.63   24.38   1
   0   9   2  145.20   18.80   1
   0   9   3   45.97   19.93   1
   0   9   3   12.39   23.80   1
   0   9   3   -5.86   13.02   1
   0   9   4  245.24   20.98   1
   0   9   4  191.27   29.60   1
   0   9   4  188.24   20.85   1
   0   9   4  250.91   26.61   1
   0   9   5   48.86   17.75   1
   0  10  -6  -20.43   17.99   1
   0  10  -6    9.30   20.13   1
   0  10  -5   34.81   19.82   1
   0  10  -5  -10.24   20.10   1
   0  10  -4  372.10   37.42   1
   0  10  -4  379.08   36.21   1
   0  10  -4  337.46   34.17   1
   0  10  -3  -31.92   19.32   1
   0  10  -3   17.98   29.00   1
   0  10  -3  -16.48   21.27   1
   0  10  -3  -22.94   20.41   1
   0  10  -2   99.00   19.10   1
   0  10  -2   84.09   27.69   1
   0  10  -2   89.87   28.82   1
   0  10  -1   32.04   18.00   1
   0  10  -1   17.39   23.35   1
   0  10  -1   52.13   27.58   1
   0  10   0  124.77   20.33   1
   0  10   0  166.41   33.28   1
   0  10   0  142.09   28.13   1
   0  10   1   13.25   23.44   1
   0  10   1   11.63   17.39   1
   0  10   2   95.26   23.42   1
   0  10   3   19.10   19.93   1
   0  10   3   11.63   12.48   1
   0  11  -3   20.25   18.99   1
   0  11  -3   16.56   23.61   1
   0  11  -2  -30.80   18.43   1
   0  11  -2   13.84   24.78   1
   0  11  -1   44.89   24.52   1
   0  11  -1   86.12   18.93   1
   0  11   0   21.25   16.50   1
   0  11   0   64.48   24.09   1
   0  11   1   -9.49   19.10   1
   1 -11  -2  152.77   24.72   1
   1 -11  -2  167.96   40.18   1
   1 -11  -1   19.10   34.44   1
   1 -11  -1   33.99   24.02   1
   1 -11   0   13.91   34.84   1
   1 -11   0   62.88   24.27   1
   1 -11   1   75.34   36.98   1
   1 -11   2   76.04   22.15   1
   1 -11   2   77.62   26.78   1
   1 -11   3  150.31   26.97   1
   1 -10  -4   65.93   25.17   1
   1 -10  -3   87.24   37.36   1
   1 -10  -3  120.12   26.08   1
   1 -10  -2  183.87   40.68   1
   1 -10  -2  167.96   29.29   1
   1 -10  -1  -12.32   33.98   1
   1 -10  -1  -15.44   25.31   1
   1 -10   0   64.16   34.44   1
   1 -10   0   94.09   26.58   1
   1 -10   1   80.28   26.52   1
   1 -10   1   97.61   33.59   1
   1 -10   2  147.87   27.97   1
   1 -10   3  -11.97   21.52   1
   1 -10   3  -39.44   23.36   1
   1 -10   4   75.17   23.24   1
   1 -10   5   -8.76   23.09   1
   1  -9  -5    9.73   23.71   1
   1  -9  -4   28.73   28.73   1
   1  -9  -4   57.15   25.25   1
   1  -9  -3   61.31   27.72   1
   1  -9  -2   -0.55   24.76   1
   1  -9  -2   61.47   36.22   1
   1  -9  -1   45.16   36.02   1
   1  -9  -1   42.90   24.37   1
   1  -9   0  117.72   26.47   1
   1  -9   0   39.82   33.95   1
   1  -9   1  393.63   52.38   1
   1  -9   1  500.42   44.29   1
   1  -9   2  138.77   24.50   1
   1  -9   2  139.95   30.05   1
   1  -9   3   32.26   24.08   1
   1  -9   3   -2.02   19.57   1
   1  -9   4   81.36   22.55   1
   1  -9   5   18.40   23.77   1
   1  -9   6   78.50   23.04   1
   1  -8  -7   -9.49   32.34   1
   1  -8  -7    6.30   22.69   1
   1  -8  -6  296.87   39.97   1
   1  -8  -6  270.93   31.93   1
   1  -8  -6  219.04   44.40   1
   1  -8  -5   -3.39   32.49   1
   1  -8  -5  -30.47   36.76   1
   1  -8  -5   13.03   24.04   1
   1  -8  -4  221.71   37.82   1
   1  -8  -4  130.42   39.28   1
   1  -8  -4  135.26   22.10   1
   1  -8  -3  127.46   37.71   1
   1  -8  -3  179.83   28.43   1
   1  -8  -2   60.84   20.12   1
   1  -8  -2   30.14   36.34   1
   1  -8  -1   21.53   22.46   1
   1  -8  -1   -7.90   33.72   1
   1  -8   0   42.12   35.05   1
   1  -8   0   63.04   25.09   1
   1  -8   1   37.95   31.66   1
   1  -8   1   17.72   24.84   1
   1  -8   2  486.20   51.60   1
   1  -8   2  441.84   42.46   1
   1  -8   3   60.68   24.15   1
   1  -8   3   48.44   19.77   1
   1  -8   4  636.55   50.96   1
   1  -8   5  249.64   27.81   1
   1  -7  -8   59.75   22.57   1
   1  -7  -7  -48.72   36.71   1
   1  -7  -7  -47.20   32.43   1
   1  -7  -6   -9.55   33.93   1
   1  -7  -6   -6.40   37.60   1
   1  -7  -6   12.46   23.02   1
   1  -7  -5  169.26   27.32   1
   1  -7  -5  138.53   33.43   1
   1  -7  -5  212.87   40.27   1
   1  -7  -4   17.72   37.05   1
   1  -7  -4   29.05   30.29   1
   1  -7  -4   10.43   22.80   1
   1  -7  -3  285.61   45.63   1
   1  -7  -3  324.00   34.20   1
   1  -7  -3  257.60   43.01   1
   1  -7  -2   23.14   38.00   1
   1  -7  -1   43.03   34.77   1
   1  -7   0   34.46   32.52   1
   1  -7   0   37.95   25.75   1
   1  -7   1   19.98   27.71   1
   1  -7   1    6.81   21.14   1
   1  -7   2  279.22   31.75   1
   1  -7   2  210.25   34.80   1
   1  -7   3  104.65   22.30   1
   1  -7   3  133.40   25.41   1
   1  -7   4 3651.78  250.18   1
   1  -7   4 3227.38  240.87   1
   1  -7   5 1362.35   95.23   1
   1  -7   5 1199.24   90.73   1
   1  -7   6  185.78   24.81   1
   1  -7   7   26.01   18.05   1
   1  -6  -8   28.30   31.39   1
   1  -6  -7    4.84   34.58   1
   1  -6  -7   24.21   31.19   1
   1  -6  -6    6.71   33.51   1
   1  -6  -6   36.24   33.35   1
   1  -6  -5  504.45   49.41   1
   1  -6  -4  365.57   36.33   1
   1  -6  -4  331.97   43.73   1
   1  -6  -3 1580.06  149.46   1
   1  -6  -3 1899.22  133.35   1
   1  -6  -2  -16.24   24.10   1
   1  -6  -1  479.61   40.73   1
   1  -6   0   85.19   19.75   1
   1  -6   1  187.69   24.39   1
   1  -6   1  203.06   30.50   1
   1  -6   2  536.85   44.95   1
   1  -6   2  426.42   56.17   1
   1  -6   3   15.13   18.21   1
   1  -6   3   25.60   23.07   1
   1  -6   4 1129.63   87.39   1
   1  -6   5  207.65   26.23   1
   1  -6   5  189.61   20.93   1
   1  -6   6  105.68   20.56   1
   1  -6   7  135.26   22.56   1
   1  -6   8   70.22   15.08   1
   1  -5  -9   80.10   25.24   1
   1  -5  -8   22.75   27.86   1
   1  -5  -8  -18.06   35.36   1
   1  -5  -8   16.89    9.37   1
   1  -5  -7  437.65   43.51   1
   1  -5  -7  364.81   53.10   1
   1  -5  -6  -63.20   32.75   1
   1  -5  -5  576.96   53.80   1
   1  -5  -4  797.50   68.91   1
   1  -5  -3  784.56   72.27   1
   1  -5  -3  888.64   68.56   1
   1  -5  -2  286.29   31.81   1
   1  -5  -2  305.90   36.73   1
   1  -5  -1  197.40   25.57   1
   1  -5   0  -17.14   19.71   1
   1  -5   1    4.16   20.56   1
   1  -5   1   -5.90   19.10   1
   1  -5   2  936.97   75.30   1
   1  -5   2 1005.52  103.37   1
   1  -5   2 1092.96   78.02   1
   1  -5   3   75.34   17.71   1
   1  -5   4  191.27   24.89   1
   1  -5   4  194.88   28.48   1
   1  -5   5   93.32   21.45   1
   1  -5   6   71.74   20.16   1
   1  -5   7  599.27   48.96   1
   1  -5   8   24.50   15.94   1
   1  -5   9   26.63   19.09   1
   1  -4  -9  -21.53   31.00   1
   1  -4  -9   -2.66   23.50   1
   1  -4  -8   47.89   11.76   1
   1  -4  -8   71.23   33.59   1
   1  -4  -8   57.30   19.68   1
   1  -4  -7  124.10   15.37   1
   1  -4  -7  180.63   29.84   1
   1  -4  -6  -36.12   29.81   1
   1  -4  -6  -18.40   12.18   1
   1  -4  -5   33.64   21.92   1
   1  -4  -3  -16.89   24.08   1
   1  -4  -2  307.30   28.75   1
   1  -4  -2  341.51   32.89   1
   1  -4  -1 2072.98  144.79   1
   1  -4   0 2405.90  174.62   1
   1  -4   1  355.70   29.80   1
   1  -4   1  401.20   36.05   1
   1  -4   2  172.92   21.04   1
   1  -4   2  173.45   18.44   1
   1  -4   2  127.69   27.35   1
   1  -4   3 1168.96   84.79   1
   1  -4   3 1164.17   88.71   1
   1  -4   4  138.30   20.23   1
   1  -4   5  400.00   36.80   1
   1  -4   7  428.90   36.86   1
   1  -4   8   60.84   20.12   1
   1  -4   9   21.25   17.52   1
   1  -3 -10  110.25   30.66   1
   1  -3 -10   35.52   25.75   1
   1  -3 -10   67.40   14.45   1
   1  -3  -9   -5.81   12.29   1
   1  -3  -9  -10.18   17.55   1
   1  -3  -9   16.97   31.06   1
   1  -3  -8  188.79   29.95   1
   1  -3  -8  178.76   20.06   1
   1  -3  -7  668.74   53.27   1
   1  -3  -7  480.05   54.34   1
   1  -3  -6   77.09   29.33   1
   1  -3  -6   87.80   14.99   1
   1  -3  -5  797.50   61.00   1
   1  -3  -5  638.07   59.11   1
   1  -3  -4  228.01   30.80   1
   1  -3  -4  158.26   19.37   1
   1  -3  -3  165.12   16.70   1
   1  -3  -3  191.27   24.06   1
   1  -3  -1  937.58   82.06   1
   1  -3  -1 1010.60   75.66   1
   1  -3   1  414.94   37.07   1
   1  -3   1  448.17   33.87   1
   1  -3   2    8.70   19.65   1
   1  -3   3  656.90   47.16   1
   1  -3   4 2046.66  147.48   1
   1  -3   5  242.11   25.83   1
   1  -3   6  174.77   23.27   1
   1  -3   7  404.01   36.98   1
   1  -2 -10   33.64   23.90   1
   1  -2 -10   39.69   12.47   1
   1  -2 -10   38.44   29.14   1
   1  -2  -9  -17.14   22.11   1
   1  -2  -9    9.92   15.12   1
   1  -2  -9   40.58   28.16   1
   1  -2  -8   76.56   17.85   1
   1  -2  -8   61.78   22.48   1
   1  -2  -7  212.28   31.18   1
   1  -2  -7  227.10   23.51   1
   1  -2  -6  368.64   38.40   1
   1  -2  -6  372.49   30.88   1
   1  -2  -5   -1.44   10.78   1
   1  -2  -5   -7.56   22.77   1
   1  -2  -4  165.38   18.00   1
   1  -2  -4  211.99   25.92   1
   1  -2  -3 1403.25  102.64   1
   1  -2  -3 1355.71  103.83   1
   1  -2  -2 1950.99  166.08   1
   1  -2  -2 2238.24  183.56   1
   1  -2  -2 2376.56  191.10   1
   1  -2  -1 1615.24  112.53   1
   1  -2  -1 1495.37  117.56   1
   1  -2   0  607.62   45.36   1
   1  -2   0  490.18   49.15   1
   1  -2   1 2628.61  198.93   1
   1  -2   1 2711.28  203.07   1
   1  -2   1 3006.33  197.39   1
   1  -2   2  128.60   16.10   1
   1  -2   2  162.05   18.59   1
   1  -2   3 4813.58  301.11   1
   1  -2   4 1744.73  121.13   1
   1  -2   5  676.00   53.04   1
   1  -2   6   -2.59   21.03   1
   1  -2   7   47.75   18.10   1
   1  -2   8   91.97   21.87   1
   1  -2   9  151.29   23.62   1
   1  -2  10   38.07   20.11   1
   1  -1 -10  201.64   29.25   1
   1  -1 -10  218.45   23.94   1
   1  -1 -10  184.42   33.95   1
   1  -1  -9  -45.56   27.67   1
   1  -1  -9   -1.49   15.76   1
   1  -1  -9    4.45   21.10   1
   1  -1  -8  371.72   35.48   1
   1  -1  -8  327.61   30.05   1
   1  -1  -7   -4.88   15.78   1
   1  -1  -6 1469.19  103.49   1
   1  -1  -6 1398.01   97.96   1
   1  -1  -5 1009.97   73.73   1
   1  -1  -4 5545.78  418.52   1
   1  -1  -4 6021.76  395.76   1
   1  -1  -3  104.45    9.61   1
   1  -1  -3   84.09    9.72   1
   1  -1   1  964.10   66.45   1
   1  -1   1  831.17   80.72   1
   1  -1   1  883.28   64.20   1
   1  -1   2  113.85   12.80   1
   1  -1   2  105.06   12.30   1
   1  -1   3 3981.61  291.52   1
   1  -1   3 4316.49  293.02   1
   1  -1   4  606.14   45.30   1
   1  -1   5  184.14   24.43   1
   1  -1   6  344.47   34.15   1
   1  -1   7  637.56   49.99   1
   1  -1   8   91.01   21.75   1
   1  -1   9  180.10   25.23   1
   1  -1  10   -4.93   19.62   1
   1   0 -11  -31.14   20.20   1
   1   0 -11    1.59   16.98   1
   1   0 -10  265.36   32.25   1
   1   0 -10  259.53   28.35   1
   1   0 -10  285.27   34.79   1
   1   0  -9  805.99   62.46   1
   1   0  -9  876.75   68.10   1
   1   0  -8 1537.42  110.57   1
   1   0  -8 1495.37  103.64   1
   1   0  -7  819.68   63.56   1
   1   0  -7  754.05   75.24   1
   1   0  -6   98.21   22.40   1
   1   0  -5 3332.75  247.08   1
   1   0  -5 3606.00  232.99   1
   1   0  -4   -4.88   18.12   1
   1   0  -4    5.62   17.30   1
   1   0  -3 2981.16  221.68   1
   1   0  -3 2893.36  211.93   1
   1   0  -2 4027.17  283.03   1
   1   0  -1  -30.69   19.06   1
   1   0  -1  -55.20   26.90   1
   1   0  -1   -1.66    9.86   1
   1   0   1 1016.33  101.38   1
   1   0   1 1040.06   78.05   1
   1   0   2 3212.62  215.38   1
   1   0   2 2791.01  221.89   1
   1   0   3  180.63   31.45   1
   1   0   3  146.17   16.44   1
   1   0   3  103.43   10.78   1
   1   0   4 1357.19  106.10   1
   1   0   4 1434.89  100.00   1
   1   0   5  460.53   39.06   1
   1   0   5  398.40   37.52   1
   1   0   6 2513.02  161.42   1
   1   0   7  766.74   57.60   1
   1   0   8   51.70   18.12   1
   1   0   9   34.34   18.87   1
   1   0  10  133.86   22.45   1
   1   1 -11   86.86   20.88   1
   1   1 -11   88.36   24.06   1
   1   1 -10  276.56   32.26   1
   1   1 -10  266.02   29.03   1
   1   1 -10  245.24   27.56   1
   1   1  -9   62.09   18.28   1
   1   1  -9    8.35   25.78   1
   1   1  -9   52.85   17.88   1
   1   1  -8  194.60   25.39   1
   1   1  -8  198.25   25.63   1
   1   1  -7 2696.72  194.22   1
   1   1  -7 2807.94  204.54   1
   1   1  -6  523.95   40.29   1
   1   1  -5 4919.62  335.27   1
   1   1  -5 4726.56  354.75   1
   1   1  -4 3036.01  239.13   1
   1   1  -4 3375.61  225.43   1
   1   1  -3 2007.94  135.33   1
   1   1  -3 1674.45  140.76   1
   1   1  -2 2452.23  196.10   1
   1   1  -2 3129.28  189.08   1
   1   1  -2 2487.02  214.44   1
   1   1   0  206.78   36.81   1
   1   1   1  239.94   36.25   1
   1   1   2 1130.30   86.74   1
   1   1   2 1069.29   83.06   1
   1   1   3   38.69   13.93   1
   1   1   3    3.50   13.39   1
   1   1   4  278.89   26.39   1
   1   1   4  293.78   28.45   1
   1   1   6 1260.96   92.33   1
   1   1   6 1190.25   99.36   1
   1   1   7  114.28   20.52   1
   1   1   7   88.36   18.99   1
   1   1   8  198.53   23.95   1
   1   1   9   79.57   20.52   1
   1   2 -11   76.91   22.45   1
   1   2 -11   77.44   20.77   1
   1   2 -10  -12.96   15.77   1
   1   2 -10   21.53   18.84   1
   1   2 -10    8.24   18.77   1
   1   2 -10  -16.40   20.09   1
   1   2  -9  250.91   27.24   1
   1   2  -9  240.25   26.04   1
   1   2  -9  223.80   29.02   1
   1   2  -9  201.92   31.26   1
   1   2  -8  474.80   40.09   1
   1   2  -8  407.23   37.13   1
   1   2  -8  436.39   36.77   1
   1   2  -7   13.62   20.37   1
   1   2  -6  994.14   87.65   1
   1   2  -6 1306.82   86.04   1
   1   2  -6 1356.45   91.34   1
   1   2  -6 1042.00   87.80   1
   1   2  -5  537.31   44.97   1
   1   2  -5  548.03   46.35   1
   1   2  -5  609.10   44.42   1
   1   2  -4   76.21   15.02   1
   1   2  -4   93.90   16.09   1
   1   2  -3   99.40   18.15   1
   1   2  -3   65.77   18.49   1
   1   2  -2 1071.91  130.31   1
   1   2  -2  967.21  149.90   1
   1   2  -2 1133.00   88.19   1
   1   2  -1 1428.84  125.50   1
   1   2  -1 1452.37  108.23   1
   1   2   0 8233.75  642.44   1
   1   2   0 7825.17  592.68   1
   1   2   1  211.70   31.14   1
   1   2   1  173.45   23.44   1
   1   2   2 2247.71  172.57   1
   1   2   2 2199.61  164.15   1
   1   2   3  250.27   26.89   1
   1   2   3  274.56   23.53   1
   1   2   4 1372.70  108.93   1
   1   2   4 1363.09  109.28   1
   1   2   5  341.51   28.83   1
   1   2   5  261.47   31.69   1
   1   2   6  356.08   33.21   1
   1   2   6  382.98   39.53   1
   1   2   7   15.13   20.15   1
   1   2   8  340.03   30.98   1
   1   2   8  370.56   33.88   1
   1   2   9  141.61   20.94   1
   1   2   9  112.57   21.01   1
   1   3 -11  146.89   24.97   1
   1   3 -11  145.44   21.95   1
   1   3 -10  -20.61   19.70   1
   1   3 -10  -10.30   15.66   1
   1   3 -10   44.89   21.84   1
   1   3  -9  215.21   29.63   1
   1   3  -9  234.09   24.79   1
   1   3  -9  203.63   22.26   1
   1   3  -9  277.89   26.01   1
   1   3  -9  243.36   27.46   1
   1   3  -8   20.52   21.02   1
   1   3  -8    7.13    8.28   1
   1   3  -8  -26.42   16.65   1
   1   3  -8  -15.52   20.25   1
   1   3  -7  229.22   27.86   1
   1   3  -7  202.78   21.08   1
   1   3  -7  144.48   17.31   1
   1   3  -7  216.09   21.17   1
   1   3  -7  146.41   17.42   1
   1   3  -6  670.29   49.71   1
   1   3  -6  606.14   51.70   1
   1   3  -5 1245.38   86.11   1
   1   3  -5 1099.59   88.21   1
   1   3  -4  181.44   20.20   1
   1   3  -4  170.30   16.97   1
   1   3  -4  149.33   20.53   1
   1   3  -3 1192.32  104.28   1
   1   3  -3 1170.32   88.26   1
   1   3  -2  518.93   51.94   1
   1   3  -2  545.22   41.56   1
   1   3  -2  502.66   43.94   1
   1   3  -1 1206.87  109.78   1
   1   3  -1 1277.35   94.35   1
   1   3   0  817.96   66.35   1
   1   3   0  859.66   77.99   1
   1   3   1  972.19   81.69   1
   1   3   2  107.12   19.04   1
   1   3   3   18.49   18.83   1
   1   3   3   14.36   13.57   1
   1   3   4  421.89   39.44   1
   1   3   4  448.17   35.99   1
   1   3   5  192.38   25.52   1
   1   3   5  227.71   23.24   1
   1   3   6   96.04   19.21   1
   1   3   6   85.93   12.05   1
   1   3   6   56.10   19.62   1
   1   3   7   56.40   20.43   1
   1   3   8   39.56   18.12   1
   1   3   8   55.80   18.23   1
   1   3   9   45.02   17.58   1
   1   4 -10   14.67   18.23   1
   1   4 -10   13.91   17.90   1
   1   4 -10  -14.21   15.23   1
   1   4  -9  394.02   38.91   1
   1   4  -9  433.47   38.31   1
   1   4  -9  445.63   41.38   1
   1   4  -8    1.44   21.36   1
   1   4  -8    8.35    8.21   1
   1   4  -8   -9.92   17.45   1
   1   4  -8   28.30   20.11   1
   1   4  -7  483.12   41.32   1
   1   4  -7  427.25   37.62   1
   1   4  -7  541.96   41.44   1
   1   4  -6  792.42   63.06   1
   1   4  -6  767.84   61.52   1
   1   4  -5 1283.07   87.40   1
   1   4  -5 1130.30   89.43   1
   1   4  -4  812.82   62.15   1
   1   4  -4  845.65   59.90   1
   1   4  -4  811.11   82.59   1
   1   4  -3  816.24   56.57   1
   1   4  -3  832.32   65.20   1
   1   4  -2 2864.39  183.04   1
   1   4  -2 2913.84  218.08   1
   1   4  -2 2509.01  190.34   1
   1   4  -1   26.11   22.28   1
   1   4  -1   14.90   17.68   1
   1   4   0  600.74   52.45   1
   1   4   2   30.25   21.45   1
   1   4   3  416.98   39.21   1
   1   4   3  362.52   33.13   1
   1   4   4  -30.91   19.90   1
   1   4   4   10.69   15.37   1
   1   4   5  523.95   47.15   1
   1   4   5  624.00   46.46   1
   1   4   6    9.18   17.15   1
   1   4   6   -0.18   10.86   1
   1   4   6   15.52   15.29   1
   1   4   7   16.48   15.67   1
   1   4   7   27.35   19.25   1
   1   4   8   22.85   15.49   1
   1   4   8   12.74   18.14   1
   1   5 -10    7.73   19.68   1
   1   5 -10   17.56   20.36   1
   1   5  -9   82.08   11.05   1
   1   5  -9  101.61   23.18   1
   1   5  -8   -1.00   20.26   1
   1   5  -8   -1.35   14.34   1
   1   5  -8  -14.98   18.19   1
   1   5  -8    2.79    9.69   1
   1   5  -7   28.41   20.57   1
   1   5  -7   12.67   13.46   1
   1   5  -7  -29.92   17.61   1
   1   5  -6  141.37   24.02   1
   1   5  -6  112.36   22.90   1
   1   5  -5   16.73   22.17   1
   1   5  -4 1671.99  116.95   1
   1   5  -4 1610.42  121.19   1
   1   5  -3    6.60   19.89   1
   1   5  -3   20.88   16.91   1
   1   5  -2   49.14   16.26   1
   1   5  -1 1174.43  101.44   1
   1   5  -1 1183.36   87.38   1
   1   5   0  217.27   27.42   1
   1   5   0  215.21   22.30   1
   1   5   1  829.44   67.97   1
   1   5   2   36.60   26.62   1
   1   5   3  699.60   60.31   1
   1   5   4   23.81   14.74   1
   1   5   4  -12.46   22.24   1
   1   5   5  493.28   44.42   1
   1   5   5  553.66   56.47   1
   1   5   6   88.17   18.22   1
   1   5   6   71.57   15.57   1
   1   5   6   62.25   20.99   1
   1   5   7  121.88   14.79   1
   1   5   7   99.20   20.92   1
   1   5   8   13.25   14.34   1
   1   5   8   -6.86    8.91   1
   1   6 -10    3.46   18.67   1
   1   6 -10    2.40   19.84   1
   1   6  -9  265.36   27.04   1
   1   6  -9  248.69   29.02   1
   1   6  -9  230.43   30.36   1
   1   6  -8   47.33   12.52   1
   1   6  -8   61.94   19.67   1
   1   6  -8   50.41   23.29   1
   1   6  -7  196.00   27.16   1
   1   6  -7  239.94   23.24   1
   1   6  -7  245.55   26.64   1
   1   6  -6  344.47   33.78   1
   1   6  -6  368.64   35.33   1
   1   6  -6  353.82   34.61   1
   1   6  -5  353.06   33.45   1
   1   6  -5  297.56   34.50   1
   1   6  -4  213.16   25.70   1
   1   6  -4  171.87   22.55   1
   1   6  -3   76.56   19.60   1
   1   6  -2   13.32   18.40   1
   1   6  -2   51.98   16.87   1
   1   6  -1   99.60   24.55   1
   1   6  -1  102.82   18.66   1
   1   6   0   53.00   26.50   1
   1   6   2  252.17   35.89   1
   1   6   3  350.81   35.96   1
   1   6   4  -11.22   13.67   1
   1   6   4  -28.94   22.60   1
   1   6   5  207.65   23.63   1
   1   6   5  214.04   27.21   1
   1   6   5  210.25   22.91   1
   1   6   6  -17.06   14.54   1
   1   6   6   -8.94   13.99   1
   1   6   6   25.40   13.51   1
   1   6   7  118.16   17.17   1
   1   6   7  116.21   15.74   1
   1   7  -9   -2.89   11.25   1
   1   7  -9   15.29   19.86   1
   1   7  -8    4.41   12.52   1
   1   7  -8   16.73   19.71   1
   1   7  -7  436.39   39.69   1
   1   7  -7  414.94   41.55   1
   1   7  -7  456.25   39.30   1
   1   7  -6 1535.86  116.00   1
   1   7  -6 1564.20  116.28   1
   1   7  -6 1604.00  120.15   1
   1   7  -5    8.94   17.34   1
   1   7  -5   22.56   19.95   1
   1   7  -4  338.93   34.98   1
   1   7  -4  366.34   32.92   1
   1   7  -3  228.92   26.63   1
   1   7  -3  225.90   28.56   1
   1   7  -2  199.37   23.72   1
   1   7  -2  224.40   36.55   1
   1   7  -2  171.87   23.34   1
   1   7  -1  414.53   44.38   1
   1   7  -1  354.19   33.12   1
   1   7   0   55.95   16.76   1
   1   7   0   43.56   22.70   1
   1   7   1 1216.61  105.34   1
   1   7   2   -3.53   26.92   1
   1   7   3  430.56   43.99   1
   1   7   4   35.76   19.38   1
   1   7   4   28.09   15.58   1
   1   7   4   -9.92   22.49   1
   1   7   5   19.89   14.54   1
   1   7   5   22.18   16.86   1
   1   7   5   35.52   15.85   1
   1   7   6   -1.82   14.01   1
   1   7   6  -33.29   14.43   1
   1   8  -8    5.34   18.90   1
   1   8  -8    8.76   20.13   1
   1   8  -8   16.16   14.31   1
   1   8  -7  574.08   50.32   1
   1   8  -7  681.73   53.79   1
   1   8  -7  617.03   52.16   1
   1   8  -6  740.38   59.32   1
   1   8  -6  709.69   56.48   1
   1   8  -6  694.85   56.94   1
   1   8  -5   -2.07   19.90   1
   1   8  -5   49.42   20.81   1
   1   8  -5   14.75   22.81   1
   1   8  -4    7.02   21.04   1
   1   8  -4  -11.49   14.98   1
   1   8  -3   78.68   22.53   1
   1   8  -3   63.36   20.38   1
   1   8  -2   31.14   20.98   1
   1   8  -2   62.41   17.85   1
   1   8  -2   59.60   32.12   1
   1   8  -1   25.91   16.70   1
   1   8  -1   30.91   31.25   1
   1   8   0  -20.98   27.02   1
   1   8   0    0.21   16.54   1
   1   8   1   13.03   15.81   1
   1   8   1   16.97   27.03   1
   1   8   2   98.21   26.56   1
   1   8   3   15.84   17.83   1
   1   8   3  -23.52   21.92   1
   1   8   4  160.53   19.51   1
   1   8   4  107.33   24.24   1
   1   8   4  139.24   22.89   1
   1   8   5   13.10   15.93   1
   1   8   5   15.29   14.62   1
   1   9  -7   54.61   20.40   1
   1   9  -7   76.91   18.07   1
   1   9  -6  356.83   34.76   1
   1   9  -6  338.19   33.47   1
   1   9  -6  356.45   35.49   1
   1   9  -5   35.05   24.15   1
   1   9  -5  -10.50   19.38   1
   1   9  -5   45.02   20.94   1
   1   9  -4  756.80   69.33   1
   1   9  -4  754.05   63.16   1
   1   9  -4  798.63   61.04   1
   1   9  -3  139.00   24.52   1
   1   9  -3   91.01   20.61   1
   1   9  -2  295.15   38.14   1
   1   9  -2  286.96   27.44   1
   1   9  -1   13.10    8.40   1
   1   9  -1   26.73   16.96   1
   1   9   0  138.06   23.50   1
   1   9   0  124.77   31.72   1
   1   9   1  112.15   18.43   1
   1   9   1  105.27   30.16   1
   1   9   2  176.89   28.73   1
   1   9   2  167.70   25.90   1
   1   9   2  180.90   20.71   1
   1   9   3   27.25   21.61   1
   1   9   3   -3.24   22.75   1
   1   9   4   91.39   17.02   1
   1   9   4  130.64   21.49   1
   1  10  -6   10.69   20.08   1
   1  10  -6    5.71   16.49   1
   1  10  -5  -15.60   20.30   1
   1  10  -5   -5.57   21.81   1
   1  10  -4   43.30   17.77   1
   1  10  -4   62.25   26.19   1
   1  10  -4   65.29   26.18   1
   1  10  -3  197.40   25.01   1
   1  10  -3  225.60   34.85   1
   1  10  -3  186.87   32.26   1
   1  10  -2   13.54    9.86   1
   1  10  -2   35.76   28.70   1
   1  10  -2   38.32   28.10   1
   1  10  -2   20.43   17.90   1
   1  10  -1   -2.22   16.99   1
   1  10  -1   31.14   28.46   1
   1  10  -1   -7.02   28.83   1
   1  10   0   36.48   28.51   1
   1  10   0   25.81   23.27   1
   1  10   1    4.49   24.97   1
   1  10   1   12.18   16.96   1
   1  10   2   24.11   22.68   1
   1  11  -3  228.31   30.52   1
   1  11  -3  210.83   25.56   1
   1  11  -2   -3.06   26.46   1
   1  11  -2   65.29   18.58   1
   1  11  -1   78.85   19.18   1
   1  11  -1   40.45   25.19   1
   2 -11  -2  -20.61   32.87   1
   2 -11  -2  -14.29   24.57   1
   2 -11  -1   -3.13   18.27   1
   2 -11  -1   37.09   33.98   1
   2 -11   0   28.52   33.00   1
   2 -11   0   13.62   23.39   1
   2 -11   1   -1.59   30.29   1
   2 -11   2  -14.75   17.05   1
   2 -11   2  -34.69   25.56   1
   2 -11   3   10.11   23.34   1
   2 -10  -4   29.70   35.21   1
   2 -10  -4   29.70   23.00   1
   2 -10  -3   30.80   20.76   1
   2 -10  -3  -42.25  124.28   1
   2 -10  -2  132.71   36.63   1
   2 -10  -2  170.30   26.88   1
   2 -10  -1   86.12   25.61   1
   2 -10  -1   67.73   33.91   1
   2 -10   0  171.35   26.97   1
   2 -10   0  112.15   33.89   1
   2 -10   1   38.94   31.45   1
   2 -10   1   16.48   24.28   1
   2 -10   2  183.87   28.20   1
   2 -10   2  126.34   30.35   1
   2 -10   3   88.55   19.76   1
   2 -10   3  157.25   25.33   1
   2 -10   5   80.28   23.83   1
   2  -9  -6   47.89   28.79   1
   2  -9  -6   92.35   24.41   1
   2  -9  -5    6.20   19.17   1
   2  -9  -4   88.74   23.74   1
   2  -9  -3  -49.84   23.72   1
   2  -9  -2   25.30   34.10   1
   2  -9  -1   64.32   32.72   1
   2  -9  -1  103.02   25.98   1
   2  -9   0  184.69   36.69   1
   2  -9   0  127.01   24.57   1
   2  -9   1   15.84   23.32   1
   2  -9   1  -26.01   27.64   1
   2  -9   2  322.20   33.75   1
   2  -9   3   37.33   17.11   1
   2  -9   3   27.56   15.85   1
   2  -9   4   84.82   24.31   1
   2  -9   5   91.78   26.06   1
   2  -8  -7   51.84   32.40   1
   2  -8  -7  -25.40   21.87   1
   2  -8  -6  378.30   46.29   1
   2  -8  -6  390.46   38.33   1
   2  -8  -5  -16.48   23.55   1
   2  -8  -5  -27.14   24.80   1
   2  -8  -4  268.96   32.47   1
   2  -8  -3  -38.94   24.59   1
   2  -8  -2  227.41   29.86   1
   2  -8  -1  133.17   26.77   1
   2  -8   0  480.49   41.65   1
   2  -8   0  369.02   47.64   1
   2  -8   1  108.16   30.78   1
   2  -8   2  806.56   99.40   1
   2  -8   2 1040.06   75.46   1
   2  -8   3   53.00   22.57   1
   2  -8   3   46.24   15.23   1
   2  -8   4  829.44   66.24   1
   2  -8   4  808.26   65.96   1
   2  -8   5   12.46   14.26   1
   2  -8   5    5.43   22.55   1
   2  -8   6  869.66   70.19   1
   2  -7  -8  -47.20   32.15   1
   2  -7  -7   74.13   23.25   1
   2  -7  -7   78.85   31.79   1
   2  -7  -6  122.99   25.73   1
   2  -7  -5  -19.01   22.24   1
   2  -7  -5  -21.34   34.56   1
   2  -7  -4  922.34   76.53   1
   2  -7  -4  933.91   77.62   1
   2  -7  -2  230.74   27.04   1
   2  -7  -1  217.56   30.09   1
   2  -7   0  454.97   44.37   1
   2  -7   1  412.09   37.76   1
   2  -7   1  335.62   43.24   1
   2  -7   2  271.26   32.28   1
   2  -7   2  186.87   28.98   1
   2  -7   2  226.80   26.20   1
   2  -7   3  361.00   34.58   1
   2  -7   3  437.23   38.89   1
   2  -7   4  487.97   41.09   1
   2  -7   4  426.42   37.58   1
   2  -7   5   27.14   18.55   1
   2  -7   6   16.08   18.85   1
   2  -6  -8   85.75   31.85   1
   2  -6  -6   26.01   32.23   1
   2  -6  -5  591.46   48.64   1
   2  -6  -5  555.07   54.19   1
   2  -6  -4 1029.13   86.62   1
   2  -6  -4 1064.06   94.60   1
   2  -6  -3 1428.08  105.06   1
   2  -6  -3 1306.10  122.15   1
   2  -6  -1  712.36   67.26   1
   2  -6   0  189.34   25.59   1
   2  -6   1 1536.64  111.33   1
   2  -6   1 1415.26  107.59   1
   2  -6   2  251.22   29.48   1
   2  -6   2  191.55   40.14   1
   2  -6   3 1466.12  104.15   1
   2  -6   3 1392.04  108.20   1
   2  -6   4  394.82   35.37   1
   2  -6   5  142.80   22.94   1
   2  -6   6  673.92   51.40   1
   2  -6   7   41.09   18.20   1
   2  -6   8  133.40   22.41   1
   2  -5  -9   53.73   11.73   1
   2  -5  -9   94.28   34.96   1
   2  -5  -8   53.88   26.86   1
   2  -5  -7   23.43   26.04   1
   2  -5  -6  334.89   39.53   1
   2  -5  -5   48.02   35.90   1
   2  -5  -4   73.96   25.28   1
   2  -5  -3  676.00   57.72   1
   2  -5  -3  614.54   52.06   1
   2  -5  -2  168.22   23.35   1
   2  -5  -2  182.52   26.75   1
   2  -5  -1 1004.26   71.62   1
   2  -5   0  280.23   29.13   1
   2  -5   0  263.09   22.71   1
   2  -5   1    3.31   13.03   1
   2  -5   1    6.71   18.91   1
   2  -5   2    5.90    8.80   1
   2  -5   2   17.31   19.88   1
   2  -5   3  673.92   55.04   1
   2  -5   3  775.07   58.46   1
   2  -5   4  199.37   25.98   1
   2  -5   5   90.82   22.11   1
   2  -5   6  203.06   26.51   1
   2  -5   7    5.52   20.35   1
   2  -5   8  273.57   28.12   1
   2  -4 -10   -4.80   21.02   1
   2  -4 -10  -49.98   29.69   1
   2  -4 -10   10.18   22.71   1
   2  -4  -9  600.74   59.80   1
   2  -4  -9  814.53   61.65   1
   2  -4  -8  144.72   27.43   1
   2  -4  -8  102.41   14.98   1
   2  -4  -7  153.02   19.30   1
   2  -4  -6   31.36   29.23   1
   2  -4  -6   14.59   13.45   1
   2  -4  -5  917.48   73.30   1
   2  -4  -4   52.85   27.63   1
   2  -4  -3 1076.50   78.09   1
   2  -4  -3 1194.39   84.33   1
   2  -4  -2 1377.15  106.88   1
   2  -4  -2 1400.26  113.76   1
   2  -4  -1 4157.67  294.03   1
   2  -4  -1 4292.87  294.84   1
   2  -4  -1 4129.35  305.88   1
   2  -4   0  219.93   19.58   1
   2  -4   1 1001.72   73.43   1
   2  -4   1 1088.34   76.54   1
   2  -4   1 1018.25   74.03   1
   2  -4   2   -2.62    7.55   1
   2  -4   2  -14.82   17.32   1
   2  -4   2  -29.48   15.53   1
   2  -4   3  540.10   45.55   1
   2  -4   5  449.02   38.14   1
   2  -4   6   40.20   21.05   1
   2  -4   7  334.52   34.02   1
   2  -3 -10   34.57   12.23   1
   2  -3 -10   32.72   24.60   1
   2  -3  -9  210.25   22.62   1
   2  -3  -9  184.69   26.64   1
   2  -3  -8  210.25   22.62   1
   2  -3  -8  217.56   28.62   1
   2  -3  -7    2.10   15.11   1
   2  -3  -7  -17.31   27.12   1
   2  -3  -6  139.00   18.86   1
   2  -3  -6  141.13   22.57   1
   2  -3  -5  619.51   56.25   1
   2  -3  -5  742.02   61.56   1
   2  -3  -4  203.06   21.38   1
   2  -3  -4  202.21   27.59   1
   2  -3  -3  620.01   50.30   1
   2  -3  -3  648.21   51.94   1
   2  -3  -1 1592.01  114.91   1
   2  -3  -1 1434.14  110.58   1
   2  -3   0  157.25   17.81   1
   2  -3   0  164.10   19.73   1
   2  -3   0  177.69   22.13   1
   2  -3   1 3109.18  209.66   1
   2  -3   1 2824.92  217.92   1
   2  -3   1 2945.23  210.57   1
   2  -3   2  578.88   42.83   1
   2  -3   2  570.73   43.96   1
   2  -3   3  756.80   54.47   1
   2  -3   3  703.31   53.57   1
   2  -3   3  746.93   65.59   1
   2  -3   4  399.60   33.98   1
   2  -3   5   -0.64   19.86   1
   2  -3   6   59.91   21.36   1
   2  -3   7   56.25   22.50   1
   2  -3   8    0.56   20.35   1
   2  -3   9    7.67   21.22   1
   2  -2 -11   49.28   22.46   1
   2  -2 -11    6.40   12.35   1
   2  -2 -11   21.81   23.26   1
   2  -2 -10   16.08   13.71   1
   2  -2 -10   40.45   15.39   1
   2  -2  -9   95.84   17.43   1
   2  -2  -9   76.21   23.92   1
   2  -2  -8  102.82   19.87   1
   2  -2  -8  160.28   18.48   1
   2  -2  -8  134.33   19.24   1
   2  -2  -7  141.85   25.49   1
   2  -2  -7   64.96   17.57   1
   2  -2  -7  101.40   16.11   1
   2  -2  -6   22.94   15.52   1
   2  -2  -6   28.62   13.27   1
   2  -2  -5 1229.90   89.78   1
   2  -2  -5 1275.20   89.99   1
   2  -2  -5 1121.58   85.06   1
   2  -2  -5 1096.27   84.76   1
   2  -2  -4  142.56   21.01   1
   2  -2  -4  156.50   14.51   1
   2  -2  -4  107.12   15.94   1
   2  -2  -4  103.23   13.00   1
   2  -2  -3   -7.67   25.04   1
   2  -2  -3  -15.52   21.51   1
   2  -2  -3   -1.64   16.20   1
   2  -2  -2   36.60   19.24   1
   2  -2  -1  117.07   22.51   1
   2  -2  -1  112.78  125.10   1
   2  -2  -1  116.42  104.66   1
   2  -2  -1  117.72  225.68   1
   2  -2   0 1614.43  135.81   1
   2  -2   0 1760.64  140.99   1
   2  -2   0 1225.00  136.50   1
   2  -2   0 1410.00  154.71   1
   2  -2   1   12.53   15.15   1
   2  -2   1  -27.14   16.05   1
   2  -2   1    6.86   13.83   1
   2  -2   2   -7.08   20.06   1
   2  -2   2  -17.47   12.12   1
   2  -2   2   -3.31   38.47   1
   2  -2   3  256.64   30.44   1
   2  -2   3  259.21   20.93   1
   2  -2   3  301.37   25.69   1
   2  -2   4 1302.49   94.56   1
   2  -2   4 1157.36   93.21   1
   2  -2   5  102.41   17.20   1
   2  -2   6  279.22   31.75   1
   2  -2   7  736.04   62.40   1
   2  -2   8   39.94   17.44   1
   2  -1 -11   99.40   24.33   1
   2  -1 -11   65.77   14.11   1
   2  -1 -11   22.47   25.41   1
   2  -1 -10  228.92   27.84   1
   2  -1 -10  140.90   20.42   1
   2  -1 -10  178.49   21.91   1
   2  -1  -9   35.76   16.15   1
   2  -1  -9   62.57   22.94   1
   2  -1  -8   87.24   19.80   1
   2  -1  -8  122.54   23.91   1
   2  -1  -7  247.12   23.89   1
   2  -1  -7  241.18   29.82   1
   2  -1  -6  243.05   21.83   1
   2  -1  -6  250.27   27.21   1
   2  -1  -6  197.96   18.57   1
   2  -1  -5 2313.61  160.65   1
   2  -1  -5 2255.30  167.16   1
   2  -1  -5 2313.61  169.31   1
   2  -1  -5 2283.88  159.62   1
   2  -1  -4  465.70   39.28   1
   2  -1  -4  555.07   42.41   1
   2  -1  -4  544.76   37.34   1
   2  -1  -4  541.96   41.90   1
   2  -1  -3   88.36   11.66   1
   2  -1  -3   98.01   16.04   1
   2  -1  -3  110.67   12.41   1
   2  -1  -3   69.06   17.12   1
   2  -1  -2 5956.75  446.10   1
   2  -1  -2 6051.28  421.62   1
   2  -1  -2 6416.01  454.97   1
   2  -1  -1  560.27   43.08   1
   2  -1   0 3515.30  326.10   1
   2  -1   0 4208.12  286.73   1
   2  -1   0 3979.09  285.12   1
   2  -1   1  132.94   18.45   1
   2  -1   1  155.00  100.10   1
   2  -1   2   97.61   14.23   1
   2  -1   2   20.61   32.78   1
   2  -1   3  364.05   35.87   1
   2  -1   3  325.80   27.80   1
   2  -1   3  417.38   32.69   1
   2  -1   4  713.96   55.04   1
   2  -1   5  342.62   34.80   1
   2  -1   5  339.66   34.65   1
   2  -1   6  419.84   43.03   1
   2  -1   7   55.80   22.11   1
   2  -1   8   48.72   21.50   1
   2  -1   9  -70.06   46.03   1
   2   0 -11   84.09   19.26   1
   2   0 -11  114.70   17.35   1
   2   0 -10   -3.13   23.33   1
   2   0 -10   -2.46   18.37   1
   2   0  -9 1104.90   90.41   1
   2   0  -9 1219.41   85.20   1
   2   0  -8  232.56   28.98   1
   2   0  -8  298.94   26.97   1
   2   0  -7 1417.52  100.15   1
   2   0  -7 1366.04  106.44   1
   2   0  -6  279.22   25.40   1
   2   0  -6  263.74   20.79   1
   2   0  -6  290.36   27.60   1
   2   0  -5    4.08   15.76   1
   2   0  -5   20.43    6.69   1
   2   0  -5   15.29   13.22   1
   2   0  -4 2183.69  148.60   1
   2   0  -4 2070.25  148.33   1
   2   0  -4 2149.25  157.62   1
   2   0  -3 4043.69  295.06   1
   2   0  -3 3915.00  280.31   1
   2   0  -3 3586.81  276.69   1
   2   0  -3 4460.90  299.22   1
   2   0  -1  507.15   40.09   1
   2   0  -1  611.57   49.46   1
   2   0   0  189.06   21.45   1
   2   0   0  236.24   25.21   1
   2   0   1  857.90   73.81   1
   2   0   1 1023.36   71.66   1
   2   0   1  850.89   67.09   1
   2   0   1 1025.92  157.59   1
   2   0   2  576.48   47.06   1
   2   0   2  669.77   43.48   1
   2   0   2  657.92   47.20   1
   2   0   2  420.25   90.20   1
   2   0   3   97.42   18.95   1
   2   0   3   96.63   15.92   1
   2   0   3  110.04   11.12   1
   2   0   4  699.60   57.13   1
   2   0   4  834.63   59.51   1
   2   0   4  814.53   62.22   1
   2   0   5 1600.80  124.03   1
   2   0   5 1646.74  124.17   1
   2   0   6  622.00   54.37   1
   2   0   7  699.07   56.05   1
   2   0   9  152.03   23.18   1
   2   1 -11   22.85   21.41   1
   2   1 -11    6.45   19.15   1
   2   1 -10 1184.74   89.49   1
   2   1 -10 1286.66   96.13   1
   2   1 -10 1280.21   92.31   1
   2   1  -9    5.20   17.10   1
   2   1  -9  -20.98   16.67   1
   2   1  -9   22.47   22.37   1
   2   1  -8  413.31   35.37   1
   2   1  -8  374.04   35.59   1
   2   1  -8  451.56   39.95   1
   2   1  -7  108.99   22.13   1
   2   1  -7   60.06   17.20   1
   2   1  -7   75.86   20.21   1
   2   1  -6   27.88   14.15   1
   2   1  -6   44.09   17.26   1
   2   1  -6   27.88    6.86   1
   2   1  -6   42.12   13.50   1
   2   1  -5   27.35   12.45   1
   2   1  -5   37.45   14.32   1
   2   1  -5   30.14    7.69   1
   2   1  -4  -10.89   14.52   1
   2   1  -4  -13.91   30.36   1
   2   1  -4  -34.11   14.83   1
   2   1  -3 2892.29  224.80   1
   2   1  -3 3042.63  198.58   1
   2   1  -3 2588.77  204.54   1
   2   1  -1 4958.98  352.10   1
   2   1  -1 4103.68  327.99   1
   2   1   0  441.00  131.04   1
   2   1   0  635.54   90.25   1
   2   1   1  371.33   31.99   1
   2   1   1  347.82   44.39   1
   2   1   2   -9.30   27.76   1
   2   1   2  -12.96   14.76   1
   2   1   2   -1.80   14.66   1
   2   1   3  -31.58   14.95   1
   2   1   3   21.34   17.93   1
   2   1   4   26.01   19.28   1
   2   1   4   66.59   19.09   1
   2   1   4   51.41   10.04   1
   2   1   5  -13.25   20.60   1
   2   1   5    6.30   20.98   1
   2   1   5    1.14    7.17   1
   2   1   6    5.20   19.61   1
   2   1   6   -8.58   20.04   1
   2   1   8  151.04   24.58   1
   2   1   9  186.60   25.95   1
   2   2 -11   49.14   22.43   1
   2   2 -11   35.28   14.73   1
   2   2 -10  170.04   18.78   1
   2   2 -10  176.89   21.28   1
   2   2 -10  178.76   23.26   1
   2   2  -9  420.25   36.90   1
   2   2  -9  401.20   37.66   1
   2   2  -9  448.59   41.09   1
   2   2  -9  459.67   37.73   1
   2   2  -8    7.34   16.37   1
   2   2  -8   36.36   13.39   1
   2   2  -8   17.72   15.24   1
   2   2  -8   25.50   19.90   1
   2   2  -7   96.83   17.71   1
   2   2  -7   76.21    9.60   1
   2   2  -7   82.63   16.36   1
   2   2  -7  100.40   20.84   1
   2   2  -7   88.36   23.88   1
   2   2  -6   17.81   13.93   1
   2   2  -6   33.41   15.26   1
   2   2  -6   25.81   18.08   1
   2   2  -6   19.10   19.75   1
   2   2  -5  -21.81   15.22   1
   2   2  -5    4.12   12.02   1
   2   2  -5   12.74   13.57   1
   2   2  -4   -1.88   13.73   1
   2   2  -4    5.57   14.07   1
   2   2  -4  -10.05   11.86   1
   2   2  -3 2183.69  182.25   1
   2   2  -3 2349.34  165.77   1
   2   2  -3 2496.00  159.87   1
   2   2  -2 2905.21  213.44   1
   2   2  -2 3056.98  220.05   1
   2   2  -2 2882.62  234.09   1
   2   2  -1   -3.03   13.92   1
   2   2   0 1327.14  107.83   1
   2   2   0 1173.06   96.58   1
   2   2   1 2118.76  159.26   1
   2   2   1 1984.70  169.29   1
   2   2   2   55.95   15.71   1
   2   2   2   65.12   16.62   1
   2   2   3  141.85   21.44   1
   2   2   3  129.73   20.05   1
   2   2   4  864.36   74.09   1
   2   2   4  998.56   77.10   1
   2   2   5   85.56   21.46   1
   2   2   5   68.39   10.42   1
   2   2   6  393.63   37.70   1
   2   2   6  407.23   35.92   1
   2   2   7  -16.48   19.73   1
   2   2   7  -10.96   19.26   1
   2   2   8  274.23   30.47   1
   2   2   8  311.52   29.65   1
   2   2   9    3.57   18.52   1
   2   3 -11   81.54   22.57   1
   2   3 -11   65.61   16.20   1
   2   3 -10  249.32   28.74   1
   2   3 -10  184.69   21.20   1
   2   3 -10  233.78   27.22   1
   2   3 -10  241.18   23.61   1
   2   3  -9  170.04   22.17   1
   2   3  -9  185.50   24.52   1
   2   3  -9  189.89   27.56   1
   2   3  -8  236.54   25.22   1
   2   3  -8  239.32   24.44   1
   2   3  -8  279.89   26.43   1
   2   3  -8  263.09   28.22   1
   2   3  -8  289.00   30.60   1
   2   3  -7 1164.17  106.45   1
   2   3  -7 1346.89   98.36   1
   2   3  -7 1381.61   95.90   1
   2   3  -7 1389.80  101.40   1
   2   3  -6  -29.38   19.95   1
   2   3  -6   12.82   17.61   1
   2   3  -6    7.29   14.47   1
   2   3  -5  287.98   30.55   1
   2   3  -5  367.87   28.77   1
   2   3  -5  285.95   28.75   1
   2   3  -4  984.08   86.58   1
   2   3  -4 1125.60   79.18   1
   2   3  -3  248.06   23.62   1
   2   3  -3  282.58   23.87   1
   2   3  -3  258.24   33.10   1
   2   3  -2   31.70   15.09   1
   2   3  -2   16.32   78.78   1
   2   3  -1  296.53  137.07   1
   2   3  -1  295.84   40.59   1
   2   3  -1  289.34   28.92   1
   2   3   0  594.87   54.15   1
   2   3   0  491.51   45.23   1
   2   3   1 3680.85  269.37   1
   2   3   1 3101.38  289.59   1
   2   3   2   14.90   19.30   1
   2   3   3  449.44   36.89   1
   2   3   3  428.90   39.76   1
   2   3   4  103.43   20.34   1
   2   3   4   82.26   23.40   1
   2   3   5  116.42   21.36   1
   2   3   5  156.75   23.04   1
   2   3   6   75.34   19.27   1
   2   3   6  111.94   21.58   1
   2   3   7   85.93   20.58   1
   2   3   7   53.14    9.48   1
   2   3   7   52.27    8.24   1
   2   3   8   38.94   19.34   1
   2   3   8   76.56   20.47   1
   2   4 -11    6.60   18.66   1
   2   4 -11  -12.53   20.67   1
   2   4 -10   -4.54   15.34   1
   2   4 -10  -23.33   19.32   1
   2   4 -10  -10.37   21.64   1
   2   4  -9   81.54   10.66   1
   2   4  -9  113.64   17.48   1
   2   4  -9  128.14   19.24   1
   2   4  -9  109.83   23.89   1
   2   4  -9  104.04   14.28   1
   2   4  -8    1.46   15.44   1
   2   4  -8   11.29   12.30   1
   2   4  -8   -1.69   19.21   1
   2   4  -8  -18.15   16.95   1
   2   4  -7  153.51   21.56   1
   2   4  -7  144.00   21.12   1
   2   4  -7  186.87   24.61   1
   2   4  -6  402.40   35.31   1
   2   4  -6  401.20   35.65   1
   2   4  -6  356.45   41.91   1
   2   4  -5   84.09   22.92   1
   2   4  -5   55.35   18.75   1
   2   4  -5   59.44   20.05   1
   2   4  -4  -20.70   30.85   1
   2   4  -4   20.61   18.25   1
   2   4  -4   23.62   17.59   1
   2   4  -3 1341.02   97.41   1
   2   4  -3 1355.71  118.56   1
   2   4  -3 1323.50   93.13   1
   2   4  -2   81.72   27.66   1
   2   4  -2   98.60   18.07   1
   2   4  -1  863.18   86.96   1
   2   4  -1 1020.16   76.66   1
   2   4  -1  952.96   74.09   1
   2   4   0  667.19   57.34   1
   2   4   0  693.27   70.04   1
   2   4   1  771.17   71.65   1
   2   4   2  331.24   35.31   1
   2   4   3   67.57   23.51   1
   2   4   3   85.93   20.39   1
   2   4   4  190.44   23.18   1
   2   4   4  168.74   26.76   1
   2   4   5  987.22   72.27   1
   2   4   5  896.40   74.25   1
   2   4   6   60.84   18.88   1
   2   4   6   65.45   21.52   1
   2   4   7  287.98   25.79   1
   2   4   7  372.10   33.56   1
   2   4   8  398.00   36.31   1
   2   5 -10   53.44   21.35   1
   2   5 -10   95.06   18.14   1
   2   5 -10  106.50   24.15   1
   2   5  -9  358.72   41.67   1
   2   5  -9  503.10   42.62   1
   2   5  -9  487.97   39.32   1
   2   5  -9  422.71   36.60   1
   2   5  -8   47.89   21.45   1
   2   5  -8   51.84   18.58   1
   2   5  -7  940.04  113.44   1
   2   5  -7 1014.42   77.71   1
   2   5  -7 1089.66   76.58   1
   2   5  -6  134.56   24.13   1
   2   5  -6  128.37   22.66   1
   2   5  -6  120.78   29.23   1
   2   5  -5  683.30   50.19   1
   2   5  -5  613.06   71.31   1
   2   5  -5  640.60   54.67   1
   2   5  -4  162.82   23.48   1
   2   5  -4  197.40   30.07   1
   2   5  -4  182.25   25.38   1
   2   5  -3 1709.00  119.89   1
   2   5  -3 1767.36  158.91   1
   2   5  -3 1724.74  124.59   1
   2   5  -2  272.58   38.30   1
   2   5  -2  184.14   25.51   1
   2   5  -1  697.49   66.55   1
   2   5  -1  882.68   71.30   1
   2   5  -1  906.61   84.31   1
   2   5   1  322.56   38.43   1
   2   5   2  241.80   33.28   1
   2   5   3    6.92   23.46   1
   2   5   4  420.25   39.36   1
   2   5   4  523.04   42.08   1
   2   5   5  112.78   20.18   1
   2   5   5  137.59   20.88   1
   2   5   6   27.77   13.81   1
   2   5   6   19.18   17.87   1
   2   5   7   24.21   11.41   1
   2   5   7   31.25   18.00   1
   2   6 -10   -0.14   14.71   1
   2   6 -10    3.39   20.76   1
   2   6 -10   -1.46   19.36   1
   2   6  -9   47.61   11.32   1
   2   6  -9   55.20   17.39   1
   2   6  -9   38.81   20.93   1
   2   6  -8   40.20   21.68   1
   2   6  -8   80.10   15.39   1
   2   6  -8   76.91   20.00   1
   2   6  -7   96.63   20.05   1
   2   6  -7   83.72   22.33   1
   2   6  -6  -25.91   19.14   1
   2   6  -6  -32.95   18.83   1
   2   6  -6  -32.72   21.05   1
   2   6  -5   91.97   22.82   1
   2   6  -5   72.42   22.64   1
   2   6  -5   70.90   22.23   1
   2   6  -4   69.89   21.57   1
   2   6  -4  107.54   34.01   1
   2   6  -4   73.27   21.74   1
   2   6  -3 1476.86  112.98   1
   2   6  -3 1600.00  108.80   1
   2   6  -3 1602.40  157.72   1
   2   6  -2   71.40   17.74   1
   2   6  -2   34.57   33.63   1
   2   6  -1  455.82   50.81   1
   2   6  -1  448.59   40.67   1
   2   6   0  224.10   35.63   1
   2   6   1  191.55   33.49   1
   2   6   2   30.58   25.00   1
   2   6   3   43.69   22.08   1
   2   6   4   28.52   16.34   1
   2   6   5  490.62   43.41   1
   2   6   5  470.46   39.91   1
   2   6   6  -10.89   17.49   1
   2   6   6   -7.34   15.12   1
   2   6   6    4.62   15.39   1
   2   7  -9   81.90   20.63   1
   2   7  -9   79.92   14.48   1
   2   7  -9  111.09   18.55   1
   2   7  -8   48.30   15.85   1
   2   7  -8   -8.12   21.09   1
   2   7  -8   20.25   18.27   1
   2   7  -6   -1.28   20.48   1
   2   7  -6  -12.04   20.20   1
   2   7  -5   -2.43   19.00   1
   2   7  -5  -41.86   20.32   1
   2   7  -4  -38.69   20.65   1
   2   7  -4  -39.19   20.03   1
   2   7  -3  187.96   24.40   1
   2   7  -3  192.10   26.61   1
   2   7  -2  -36.24   19.38   1
   2   7  -2   -6.10   32.51   1
   2   7  -2    8.01   11.66   1
   2   7  -1  583.71   55.08   1
   2   7  -1  480.92   49.12   1
   2   7   0 1285.22   96.79   1
   2   7   1  282.24   36.29   1
   2   7   3  174.77   27.23   1
   2   7   4   51.27   20.76   1
   2   7   4   21.34   16.63   1
   2   7   5  249.01   24.30   1
   2   7   5  229.83   27.59   1
   2   7   5  208.22   25.97   1
   2   7   6   -5.34   14.09   1
   2   7   6   14.14   15.27   1
   2   8  -8  149.33   21.02   1
   2   8  -8  145.20   24.10   1
   2   8  -8  111.51   19.64   1
   2   8  -7   73.44   22.45   1
   2   8  -6  258.89   30.89   1
   2   8  -6  314.00   31.54   1
   2   8  -5   35.52   20.03   1
   2   8  -5   22.00   19.98   1
   2   8  -4  787.36   62.29   1
   2   8  -4  821.97   60.78   1
   2   8  -3   92.54   23.28   1
   2   8  -3  145.20   25.55   1
   2   8  -3   98.21   18.23   1
   2   8  -2   74.65   31.10   1
   2   8  -2   26.21   19.56   1
   2   8  -1  867.89   62.46   1
   2   8  -1  681.21   65.25   1
   2   8  -1  659.98   64.74   1
   2   8   0 1065.37   92.70   1
   2   8   1    0.88   26.64   1
   2   8   2   81.90   24.44   1
   2   8   3    0.00    1.00   1
   2   8   4   39.82   16.66   1
   2   9  -7   55.80   20.32   1
   2   9  -7   20.25   14.49   1
   2   9  -6   13.10   18.24   1
   2   9  -6    8.88   19.01   1
   2   9  -5    6.05   19.78   1
   2   9  -5  -22.56   18.81   1
   2   9  -4   61.47   20.23   1
   2   9  -4   78.50   29.77   1
   2   9  -3   75.00   20.61   1
   2   9  -3   77.26   22.33   1
   2   9  -2   31.92   10.96   1
   2   9  -2  -17.06   27.26   1
   2   9  -1   51.27   10.02   1
   2   9  -1   75.69   27.49   1
   2   9  -1   24.50   18.91   1
   2   9   0  558.38   41.12   1
   2   9   0  419.84   48.36   1
   2   9   2  369.41   41.13   1
   2  10  -5   21.90   20.69   1
   2  10  -5   19.01   19.18   1
   2  10  -4    8.76   11.66   1
   2  10  -4   32.49   17.10   1
   2  10  -3   -6.40   17.81   1
   2  10  -2   40.32   10.67   1
   2  10   0   15.92   17.80   1
   3 -11  -2   50.27   33.75   1
   3 -11  -1  200.22   38.49   1
   3 -11  -1  197.68   29.81   1
   3 -11   0   65.61   24.14   1
   3 -11   1  175.03   33.60   1
   3 -11   3  222.31   28.03   1
   3 -10  -5   95.06   21.84   1
   3 -10  -4   16.08   34.49   1
   3 -10  -4   79.92   22.17   1
   3 -10  -3  -22.75   34.44   1
   3 -10  -3   13.99   21.92   1
   3 -10  -2   -0.83   32.92   1
   3 -10  -2   -2.76   22.87   1
   3 -10  -1  120.78   26.60   1
   3 -10  -1  116.64   37.15   1
   3 -10   0  103.43   24.81   1
   3 -10   1   14.44   22.65   1
   3 -10   1   -4.41   24.11   1
   3 -10   3  110.67   25.46   1
   3 -10   4   46.10   23.76   1
   3  -9  -6   62.73   35.80   1
   3  -9  -6   24.60   21.72   1
   3  -9  -5   12.82   18.83   1
   3  -9  -4   81.90   24.98   1
   3  -9  -3    9.30   22.94   1
   3  -9  -2   98.60   25.22   1
   3  -9  -1   73.79   23.71   1
   3  -9   0  144.96   32.99   1
   3  -9   1   58.98   24.12   1
   3  -9   2  221.71   29.18   1
   3  -9   3   31.25   17.44   1
   3  -9   3   29.59   23.07   1
   3  -9   4  317.20   32.77   1
   3  -9   4  270.27   27.62   1
   3  -9   5   12.74   15.71   1
   3  -8  -7  -13.91   33.50   1
   3  -8  -7   27.04   21.22   1
   3  -8  -6  178.22   37.11   1
   3  -8  -6  163.84   25.60   1
   3  -8  -5   43.16   19.45   1
   3  -8  -5   42.64   34.74   1
   3  -8  -4  124.77   26.14   1
   3  -8  -3  396.01   36.62   1
   3  -8  -2   64.80   23.18   1
   3  -8  -1 1156.00   95.20   1
   3  -8   0  112.36   25.02   1
   3  -8   1   83.36   24.29   1
   3  -8   2   17.81   18.65   1
   3  -8   2   20.88   16.45   1
   3  -8   2    3.69   16.63   1
   3  -8   3   24.01   18.82   1
   3  -8   3   57.46   21.98   1
   3  -8   4   -2.16   18.90   1
   3  -8   5   13.18   18.22   1
   3  -8   6   -0.28   17.59   1
   3  -7  -8   28.09   20.35   1
   3  -7  -7  -24.11   20.82   1
   3  -7  -6   23.52   21.15   1
   3  -7  -6   13.54   32.97   1
   3  -7  -5  842.16   74.29   1
   3  -7  -5  845.65   79.68   1
   3  -7  -4   93.70   36.40   1
   3  -7  -3 1100.25   83.59   1
   3  -7  -2   79.57   31.76   1
   3  -7  -1  898.80   72.55   1
   3  -7   0 1035.55   87.53   1
   3  -7   0 1298.16   98.72   1
   3  -7   1  786.80   69.00   1
   3  -7   1  670.29   66.28   1
   3  -7   2 3236.47  229.84   1
   3  -7   2 2976.79  238.97   1
   3  -7   3  749.66   62.43   1
   3  -7   3  903.00   65.51   1
   3  -7   4   62.57   19.77   1
   3  -7   5   70.22   20.95   1
   3  -7   6  187.42   25.19   1
   3  -6  -9    8.88   20.68   1
   3  -6  -8  207.65   36.31   1
   3  -6  -6  909.63   72.99   1
   3  -6  -6  933.30   77.60   1
   3  -6  -5  250.91   40.55   1
   3  -6  -5  264.39   30.57   1
   3  -6  -4  583.22   47.33   1
   3  -6  -4  628.00   55.13   1
   3  -6  -3  152.03   25.65   1
   3  -6  -3  136.89   29.95   1
   3  -6  -2  283.59   29.98   1
   3  -6  -1  529.46   40.96   1
   3  -6  -1  435.97   35.08   1
   3  -6   0  467.86   47.15   1
   3  -6   0  601.72   44.15   1
   3  -6   1  446.48   39.72   1
   3  -6   1  384.55   36.87   1
   3  -6   2 2449.26  182.12   1
   3  -6   2 2800.53  190.51   1
   3  -6   3  776.74   56.30   1
   3  -6   3  631.52   52.77   1
   3  -6   4  -37.58   19.86   1
   3  -6   5   47.47   20.81   1
   3  -6   6  187.96   26.05   1
   3  -6   7    2.28   19.30   1
   3  -5 -10  -17.89   21.32   1
   3  -5  -8  -18.92   28.80   1
   3  -5  -7  284.60   37.79   1
   3  -5  -6  190.72   35.08   1
   3  -5  -5 1611.22  125.24   1
   3  -5  -5 1351.30  124.98   1
   3  -5  -4  214.33   34.55   1
   3  -5  -4  229.83   26.08   1
   3  -5  -3  536.85   49.58   1
   3  -5  -3  534.53   58.26   1
   3  -5  -3  499.08   50.04   1
   3  -5  -2   87.80   18.18   1
   3  -5  -2   49.28   21.06   1
   3  -5  -1  212.28   22.73   1
   3  -5  -1  160.53   16.72   1
   3  -5   0   70.22   18.10   1
   3  -5   0   66.59   13.55   1
   3  -5   0   60.06   18.60   1
   3  -5   1   44.76   19.00   1
   3  -5   1    1.59   20.92   1
   3  -5   1   43.69   15.47   1
   3  -5   2  296.87   29.29   1
   3  -5   2  234.40   27.86   1
   3  -5   2  225.60   25.83   1
   3  -5   2  251.86   25.39   1
   3  -5   3  350.44   31.82   1
   3  -5   4   90.63   21.71   1
   3  -5   5  540.10   45.55   1
   3  -5   6   37.58   21.45   1
   3  -4 -10   13.40   20.86   1
   3  -4  -9   64.64   26.21   1
   3  -4  -9   80.46   14.71   1
   3  -4  -8  -32.83   25.21   1
   3  -4  -8    8.47   13.68   1
   3  -4  -7   21.81   26.53   1
   3  -4  -7  -20.34   15.24   1
   3  -4  -6  432.22   42.00   1
   3  -4  -5  201.36   23.27   1
   3  -4  -5  216.09   34.40   1
   3  -4  -4   -2.50   16.75   1
   3  -4  -4  -18.15   27.78   1
   3  -4  -4   19.71   15.54   1
   3  -4  -3 1171.01   91.03   1
   3  -4  -3 1222.90   88.12   1
   3  -4  -3 1216.61   84.41   1
   3  -4  -2   45.70   17.58   1
   3  -4  -2   75.17   15.26   1
   3  -4  -2   63.52    7.97   1
   3  -4  -2   73.10   19.84   1
   3  -4  -1  392.44   30.51   1
   3  -4  -1  331.60   30.59   1
   3  -4  -1  309.76   28.86   1
   3  -4   0 2277.20  154.61   1
   3  -4   0 1974.02  152.84   1
   3  -4   0 2303.04  159.33   1
   3  -4   1  909.63   74.80   1
   3  -4   1  934.52   67.25   1
   3  -4   1  873.79   67.40   1
   3  -4   1 1013.15   70.03   1
   3  -4   2  309.06   28.48   1
   3  -4   2  279.56   26.42   1
   3  -4   3  262.76   30.15   1
   3  -4   3  268.30   26.21   1
   3  -4   3  272.25   36.96   1
   3  -4   4  489.74   49.13   1
   3  -4   4  437.65   38.07   1
   3  -4   5  473.93   42.23   1
   3  -4   6   -6.55   20.68   1
   3  -4   7   42.38   21.87   1
   3  -4   8  -33.29   20.89   1
   3  -3 -10   30.14   22.95   1
   3  -3 -10  -11.22   13.47   1
   3  -3  -9  290.70   29.67   1
   3  -3  -8  -18.32   14.55   1
   3  -3  -8  -10.43   20.87   1
   3  -3  -8    1.39    9.44   1
   3  -3  -7  222.61   26.26   1
   3  -3  -7  325.80   33.21   1
   3  -3  -7  251.54   29.50   1
   3  -3  -6   -1.28   13.67   1
   3  -3  -6   -5.76   17.95   1
   3  -3  -6   -1.77   24.31   1
   3  -3  -5   14.21   15.98   1
   3  -3  -5    4.00   19.44   1
   3  -3  -5    1.69   25.43   1
   3  -3  -4   -2.62   14.16   1
   3  -3  -4  -11.97   21.24   1
   3  -3  -3  306.95   29.78   1
   3  -3  -3  283.92   26.29   1
   3  -3  -3  316.13   29.16   1
   3  -3  -2 1647.55  138.01   1
   3  -3  -2 1969.58  122.49   1
   3  -3  -2 1728.06  126.37   1
   3  -3  -2 1472.26  120.48   1
   3  -3  -1  480.49   38.14   1
   3  -3  -1  469.16   40.72   1
   3  -3  -1  470.46   42.08   1
   3  -3   0  502.66   44.84   1
   3  -3   0  433.47   40.39   1
   3  -3   0  554.13   40.02   1
   3  -3   0  530.38   50.67   1
   3  -3   1  438.06   33.49   1
   3  -3   1  395.61   37.39   1
   3  -3   1  445.21   33.76   1
   3  -3   2 3206.96  253.70   1
   3  -3   2 3234.20  222.93   1
   3  -3   2 3225.10  223.75   1
   3  -3   3  757.35   66.05   1
   3  -3   3  758.45   74.91   1
   3  -3   3  802.02   67.97   1
   3  -3   4   43.82   22.11   1
   3  -3   4   25.70   13.59   1
   3  -3   5  931.47   78.74   1
   3  -3   5  974.69   83.05   1
   3  -3   6   59.29   20.94   1
   3  -3   7  264.39   31.87   1
   3  -3   8   46.79   19.02   1
   3  -2 -11    1.59   13.36   1
   3  -2 -11  -22.09   21.90   1
   3  -2 -10  -28.73   23.05   1
   3  -2  -9   55.50   23.39   1
   3  -2  -9   63.68   14.68   1
   3  -2  -9   65.45   17.80   1
   3  -2  -8  125.66   23.99   1
   3  -2  -8  144.48   20.43   1
   3  -2  -8  128.14   17.89   1
   3  -2  -7   61.15   19.86   1
   3  -2  -7   35.16   10.56   1
   3  -2  -6  884.47   67.21   1
   3  -2  -6  861.42   71.03   1
   3  -2  -6  799.76   65.61   1
   3  -2  -6  752.40   66.38   1
   3  -2  -5  348.94   31.01   1
   3  -2  -5  346.70   26.81   1
   3  -2  -5  318.27   30.33   1
   3  -2  -4 1362.35  105.56   1
   3  -2  -4 1501.56  105.40   1
   3  -2  -4 1558.67  116.07   1
   3  -2  -4 1642.68  112.67   1
   3  -2  -3 2720.67  222.20   1
   3  -2  -3 3292.46  214.60   1
   3  -2  -3 2924.65  227.14   1
   3  -2  -2   -0.77   15.03   1
   3  -2  -2   12.82   12.10   1
   3  -2  -2   -2.10    9.43   1
   3  -2  -1 5273.67  389.24   1
   3  -2  -1 5679.13  375.29   1
   3  -2  -1 5945.95  374.75   1
   3  -2   0   41.34   22.25   1
   3  -2   0   26.21   18.33   1
   3  -2   0   19.71   24.33   1
   3  -2   1 4939.28  340.16   1
   3  -2   1 4928.04  387.50   1
   3  -2   1 5311.49  341.08   1
   3  -2   2  470.89   40.80   1
   3  -2   2  540.10   57.17   1
   3  -2   2  484.00   35.64   1
   3  -2   3  575.52   67.65   1
   3  -2   3  569.78   43.44   1
   3  -2   3  550.37   39.88   1
   3  -2   4   70.90   14.31   1
   3  -2   4   45.97   23.19   1
   3  -2   5   87.42   24.50   1
   3  -2   5   71.40   11.66   1
   3  -2   7   74.82   23.53   1
   3  -1 -11   10.18   13.91   1
   3  -1 -11   21.25   16.69   1
   3  -1 -10  203.06   28.50   1
   3  -1 -10  226.80   24.40   1
   3  -1  -9   41.99   17.76   1
   3  -1  -9   56.85   17.19   1
   3  -1  -8  604.18   50.63   1
   3  -1  -8  600.25   49.49   1
   3  -1  -8  572.17   46.88   1
   3  -1  -7    2.59   13.69   1
   3  -1  -7    7.29   20.47   1
   3  -1  -7   -2.66   18.61   1
   3  -1  -7   -9.49    9.18   1
   3  -1  -6  503.55   42.19   1
   3  -1  -6  521.67   44.31   1
   3  -1  -6  489.74   39.83   1
   3  -1  -6  554.13   43.78   1
   3  -1  -5  623.50   48.44   1
   3  -1  -5  600.74   45.10   1
   3  -1  -5  590.00   44.21   1
   3  -1  -5  607.62   49.30   1
   3  -1  -4 1346.89   93.95   1
   3  -1  -4 1188.87   85.51   1
   3  -1  -4 1208.26   85.51   1
   3  -1  -4 1222.90   91.62   1
   3  -1  -3   55.20   15.75   1
   3  -1  -3   57.61   17.31   1
   3  -1  -2  162.56   21.68   1
   3  -1  -2  112.57   14.43   1
   3  -1  -2  106.71   13.02   1
   3  -1  -1  369.41   28.83   1
   3  -1  -1  366.34   35.98   1
   3  -1   0  446.90   32.56   1
   3  -1   0  414.53   42.76   1
   3  -1   0  368.64   31.87   1
   3  -1   1 4235.41  272.03   1
   3  -1   1 3888.77  270.64   1
   3  -1   1 3560.51  309.09   1
   3  -1   2 2845.16  193.09   1
   3  -1   2 2456.19  233.92   1
   3  -1   2 2887.99  195.61   1
   3  -1   3  402.80   35.32   1
   3  -1   3  451.56   38.67   1
   3  -1   3  445.21   48.11   1
   3  -1   4  314.71   27.67   1
   3  -1   4  315.42   34.45   1
   3  -1   5   21.16   22.82   1
   3  -1   6   12.39   21.26   1
   3  -1   7  275.23   30.53   1
   3  -1   8   15.37   25.01   1
   3   0 -11  255.04   26.83   1
   3   0 -11  280.56   31.82   1
   3   0 -11  258.57   25.73   1
   3   0 -10  144.96   22.39   1
   3   0 -10  211.70   27.35   1
   3   0 -10  173.45   21.07   1
   3   0 -10  187.96   23.03   1
   3   0  -9  164.87   21.83   1
   3   0  -9  184.96   20.67   1
   3   0  -9  154.26   25.34   1
   3   0  -8  146.89   21.82   1
   3   0  -8  153.51   19.58   1
   3   0  -8  106.92   24.20   1
   3   0  -7   41.60   21.16   1
   3   0  -7   13.32   19.13   1
   3   0  -6  484.88   36.99   1
   3   0  -6  481.36   42.12   1
   3   0  -6  521.67   38.37   1
   3   0  -6  521.67   43.40   1
   3   0  -5   52.42    9.27   1
   3   0  -5   45.43   14.96   1
   3   0  -5   37.33   12.22   1
   3   0  -5   78.32   18.23   1
   3   0  -4  458.82   31.70   1
   3   0  -4  369.02   31.12   1
   3   0  -4  414.12   34.60   1
   3   0  -4  417.79   33.52   1
   3   0  -4  432.22   37.42   1
   3   0  -3    2.40   13.95   1
   3   0  -3  -29.48   25.30   1
   3   0  -3  -39.06   25.12   1
   3   0  -3  -14.06   15.22   1
   3   0  -2  301.72   22.93   1
   3   0  -2  278.56   28.37   1
   3   0  -2  235.32   27.00   1
   3   0  -1  124.99   14.31   1
   3   0  -1   93.51   12.96   1
   3   0   0  141.85   14.53   1
   3   0   0  209.38   40.23   1
   3   0   1 1490.73  105.02   1
   3   0   1 1396.52  169.66   1
   3   0   1 1290.96  111.38   1
   3   0   1 1648.36  108.00   1
   3   0   2  -35.28   17.70   1
   3   0   2   -1.44   27.02   1
   3   0   2   11.09   10.32   1
   3   0   3   13.40   11.35   1
   3   0   3   31.25   31.19   1
   3   0   3   20.43   15.01   1
   3   0   3    6.97   13.99   1
   3   0   4  866.12   85.94   1
   3   0   4  823.69   72.32   1
   3   0   4  856.15   67.88   1
   3   0   5 1769.88  135.47   1
   3   0   5 1639.44  125.52   1
   3   0   5 1776.62  128.98   1
   3   0   6   25.20   18.88   1
   3   0   6    1.30    6.43   1
   3   0   7   84.09   22.92   1
   3   0   8  156.25   57.25   1
   3   1 -11   53.73   19.79   1
   3   1 -11   36.00   18.24   1
   3   1 -11   88.92   15.47   1
   3   1 -11   64.16   15.06   1
   3   1 -10  272.58   29.72   1
   3   1 -10  337.46   29.76   1
   3   1 -10  352.69   33.80   1
   3   1  -9  129.28   20.24   1
   3   1  -9  169.78   25.02   1
   3   1  -9  129.28   18.65   1
   3   1  -8  152.03   18.74   1
   3   1  -8  175.03   21.43   1
   3   1  -8  173.98   25.85   1
   3   1  -8  124.10   15.82   1
   3   1  -7   11.76   15.71   1
   3   1  -7   23.43   15.58   1
   3   1  -7  -31.70   16.78   1
   3   1  -7   14.52   13.64   1
   3   1  -7    6.50    8.52   1
   3   1  -6  608.61   49.34   1
   3   1  -6  607.13   51.74   1
   3   1  -6  716.10   50.84   1
   3   1  -6  754.05   57.67   1
   3   1  -6  716.63   54.61   1
   3   1  -5   51.84   13.10   1
   3   1  -5   57.76   15.96   1
   3   1  -5   32.95   15.96   1
   3   1  -5   58.98   11.21   1
   3   1  -5   53.88   11.01   1
   3   1  -5   24.60   17.76   1
   3   1  -4  269.29   25.60   1
   3   1  -4  204.20   19.15   1
   3   1  -4  235.32   24.85   1
   3   1  -3 1705.69  134.64   1
   3   1  -3 1833.55  149.87   1
   3   1  -3 2059.34  140.68   1
   3   1  -2 1208.95   94.57   1
   3   1  -2 1147.18   86.71   1
   3   1  -1  504.00   41.76   1
   3   1  -1  469.16   55.45   1
   3   1   0 6199.99  491.34   1
   3   1   0 7187.65  529.03   1
   3   1   1   98.80   30.62   1
   3   1   1   62.41   13.11   1
   3   1   2 3306.25  232.30   1
   3   1   2 3238.75  223.09   1
   3   1   2 3031.60  219.14   1
   3   1   2 2886.91  269.72   1
   3   1   3  684.87   52.86   1
   3   1   3  665.64   54.18   1
   3   1   3  686.44   73.36   1
   3   1   3  701.72   53.51   1
   3   1   4 4493.02  328.45   1
   3   1   4 4795.56  343.48   1
   3   1   5  140.90   22.55   1
   3   1   5  148.35   23.63   1
   3   1   6  189.06   25.03   1
   3   1   6  150.55   13.99   1
   3   1   6  197.12   24.15   1
   3   1   7  141.37   23.54   1
   3   1   7  169.78   22.93   1
   3   2 -11   55.20   18.43   1
   3   2 -11   50.27   13.19   1
   3   2 -11  102.21   22.44   1
   3   2 -11   56.25   13.80   1
   3   2 -10  237.78   28.68   1
   3   2 -10  165.64   21.36   1
   3   2 -10  192.10   21.90   1
   3   2 -10  219.63   24.30   1
   3   2  -9  408.85   34.78   1
   3   2  -9  457.10   38.48   1
   3   2  -9  367.11   36.40   1
   3   2  -9  445.21   36.29   1
   3   2  -8  213.74   23.10   1
   3   2  -8  194.04   28.14   1
   3   2  -8  170.56   18.55   1
   3   2  -8  250.27   22.46   1
   3   2  -8  228.31   24.78   1
   3   2  -7  461.39   38.23   1
   3   2  -7  485.76   37.47   1
   3   2  -7  434.72   35.45   1
   3   2  -7  502.21   41.23   1
   3   2  -7  445.63   42.64   1
   3   2  -6  282.24   26.88   1
   3   2  -6  311.17   28.22   1
   3   2  -6  284.60   30.70   1
   3   2  -5   82.63   16.54   1
   3   2  -5   87.42   14.77   1
   3   2  -5   74.48   18.12   1
   3   2  -4  406.43   40.72   1
   3   2  -4  420.66   34.46   1
   3   2  -3  658.95   48.77   1
   3   2  -3  655.87   57.37   1
   3   2  -3  719.31   52.03   1
   3   2  -2   59.14   73.52   1
   3   2  -2   84.82   29.29   1
   3   2  -1  -32.15   36.17   1
   3   2  -1   -5.57   46.68   1
   3   2   0    7.56   15.67   1
   3   2   1  143.52   21.08   1
   3   2   1  151.04   36.38   1
   3   2   2  191.27   39.55   1
   3   2   2  174.77   22.47   1
   3   2   2  143.28   22.26   1
   3   2   3    2.22   18.71   1
   3   2   4  476.99   41.06   1
   3   2   4  593.90   46.30   1
   3   2   4  521.67   44.77   1
   3   2   5   23.43   19.46   1
   3   2   5   -9.67   17.73   1
   3   2   5  -13.18    9.44   1
   3   2   6  257.60   27.93   1
   3   2   6  254.40   27.75   1
   3   2   6  212.28   20.98   1
   3   2   7  -14.75   19.05   1
   3   2   7   -4.97   19.13   1
   3   2   8   37.45   20.93   1
   3   2   8   29.38   17.78   1
   3   3 -11    3.31   18.64   1
   3   3 -11  -14.82   17.25   1
   3   3 -10   73.10   14.71   1
   3   3 -10   88.36   24.06   1
   3   3 -10   54.02   20.43   1
   3   3 -10   69.56   16.18   1
   3   3  -9   -6.50    7.75   1
   3   3  -9    7.13   18.48   1
   3   3  -9  -25.00   21.50   1
   3   3  -9   -9.73   15.79   1
   3   3  -9   -5.95   11.81   1
   3   3  -8  658.44   49.27   1
   3   3  -8  618.02   49.22   1
   3   3  -8  526.70   53.70   1
   3   3  -8  682.25   52.76   1
   3   3  -7  604.18   47.19   1
   3   3  -7  591.95   47.20   1
   3   3  -7  573.60   57.00   1
   3   3  -6   16.00   20.24   1
   3   3  -6   72.08   20.38   1
   3   3  -6   51.12   16.44   1
   3   3  -5  466.56   38.88   1
   3   3  -5  496.84   38.78   1
   3   3  -5  472.63   44.78   1
   3   3  -4 1121.58   79.04   1
   3   3  -4 1106.23   85.15   1
   3   3  -4  977.19   75.02   1
   3   3  -3  777.85   60.80   1
   3   3  -3  828.29   70.80   1
   3   3  -3  777.85   58.57   1
   3   3  -2 3520.05  243.25   1
   3   3  -2 3462.15  267.13   1
   3   3  -1  417.79   47.42   1
   3   3  -1  373.65   33.63   1
   3   3  -1  437.23   38.06   1
   3   3   0  334.89   45.75   1
   3   3   0  318.98   34.65   1
   3   3   1    5.52   18.56   1
   3   3   1    6.20   36.90   1
   3   3   2  789.05   65.17   1
   3   3   2  764.52   91.80   1
   3   3   3  870.25   76.11   1
   3   3   3  946.18   78.13   1
   3   3   4  133.40   23.79   1
   3   3   4  188.79   25.28   1
   3   3   5  188.24   23.32   1
   3   3   5  141.61   23.09   1
   3   3   6  341.14   33.98   1
   3   3   6  410.06   34.83   1
   3   3   6  334.89   29.28   1
   3   3   7  257.60   26.00   1
   3   3   7  350.44   31.45   1
   3   3   7  250.27   27.21   1
   3   3   7  325.08   31.37   1
   3   4 -11  350.06   37.42   1
   3   4 -11  358.34   34.45   1
   3   4 -11  386.12   32.62   1
   3   4 -10    0.35   13.96   1
   3   4 -10   15.84    6.85   1
   3   4 -10   -7.78    7.48   1
   3   4 -10  -16.56   19.45   1
   3   4 -10  -24.30   22.09   1
   3   4 -10    4.00   12.36   1
   3   4  -9  116.64   22.90   1
   3   4  -9  168.74   26.24   1
   3   4  -9  141.13   20.20   1
   3   4  -9  117.94   18.24   1
   3   4  -8  321.48   31.20   1
   3   4  -8  313.29   29.38   1
   3   4  -7  263.09   24.98   1
   3   4  -7  222.31   29.22   1
   3   4  -7  209.67   22.88   1
   3   4  -6   -6.71   21.86   1
   3   4  -6   46.51   17.87   1
   3   4  -6   26.21   22.02   1
   3   4  -5  298.94   37.69   1
   3   4  -5  232.87   25.33   1
   3   4  -5  265.36   26.72   1
   3   4  -4    2.50   16.31   1
   3   4  -4   15.05   19.40   1
   3   4  -4   64.00   33.92   1
   3   4  -4  -17.56   18.60   1
   3   4  -3   16.65   33.46   1
   3   4  -3   63.36   17.99   1
   3   4  -3   24.11   16.60   1
   3   4  -2  486.64   50.74   1
   3   4  -2  462.25   37.84   1
   3   4  -1  212.58   30.33   1
   3   4  -1  190.16   21.79   1
   3   4   0  298.25   35.92   1
   3   4   0  213.45   47.63   1
   3   4   1    0.09   25.77   1
   3   4   1   30.80   45.95   1
   3   4   2  719.85   59.56   1
   3   4   3   28.09   21.31   1
   3   4   3   -7.67   19.83   1
   3   4   4  163.07   23.50   1
   3   4   4  139.95   21.06   1
   3   4   5  293.09   30.82   1
   3   4   5  339.30   31.68   1
   3   4   6   -5.29   18.17   1
   3   4   6   14.67   18.92   1
   3   4   7   54.91   18.38   1
   3   4   7   15.21   10.53   1
   3   4   7   -2.28    7.91   1
   3   4   7   27.56   19.64   1
   3   5 -10   18.06    9.35   1
   3   5 -10  -17.64   22.18   1
   3   5  -9   56.10   23.52   1
   3   5  -9    4.97   20.83   1
   3   5  -9   38.94   15.35   1
   3   5  -8    6.50   18.72   1
   3   5  -8   23.72   16.85   1
   3   5  -8    9.86   19.91   1
   3   5  -7  208.51   31.77   1
   3   5  -7  194.60   25.95   1
   3   5  -7  241.80   24.88   1
   3   5  -6    1.90   17.77   1
   3   5  -5  264.39   27.97   1
   3   5  -5  270.93   29.30   1
   3   5  -4  148.60   34.62   1
   3   5  -4  142.09   21.93   1
   3   5  -4  112.78   23.58   1
   3   5  -4  119.46   20.99   1
   3   5  -3   54.32   17.69   1
   3   5  -3  137.83   35.92   1
   3   5  -3   79.39   19.96   1
   3   5  -2   90.44   19.02   1
   3   5  -2  140.90   33.47   1
   3   5  -2  158.26   39.50   1
   3   5  -1   95.06   33.15   1
   3   5  -1   45.83   14.89   1
   3   5   0  440.58   57.51   1
   3   5   0  433.47   44.14   1
   3   5   1 1172.38   98.61   1
   3   5   2  268.96   32.14   1
   3   5   3 1931.60  145.04   1
   3   5   3 1874.02  149.78   1
   3   5   4  172.66   22.08   1
   3   5   4  110.67   19.99   1
   3   5   5  811.11   72.34   1
   3   5   5  805.42   67.54   1
   3   5   6   25.10   18.24   1
   3   6 -10   19.89   20.78   1
   3   6 -10    7.84   19.43   1
   3   6  -9   29.16   19.98   1
   3   6  -9   35.28   16.39   1
   3   6  -8  144.24   20.18   1
   3   6  -8   65.77   22.71   1
   3   6  -8  103.43   22.58   1
   3   6  -7   77.62   22.03   1
   3   6  -7   94.67   19.07   1
   3   6  -7   86.49   21.76   1
   3   6  -6  435.97   38.42   1
   3   6  -6  504.90   46.74   1
   3   6  -6  441.00   38.64   1
   3   6  -5   26.52   20.09   1
   3   6  -4    2.19   19.12   1
   3   6  -4  -21.90   16.85   1
   3   6  -4   32.95   33.41   1
   3   6  -4  -33.99   20.06   1
   3   6  -3  605.16   54.12   1
   3   6  -3  689.59   66.70   1
   3   6  -2   35.76   15.07   1
   3   6  -2    7.45   29.37   1
   3   6  -2  109.20   57.89   1
   3   6  -1  776.18   64.08   1
   3   6  -1  832.32   68.66   1
   3   6  -1  711.82   96.05   1
   3   6   0  128.14   31.24   1
   3   6   1  479.17   44.66   1
   3   6   2  428.90   40.59   1
   3   6   3  117.07   25.10   1
   3   6   3  132.02   21.14   1
   3   6   4   29.38   18.10   1
   3   6   4   -7.62   18.60   1
   3   6   5   -5.62   18.68   1
   3   6   5   -8.88   18.00   1
   3   6   6   13.54   18.47   1
   3   7  -9  118.81   23.33   1
   3   7  -9  123.88   18.92   1
   3   7  -8  495.95   44.54   1
   3   7  -8  524.41   43.05   1
   3   7  -7  140.42   24.65   1
   3   7  -7  185.78   23.17   1
   3   7  -7  139.48   23.62   1
   3   7  -6  207.65   25.94   1
   3   7  -6  200.79   22.96   1
   3   7  -5  118.16   21.96   1
   3   7  -5  123.43   22.89   1
   3   7  -5  185.78   36.53   1
   3   7  -4   16.65   15.01   1
   3   7  -4   56.40   20.13   1
   3   7  -4   18.75   14.46   1
   3   7  -4   23.14   33.19   1
   3   7  -3  124.55   30.13   1
   3   7  -3   89.11   16.80   1
   3   7  -3   83.91   20.88   1
   3   7  -3   36.24   36.84   1
   3   7  -2   23.52   12.90   1
   3   7  -2   25.91   30.13   1
   3   7  -1  582.74   52.14   1
   3   7   0   70.06   28.79   1
   3   7   1  304.50   33.50   1
   3   7   2   -1.10   24.84   1
   3   7   3   85.38   21.44   1
   3   7   4   25.91   17.61   1
   3   7   4   23.91   19.36   1
   3   7   5  186.60   23.22   1
   3   8  -8  379.08   31.54   1
   3   8  -8  267.00   29.09   1
   3   8  -7   22.00   17.07   1
   3   8  -7   -9.00   20.40   1
   3   8  -6  -17.22   21.83   1
   3   8  -6  -20.25   18.09   1
   3   8  -5  -11.76   15.02   1
   3   8  -5   -5.62   17.87   1
   3   8  -5   50.55   21.05   1
   3   8  -4   14.90   17.22   1
   3   8  -4   38.69   20.77   1
   3   8  -4   15.37   15.13   1
   3   8  -3   18.58   18.62   1
   3   8  -3    9.30   27.02   1
   3   8  -3    0.56   14.91   1
   3   8  -2   26.83   31.08   1
   3   8  -2   75.69   14.62   1
   3   8  -1  142.32   31.50   1
   3   8   1   92.35   22.30   1
   3   8   2  206.78   29.34   1
   3   8   3  -15.29   20.80   1
   3   8   4   17.89   17.60   1
   3   9  -6  163.07   21.45   1
   3   9  -6  132.94   22.37   1
   3   9  -6  115.78   19.37   1
   3   9  -5   -1.08   17.76   1
   3   9  -4   68.72   26.20   1
   3   9  -4   -0.04   19.72   1
   3   9  -4   17.39   13.51   1
   3   9  -3   59.14   27.84   1
   3   9  -2   17.22   26.15   1
   3   9  -2   -4.00   19.64   1
   3   9  -2   13.32   10.59   1
   3   9  -1   51.84   20.59   1
   3   9   0  -26.83   26.42   1
   3   9   1   -6.92   23.83   1
   3  10  -5  129.73   18.68   1
   3  10  -5  147.87   23.35   1
   3  10  -4  143.52   23.24   1
   3  10  -4   99.20   16.33   1
   3  10  -3   -8.82   19.19   1
   3  10  -2  111.30   21.52   1
   3  10  -1   -9.92   19.28   1
   4 -11  -2  -35.05   30.67   1
   4 -11  -2   27.04   21.42   1
   4 -11  -1    9.36   21.79   1
   4 -11  -1   27.88   32.74   1
   4 -11   0  103.43   24.41   1
   4 -11   1   42.38   21.48   1
   4 -11   1   12.39   25.84   1
   4 -11   2   63.84   22.85   1
   4 -10  -5  182.25   24.84   1
   4 -10  -4   75.69   21.58   1
   4 -10  -3   51.41   23.09   1
   4 -10  -2   -6.55   22.37   1
   4 -10  -1  -10.43   21.51   1
   4 -10   0   33.99   20.17   1
   4 -10   1   97.22   25.24   1
   4 -10   1  104.86   21.71   1
   4 -10   2   54.61   13.01   1
   4 -10   2   57.61   20.49   1
   4 -10   2   54.32   18.57   1
   4 -10   3   -2.56   14.94   1
   4 -10   3   19.98   19.67   1
   4 -10   4    1.66   14.55   1
   4 -10   4  -17.64   21.67   1
   4  -9  -6   51.55   21.54   1
   4  -9  -5   28.52   21.25   1
   4  -9  -4  114.70   22.28   1
   4  -9  -3   22.66   22.47   1
   4  -9  -1   37.21   23.42   1
   4  -9   0  143.04   23.68   1
   4  -9   1   37.95   16.26   1
   4  -9   2   16.40   22.84   1
   4  -9   2    0.07   15.66   1
   4  -9   2    8.53   12.03   1
   4  -9   3  174.24   27.72   1
   4  -9   3  112.78   21.03   1
   4  -9   4  169.78   22.67   1
   4  -8  -8   22.75   19.84   1
   4  -8  -8   17.81   30.81   1
   4  -8  -7   16.81   32.23   1
   4  -8  -7   21.81   20.64   1
   4  -8  -6  -27.14   20.21   1
   4  -8  -6    2.59   31.59   1
   4  -8  -5   75.00   21.48   1
   4  -8  -5  108.58   33.55   1
   4  -8  -4   96.24   22.17   1
   4  -8  -3  454.54   40.08   1
   4  -8  -2  386.52   41.29   1
   4  -8  -1   15.68   24.24   1
   4  -8   0  760.10   63.96   1
   4  -8   0  839.26   63.15   1
   4  -8   1   -1.42   21.30   1
   4  -8   1   -1.90   13.00   1
   4  -8   1   21.25   16.23   1
   4  -8   2  -17.81   16.63   1
   4  -8   2   34.81   12.74   1
   4  -8   3  291.38   30.73   1
   4  -8   3  357.21   34.40   1
   4  -8   4  161.54   22.88   1
   4  -8   5  213.74   25.73   1
   4  -7  -8  979.06   81.98   1
   4  -7  -8 1040.71   78.07   1
   4  -7  -7   -0.56   29.97   1
   4  -7  -7   25.00   19.30   1
   4  -7  -6 1346.16  124.75   1
   4  -7  -6 1260.25  107.21   1
   4  -7  -5  135.02   23.47   1
   4  -7  -5  166.15   34.80   1
   4  -7  -4  596.82   63.03   1
   4  -7  -4  610.58   52.39   1
   4  -7  -3  291.04   29.34   1
   4  -7  -2  289.00   30.26   1
   4  -7  -1   79.03   15.11   1
   4  -7  -1   79.03   22.23   1
   4  -7   0    6.20   18.67   1
   4  -7   0   32.60   15.30   1
   4  -7   1   31.92   14.01   1
   4  -7   1   52.27   17.06   1
   4  -7   1   19.36   17.51   1
   4  -7   2  -17.47   20.98   1
   4  -7   2  -23.04   17.57   1
   4  -7   2    2.10   12.99   1
   4  -7   3   30.47   17.44   1
   4  -7   4  203.63   25.12   1
   4  -7   5    3.88   18.68   1
   4  -7   6  222.61   25.36   1
   4  -6  -9    2.22   26.43   1
   4  -6  -8  232.56   35.08   1
   4  -6  -7   65.29   19.72   1
   4  -6  -7   20.79   32.65   1
   4  -6  -6    3.88   17.49   1
   4  -6  -6   -7.73   29.30   1
   4  -6  -5  823.69   70.03   1
   4  -6  -5  826.56   85.10   1
   4  -6  -3   63.84   22.05   1
   4  -6  -3   88.36   22.00   1
   4  -6  -2  466.56   49.25   1
   4  -6  -2  534.07   40.67   1
   4  -6  -2  428.90   41.83   1
   4  -6  -1  142.09   26.94   1
   4  -6  -1  190.72   19.61   1
   4  -6  -1  229.22   26.04   1
   4  -6   0   18.23   15.12   1
   4  -6   0   -1.39   19.71   1
   4  -6   0  -20.70   21.66   1
   4  -6   1   69.22   17.31   1
   4  -6   1   59.14   25.07   1
   4  -6   2    4.58   19.22   1
   4  -6   2   21.44   16.30   1
   4  -6   2   31.58   22.70   1
   4  -6   2   22.37   20.91   1
   4  -6   3  -29.27   19.37   1
   4  -6   3   -1.17   14.36   1
   4  -6   4  268.63   28.85   1
   4  -6   5  -10.50   20.80   1
   4  -6   6  267.65   30.10   1
   4  -5 -10   20.07   26.61   1
   4  -5  -9  136.42   29.67   1
   4  -5  -8  -12.25   27.37   1
   4  -5  -6  992.88   73.73   1
   4  -5  -6  987.84   77.32   1
   4  -5  -5 1301.77  107.52   1
   4  -5  -5 1273.78  113.49   1
   4  -5  -5 1408.50  108.09   1
   4  -5  -4   49.42   18.42   1
   4  -5  -4   66.42   21.84   1
   4  -5  -4  116.21   29.32   1
   4  -5  -3  861.42   76.90   1
   4  -5  -3  802.59   77.62   1
   4  -5  -3  933.30   86.15   1
   4  -5  -2   92.54   13.66   1
   4  -5  -2  116.86   20.54   1
   4  -5  -2  116.42   22.44   1
   4  -5  -1  951.72   77.12   1
   4  -5  -1 1062.76   76.28   1
   4  -5  -1  869.07   74.29   1
   4  -5   0  238.08   23.76   1
   4  -5   0  193.77   24.78   1
   4  -5   0  207.07   21.87   1
   4  -5   0  168.22   21.53   1
   4  -5   1 1916.69  125.21   1
   4  -5   1 1455.42  135.05   1
   4  -5   1 1597.60  119.11   1
   4  -5   1 1690.85  119.25   1
   4  -5   2  140.66   23.48   1
   4  -5   2  147.87   23.59   1
   4  -5   2  101.20   21.13   1
   4  -5   3   49.84   19.34   1
   4  -5   3  111.51   19.85   1
   4  -5   4  222.31   24.15   1
   4  -5   4  177.42   25.84   1
   4  -4 -10   43.82   23.70   1
   4  -4 -10    8.58   14.01   1
   4  -4  -9   -5.57   15.81   1
   4  -4  -9   45.16   24.73   1
   4  -4  -8  108.58   27.09   1
   4  -4  -8  107.33   18.44   1
   4  -4  -7   19.62   26.14   1
   4  -4  -6  103.63   19.34   1
   4  -4  -6  119.03   29.46   1
   4  -4  -5    0.59   18.46   1
   4  -4  -5   14.36   27.97   1
   4  -4  -4  543.82   45.24   1
   4  -4  -4  561.69   47.87   1
   4  -4  -4  438.90   43.58   1
   4  -4  -3  169.78   22.41   1
   4  -4  -3  215.21   20.24   1
   4  -4  -3  160.53   24.58   1
   4  -4  -3  134.56   18.10   1
   4  -4  -2  285.61   27.04   1
   4  -4  -2  209.96   25.79   1
   4  -4  -2  277.89   24.67   1
   4  -4  -1    6.60   18.30   1
   4  -4  -1  -21.34   17.46   1
   4  -4  -1   -3.39   13.25   1
   4  -4  -1   -7.29   12.80   1
   4  -4   0   60.53   17.27   1
   4  -4   0   19.80   14.86   1
   4  -4   1  677.04   65.05   1
   4  -4   1  775.07   60.13   1
   4  -4   1  764.52   58.06   1
   4  -4   2  204.20   28.29   1
   4  -4   2  219.34   29.32   1
   4  -4   2  243.05   25.88   1
   4  -4   3  317.91   29.24   1
   4  -4   3  257.60   31.46   1
   4  -4   3  325.44   35.72   1
   4  -4   4  111.94   23.49   1
   4  -4   4   99.60   17.56   1
   4  -4   4   80.82   24.45   1
   4  -4   5   37.58   15.82   1
   4  -4   5   66.75   20.75   1
   4  -4   6  447.75   39.78   1
   4  -4   7  264.39   31.22   1
   4  -3 -11  240.87   27.94   1
   4  -3 -11  214.62   25.20   1
   4  -3 -10  142.80   17.45   1
   4  -3 -10  188.79   21.71   1
   4  -3  -9   50.27    9.50   1
   4  -3  -9   17.22   17.26   1
   4  -3  -9   48.02   20.93   1
   4  -3  -8  129.28   16.60   1
   4  -3  -8  184.69   23.37   1
   4  -3  -8  192.65   26.65   1
   4  -3  -7 1197.16   93.42   1
   4  -3  -7 1194.39   93.31   1
   4  -3  -7 1206.17   99.33   1
   4  -3  -6  250.59   24.69   1
   4  -3  -6  220.23   29.68   1
   4  -3  -6  220.52   30.59   1
   4  -3  -5 1901.83  133.45   1
   4  -3  -5 2074.80  142.12   1
   4  -3  -4  187.69   22.19   1
   4  -3  -4  205.06   20.62   1
   4  -3  -4  287.98   26.81   1
   4  -3  -4  269.62   24.96   1
   4  -3  -3 3719.78  318.37   1
   4  -3  -3 3911.25  306.45   1
   4  -3  -3 4514.50  323.86   1
   4  -3  -2   25.70   10.55   1
   4  -3  -2   17.22   13.94   1
   4  -3  -2   16.16    8.92   1
   4  -3  -1 2305.92  162.31   1
   4  -3  -1 2296.33  142.80   1
   4  -3  -1 2100.39  142.99   1
   4  -3  -1 1925.45  147.44   1
   4  -3   0  123.88   17.59   1
   4  -3   0  117.72   20.61   1
   4  -3   1  176.62   27.91   1
   4  -3   1  165.12   22.87   1
   4  -3   1  173.71   21.35   1
   4  -3   2  159.77   20.73   1
   4  -3   2  200.22   21.51   1
   4  -3   3   66.42   26.73   1
   4  -3   3  100.40   17.64   1
   4  -3   3  127.92   24.43   1
   4  -3   4   34.57   16.23   1
   4  -3   5  224.40   19.47   1
   4  -3   5  177.42   27.71   1
   4  -3   6   13.03   13.57   1
   4  -3   6   21.81   18.87   1
   4  -3   7  187.69   25.76   1
   4  -2 -11  191.27   24.62   1
   4  -2 -11  163.33   22.24   1
   4  -2 -10   16.48   15.92   1
   4  -2  -9    4.33   16.93   1
   4  -2  -9   41.22   20.80   1
   4  -2  -9   20.52   12.68   1
   4  -2  -8   70.22   12.74   1
   4  -2  -8   67.73   19.92   1
   4  -2  -8   38.81   20.68   1
   4  -2  -8   45.02   10.74   1
   4  -2  -7  243.36   22.46   1
   4  -2  -7  291.38   29.36   1
   4  -2  -7  209.96   22.31   1
   4  -2  -6   87.24   20.92   1
   4  -2  -6   -1.96   22.76   1
   4  -2  -6   36.00   11.40   1
   4  -2  -6   52.85   14.54   1
   4  -2  -5   57.00   16.91   1
   4  -2  -5   69.72   10.69   1
   4  -2  -5   78.15   15.74   1
   4  -2  -5   91.01   23.09   1
   4  -2  -4   64.96   14.35   1
   4  -2  -4   40.70    9.06   1
   4  -2  -4   29.81   15.18   1
   4  -2  -3   24.50   12.18   1
   4  -2  -3   27.67   18.20   1
   4  -2  -3   11.09   13.59   1
   4  -2  -2  308.70   27.06   1
   4  -2  -2  401.20   32.45   1
   4  -2  -2  297.56   25.88   1
   4  -2  -2  365.96   35.20   1
   4  -2  -1  298.94   25.24   1
   4  -2  -1  291.38   24.92   1
   4  -2  -1  290.70   30.35   1
   4  -2   0  -20.70   22.11   1
   4  -2   0    3.57   14.10   1
   4  -2   0   19.54   16.44   1
   4  -2   1  260.18   26.78   1
   4  -2   1  216.38   33.54   1
   4  -2   1  275.23   23.56   1
   4  -2   2  161.04   32.49   1
   4  -2   2   99.00   21.69   1
   4  -2   2   94.28   17.48   1
   4  -2   3   81.54   29.08   1
   4  -2   3   35.52   23.36   1
   4  -2   3   78.50   15.24   1
   4  -2   4    4.88   13.30   1
   4  -2   5  498.63   40.19   1
   4  -2   5  536.39   47.25   1
   4  -2   6  107.95   13.71   1
   4  -2   6  139.71   23.88   1
   4  -2   7  185.23   26.40   1
   4  -1 -11    4.93   12.65   1
   4  -1 -11   -9.92   18.14   1
   4  -1 -11    9.18   13.33   1
   4  -1 -10  163.84   24.83   1
   4  -1 -10  110.46   17.45   1
   4  -1 -10  109.20   21.53   1
   4  -1  -9   17.39   18.68   1
   4  -1  -9    2.86   20.01   1
   4  -1  -9    0.88    7.31   1
   4  -1  -8   91.20   21.97   1
   4  -1  -8   80.46   14.71   1
   4  -1  -7  785.68   59.42   1
   4  -1  -7  708.62   60.69   1
   4  -1  -7  727.92   55.04   1
   4  -1  -7  712.36   56.58   1
   4  -1  -6  655.36   53.25   1
   4  -1  -6  671.85   55.47   1
   4  -1  -6  650.25   48.45   1
   4  -1  -6  668.22   48.60   1
   4  -1  -5  161.80   19.33   1
   4  -1  -5  206.21   18.67   1
   4  -1  -5  188.24   24.70   1
   4  -1  -5  203.35   18.54   1
   4  -1  -4  844.48   69.16   1
   4  -1  -4  859.08   66.24   1
   4  -1  -4  946.79   73.23   1
   4  -1  -4 1010.60   76.93   1
   4  -1  -3  329.42   25.77   1
   4  -1  -3  320.41   26.49   1
   4  -1  -3  318.62   32.49   1
   4  -1  -2 1469.96  117.32   1
   4  -1  -2 1444.76  101.87   1
   4  -1  -1   57.15   23.13   1
   4  -1  -1   82.45   13.80   1
   4  -1   0  -15.21   26.05   1
   4  -1   0   -6.25   12.60   1
   4  -1   0   -1.82   17.98   1
   4  -1   1  301.02   28.11   1
   4  -1   1  268.63   23.93   1
   4  -1   1  275.89   37.87   1
   4  -1   2  947.41   67.72   1
   4  -1   2  979.69  102.04   1
   4  -1   2  940.04   74.20   1
   4  -1   3  191.82   35.73   1
   4  -1   3  170.04   18.78   1
   4  -1   3  143.52   27.55   1
   4  -1   4  173.98   27.70   1
   4  -1   4  207.07   35.40   1
   4  -1   4  137.59   17.83   1
   4  -1   5  593.41   52.13   1
   4  -1   5  640.60   58.21   1
   4  -1   6   10.56    8.58   1
   4  -1   6   30.14   21.96   1
   4  -1   7  371.33   34.69   1
   4   0 -11   80.28   17.56   1
   4   0 -11   84.09   14.86   1
   4   0 -11   70.06   20.59   1
   4   0 -10   65.61   15.55   1
   4   0 -10   90.44   22.63   1
   4   0 -10   88.74   17.33   1
   4   0  -9    0.03   15.41   1
   4   0  -9    5.81    7.95   1
   4   0  -9  -10.69   18.44   1
   4   0  -9    9.73   12.73   1
   4   0  -8   -1.00   15.08   1
   4   0  -8   -2.82   13.98   1
   4   0  -8    8.29    9.56   1
   4   0  -8    6.45   21.49   1
   4   0  -8    8.35   19.36   1
   4   0  -7  156.50   16.76   1
   4   0  -7  140.66   20.64   1
   4   0  -7  184.96   23.66   1
   4   0  -7  146.17   15.48   1
   4   0  -7  142.80   23.18   1
   4   0  -7  133.17   19.16   1
   4   0  -6  423.12   32.50   1
   4   0  -6  432.22   32.85   1
   4   0  -6  380.25   31.20   1
   4   0  -6  420.66   39.38   1
   4   0  -6  388.88   35.50   1
   4   0  -5  -11.63   11.39   1
   4   0  -5  -14.82   18.56   1
   4   0  -5   -4.67    8.04   1
   4   0  -5  -43.30   20.27   1
   4   0  -5  -21.90   12.73   1
   4   0  -5   -0.28   12.88   1
   4   0  -4 6152.83  442.40   1
   4   0  -4 4774.81  403.54   1
   4   0  -4 5006.98  411.82   1
   4   0  -4 6054.40  390.61   1
   4   0  -4 5766.88  417.67   1
   4   0  -3  826.56   62.68   1
   4   0  -3  871.43   73.21   1
   4   0  -3  906.01   69.23   1
   4   0  -2 2670.82  178.81   1
   4   0  -2 2629.64  204.09   1
   4   0  -1   57.76   13.22   1
   4   0  -1   43.56    7.92   1
   4   0   0 1965.15  153.38   1
   4   0   0 2055.72  161.41   1
   4   0   0 2520.04  181.72   1
   4   0   1  412.50   30.06   1
   4   0   1  357.97   45.79   1
   4   0   1  350.81   32.96   1
   4   0   1  329.06   29.02   1
   4   0   2  919.91   90.38   1
   4   0   2  908.42   68.12   1
   4   0   2  934.52   66.03   1
   4   0   2  862.01   70.46   1
   4   0   3 1363.09  101.16   1
   4   0   3 1344.69  145.21   1
   4   0   3 1413.01  110.51   1
   4   0   3 1301.04  105.32   1
   4   0   4  240.25   25.42   1
   4   0   4  277.22   22.98   1
   4   0   4  233.78   43.73   1
   4   0   4  196.84   29.74   1
   4   0   5  383.38   31.72   1
   4   0   5  291.04   33.78   1
   4   0   5  315.42   27.71   1
   4   0   6   -9.49    9.24   1
   4   0   6    0.58   19.68   1
   4   0   7  121.00   26.18   1
   4   1 -11  117.29   16.03   1
   4   1 -11  116.42   20.07   1
   4   1 -11  122.77   23.49   1
   4   1 -10  194.60   26.78   1
   4   1 -10  249.64   22.75   1
   4   1 -10  269.94   28.92   1
   4   1 -10  232.56   25.01   1
   4   1 -10  216.09   25.28   1
   4   1  -9   48.02   15.80   1
   4   1  -9   37.21    8.78   1
   4   1  -9   83.36   21.73   1
   4   1  -9   63.84   16.30   1
   4   1  -9   20.88   12.70   1
   4   1  -9   60.06   19.68   1
   4   1  -8   89.49   14.19   1
   4   1  -8   98.41   18.05   1
   4   1  -8   66.26   18.56   1
   4   1  -8   83.54   23.03   1
   4   1  -8   75.69   11.14   1
   4   1  -8   78.85   21.49   1
   4   1  -7  159.52   21.47   1
   4   1  -7  157.00   20.80   1
   4   1  -7  155.25   18.19   1
   4   1  -7  125.44   23.07   1
   4   1  -7  192.38   26.91   1
   4   1  -7  189.06   17.60   1
   4   1  -6  474.37   40.95   1
   4   1  -6  395.21   36.58   1
   4   1  -6  376.36   32.20   1
   4   1  -6  422.30   33.70   1
   4   1  -6  423.12   33.32   1
   4   1  -6  408.44   39.61   1
   4   1  -5 3911.25  281.43   1
   4   1  -5 3852.68  292.97   1
   4   1  -5 4047.50  319.37   1
   4   1  -5 4377.15  303.01   1
   4   1  -4 6652.03  474.68   1
   4   1  -4 6570.72  492.84   1
   4   1  -4 7126.74  540.29   1
   4   1  -4 7042.57  510.23   1
   4   1  -3    7.45   26.04   1
   4   1  -3   -8.41   20.42   1
   4   1  -2  643.13   53.76   1
   4   1  -1  557.90   55.74   1
   4   1  -1  611.57   49.46   1
   4   1   0    7.29    9.72   1
   4   1   0  -18.06   36.21   1
   4   1   0   -2.19   12.37   1
   4   1   1   12.25   20.72   1
   4   1   1   21.16   36.89   1
   4   1   1   20.70   14.29   1
   4   1   1   -0.92   13.75   1
   4   1   2  126.79   38.73   1
   4   1   2  103.43   23.19   1
   4   1   2   63.84   15.98   1
   4   1   3   94.48   24.11   1
   4   1   3  117.72   20.18   1
   4   1   3   91.01   16.22   1
   4   1   3   50.13   35.82   1
   4   1   4  187.96   22.48   1
   4   1   4  172.13   19.42   1
   4   1   5   42.38   17.19   1
   4   1   5    9.80   21.41   1
   4   1   6  316.84   36.31   1
   4   1   6  403.21   36.95   1
   4   1   7   -4.75   60.04   1
   4   2 -11  101.40   23.16   1
   4   2 -11   79.57   18.20   1
   4   2 -11   84.64   14.35   1
   4   2 -11   63.36   15.60   1
   4   2 -11   68.06   17.16   1
   4   2 -10   26.83   15.02   1
   4   2 -10   27.67    7.26   1
   4   2 -10   39.19   17.65   1
   4   2 -10   43.30   13.42   1
   4   2  -9   58.37   21.70   1
   4   2  -9   19.36    8.54   1
   4   2  -9   74.13   18.43   1
   4   2  -9   37.95   13.80   1
   4   2  -9   33.41   17.34   1
   4   2  -9   44.62   19.24   1
   4   2  -8    3.20   13.71   1
   4   2  -8  -40.70   19.27   1
   4   2  -8    0.46    9.82   1
   4   2  -8  -22.18   20.44   1
   4   2  -8  -23.91   19.07   1
   4   2  -8  -11.22   20.50   1
   4   2  -7  329.06   33.01   1
   4   2  -7  348.20   34.33   1
   4   2  -7  305.55   28.67   1
   4   2  -7  370.18   31.17   1
   4   2  -7  366.72   34.85   1
   4   2  -7  302.06   27.11   1
   4   2  -6   20.61   12.80   1
   4   2  -6   38.81   22.68   1
   4   2  -6   19.98   17.79   1
   4   2  -6   13.76   22.33   1
   4   2  -5  436.81   40.96   1
   4   2  -5  392.44   37.24   1
   4   2  -5  391.25   32.44   1
   4   2  -4 5481.92  373.16   1
   4   2  -4 4689.51  358.84   1
   4   2  -4 5256.25  392.95   1
   4   2  -3 2281.97  170.06   1
   4   2  -3 2376.56  182.32   1
   4   2  -2  786.24   71.22   1
   4   2  -1 1461.53  129.98   1
   4   2  -1 1489.96  115.80   1
   4   2   0  110.46   20.18   1
   4   2   0  108.78   41.30   1
   4   2   1   21.72   17.99   1
   4   2   1   17.81   41.95   1
   4   2   2  306.25   28.70   1
   4   2   2  241.80   30.79   1
   4   2   2  271.59   51.42   1
   4   2   3    0.20   14.62   1
   4   2   3    3.88   22.18   1
   4   2   4   21.34   17.65   1
   4   2   4    7.84   20.05   1
   4   2   4  -11.22   11.93   1
   4   2   5   25.50   18.79   1
   4   2   5   44.49   12.01   1
   4   2   6  144.72   23.58   1
   4   2   6  111.51   13.09   1
   4   2   6  127.69   21.70   1
   4   2   7   16.32   16.97   1
   4   2   7    0.44    6.98   1
   4   2   7    3.65   20.02   1
   4   3 -11   45.56   19.30   1
   4   3 -11   84.09   18.89   1
   4   3 -11   61.62   14.60   1
   4   3 -11   35.76   13.87   1
   4   3 -10   66.75   19.77   1
   4   3 -10   66.59   14.52   1
   4   3 -10   45.29   17.90   1
   4   3 -10   33.87    7.80   1
   4   3 -10   58.83   15.34   1
   4   3 -10   38.19   21.38   1
   4   3  -9   51.70   21.43   1
   4   3  -9   25.00   19.00   1
   4   3  -9   67.24   15.09   1
   4   3  -8    2.82   19.89   1
   4   3  -8   10.89   13.53   1
   4   3  -8  -24.50   17.52   1
   4   3  -8  -13.76   20.18   1
   4   3  -8   41.22   18.49   1
   4   3  -7  -36.00   20.76   1
   4   3  -7  -22.09   14.85   1
   4   3  -7    0.26   21.65   1
   4   3  -6   78.85   20.96   1
   4   3  -6   81.00   16.56   1
   4   3  -6   65.12   24.53   1
   4   3  -5  221.41   25.59   1
   4   3  -5  258.24   28.93   1
   4   3  -5  268.96   35.42   1
   4   3  -5  208.51   22.24   1
   4   3  -4  544.76   47.61   1
   4   3  -4  555.54   55.63   1
   4   3  -4  539.17   43.19   1
   4   3  -3   13.25   35.60   1
   4   3  -3   46.65   19.53   1
   4   3  -2 1637.82  131.93   1
   4   3  -2 1704.86  136.26   1
   4   3  -2 1652.42  123.58   1
   4   3  -1 1056.90   92.98   1
   4   3  -1 1160.76  121.29   1
   4   3   0  453.69   54.53   1
   4   3   0  393.63   38.89   1
   4   3   1   27.46   43.28   1
   4   3   1   73.62   21.96   1
   4   3   2  810.54  103.63   1
   4   3   2  776.74   63.54   1
   4   3   2  750.76   63.57   1
   4   3   3    9.12   18.42   1
   4   3   3  -26.83   21.45   1
   4   3   4  401.20   36.05   1
   4   3   4  403.61   35.76   1
   4   3   5   25.30   19.62   1
   4   3   5   45.56   12.29   1
   4   3   5    2.46   19.62   1
   4   3   6  202.21   23.32   1
   4   3   6  173.19   18.42   1
   4   3   6  189.61   26.44   1
   4   3   7  -19.89   19.00   1
   4   4 -11   -5.76   17.57   1
   4   4 -11  -14.14   22.03   1
   4   4 -10   13.76    7.49   1
   4   4 -10   -1.30   20.54   1
   4   4 -10  -33.99   17.37   1
   4   4 -10   11.97   18.20   1
   4   4  -9  772.84   59.49   1
   4   4  -9  720.92   54.77   1
   4   4  -9  652.29   69.98   1
   4   4  -9  618.52   59.19   1
   4   4  -9  757.35   55.59   1
   4   4  -8   34.22   20.48   1
   4   4  -8   32.15   15.20   1
   4   4  -8   59.60   19.92   1
   4   4  -7   98.01   25.74   1
   4   4  -7   86.68   17.13   1
   4   4  -6  142.56   23.88   1
   4   4  -6  121.00   20.02   1
   4   4  -6  162.82   34.71   1
   4   4  -6  154.01   23.08   1
   4   4  -5  205.35   22.93   1
   4   4  -5  233.17   42.15   1
   4   4  -5  207.07   26.48   1
   4   4  -5  203.35   27.95   1
   4   4  -4  330.15   33.07   1
   4   4  -4  301.37   29.86   1
   4   4  -4  314.35   47.87   1
   4   4  -3  108.99   22.97   1
   4   4  -3  152.03   45.87   1
   4   4  -2   46.38   42.77   1
   4   4  -2   23.91   19.66   1
   4   4  -1 1512.43  157.12   1
   4   4  -1 1327.87  116.61   1
   4   4   0  259.53   32.22   1
   4   4   0  186.05   56.20   1
   4   4   1  774.51   80.15   1
   4   4   1  786.80   66.76   1
   4   4   2   -1.17   21.92   1
   4   4   2  -53.44   45.61   1
   4   4   3  866.71   67.71   1
   4   4   3  975.94   74.35   1
   4   4   4  186.87   25.15   1
   4   4   4  202.21   25.60   1
   4   4   5  184.14   27.41   1
   4   4   5  244.61   27.21   1
   4   4   6  320.05   27.55   1
   4   4   6  316.13   32.72   1
   4   4   6  383.77   32.52   1
   4   5 -10   11.29   19.49   1
   4   5 -10   21.34   21.99   1
   4   5 -10  -11.70   13.95   1
   4   5  -9  372.49   29.34   1
   4   5  -9  268.63   31.80   1
   4   5  -9  314.71   33.00   1
   4   5  -9  309.41   35.18   1
   4   5  -8    4.04   20.34   1
   4   5  -8   11.49   15.32   1
   4   5  -7  385.34   34.16   1
   4   5  -7  356.08   31.32   1
   4   5  -7  344.84   39.00   1
   4   5  -7  283.25   34.33   1
   4   5  -6  132.94   39.20   1
   4   5  -6  134.56   20.88   1
   4   5  -6  106.92   23.58   1
   4   5  -6  152.77   21.01   1
   4   5  -5 2025.90  154.83   1
   4   5  -5 2152.96  159.62   1
   4   5  -5 2206.18  149.36   1
   4   5  -5 2032.21  196.55   1
   4   5  -4  332.33   46.67   1
   4   5  -4  326.89   31.82   1
   4   5  -4  291.73   30.40   1
   4   5  -3 1313.34  106.55   1
   4   5  -3 1379.38  146.33   1
   4   5  -2 2313.61  178.93   1
   4   5  -2 2337.72  189.53   1
   4   5  -2 2474.07  239.75   1
   4   5  -1  239.63   68.73   1
   4   5  -1  191.82   34.35   1
   4   5   0 1522.56  112.38   1
   4   5   0 1259.54  139.12   1
   4   5   1  -13.76   46.08   1
   4   5   2  564.54   50.85   1
   4   5   3  -14.21   21.04   1
   4   5   3   50.98   21.71   1
   4   5   4    7.08   19.90   1
   4   5   4   -5.86   19.07   1
   4   5   5   -6.50   19.58   1
   4   5   5   12.46   16.66   1
   4   6 -10    2.28   22.83   1
   4   6 -10  -22.94   19.54   1
   4   6  -9   77.44   22.53   1
   4   6  -9  102.01   20.20   1
   4   6  -9   84.46   22.24   1
   4   6  -8   70.06   22.60   1
   4   6  -8   85.56   17.39   1
   4   6  -8   70.90   26.27   1
   4   6  -8   55.20   19.76   1
   4   6  -7   -2.43   16.75   1
   4   6  -7    9.49   26.12   1
   4   6  -7   41.34   21.22   1
   4   6  -6   20.79   30.00   1
   4   6  -6   25.30   16.50   1
   4   6  -6   25.00   18.90   1
   4   6  -6   -6.15   20.83   1
   4   6  -5   54.91   16.75   1
   4   6  -5   86.30   35.12   1
   4   6  -5   81.36   22.01   1
   4   6  -5   68.06   19.97   1
   4   6  -4  544.29   42.93   1
   4   6  -4  478.73   58.20   1
   4   6  -3   16.40   16.20   1
   4   6  -3    3.28   35.98   1
   4   6  -3   20.61   30.15   1
   4   6  -2  555.07   46.65   1
   4   6  -2  552.25   54.05   1
   4   6  -2  613.55   65.89   1
   4   6  -1    8.35   45.95   1
   4   6  -1  -14.82   29.26   1
   4   6   0  308.70   35.49   1
   4   6   0  170.82   62.21   1
   4   6   1  179.56   26.53   1
   4   6   2   62.09   22.22   1
   4   6   3  596.34   45.91   1
   4   6   3  473.93   48.33   1
   4   6   4   20.70   19.93   1
   4   7  -8   -2.86   14.37   1
   4   7  -8   -1.23   16.52   1
   4   7  -8   -8.07   22.44   1
   4   7  -8   28.94   20.34   1
   4   7  -7    8.70   20.36   1
   4   7  -7   34.22   19.31   1
   4   7  -6   10.05   18.45   1
   4   7  -6   -7.56   21.28   1
   4   7  -5  784.56   65.54   1
   4   7  -5  854.98   64.91   1
   4   7  -5  913.25   68.30   1
   4   7  -5  912.64   87.00   1
   4   7  -4    5.24   15.34   1
   4   7  -4   17.39   37.53   1
   4   7  -4   30.25   20.79   1
   4   7  -3  668.22   66.69   1
   4   7  -3  575.04   56.59   1
   4   7  -3  614.05   50.06   1
   4   7  -2  185.23   34.84   1
   4   7  -2  206.78   22.15   1
   4   7  -2  226.20   46.02   1
   4   7  -1  -21.44   24.35   1
   4   7   0   21.81   25.31   1
   4   7   1  180.10   28.72   1
   4   7   2   -2.46   21.60   1
   4   7   3  309.06   32.35   1
   4   7   3  335.26   34.42   1
   4   7   4   23.04   19.01   1
   4   8  -7    6.40   15.64   1
   4   8  -7    3.88   13.99   1
   4   8  -7  -11.97   16.82   1
   4   8  -6   52.85   17.45   1
   4   8  -6   49.70   18.05   1
   4   8  -6   19.80   21.27   1
   4   8  -6   -6.86   29.19   1
   4   8  -5  125.89   21.32   1
   4   8  -5  150.55   24.05   1
   4   8  -5  126.11   35.94   1
   4   8  -4   14.75   15.97   1
   4   8  -4   -1.02   20.95   1
   4   8  -4   16.73   26.26   1
   4   8  -3  556.96   46.73   1
   4   8  -3  522.12   53.47   1
   4   8  -2  737.12   63.53   1
   4   8  -1  132.71   26.27   1
   4   8   0   34.81   25.72   1
   4   8   1   -5.11   19.62   1
   4   9  -6  129.50   20.94   1
   4   9  -5   15.29   14.62   1
   4   9  -4   35.28   15.92   1
   4   9  -4   37.33   27.01   1
   4   9  -3  209.96   26.08   1
   4   9  -3  139.95   32.65   1
   4   9  -3  157.50   19.83   1
   4   9  -2 1168.96   80.69   1
   4   9  -2  900.60   81.03   1
   4   9  -1   10.50   22.49   1
   5 -11  -2    9.00   18.12   1
   5 -11  -1   75.86   22.47   1
   5 -11   0  -24.40   26.38   1
   5 -11   0   -2.50   20.10   1
   5 -10  -5   32.38   18.55   1
   5 -10  -4   24.60   19.94   1
   5 -10  -3  167.44   24.33   1
   5 -10  -2  135.96   23.55   1
   5 -10  -1   24.30   21.79   1
   5 -10   0    9.30   20.07   1
   5 -10   1  326.52   35.78   1
   5 -10   2   80.82   19.42   1
   5 -10   2   82.08   20.48   1
   5 -10   2   61.31   13.94   1
   5 -10   2   71.06   17.03   1
   5 -10   3  288.32   28.87   1
   5 -10   3  360.24   33.40   1
   5  -9  -6  164.61   25.40   1
   5  -9  -5   -9.24   19.40   1
   5  -9  -4    2.43   19.94   1
   5  -9  -3  146.17   24.91   1
   5  -9  -2   32.26   19.77   1
   5  -9  -1   -8.07   20.22   1
   5  -9   0   -3.24   15.91   1
   5  -9   0   16.16   20.10   1
   5  -9   0    4.12   13.64   1
   5  -9   1   -9.61   13.89   1
   5  -9   1    8.24   15.96   1
   5  -9   1   37.21   20.37   1
   5  -9   2   33.18   16.01   1
   5  -9   3    1.69   15.00   1
   5  -9   4    7.56   16.89   1
   5  -8  -8  102.01   30.30   1
   5  -8  -7    7.62   18.27   1
   5  -8  -7   17.14   30.39   1
   5  -8  -6   -2.28   30.11   1
   5  -8  -6   22.94   19.35   1
   5  -8  -5  132.25   22.31   1
   5  -8  -4  -16.89   18.50   1
   5  -8  -3  150.31   22.31   1
   5  -8  -2   49.14   18.37   1
   5  -8  -1   35.05   19.65   1
   5  -8  -1   21.90   12.45   1
   5  -8   0  157.75   20.10   1
   5  -8   0  169.52   22.92   1
   5  -8   0  192.38   24.97   1
   5  -8   1   14.36   20.62   1
   5  -8   2   96.04   16.86   1
   5  -8   2  149.57   22.50   1
   5  -8   2   98.80   19.48   1
   5  -8   3    8.76   17.76   1
   5  -8   4   19.62   17.54   1
   5  -7  -8   10.37   17.65   1
   5  -7  -8   33.64   28.77   1
   5  -7  -7  588.06   55.77   1
   5  -7  -7  570.25   47.28   1
   5  -7  -6  -22.18   17.90   1
   5  -7  -6   23.23   28.44   1
   5  -7  -5   86.30   18.95   1
   5  -7  -5   66.59   29.54   1
   5  -7  -4   53.58   18.15   1
   5  -7  -4   64.64   16.88   1
   5  -7  -3   23.14   16.83   1
   5  -7  -3   26.32   20.21   1
   5  -7  -2  656.38   58.41   1
   5  -7  -2  709.69   58.61   1
   5  -7  -2  629.51   58.21   1
   5  -7  -1   49.42   19.68   1
   5  -7  -1  -40.70   23.99   1
   5  -7  -1   -6.05   13.83   1
   5  -7   0 1085.70   73.81   1
   5  -7   0  851.47   75.87   1
   5  -7   0 1001.09   77.20   1
   5  -7   0  921.12   84.98   1
   5  -7   1  105.47   19.51   1
   5  -7   1  140.90   19.47   1
   5  -7   1   98.01   24.75   1
   5  -7   1  141.13   22.57   1
   5  -7   2   80.82   19.06   1
   5  -7   2   68.89   17.93   1
   5  -7   2   84.64   23.55   1
   5  -7   3   -8.01   15.68   1
   5  -7   3   10.76   19.16   1
   5  -7   4  433.06   37.04   1
   5  -7   5   14.75   19.35   1
   5  -6  -9  137.59   30.97   1
   5  -6  -9  129.96   19.38   1
   5  -6  -8  357.97   35.95   1
   5  -6  -8  391.64   42.35   1
   5  -6  -7  377.52   39.64   1
   5  -6  -7  314.00   31.19   1
   5  -6  -6   35.05   16.46   1
   5  -6  -6   36.97   29.18   1
   5  -6  -6    6.97   19.69   1
   5  -6  -5   -2.25   27.54   1
   5  -6  -5   28.62   17.76   1
   5  -6  -5  -12.32   19.87   1
   5  -6  -4   15.68   25.03   1
   5  -6  -4   50.98   21.28   1
   5  -6  -4    8.58   17.29   1
   5  -6  -3   17.06   17.43   1
   5  -6  -3    8.70    7.91   1
   5  -6  -3   -6.66   21.52   1
   5  -6  -2  295.50   30.94   1
   5  -6  -2  400.40   44.82   1
   5  -6  -2  336.72   35.97   1
   5  -6  -1   -0.36   23.06   1
   5  -6  -1   14.67   19.76   1
   5  -6  -1   13.84   16.96   1
   5  -6  -1   15.21   13.96   1
   5  -6   0 1679.36  138.51   1
   5  -6   0 1773.25  133.07   1
   5  -6   0 2081.18  139.60   1
   5  -6   0 1925.45  151.82   1
   5  -6   1  292.07   29.05   1
   5  -6   1  318.98   31.43   1
   5  -6   1  276.56   31.60   1
   5  -6   1  333.79   30.69   1
   5  -6   2   53.00   19.66   1
   5  -6   2   35.52   20.03   1
   5  -6   3   81.18   17.12   1
   5  -6   3  109.41   21.97   1
   5  -6   3  113.64   21.96   1
   5  -6   4   94.09   22.31   1
   5  -6   4  114.92   21.87   1
   5  -6   5   -8.24   19.46   1
   5  -5 -10  -12.11   25.54   1
   5  -5  -9   35.88   24.80   1
   5  -5  -8  470.89   47.31   1
   5  -5  -7  457.96   35.10   1
   5  -5  -7  351.94   33.77   1
   5  -5  -7  396.01   41.39   1
   5  -5  -6   25.81   15.85   1
   5  -5  -6   -5.24   29.13   1
   5  -5  -5   52.42   18.10   1
   5  -5  -5   27.35   27.09   1
   5  -5  -5   28.73   21.44   1
   5  -5  -4   91.20   16.62   1
   5  -5  -4   82.45   27.60   1
   5  -5  -3  -26.32   22.88   1
   5  -5  -3    4.16   14.20   1
   5  -5  -2  196.00   24.08   1
   5  -5  -2  249.32   24.32   1
   5  -5  -2  209.96   24.34   1
   5  -5  -1   91.01   22.71   1
   5  -5  -1   35.16   21.23   1
   5  -5  -1   75.69   15.83   1
   5  -5  -1   47.75   15.48   1
   5  -5   0 1671.17  128.36   1
   5  -5   0 1645.11  126.55   1
   5  -5   0 1914.06  131.25   1
   5  -5   0 1837.84  148.33   1
   5  -5   1  983.45   94.08   1
   5  -5   1  940.65   81.58   1
   5  -5   1 1098.26   75.56   1
   5  -5   2   49.42   20.67   1
   5  -5   2    7.13   21.20   1
   5  -5   2   35.52   23.01   1
   5  -5   3  317.91   32.81   1
   5  -5   3  280.56   37.52   1
   5  -5   3  364.43   31.31   1
   5  -5   4  186.60   25.41   1
   5  -5   4  183.06   27.06   1
   5  -5   4  193.21   22.52   1
   5  -5   5   55.35   17.71   1
   5  -5   5   60.22   16.14   1
   5  -5   6  143.52   24.92   1
   5  -4 -10   27.56   22.89   1
   5  -4 -10   55.50   16.09   1
   5  -4  -8   57.00   15.55   1
   5  -4  -7  821.40   68.21   1
   5  -4  -7  873.79   64.44   1
   5  -4  -6  156.00   23.23   1
   5  -4  -6  203.06   29.64   1
   5  -4  -6  163.58   20.21   1
   5  -4  -5  562.16   45.52   1
   5  -4  -5  410.87   45.40   1
   5  -4  -5  431.81   40.73   1
   5  -4  -4  102.62   21.48   1
   5  -4  -4   75.00   23.73   1
   5  -4  -4   71.40    9.97   1
   5  -4  -4  102.82   13.99   1
   5  -4  -3   23.81   18.45   1
   5  -4  -3   40.58   16.94   1
   5  -4  -3   31.58   11.80   1
   5  -4  -2  228.31   29.31   1
   5  -4  -2  195.16   26.54   1
   5  -4  -2  232.56   27.76   1
   5  -4  -2  238.08   26.85   1
   5  -4  -1  102.01   22.22   1
   5  -4  -1   74.30   17.41   1
   5  -4  -1   77.62   22.38   1
   5  -4   0  100.40   24.05   1
   5  -4   0   39.56   21.26   1
   5  -4   0   65.12   19.05   1
   5  -4   1  107.33   21.76   1
   5  -4   1   71.91   22.05   1
   5  -4   1   48.58   26.76   1
   5  -4   2   86.68   29.05   1
   5  -4   3  565.96   60.90   1
   5  -4   3  596.34   49.33   1
   5  -4   3  562.64   57.40   1
   5  -4   4   -7.78   20.26   1
   5  -4   4    6.20   25.80   1
   5  -4   4   11.29   15.72   1
   5  -4   5   -4.67   22.64   1
   5  -4   5    6.81   14.15   1
   5  -4   6  139.71   19.86   1
   5  -4   6  170.30   18.79   1
   5  -3 -11   98.41   18.05   1
   5  -3 -10   88.74   19.03   1
   5  -3 -10   68.72   10.11   1
   5  -3 -10  122.99   22.85   1
   5  -3  -9   -2.56   11.04   1
   5  -3  -9    3.57   20.19   1
   5  -3  -9  -14.36    8.11   1
   5  -3  -9  -15.13   19.06   1
   5  -3  -8  288.66   32.62   1
   5  -3  -8  266.02   36.21   1
   5  -3  -8  326.16   32.87   1
   5  -3  -8  330.88   27.65   1
   5  -3  -7    8.47   21.83   1
   5  -3  -7  -28.30   15.64   1
   5  -3  -7  -20.98   21.62   1
   5  -3  -7   -9.80    7.70   1
   5  -3  -6   13.25    7.86   1
   5  -3  -6   -1.49   17.37   1
   5  -3  -5  525.78   55.49   1
   5  -3  -5  685.39   49.22   1
   5  -3  -5  575.52   53.26   1
   5  -3  -4  535.00   52.27   1
   5  -3  -4  512.57   51.17   1
   5  -3  -4  593.41   45.80   1
   5  -3  -4  508.50   44.20   1
   5  -3  -3  216.38   19.71   1
   5  -3  -3  170.04   23.21   1
   5  -3  -3  186.05   27.28   1
   5  -3  -3  166.41   19.09   1
   5  -3  -3  168.22   15.82   1
   5  -3  -2  250.59   24.06   1
   5  -3  -2  205.35   22.35   1
   5  -3  -2  228.92   28.44   1
   5  -3  -2  186.05   21.01   1
   5  -3  -1 1669.54  114.41   1
   5  -3  -1 1744.73  112.78   1
   5  -3  -1 1720.59  130.25   1
   5  -3   0  185.78   22.90   1
   5  -3   0  169.52   22.13   1
   5  -3   0  197.96   30.11   1
   5  -3   1  610.58   60.29   1
   5  -3   1  637.56   48.48   1
   5  -3   1  603.19   49.61   1
   5  -3   2  104.04   33.46   1
   5  -3   2   52.42   25.20   1
   5  -3   2   90.06   18.98   1
   5  -3   3  595.85   68.35   1
   5  -3   3  659.46   91.93   1
   5  -3   3  754.05   54.92   1
   5  -3   4   45.29   14.27   1
   5  -3   4   12.46   21.25   1
   5  -3   5  212.58   23.04   1
   5  -3   5  178.49   24.05   1
   5  -3   6  183.60   24.12   1
   5  -3   6  171.87   17.57   1
   5  -2 -11    4.20   15.78   1
   5  -2 -11   -7.40   20.89   1
   5  -2 -10  280.56   28.14   1
   5  -2 -10  207.94   21.05   1
   5  -2 -10  237.78   20.05   1
   5  -2  -9   66.59   20.56   1
   5  -2  -9   53.29   11.39   1
   5  -2  -8  482.24   45.24   1
   5  -2  -8  465.70   44.45   1
   5  -2  -8  615.54   45.15   1
   5  -2  -8  523.49   44.84   1
   5  -2  -7   71.23   13.34   1
   5  -2  -7   84.64   24.10   1
   5  -2  -7   99.60   22.16   1
   5  -2  -7   81.90   15.57   1
   5  -2  -6   74.48   19.33   1
   5  -2  -6  108.16   17.26   1
   5  -2  -6  122.77   27.92   1
   5  -2  -6   83.91   12.09   1
   5  -2  -5  999.19   75.86   1
   5  -2  -5 1028.48   87.87   1
   5  -2  -5 1020.16   81.13   1
   5  -2  -4  239.01   23.50   1
   5  -2  -4  273.24   30.75   1
   5  -2  -4  222.31   23.56   1
   5  -2  -3   71.91   11.53   1
   5  -2  -3  104.45   16.97   1
   5  -2  -3   91.97   23.98   1
   5  -2  -2   -0.28   16.77   1
   5  -2  -2  -13.03   14.51   1
   5  -2  -2  -32.83   23.15   1
   5  -2  -1 1016.97   80.36   1
   5  -2  -1 1068.64   74.53   1
   5  -2  -1 1154.64   86.99   1
   5  -2   0  768.95   68.77   1
   5  -2   0  770.62   58.85   1
   5  -2   0  859.66   58.05   1
   5  -2   1 1006.79   88.84   1
   5  -2   1  953.57   80.91   1
   5  -2   1 1104.90   72.46   1
   5  -2   2  116.64   25.49   1
   5  -2   2  104.65   18.21   1
   5  -2   2   89.49   37.27   1
   5  -2   3  725.22   52.24   1
   5  -2   3  633.53   62.42   1
   5  -2   3  772.28   76.14   1
   5  -2   4  466.99   51.43   1
   5  -2   4  536.39   44.47   1
   5  -2   4  494.17   40.46   1
   5  -2   5  229.22   20.29   1
   5  -2   5  208.80   26.88   1
   5  -2   6  415.75   30.99   1
   5  -2   6  359.86   36.04   1
   5  -1 -11  127.01   16.00   1
   5  -1 -11  145.93   24.40   1
   5  -1 -11  139.24   17.94   1
   5  -1 -10    2.46   20.28   1
   5  -1 -10   -4.97   19.13   1
   5  -1 -10    2.79   14.36   1
   5  -1 -10   -4.12   10.92   1
   5  -1  -9   63.36   21.17   1
   5  -1  -9  100.80   21.08   1
   5  -1  -9   65.45   13.91   1
   5  -1  -9   62.57   11.71   1
   5  -1  -9   75.00   12.64   1
   5  -1  -8  197.12   23.87   1
   5  -1  -8  154.26   26.58   1
   5  -1  -8  176.62   18.34   1
   5  -1  -8  186.05   18.55   1
   5  -1  -8  134.56   15.78   1
   5  -1  -7  125.66   26.23   1
   5  -1  -7  144.72   25.50   1
   5  -1  -7  150.06   21.56   1
   5  -1  -7  150.80   18.17   1
   5  -1  -7  134.56   14.85   1
   5  -1  -7  137.36   17.11   1
   5  -1  -6  326.52   31.44   1
   5  -1  -6  431.39   33.23   1
   5  -1  -6  413.31   39.44   1
   5  -1  -6  410.87   31.22   1
   5  -1  -6  331.60   36.42   1
   5  -1  -6  384.16   32.54   1
   5  -1  -5  441.42   34.88   1
   5  -1  -5  499.08   43.34   1
   5  -1  -5  379.08   39.72   1
   5  -1  -5  451.14   36.11   1
   5  -1  -4  -15.13   23.34   1
   5  -1  -4   11.70    9.23   1
   5  -1  -4    9.06   14.15   1
   5  -1  -3 1202.70   98.49   1
   5  -1  -3 1042.64   88.47   1
   5  -1  -3 1303.21   85.20   1
   5  -1  -2   13.10   24.40   1
   5  -1  -2   -9.42   10.93   1
   5  -1  -1 2645.04  183.09   1
   5  -1  -1 2674.96  181.02   1
   5  -1   0  949.87   69.65   1
   5  -1   0  987.22   84.21   1
   5  -1   0  882.68   70.71   1
   5  -1   1  151.78   40.16   1
   5  -1   1   82.81   17.65   1
   5  -1   2   20.43   38.60   1
   5  -1   2   39.94   18.08   1
   5  -1   3    0.52   24.77   1
   5  -1   3   11.56   15.91   1
   5  -1   4   62.88   22.36   1
   5  -1   4   92.54   37.52   1
   5  -1   4   65.77   14.27   1
   5  -1   5   41.22   23.37   1
   5  -1   5   43.03   11.81   1
   5  -1   6   72.93   18.28   1
   5  -1   6   73.27   11.98   1
   5   0 -11   21.44   10.56   1
   5   0 -11   22.75   20.51   1
   5   0 -10  344.10   28.94   1
   5   0 -10  320.77   34.03   1
   5   0 -10  351.19   26.61   1
   5   0 -10  326.52   34.33   1
   5   0 -10  315.42   33.03   1
   5   0 -10  382.59   30.12   1
   5   0  -9   45.43   18.33   1
   5   0  -9   75.86   20.38   1
   5   0  -9   32.49   12.31   1
   5   0  -9   54.32   20.49   1
   5   0  -9   50.41   12.21   1
   5   0  -8  316.48   27.04   1
   5   0  -8  327.25   26.77   1
   5   0  -8  341.14   35.83   1
   5   0  -8  332.33   33.54   1
   5   0  -8  335.99   28.96   1
   5   0  -8  338.56   32.38   1
   5   0  -7  451.14   36.53   1
   5   0  -7  470.46   40.78   1
   5   0  -7  548.03   44.95   1
   5   0  -7  508.05   44.63   1
   5   0  -7  417.38   36.37   1
   5   0  -7  451.99   38.27   1
   5   0  -6  194.60   17.86   1
   5   0  -6  232.87   22.28   1
   5   0  -6  234.40   21.43   1
   5   0  -6  221.12   30.63   1
   5   0  -6  214.62   22.85   1
   5   0  -6  203.06   25.36   1
   5   0  -5   45.97   24.81   1
   5   0  -5   88.55   24.65   1
   5   0  -5   36.36   14.83   1
   5   0  -5   48.86   12.30   1
   5   0  -4  497.74   37.48   1
   5   0  -4  474.80   45.32   1
   5   0  -4  499.08   44.23   1
   5   0  -4  414.53   36.24   1
   5   0  -3  141.61   18.09   1
   5   0  -2   71.40   16.22   1
   5   0  -2   19.27   30.29   1
   5   0  -2   34.69    9.07   1
   5   0  -1 1394.28   99.32   1
   5   0  -1 1360.87  117.31   1
   5   0   0  770.62   64.96   1
   5   0   0  719.31   71.88   1
   5   0   0  901.80   61.86   1
   5   0   1   48.30   67.00   1
   5   0   1   37.33   10.88   1
   5   0   2  730.08   90.25   1
   5   0   2  854.39   59.04   1
   5   0   2  763.42   62.44   1
   5   0   2  676.00   62.92   1
   5   0   3  253.13   26.41   1
   5   0   3  273.57   29.11   1
   5   0   3  288.32   25.81   1
   5   0   3  358.34   48.46   1
   5   0   4  -11.02   12.55   1
   5   0   4   -9.36   38.19   1
   5   0   5  317.20   24.93   1
   5   0   5  302.41   32.35   1
   5   0   6   59.29   22.64   1
   5   0   6  104.65   12.07   1
   5   1 -11  -31.02   15.37   1
   5   1 -11  -21.72   19.20   1
   5   1 -11   -9.49   11.46   1
   5   1 -11   -6.30   15.16   1
   5   1 -11  -22.85   20.84   1
   5   1 -10   20.16   16.70   1
   5   1 -10  -36.36   17.00   1
   5   1 -10   11.29    9.07   1
   5   1 -10    2.43   10.80   1
   5   1 -10   -9.42   19.89   1
   5   1  -9   10.56    9.23   1
   5   1  -9    6.66   20.12   1
   5   1  -9   -4.33   17.56   1
   5   1  -9  -14.21   16.81   1
   5   1  -9    6.86   12.42   1
   5   1  -9   -0.40   22.19   1
   5   1  -8  170.30   27.67   1
   5   1  -8  161.54   24.40   1
   5   1  -8  165.64   22.91   1
   5   1  -8  145.68   21.00   1
   5   1  -8  156.50   16.76   1
   5   1  -8  178.22   16.82   1
   5   1  -7  225.60   30.04   1
   5   1  -7  179.56   20.64   1
   5   1  -7  199.09   23.14   1
   5   1  -7  165.64   28.31   1
   5   1  -7  202.49   19.07   1
   5   1  -7  201.92   24.44   1
   5   1  -6  400.40   33.22   1
   5   1  -6  476.99   35.82   1
   5   1  -6  457.53   43.21   1
   5   1  -6  377.14   37.67   1
   5   1  -6  439.74   36.49   1
   5   1  -6  414.12   34.19   1
   5   1  -5  804.86   79.44   1
   5   1  -5 1011.24   69.32   1
   5   1  -5  900.60   72.02   1
   5   1  -5 1121.58   77.70   1
   5   1  -4  328.70   38.44   1
   5   1  -4  310.82   36.67   1
   5   1  -4  397.20   31.09   1
   5   1  -3    8.18   31.97   1
   5   1  -3   33.06   14.72   1
   5   1  -2  796.37   76.19   1
   5   1  -2  909.02   80.80   1
   5   1  -2  990.99   66.11   1
   5   1  -1  746.93   57.39   1
   5   1  -1  804.29   76.00   1
   5   1  -1  725.22   64.63   1
   5   1   0  640.09   66.79   1
   5   1   0  532.69   51.24   1
   5   1   0  656.38   47.14   1
   5   1   1  620.51   60.28   1
   5   1   1  756.25  101.75   1
   5   1   1  652.80   52.63   1
   5   1   1  748.57   56.91   1
   5   1   2 1953.64  155.58   1
   5   1   2 2025.90  155.73   1
   5   1   2 2190.24  147.89   1
   5   1   2 2110.48  200.30   1
   5   1   3  484.44   35.22   1
   5   1   3  333.43   56.24   1
   5   1   3  407.23   35.52   1
   5   1   3  398.40   38.32   1
   5   1   4   14.75   14.44   1
   5   1   4   12.67   37.38   1
   5   1   4   11.22   15.74   1
   5   1   4   -1.90   15.54   1
   5   1   5  238.08   26.85   1
   5   1   5  278.22   27.69   1
   5   1   5  269.94   23.66   1
   5   1   6   20.16   22.00   1
   5   1   6    9.73   15.16   1
   5   2 -11  101.81   21.79   1
   5   2 -11   87.98   13.69   1
   5   2 -11   92.16   17.66   1
   5   2 -11   84.46   18.93   1
   5   2 -10  190.16   24.55   1
   5   2 -10  196.00   19.88   1
   5   2 -10  209.67   22.88   1
   5   2 -10  208.51   27.15   1
   5   2  -9  -18.06   19.89   1
   5   2  -9   24.30   12.13   1
   5   2  -9   -5.43   17.85   1
   5   2  -9  -13.69   22.87   1
   5   2  -8  460.96   39.93   1
   5   2  -8  541.96   42.37   1
   5   2  -8  518.93   41.00   1
   5   2  -8  494.17   44.02   1
   5   2  -8  579.36   48.14   1
   5   2  -8  576.00   48.48   1
   5   2  -7   26.73   24.71   1
   5   2  -7   19.01   16.66   1
   5   2  -7  -19.27   24.14   1
   5   2  -7    3.80   11.27   1
   5   2  -7  -12.82   13.03   1
   5   2  -6  378.69   38.14   1
   5   2  -6  369.02   29.20   1
   5   2  -6  347.45   40.26   1
   5   2  -6  321.13   35.12   1
   5   2  -6  358.34   30.67   1
   5   2  -5  292.07   30.08   1
   5   2  -5  299.98   25.29   1
   5   2  -5  323.28   38.12   1
   5   2  -4  146.41   26.62   1
   5   2  -4  104.24   36.55   1
   5   2  -3   46.10   39.11   1
   5   2  -2  661.52   68.42   1
   5   2  -2  566.92   52.86   1
   5   2  -1   45.29   18.71   1
   5   2   0  846.23   78.54   1
   5   2   0  683.30   62.74   1
   5   2   1  -23.52   46.66   1
   5   2   1   21.72   16.96   1
   5   2   2 2478.05  243.92   1
   5   2   2 2543.18  175.50   1
   5   2   2 2588.77  175.03   1
   5   2   2 2355.16  183.44   1
   5   2   3  252.49   28.60   1
   5   2   3  254.40   25.20   1
   5   2   3  282.58   46.73   1
   5   2   3  306.60   28.02   1
   5   2   4  363.28   30.11   1
   5   2   4  369.41   34.98   1
   5   2   4  344.84   32.68   1
   5   2   5   18.40   21.45   1
   5   2   5    5.48   12.07   1
   5   2   5  -17.31   16.97   1
   5   2   6   40.96   11.26   1
   5   3 -11  123.43   14.89   1
   5   3 -11   82.81   19.11   1
   5   3 -11  134.33   21.09   1
   5   3 -11   99.80   22.98   1
   5   3 -10   57.61   19.43   1
   5   3 -10   33.18   19.47   1
   5   3 -10   64.96   18.54   1
   5   3 -10   47.06   21.81   1
   5   3 -10   73.27   13.70   1
   5   3 -10   71.40   11.32   1
   5   3  -9  154.01   24.08   1
   5   3  -9  152.77   18.29   1
   5   3  -9  130.87   23.57   1
   5   3  -9  179.56   25.46   1
   5   3  -9  190.44   25.39   1
   5   3  -8   31.92   23.28   1
   5   3  -8   22.75   12.59   1
   5   3  -8   11.29   18.82   1
   5   3  -8    4.16   11.95   1
   5   3  -8   13.18   19.02   1
   5   3  -7  -17.56   19.94   1
   5   3  -7   10.69   12.30   1
   5   3  -7  -12.53   24.50   1
   5   3  -7   37.45   23.75   1
   5   3  -6  355.70   42.62   1
   5   3  -6  315.06   35.15   1
   5   3  -6  316.84   28.84   1
   5   3  -6  388.48   33.11   1
   5   3  -5  326.89   43.03   1
   5   3  -5  267.98   26.19   1
   5   3  -5  332.33   35.00   1
   5   3  -4  175.83   42.17   1
   5   3  -4  172.40   27.84   1
   5   3  -3  -47.61   45.40   1
   5   3  -2   38.56   50.30   1
   5   3  -1   90.06   47.64   1
   5   3  -1  121.88   26.72   1
   5   3   0  328.33   54.36   1
   5   3   0  281.23   32.53   1
   5   3   1   34.46   19.37   1
   5   3   2  414.94   55.41   1
   5   3   2  325.08   33.18   1
   5   3   2  343.73   35.60   1
   5   3   3   27.46   18.03   1
   5   3   3   41.73   16.28   1
   5   3   3   35.28   42.89   1
   5   3   3   19.36   21.74   1
   5   3   4  267.00   28.76   1
   5   3   4  262.44   28.19   1
   5   3   4  293.09   24.65   1
   5   3   5   11.63   12.89   1
   5   3   5  -29.38   20.60   1
   5   3   5   20.25   15.48   1
   5   3   6  -14.21   19.30   1
   5   3   6   11.36   16.31   1
   5   4 -11   64.48   12.69   1
   5   4 -11   65.12   22.11   1
   5   4 -10  240.87   27.00   1
   5   4 -10  147.38   16.51   1
   5   4 -10  193.21   20.02   1
   5   4 -10  183.87   23.59   1
   5   4 -10  186.87   25.97   1
   5   4  -9  425.18   41.24   1
   5   4  -9  450.71   35.24   1
   5   4  -9  408.44   37.99   1
   5   4  -9  448.17   41.07   1
   5   4  -9  426.42   38.41   1
   5   4  -9  357.21   32.89   1
   5   4  -8   49.98   22.34   1
   5   4  -8   -0.94   13.33   1
   5   4  -8  -11.56   19.86   1
   5   4  -8   58.83   20.40   1
   5   4  -7  755.70   56.63   1
   5   4  -7  740.38   66.94   1
   5   4  -7  715.03   56.69   1
   5   4  -7  730.08   59.98   1
   5   4  -6  615.04   51.09   1
   5   4  -6  651.78   52.59   1
   5   4  -6  611.08   64.27   1
   5   4  -6  731.70   57.35   1
   5   4  -5  589.52   62.16   1
   5   4  -5  583.22   49.27   1
   5   4  -5  613.55   45.58   1
   5   4  -4 2297.28  185.01   1
   5   4  -4 2316.50  170.38   1
   5   4  -3  416.57   42.45   1
   5   4  -3  381.42   58.59   1
   5   4  -3  412.09   39.38   1
   5   4  -2  371.72   36.63   1
   5   4  -2  357.59   57.49   1
   5   4   0  513.02   45.30   1
   5   4   0  506.70   63.48   1
   5   4   1   54.76   47.21   1
   5   4   1  158.51   24.17   1
   5   4   2    1.66   22.73   1
   5   4   2   12.18   42.44   1
   5   4   2    5.71   17.02   1
   5   4   3   22.85   18.26   1
   5   4   3   16.97   21.59   1
   5   4   4   29.81   18.78   1
   5   4   4   -3.06   14.14   1
   5   4   5  219.93   27.88   1
   5   4   5  172.40   24.95   1
   5   4   5  249.01   22.72   1
   5   5 -10  172.66   25.49   1
   5   5 -10  136.66   23.38   1
   5   5 -10  137.12   29.74   1
   5   5 -10  139.71   16.78   1
   5   5 -10  107.95   14.96   1
   5   5  -9   97.61   15.41   1
   5   5  -9  105.27   22.78   1
   5   5  -9   65.45   23.62   1
   5   5  -8    3.61   19.11   1
   5   5  -8   10.24   27.01   1
   5   5  -8   -4.00   21.52   1
   5   5  -8  -15.29   14.00   1
   5   5  -7  147.62   24.30   1
   5   5  -7  143.52   25.64   1
   5   5  -7  170.82   19.87   1
   5   5  -6  110.04   23.08   1
   5   5  -6  102.82   35.69   1
   5   5  -6  104.65   23.73   1
   5   5  -6  131.79   18.60   1
   5   5  -5  305.20   45.07   1
   5   5  -5  259.53   30.93   1
   5   5  -4  262.76   29.18   1
   5   5  -4  235.32   48.17   1
   5   5  -3   85.93   22.43   1
   5   5  -3  106.50   29.93   1
   5   5  -3  141.61   46.17   1
   5   5  -2  369.02   53.02   1
   5   5  -2  341.88   36.98   1
   5   5  -1  650.76   66.84   1
   5   5  -1  731.16   60.03   1
   5   5   0   -1.00   43.90   1
   5   5   0   16.48   23.71   1
   5   5   1  631.01   73.35   1
   5   5   1  697.49   54.93   1
   5   5   2   83.17   22.07   1
   5   5   3   52.71   23.23   1
   5   5   4  130.19   23.05   1
   5   5   4  126.56   21.38   1
   5   6  -9  628.00   48.12   1
   5   6  -9  537.78   52.87   1
   5   6  -9  663.58   57.19   1
   5   6  -9  575.04   50.36   1
   5   6  -8  115.13   29.61   1
   5   6  -8  143.52   18.69   1
   5   6  -8  139.71   23.40   1
   5   6  -8  120.34   24.35   1
   5   6  -7 1107.56   85.86   1
   5   6  -7  956.66   72.99   1
   5   6  -7  938.20   77.19   1
   5   6  -7  854.98   70.76   1
   5   6  -6   75.86   22.30   1
   5   6  -6   78.85   21.13   1
   5   6  -6  119.90   18.18   1
   5   6  -6  134.56   36.66   1
   5   6  -5  805.99   68.14   1
   5   6  -5  772.84   64.50   1
   5   6  -5  830.59   80.12   1
   5   6  -4   65.12   28.89   1
   5   6  -3  239.63   35.91   1
   5   6  -3  271.59   47.46   1
   5   6  -3  309.41   28.85   1
   5   6  -2   79.92   28.61   1
   5   6  -1  434.31   57.10   1
   5   6  -1  374.04   39.84   1
   5   6   0   10.18   46.51   1
   5   6   0  -38.19   21.75   1
   5   6   1  295.84   34.40   1
   5   6   2  147.38   24.52   1
   5   6   3   64.16   20.03   1
   5   6   3   80.64   20.65   1
   5   7  -9  -33.99   18.54   1
   5   7  -9   -8.82   12.24   1
   5   7  -8   47.20   15.11   1
   5   7  -8   84.46   30.51   1
   5   7  -7   -4.58   29.79   1
   5   7  -7  -25.40   20.26   1
   5   7  -7   -7.02   14.68   1
   5   7  -7   -3.88   20.33   1
   5   7  -6   -0.64   18.34   1
   5   7  -6   19.71   21.13   1
   5   7  -6    9.42   34.57   1
   5   7  -5   62.73   19.64   1
   5   7  -5   65.45   35.92   1
   5   7  -5   31.36   22.74   1
   5   7  -4    8.29   39.11   1
   5   7  -4   31.14   28.90   1
   5   7  -4   18.06   17.93   1
   5   7  -3  286.62   47.40   1
   5   7  -2  110.25   42.63   1
   5   7  -1  196.56   31.12   1
   5   7  -1   72.76   45.04   1
   5   7   0   58.98   24.27   1
   5   7   1  157.00   24.56   1
   5   7   2   -2.10   18.88   1
   5   8  -7  -37.45   20.93   1
   5   8  -7   10.50   15.16   1
   5   8  -7  -39.94   18.71   1
   5   8  -6   87.61   22.65   1
   5   8  -6  124.10   34.09   1
   5   8  -6  118.16   20.44   1
   5   8  -5   27.98   27.51   1
   5   8  -5   -2.82   18.14   1
   5   8  -4   92.54   18.09   1
   5   8  -4   98.80   30.42   1
   5   8  -4  122.99   23.07   1
   5   8  -3  207.65   31.41   1
   5   8  -3   75.17   43.52   1
   5   8  -1  143.04   28.46   1
   5   9  -5  -20.61   16.25   1
   5   9  -5  -29.48   21.07   1
   5   9  -4  -45.97   21.42   1
   5   9  -4   18.40   14.93   1
   5   9  -3  -37.09   21.32   1
   6 -10  -3    2.07   18.26   1
   6 -10  -2    0.06   17.78   1
   6 -10  -1   24.21   18.50   1
   6 -10  -1  -17.47   18.39   1
   6 -10   0    2.31   13.19   1
   6 -10   0    0.53   16.22   1
   6 -10   0   38.56   18.75   1
   6 -10   1   98.80   21.07   1
   6 -10   1   43.16   16.29   1
   6 -10   1   75.00   16.45   1
   6  -9  -6   92.16   18.62   1
   6  -9  -4  279.89   32.46   1
   6  -9  -3  -13.76   18.92   1
   6  -9  -2  251.54   28.23   1
   6  -9  -1  285.27   29.73   1
   6  -9  -1  255.68   25.58   1
   6  -9  -1  263.41   30.51   1
   6  -9   0  236.85   27.70   1
   6  -9   0  235.62   23.64   1
   6  -9   0  227.71   28.67   1
   6  -9   1   98.01   17.62   1
   6  -9   1   64.64   17.69   1
   6  -9   1   75.52   21.20   1
   6  -9   2    2.31   15.08   1
   6  -9   3  158.26   21.89   1
   6  -8  -7   -3.10   26.15   1
   6  -8  -7  -23.23   17.35   1
   6  -8  -5  -11.49   17.29   1
   6  -8  -4  124.10   20.72   1
   6  -8  -3   12.60   16.68   1
   6  -8  -3  -17.89   24.03   1
   6  -8  -2   41.60   12.25   1
   6  -8  -2   94.48   24.11   1
   6  -8  -2   62.73   18.06   1
   6  -8  -1  -12.74   18.35   1
   6  -8  -1   20.79   15.41   1
   6  -8  -1  -31.58   19.56   1
   6  -8  -1  -12.25   13.16   1
   6  -8   0   22.75   18.98   1
   6  -8   0    8.01   16.98   1
   6  -8   0   34.81   18.76   1
   6  -8   1   84.64   23.92   1
   6  -8   1   48.72   18.29   1
   6  -8   1   94.87   20.26   1
   6  -8   1   68.06   21.28   1
   6  -8   2  206.50   27.59   1
   6  -8   2  257.28   25.98   1
   6  -8   3   55.50   16.84   1
   6  -8   4  264.06   29.90   1
   6  -7  -8   86.12   18.56   1
   6  -7  -8  150.31   29.67   1
   6  -7  -7   -6.15   28.27   1
   6  -7  -7  -18.66   16.07   1
   6  -7  -6  246.80   29.22   1
   6  -7  -6  191.55   22.97   1
   6  -7  -6  260.50   33.25   1
   6  -7  -5   -4.49   15.26   1
   6  -7  -5   -0.40   22.00   1
   6  -7  -4  329.79   35.96   1
   6  -7  -4  355.32   35.81   1
   6  -7  -3   20.52   15.95   1
   6  -7  -3   15.60   21.33   1
   6  -7  -3   21.16    9.11   1
   6  -7  -2  221.41   24.40   1
   6  -7  -2  298.94   31.81   1
   6  -7  -2  217.56   26.85   1
   6  -7  -2  277.89   27.01   1
   6  -7  -1   31.47   18.40   1
   6  -7  -1  -22.56   15.48   1
   6  -7  -1   19.10   20.71   1
   6  -7   0   -0.72   15.28   1
   6  -7   0   -4.93   14.87   1
   6  -7   0   14.52   19.43   1
   6  -7   0   -7.40   21.11   1
   6  -7   1  271.92   30.01   1
   6  -7   1  250.27   26.58   1
   6  -7   1  306.25   31.50   1
   6  -7   2   52.71   22.51   1
   6  -7   2   23.33   17.58   1
   6  -7   2   56.70   19.43   1
   6  -7   3  246.49   28.57   1
   6  -7   3  282.24   29.90   1
   6  -7   3  248.06   30.56   1
   6  -7   4   69.39   17.83   1
   6  -6  -9    9.18   14.48   1
   6  -6  -9   21.34   24.76   1
   6  -6  -8  101.61   27.42   1
   6  -6  -7   43.16   15.24   1
   6  -6  -6   90.25   26.03   1
   6  -6  -6   53.44   19.44   1
   6  -6  -6   40.96   14.59   1
   6  -6  -5   -6.66   13.47   1
   6  -6  -5   11.90   23.53   1
   6  -6  -5    0.48   19.76   1
   6  -6  -4  163.07   26.56   1
   6  -6  -4  162.56   20.40   1
   6  -6  -3  102.21   24.67   1
   6  -6  -3   90.25   14.06   1
   6  -6  -2    4.37   14.42   1
   6  -6  -2   13.10   23.10   1
   6  -6  -2    6.60   12.28   1
   6  -6  -2    4.93   21.76   1
   6  -6  -1  337.09   34.88   1
   6  -6  -1  390.06   33.58   1
   6  -6  -1  411.28   37.32   1
   6  -6   0   10.43   16.54   1
   6  -6   0   12.96   20.38   1
   6  -6   1  116.21   23.50   1
   6  -6   1  107.33   20.93   1
   6  -6   1  150.06   25.48   1
   6  -6   2  222.61   27.75   1
   6  -6   2  268.30   30.79   1
   6  -6   2  256.32   28.50   1
   6  -6   3  -19.18   20.76   1
   6  -6   3  -33.29   20.08   1
   6  -6   3   36.36   20.98   1
   6  -6   4  465.70   43.16   1
   6  -6   4  396.81   38.64   1
   6  -6   4  404.01   39.80   1
   6  -5 -10   13.54   14.50   1
   6  -5  -9   20.43   14.37   1
   6  -5  -9   18.49   24.68   1
   6  -5  -8  163.84   28.16   1
   6  -5  -8  117.94   17.38   1
   6  -5  -8  128.82   21.79   1
   6  -5  -7  379.86   46.39   1
   6  -5  -7  506.70   43.22   1
   6  -5  -7  443.52   37.49   1
   6  -5  -6   20.52   13.59   1
   6  -5  -6   -5.52   23.74   1
   6  -5  -6   21.25   19.64   1
   6  -5  -5  -13.03   19.57   1
   6  -5  -5    8.07   12.21   1
   6  -5  -5   17.31   24.38   1
   6  -5  -4  413.31   49.20   1
   6  -5  -4  465.70   46.61   1
   6  -5  -4  529.00   49.68   1
   6  -5  -3  152.77   27.44   1
   6  -5  -3  102.01   18.99   1
   6  -5  -3  122.99   16.64   1
   6  -5  -3  108.99   15.24   1
   6  -5  -2  110.04   15.94   1
   6  -5  -2   74.30   24.31   1
   6  -5  -2  104.45   25.75   1
   6  -5  -2   82.99   18.22   1
   6  -5  -1  326.16   36.84   1
   6  -5  -1  291.38   30.73   1
   6  -5  -1  339.66   34.28   1
   6  -5   0   56.85   17.34   1
   6  -5   0   56.40   25.23   1
   6  -5   0   89.68   19.13   1
   6  -5   1   16.81   21.48   1
   6  -5   1   43.96   19.09   1
   6  -5   2  337.82   33.08   1
   6  -5   2  354.19   41.03   1
   6  -5   2  330.51   32.36   1
   6  -5   3  -27.46   18.97   1
   6  -5   3  -21.72   27.59   1
   6  -5   3   -4.08   21.09   1
   6  -5   4  257.60   30.17   1
   6  -5   4  285.61   27.38   1
   6  -5   4  254.72   31.92   1
   6  -5   5  -44.76   21.41   1
   6  -4 -10   -6.60   21.59   1
   6  -4  -9   16.32   13.41   1
   6  -4  -9   10.96   21.85   1
   6  -4  -8  116.86   15.57   1
   6  -4  -8  114.28   19.24   1
   6  -4  -8  153.51   24.53   1
   6  -4  -7  436.81   50.16   1
   6  -4  -7  620.01   44.32   1
   6  -4  -7  529.00   56.12   1
   6  -4  -6   -8.01   11.21   1
   6  -4  -6   -8.01   19.07   1
   6  -4  -6    6.45   22.50   1
   6  -4  -5  601.72   55.93   1
   6  -4  -5  428.49   50.92   1
   6  -4  -5  529.92   44.66   1
   6  -4  -4   -1.49    9.91   1
   6  -4  -4    1.25   21.21   1
   6  -4  -4    0.46   15.54   1
   6  -4  -4   -0.69   24.70   1
   6  -4  -3  419.84   43.03   1
   6  -4  -3  425.60   36.31   1
   6  -4  -3  383.77   41.14   1
   6  -4  -2   84.27   26.99   1
   6  -4  -2   92.93   18.32   1
   6  -4  -2  122.32   23.89   1
   6  -4  -1 1250.33   85.57   1
   6  -4  -1 1305.38  101.16   1
   6  -4  -1 1064.06   92.64   1
   6  -4   0  -17.64   21.34   1
   6  -4   0    9.12   21.93   1
   6  -4   0  -22.85   28.39   1
   6  -4   1   24.30   21.10   1
   6  -4   1    6.76   17.52   1
   6  -4   1   25.00   29.00   1
   6  -4   2  -54.32   30.66   1
   6  -4   2  -27.77   20.03   1
   6  -4   2   15.13   21.94   1
   6  -4   3   51.98   21.49   1
   6  -4   3   69.56   30.19   1
   6  -4   3   -1.28   16.70   1
   6  -4   4   21.16   25.85   1
   6  -4   4    1.44   16.42   1
   6  -4   4   25.50   27.27   1
   6  -4   5  249.96   30.99   1
   6  -4   5  284.26   26.30   1
   6  -4   6   -9.67   15.05   1
   6  -3 -11   -6.30   16.52   1
   6  -3 -11   12.74   20.21   1
   6  -3 -10   87.98   19.14   1
   6  -3 -10   52.42   11.58   1
   6  -3 -10   46.10    8.83   1
   6  -3  -9  176.62   20.47   1
   6  -3  -9  134.56   24.82   1
   6  -3  -9  177.69   23.73   1
   6  -3  -8   26.32    8.11   1
   6  -3  -8   17.81   20.42   1
   6  -3  -8    7.45   15.02   1
   6  -3  -7   75.52   10.60   1
   6  -3  -7   91.20   20.63   1
   6  -3  -7   78.50   12.05   1
   6  -3  -6  470.02   39.02   1
   6  -3  -6  380.64   43.31   1
   6  -3  -6  523.49   42.10   1
   6  -3  -6  430.15   42.72   1
   6  -3  -6  474.80   46.19   1
   6  -3  -5  404.81   43.06   1
   6  -3  -5  415.75   35.89   1
   6  -3  -5  362.52   36.18   1
   6  -3  -4    6.15   15.33   1
   6  -3  -4   -7.13   24.62   1
   6  -3  -4   -6.45   19.15   1
   6  -3  -3  241.49   32.94   1
   6  -3  -3  272.58   28.73   1
   6  -3  -3  311.88   30.73   1
   6  -3  -2  184.14   24.70   1
   6  -3  -2  226.50   24.08   1
   6  -3  -2  218.74   33.13   1
   6  -3  -1  988.47   81.74   1
   6  -3  -1  959.14   73.09   1
   6  -3  -1  889.83   70.40   1
   6  -3   0  880.90   58.77   1
   6  -3   0  755.70   65.98   1
   6  -3   0  804.86   70.93   1
   6  -3   1 1025.28   83.89   1
   6  -3   1 1047.82   69.92   1
   6  -3   1  932.08   80.60   1
   6  -3   2  383.38   33.29   1
   6  -3   2  340.40   46.49   1
   6  -3   2  404.41   51.08   1
   6  -3   3  149.57   27.15   1
   6  -3   3  138.06   20.91   1
   6  -3   4 1267.36   85.44   1
   6  -3   4 1207.56  123.01   1
   6  -3   4 1139.74   89.80   1
   6  -3   5  133.40   24.25   1
   6  -3   5  124.55   16.96   1
   6  -3   6  123.21   15.98   1
   6  -2 -11    4.49   10.01   1
   6  -2 -11    8.58   17.99   1
   6  -2 -11   37.21   20.25   1
   6  -2 -11   12.53   16.14   1
   6  -2 -10  -23.81   19.91   1
   6  -2 -10    1.35   11.53   1
   6  -2 -10  -20.07    9.23   1
   6  -2 -10  -25.40   19.66   1
   6  -2 -10  -23.81   19.52   1
   6  -2 -10    7.40    9.90   1
   6  -2  -9  478.30   40.24   1
   6  -2  -9  444.37   43.85   1
   6  -2  -9  390.46   41.50   1
   6  -2  -9  513.02   36.24   1
   6  -2  -9  430.56   42.33   1
   6  -2  -8   20.79   14.59   1
   6  -2  -8   35.05   10.66   1
   6  -2  -8   55.06   19.14   1
   6  -2  -8   37.45   20.81   1
   6  -2  -7  163.33   17.64   1
   6  -2  -7  134.79   21.59   1
   6  -2  -7  189.34   27.80   1
   6  -2  -7  164.61   27.46   1
   6  -2  -6   47.06   21.27   1
   6  -2  -6   61.00   16.71   1
   6  -2  -6   34.93   18.08   1
   6  -2  -5  419.02   34.80   1
   6  -2  -5  405.22   42.27   1
   6  -2  -5  391.25   34.42   1
   6  -2  -4   56.55   27.07   1
   6  -2  -4   33.29   15.58   1
   6  -2  -4   30.80   11.77   1
   6  -2  -3   81.36   19.48   1
   6  -2  -3  145.93   30.68   1
   6  -2  -2    3.72   16.21   1
   6  -2  -2   69.06   29.58   1
   6  -2  -1  339.30   41.26   1
   6  -2  -1  390.46   30.83   1
   6  -2   0  118.37   25.24   1
   6  -2   0  113.85   20.27   1
   6  -2   1   90.82   18.49   1
   6  -2   2  885.66   75.59   1
   6  -2   2  935.14  102.75   1
   6  -2   2 1023.36   70.38   1
   6  -2   3  152.03   38.47   1
   6  -2   3  115.56   19.14   1
   6  -2   3  135.72   25.40   1
   6  -2   4  452.84   54.05   1
   6  -2   4  526.24   38.54   1
   6  -2   4  408.04   39.19   1
   6  -2   5  324.72   34.60   1
   6  -2   5  372.88   29.74   1
   6  -2   6  243.05   22.76   1
   6  -1 -11   -6.50   15.81   1
   6  -1 -11    8.07   13.86   1
   6  -1 -11   -8.94   16.56   1
   6  -1 -10   11.83   20.78   1
   6  -1 -10   19.36   10.30   1
   6  -1 -10   25.81   19.30   1
   6  -1 -10   -6.86   18.60   1
   6  -1 -10   14.14    9.10   1
   6  -1  -9  157.75   24.12   1
   6  -1  -9  168.74   18.45   1
   6  -1  -9  170.04   23.99   1
   6  -1  -9  155.75   26.96   1
   6  -1  -9  166.67   18.33   1
   6  -1  -9  156.50   15.26   1
   6  -1  -8    7.29   12.64   1
   6  -1  -8   -2.82    7.29   1
   6  -1  -8  -17.98   21.12   1
   6  -1  -8  -15.60   12.48   1
   6  -1  -8   16.08   15.88   1
   6  -1  -7  -25.81   14.73   1
   6  -1  -7  -16.56   16.28   1
   6  -1  -7    2.66   13.37   1
   6  -1  -7   -2.28    5.92   1
   6  -1  -7  -13.40   25.99   1
   6  -1  -6  167.70   30.30   1
   6  -1  -6  163.84   19.46   1
   6  -1  -6  161.80   21.37   1
   6  -1  -6  168.48   29.59   1
   6  -1  -5  103.84   14.67   1
   6  -1  -5  131.33   31.17   1
   6  -1  -5  118.59   19.17   1
   6  -1  -4  678.08   57.81   1
   6  -1  -4  698.02   54.95   1
   6  -1  -4  779.53   66.45   1
   6  -1  -3  651.27   61.25   1
   6  -1  -3  664.61   50.01   1
   6  -1  -2   70.39   34.73   1
   6  -1  -2   50.55   17.92   1
   6  -1  -1 1513.99  114.40   1
   6  -1  -1 1584.84  130.58   1
   6  -1  -1 1557.09  110.49   1
   6  -1   0  135.02   27.42   1
   6  -1   0  241.49   46.31   1
   6  -1   1  880.90   73.01   1
   6  -1   1  993.51   68.71   1
   6  -1   1  962.86   88.13   1
   6  -1   2   52.27   26.03   1
   6  -1   2   66.42   41.89   1
   6  -1   2   82.63   18.91   1
   6  -1   3 1370.48  110.32   1
   6  -1   3 1606.41  109.02   1
   6  -1   3 1570.54  149.80   1
   6  -1   4   -3.53   16.17   1
   6  -1   4    4.75   35.49   1
   6  -1   5  333.79   27.04   1
   6  -1   5  302.41   33.04   1
   6  -1   6   65.29   14.06   1
   6   0 -11    9.92   16.57   1
   6   0 -11    3.88   14.26   1
   6   0 -11   14.90   18.45   1
   6   0 -11   14.52    9.37   1
   6   0 -10    6.97   11.14   1
   6   0 -10   10.56    8.19   1
   6   0 -10  -34.81   19.59   1
   6   0 -10  -17.06   17.92   1
   6   0 -10  -13.18   14.23   1
   6   0 -10  -22.94   20.98   1
   6   0  -9   61.31   18.64   1
   6   0  -9   32.26   10.11   1
   6   0  -9   36.24   15.65   1
   6   0  -9   41.47   12.62   1
   6   0  -9   70.90   24.08   1
   6   0  -8  374.42   32.12   1
   6   0  -8  337.82   29.78   1
   6   0  -8  365.96   38.64   1
   6   0  -8  435.14   31.29   1
   6   0  -8  400.80   39.24   1
   6   0  -8  387.30   34.24   1
   6   0  -7   17.98   15.43   1
   6   0  -7    1.56    7.23   1
   6   0  -7   18.23   15.37   1
   6   0  -7   -7.90   14.67   1
   6   0  -7  -31.02   26.18   1
   6   0  -6 1324.96  106.29   1
   6   0  -6 1348.36  101.35   1
   6   0  -6 1140.41   91.85   1
   6   0  -6 1283.07   96.71   1
   6   0  -5   14.59   11.15   1
   6   0  -5   31.02   22.61   1
   6   0  -4  796.37   64.91   1
   6   0  -4  878.53   63.43   1
   6   0  -4  854.98   77.19   1
   6   0  -3   35.52   18.48   1
   6   0  -3   44.49   11.34   1
   6   0  -3   38.19   29.05   1
   6   0  -2  209.67   24.33   1
   6   0  -2  201.92   43.48   1
   6   0  -1   96.83   19.48   1
   6   0  -1   61.94    9.29   1
   6   0  -1  132.71   44.01   1
   6   0   0  333.43   35.06   1
   6   0   0  399.20   33.97   1
   6   0   0  423.95   37.89   1
   6   0   1  167.96   28.77   1
   6   0   1  218.45   22.76   1
   6   0   1  144.24   20.18   1
   6   0   1  207.65   48.42   1
   6   0   2   13.25   11.50   1
   6   0   2   40.58   43.06   1
   6   0   2  -20.52   24.10   1
   6   0   2    6.15   16.76   1
   6   0   3  248.38   25.22   1
   6   0   3  313.29   27.26   1
   6   0   3  274.23   49.02   1
   6   0   3  219.04   32.86   1
   6   0   4    6.00   19.60   1
   6   0   4  -29.70   15.04   1
   6   0   4   -8.76   39.13   1
   6   0   5  145.93   24.40   1
   6   0   5  128.14   16.53   1
   6   1 -11   -2.31    9.21   1
   6   1 -11    5.52   15.23   1
   6   1 -11    4.33   17.72   1
   6   1 -10   39.31   15.80   1
   6   1 -10   23.33   19.13   1
   6   1 -10    5.29    8.83   1
   6   1 -10    3.28   19.19   1
   6   1 -10    9.86   20.47   1
   6   1  -9  303.80   33.12   1
   6   1  -9  316.48   30.24   1
   6   1  -9  256.64   23.71   1
   6   1  -9  286.29   27.75   1
   6   1  -9  338.19   33.10   1
   6   1  -9  266.02   24.47   1
   6   1  -8  159.77   20.48   1
   6   1  -8  110.46   19.97   1
   6   1  -8  128.60   14.06   1
   6   1  -8  152.03   25.40   1
   6   1  -8  117.07   16.45   1
   6   1  -8  118.16   26.09   1
   6   1  -7  632.52   49.80   1
   6   1  -7  611.57   51.93   1
   6   1  -7  622.50   51.90   1
   6   1  -7  675.48   57.18   1
   6   1  -7  652.80   58.25   1
   6   1  -7  695.38   49.05   1
   6   1  -6 1257.41  104.96   1
   6   1  -6 1290.96  101.32   1
   6   1  -6 1437.93   96.32   1
   6   1  -6 1389.80  111.84   1
   6   1  -5   -4.49   26.88   1
   6   1  -5   -4.12   16.16   1
   6   1  -5   -9.30   30.56   1
   6   1  -4   14.21   17.49   1
   6   1  -4    0.36   36.68   1
   6   1  -3   49.42   17.01   1
   6   1  -3   19.71   18.74   1
   6   1  -2  416.98   50.23   1
   6   1  -2  286.29   28.09   1
   6   1  -2  340.77   30.27   1
   6   1  -1   22.56   47.21   1
   6   1   0  272.58   51.51   1
   6   1   0  186.87   20.78   1
   6   1   0  195.16   23.47   1
   6   1   1  169.00   20.54   1
   6   1   1  193.77   44.82   1
   6   1   1  205.64   23.52   1
   6   1   1  247.12   27.35   1
   6   1   2  237.78   25.29   1
   6   1   2  278.22   49.37   1
   6   1   2  229.83   30.02   1
   6   1   2  241.18   23.92   1
   6   1   3  114.28   25.23   1
   6   1   3  109.83   17.19   1
   6   1   3   73.27   45.54   1
   6   1   3  128.14   18.79   1
   6   1   4  184.96   28.56   1
   6   1   4  206.21   24.41   1
   6   1   4  230.74   23.09   1
   6   1   4  211.41   47.69   1
   6   1   5   93.32   22.60   1
   6   1   5   87.42   17.77   1
   6   1   5  128.14   16.30   1
   6   2 -11   57.61   17.31   1
   6   2 -11   53.58   19.91   1
   6   2 -11   53.58   11.71   1
   6   2 -11   54.02   17.93   1
   6   2 -10    0.15   17.73   1
   6   2 -10   11.09   18.31   1
   6   2 -10   37.58   20.96   1
   6   2 -10    3.65   18.83   1
   6   2 -10    8.82    9.92   1
   6   2  -9   30.58   22.23   1
   6   2  -9   57.00   12.68   1
   6   2  -9   68.39   19.35   1
   6   2  -9   41.09   19.36   1
   6   2  -9   83.17   12.40   1
   6   2  -9   17.56   21.12   1
   6   2  -8   38.56   13.66   1
   6   2  -8    9.55   17.12   1
   6   2  -8    5.15    9.22   1
   6   2  -8    2.56   23.81   1
   6   2  -8   12.53   23.79   1
   6   2  -8  -22.00   18.57   1
   6   2  -7  509.86   47.42   1
   6   2  -7  424.77   38.33   1
   6   2  -7  448.59   35.16   1
   6   2  -7  407.23   35.92   1
   6   2  -7  490.62   38.54   1
   6   2  -7  430.56   43.16   1
   6   2  -6 2655.34  175.20   1
   6   2  -6 2198.67  180.06   1
   6   2  -6 2543.18  188.61   1
   6   2  -6 2590.81  200.55   1
   6   2  -5  184.42   31.23   1
   6   2  -5  240.25   39.37   1
   6   2  -5  184.96   23.94   1
   6   2  -4   80.28   36.74   1
   6   2  -4   75.52   19.99   1
   6   2  -3    9.73   20.40   1
   6   2  -3   26.73   20.16   1
   6   2  -2  248.06   54.18   1
   6   2  -2  303.80   31.37   1
   6   2  -2  345.96   30.13   1
   6   2  -1  103.02   36.95   1
   6   2  -1  136.66   22.44   1
   6   2  -1   92.54   18.47   1
   6   2   0  125.22   18.80   1
   6   2   0  180.63   22.85   1
   6   2   0  132.02   50.10   1
   6   2   1   27.77   25.19   1
   6   2   1   58.37   46.45   1
   6   2   1   56.55   15.04   1
   6   2   1   34.57   17.29   1
   6   2   2  -14.67   16.55   1
   6   2   2   -2.86   22.48   1
   6   2   2   78.68   47.01   1
   6   2   2   19.27   14.49   1
   6   2   3    2.53   22.39   1
   6   2   3    7.24   16.57   1
   6   2   3   76.04   44.65   1
   6   2   3    5.57   17.04   1
   6   2   4  106.30   23.92   1
   6   2   4  124.10   18.27   1
   6   2   4  127.92   18.10   1
   6   2   5   19.10   13.11   1
   6   2   5    8.18   14.64   1
   6   2   5   31.25   20.68   1
   6   3 -11   71.40   18.42   1
   6   3 -11   34.81   10.38   1
   6   3 -11   37.58   19.13   1
   6   3 -10   37.45   11.38   1
   6   3 -10   25.50   19.09   1
   6   3 -10   26.01   20.91   1
   6   3 -10   26.42   10.69   1
   6   3 -10   44.09   19.52   1
   6   3 -10   30.14   20.53   1
   6   3  -9  110.46   22.07   1
   6   3  -9  117.29   21.66   1
   6   3  -9  151.04   26.55   1
   6   3  -9   88.74   14.13   1
   6   3  -9  140.90   25.16   1
   6   3  -8    4.93   11.99   1
   6   3  -8    6.50   19.94   1
   6   3  -8    2.28   12.38   1
   6   3  -8  -13.10   21.29   1
   6   3  -7  124.32   22.75   1
   6   3  -7  111.09   27.61   1
   6   3  -7  124.55   32.59   1
   6   3  -7  128.14   14.94   1
   6   3  -7  140.19   18.47   1
   6   3  -6  691.69   60.49   1
   6   3  -6  756.25   67.10   1
   6   3  -5  350.44   46.05   1
   6   3  -5  243.05   35.55   1
   6   3  -4  200.79   25.79   1
   6   3  -4  161.80   41.98   1
   6   3  -3  727.38   63.11   1
   6   3  -3  816.82   77.17   1
   6   3  -2   20.98   25.10   1
   6   3  -1    4.71   19.23   1
   6   3  -1   41.73   46.90   1
   6   3   0  169.00   22.62   1
   6   3   0  165.89   45.60   1
   6   3   1  155.25   20.93   1
   6   3   1  169.26   47.10   1
   6   3   2  118.16   26.74   1
   6   3   2  219.04   47.95   1
   6   3   2  164.10   20.50   1
   6   3   2  136.42   20.56   1
   6   3   3   56.85   22.77   1
   6   3   3   54.32   17.69   1
   6   3   3   63.36   16.08   1
   6   3   3   15.60   42.66   1
   6   3   4  360.24   28.47   1
   6   3   4  324.00   34.92   1
   6   3   4  259.21   29.62   1
   6   4 -10   -6.81   20.46   1
   6   4 -10  -10.96   10.72   1
   6   4 -10   12.53   18.62   1
   6   4 -10    8.82   19.66   1
   6   4  -9    8.64   18.52   1
   6   4  -9   28.52   11.64   1
   6   4  -9   18.23   23.23   1
   6   4  -9   22.66   11.14   1
   6   4  -9   -1.66   20.64   1
   6   4  -9   12.39   17.53   1
   6   4  -8   -9.12   12.62   1
   6   4  -8    7.84   20.10   1
   6   4  -8  -13.91   26.11   1
   6   4  -8  -29.48   23.67   1
   6   4  -7   37.82   29.52   1
   6   4  -7   12.11   19.07   1
   6   4  -7  -24.80   19.32   1
   6   4  -7  -11.16   11.49   1
   6   4  -6    2.16   33.99   1
   6   4  -6   -6.92   22.62   1
   6   4  -5   59.44   24.36   1
   6   4  -4  448.17   55.47   1
   6   4  -4  395.61   37.79   1
   6   4  -4  342.62   39.98   1
   6   4  -3 1102.90  104.94   1
   6   4  -3 1067.33   89.52   1
   6   4  -2  184.14   49.94   1
   6   4  -2  176.62   28.71   1
   6   4  -1  104.24   34.71   1
   6   4   0  331.97   54.66   1
   6   4   0  332.70   31.74   1
   6   4   1  105.27   20.31   1
   6   4   1   19.89   44.24   1
   6   4   2  381.03   33.57   1
   6   4   2  312.94   55.19   1
   6   4   2  389.67   37.11   1
   6   4   3   98.60   38.73   1
   6   4   3   76.91   18.77   1
   6   4   3  115.56   18.92   1
   6   4   4  105.68   22.20   1
   6   4   4  116.21   17.25   1
   6   4   4   74.65   18.14   1
   6   5 -10   86.12   24.31   1
   6   5 -10   54.46   12.10   1
   6   5 -10   97.61   21.34   1
   6   5  -9  401.20   37.26   1
   6   5  -9  431.81   40.73   1
   6   5  -9  413.72   34.17   1
   6   5  -9  418.61   45.83   1
   6   5  -8  167.44   33.90   1
   6   5  -8  159.01   22.95   1
   6   5  -8  189.34   27.80   1
   6   5  -8  179.02   19.27   1
   6   5  -7  765.63   58.66   1
   6   5  -7  702.25   56.71   1
   6   5  -7  715.03   61.50   1
   6   5  -7  789.05   69.66   1
   6   5  -6   28.52   22.00   1
   6   5  -5  145.20   40.73   1
   6   5  -5   84.46   22.42   1
   6   5  -4  330.88   39.29   1
   6   5  -4  364.81   35.53   1
   6   5  -4  450.71   54.35   1
   6   5  -3   61.15   26.28   1
   6   5  -3   80.46   43.24   1
   6   5  -2   19.18   24.97   1
   6   5  -2   73.79   43.64   1
   6   5  -1   19.45   43.39   1
   6   5  -1   -6.30   20.98   1
   6   5   0   18.49   20.90   1
   6   5   0   21.90   32.29   1
   6   5   1  -21.16   45.36   1
   6   5   1   77.62   20.44   1
   6   5   2   54.46   18.45   1
   6   5   2   62.88   46.31   1
   6   5   3   30.36   17.52   1
   6   5   3   13.10   19.55   1
   6   6  -9   30.58   12.94   1
   6   6  -9   13.76   27.83   1
   6   6  -8    3.31   20.89   1
   6   6  -8   12.25   20.09   1
   6   6  -7  166.15   26.04   1
   6   6  -7  181.44   26.40   1
   6   6  -7  177.96   35.75   1
   6   6  -6   35.52   19.79   1
   6   6  -6   35.05   37.89   1
   6   6  -6    5.15   21.66   1
   6   6  -5  346.70   33.89   1
   6   6  -5  255.04   48.23   1
   6   6  -4   99.40   41.28   1
   6   6  -3  138.53   27.78   1
   6   6  -3  137.59   44.81   1
   6   6  -2  -24.21   44.58   1
   6   6  -1   16.97   21.01   1
   6   6   0   53.14   46.22   1
   6   6   0   45.29   20.86   1
   6   6   1  330.88   32.74   1
   6   6   2   53.44   22.51   1
   6   6   2   23.43   18.49   1
   6   7  -8    2.02   20.65   1
   6   7  -8  -18.58   20.26   1
   6   7  -8   -6.71   12.59   1
   6   7  -8   15.84   31.44   1
   6   7  -7  163.84   26.11   1
   6   7  -7  159.01   24.72   1
   6   7  -6   43.16   20.63   1
   6   7  -6   82.81   36.76   1
   6   7  -5   38.07   25.42   1
   6   7  -5   36.97   37.82   1
   6   7  -4  174.50   32.50   1
   6   7  -4  201.07   44.81   1
   6   7  -3   27.77   24.35   1
   6   7  -3   49.70   40.89   1
   6   7  -2   47.33   41.56   1
   6   7  -1  -27.88   21.33   1
   6   7  -1   17.64   35.28   1
   6   7   1   94.28   22.14   1
   6   8  -6   82.45   37.95   1
   6   8  -6  -13.32   18.40   1
   6   8  -6    2.13   22.19   1
   6   8  -5  323.28   33.80   1
   6   8  -5  264.39   33.50   1
   6   8  -5  263.41   30.51   1
   6   8  -5  385.73   48.71   1
   6   8  -4  266.67   35.27   1
   6   8  -4  420.66   52.10   1
   6   8  -3   16.40   24.95   1
   6   8  -3  126.79   44.36   1
   7 -10  -3   27.56   16.59   1
   7 -10  -3   54.76   23.24   1
   7 -10  -2    9.06   16.43   1
   7 -10  -2    2.72   19.40   1
   7 -10  -1  130.87   21.28   1
   7 -10  -1  107.74   23.25   1
   7  -9  -5  260.50   28.41   1
   7  -9  -4   13.10   16.00   1
   7  -9  -3  -10.43   15.70   1
   7  -9  -3  -20.43   22.51   1
   7  -9  -2  -10.69   16.09   1
   7  -9  -1   35.64   21.37   1
   7  -9  -1   72.08   18.68   1
   7  -9  -1   58.52   13.46   1
   7  -9   0   41.09   17.69   1
   7  -9   0   82.63   21.45   1
   7  -9   0   86.30   15.79   1
   7  -9   1   76.39   20.80   1
   7  -9   1  110.25   17.43   1
   7  -9   2    4.28   14.86   1
   7  -8  -7   19.54   14.94   1
   7  -8  -6   27.98   14.39   1
   7  -8  -5   53.88   15.85   1
   7  -8  -5   23.33   22.80   1
   7  -8  -4   84.82   17.50   1
   7  -8  -4   85.56   18.13   1
   7  -8  -3  -16.65   15.18   1
   7  -8  -3   -8.76    9.41   1
   7  -8  -3  -32.38   22.53   1
   7  -8  -3   13.10   22.52   1
   7  -8  -2   55.50   12.52   1
   7  -8  -2   46.92   16.30   1
   7  -8  -2   81.54   23.12   1
   7  -8  -1   17.14   13.08   1
   7  -8  -1  -15.05   23.28   1
   7  -8  -1  -29.27   22.29   1
   7  -8  -1   31.70   16.10   1
   7  -8   0   20.70   14.38   1
   7  -8   0  -19.45   22.40   1
   7  -8   1  -24.30   21.00   1
   7  -8   1  -14.06   24.38   1
   7  -8   1  -19.98   16.27   1
   7  -8   2  -27.88   21.54   1
   7  -8   2   24.80   85.76   1
   7  -8   2    6.30   16.01   1
   7  -8   3    5.62   15.22   1
   7  -7  -8  -15.68   24.87   1
   7  -7  -8   -1.39   12.72   1
   7  -7  -7   49.84   21.46   1
   7  -7  -7   67.24   27.72   1
   7  -7  -6   16.16   13.91   1
   7  -7  -6   -5.24   18.59   1
   7  -7  -5    0.59   21.62   1
   7  -7  -5   -2.76   14.51   1
   7  -7  -4   56.40    9.16   1
   7  -7  -4   54.91   24.16   1
   7  -7  -4   70.22   15.42   1
   7  -7  -4   54.91   22.08   1
   7  -7  -3  102.21   15.97   1
   7  -7  -3  123.21   24.20   1
   7  -7  -3   89.49   12.68   1
   7  -7  -3   99.60   24.95   1
   7  -7  -2  392.83   36.47   1
   7  -7  -2  351.94   38.65   1
   7  -7  -2  417.38   36.37   1
   7  -7  -2  491.07   42.55   1
   7  -7  -1   80.64   21.91   1
   7  -7  -1   91.01   16.22   1
   7  -7  -1  117.72   22.35   1
   7  -7  -1   68.72   15.75   1
   7  -7   0  275.56   28.22   1
   7  -7   0  333.43   33.23   1
   7  -7   0  325.08   34.62   1
   7  -7   1    7.51   20.44   1
   7  -7   1   16.56   21.90   1
   7  -7   1   16.08   15.48   1
   7  -7   2  241.80   27.99   1
   7  -7   2  225.00   24.90   1
   7  -7   2  230.43   31.57   1
   7  -7   3    0.45   15.92   1
   7  -7   3    5.52   21.24   1
   7  -7   3   22.18   23.64   1
   7  -7   4  284.26   30.35   1
   7  -6  -9  381.81   34.39   1
   7  -6  -9  384.55   39.61   1
   7  -6  -8   59.44   17.73   1
   7  -6  -8  -13.10   23.75   1
   7  -6  -8    3.84   11.60   1
   7  -6  -7  -34.57   23.52   1
   7  -6  -7   43.30   18.95   1
   7  -6  -6   54.17   21.05   1
   7  -6  -6   78.85   13.32   1
   7  -6  -5   19.45   22.14   1
   7  -6  -5   37.82   22.14   1
   7  -6  -4  545.69   60.27   1
   7  -6  -4  713.96   56.65   1
   7  -6  -4  566.92   58.57   1
   7  -6  -4  724.15   59.74   1
   7  -6  -3   60.53   21.63   1
   7  -6  -3   41.60   11.87   1
   7  -6  -2  897.60   64.71   1
   7  -6  -2  790.17   67.46   1
   7  -6  -2  798.63   63.30   1
   7  -6  -1    4.54   15.12   1
   7  -6  -1   20.70   22.84   1
   7  -6  -1   -2.04   20.76   1
   7  -6   0  -16.40   20.98   1
   7  -6   0    4.41   16.72   1
   7  -6   1   57.00   27.03   1
   7  -6   1    4.80   18.83   1
   7  -6   1   18.92   18.70   1
   7  -6   2  126.34   23.60   1
   7  -6   2  167.44   29.76   1
   7  -6   3   12.25   18.20   1
   7  -6   3   55.50   19.97   1
   7  -6   4   31.47   18.96   1
   7  -6   4    6.20   24.15   1
   7  -5 -10  167.70   19.42   1
   7  -5 -10  181.17   28.54   1
   7  -5  -9  153.51   18.34   1
   7  -5  -9  104.65   26.39   1
   7  -5  -9  100.80   15.46   1
   7  -5  -8    2.79   11.92   1
   7  -5  -8   12.53   17.63   1
   7  -5  -8   36.48   23.68   1
   7  -5  -7   19.80   19.58   1
   7  -5  -7  -10.76   21.45   1
   7  -5  -6   38.44   24.55   1
   7  -5  -6   38.32   10.15   1
   7  -5  -5   -4.80    8.76   1
   7  -5  -5  -10.89   19.47   1
   7  -5  -5   10.89    9.11   1
   7  -5  -5  -36.12   24.64   1
   7  -5  -5    9.61   19.53   1
   7  -5  -4   49.56   21.40   1
   7  -5  -4   37.70   24.68   1
   7  -5  -4   52.85    9.45   1
   7  -5  -4   48.16   14.71   1
   7  -5  -3   34.11    9.46   1
   7  -5  -3   40.83   15.46   1
   7  -5  -3   20.98   20.88   1
   7  -5  -2  948.64   72.07   1
   7  -5  -2  978.44   73.20   1
   7  -5  -1  370.56   33.49   1
   7  -5  -1  450.29   42.02   1
   7  -5  -1  392.44   36.05   1
   7  -5   0   55.95   21.39   1
   7  -5   0   30.47   26.94   1
   7  -5   0   10.37   19.38   1
   7  -5   1   21.62   20.93   1
   7  -5   1    5.52   19.18   1
   7  -5   1   66.42   28.36   1
   7  -5   2  182.25   25.92   1
   7  -5   2  150.06   24.26   1
   7  -5   2  217.56   36.88   1
   7  -5   3   32.04   29.43   1
   7  -5   3  -16.65   20.64   1
   7  -5   3   -6.00   19.89   1
   7  -5   4   17.89   18.02   1
   7  -5   4   17.89   19.88   1
   7  -5   4   24.50   23.46   1
   7  -5   5   10.82   16.32   1
   7  -4 -10  321.13   29.03   1
   7  -4 -10  354.57   35.02   1
   7  -4  -9  351.56   29.62   1
   7  -4  -9  298.60   30.76   1
   7  -4  -9  309.76   33.44   1
   7  -4  -8  -23.43   17.71   1
   7  -4  -8  -38.94   16.35   1
   7  -4  -8   31.47   20.53   1
   7  -4  -8   -6.81    9.97   1
   7  -4  -7   63.04    8.58   1
   7  -4  -7   43.96   24.80   1
   7  -4  -7   76.39   23.07   1
   7  -4  -7   98.60   18.87   1
   7  -4  -7   64.64    9.49   1
   7  -4  -7   53.88    8.66   1
   7  -4  -6    0.96   17.72   1
   7  -4  -6    9.55   15.70   1
   7  -4  -6   -0.90   16.62   1
   7  -4  -6   13.62    9.00   1
   7  -4  -5   89.87   14.41   1
   7  -4  -5   91.58   19.91   1
   7  -4  -5  113.64   26.01   1
   7  -4  -5  112.57   21.64   1
   7  -4  -4   41.73   20.28   1
   7  -4  -4   53.29   15.77   1
   7  -4  -4    7.24   26.52   1
   7  -4  -3  -40.20   27.14   1
   7  -4  -3   -4.28   16.19   1
   7  -4  -3   10.11   19.78   1
   7  -4  -2  600.74   50.00   1
   7  -4  -2  727.92   58.28   1
   7  -4  -2  576.96   49.00   1
   7  -4  -1 1032.34   80.97   1
   7  -4  -1 1230.61   92.61   1
   7  -4  -1 1032.34   78.40   1
   7  -4   0   96.63   22.41   1
   7  -4   0   75.52   33.20   1
   7  -4   0   71.91   20.69   1
   7  -4   1  722.00   53.20   1
   7  -4   1  748.57   64.57   1
   7  -4   1  604.67   60.00   1
   7  -4   2  206.78   36.53   1
   7  -4   2  198.81   24.25   1
   7  -4   3    8.07   19.65   1
   7  -4   3   -9.55   31.09   1
   7  -4   4  174.77   21.42   1
   7  -4   4  124.10   25.18   1
   7  -4   4  232.56   37.21   1
   7  -4   5   81.18   17.84   1
   7  -3 -10   61.94   20.93   1
   7  -3 -10   56.55   14.89   1
   7  -3 -10   69.56   10.01   1
   7  -3  -9  115.13   13.73   1
   7  -3  -9  146.65   14.77   1
   7  -3  -9  104.65   25.37   1
   7  -3  -9  171.61   22.53   1
   7  -3  -8   15.92    7.50   1
   7  -3  -8   -4.41    9.66   1
   7  -3  -8    0.35   15.88   1
   7  -3  -8   26.32   20.52   1
   7  -3  -8   -8.35   18.32   1
   7  -3  -7  207.65   21.61   1
   7  -3  -7  152.77   27.19   1
   7  -3  -7  150.06   17.64   1
   7  -3  -7  171.61   23.06   1
   7  -3  -6  -10.18   17.74   1
   7  -3  -6  -30.47   16.56   1
   7  -3  -6   22.28   23.13   1
   7  -3  -5   94.67   20.24   1
   7  -3  -5   72.93   16.06   1
   7  -3  -5   70.39   22.82   1
   7  -3  -5   80.64   15.09   1
   7  -3  -4  284.26   30.01   1
   7  -3  -4  340.77   39.14   1
   7  -3  -4  275.89   27.90   1
   7  -3  -3  179.02   34.52   1
   7  -3  -3  173.45   25.02   1
   7  -3  -2   74.48   33.31   1
   7  -3  -2   47.33   19.68   1
   7  -3  -2  104.65   22.10   1
   7  -3  -1   99.40   23.93   1
   7  -3  -1  127.24   23.69   1
   7  -3  -1  127.46   35.90   1
   7  -3   0    3.39   16.12   1
   7  -3   0   10.63   22.49   1
   7  -3   0   -6.97   34.00   1
   7  -3   1  331.60   47.71   1
   7  -3   1  331.60   32.78   1
   7  -3   1  332.33   32.45   1
   7  -3   2  240.25   24.80   1
   7  -3   2  160.28   23.04   1
   7  -3   2  254.72   42.77   1
   7  -3   3  144.24   20.42   1
   7  -3   3  148.84   21.47   1
   7  -3   3  135.26   36.98   1
   7  -3   4   21.81   17.00   1
   7  -3   4   39.31   31.73   1
   7  -3   4   -5.11   16.41   1
   7  -3   5  416.98   33.90   1
   7  -2 -11  -11.97   17.85   1
   7  -2 -11  -36.97   18.60   1
   7  -2 -10    2.72   17.89   1
   7  -2 -10   -9.00    7.14   1
   7  -2 -10    0.67   18.58   1
   7  -2 -10   10.82   11.65   1
   7  -2 -10   -2.76   11.16   1
   7  -2 -10   26.83   20.10   1
   7  -2  -9  -16.40   12.56   1
   7  -2  -9   11.42    6.42   1
   7  -2  -9   10.50   14.39   1
   7  -2  -9    2.96   18.44   1
   7  -2  -9   22.75   21.27   1
   7  -2  -8   99.80   14.19   1
   7  -2  -8   91.20   19.10   1
   7  -2  -8  135.26   24.19   1
   7  -2  -7  892.22   72.29   1
   7  -2  -7  968.45   82.78   1
   7  -2  -7 1068.64   71.26   1
   7  -2  -7  952.34   75.30   1
   7  -2  -6 1162.13   84.54   1
   7  -2  -6 1038.77   91.53   1
   7  -2  -6 1236.23   97.74   1
   7  -2  -5  954.81   80.34   1
   7  -2  -5  892.22   68.10   1
   7  -2  -4   49.00   20.16   1
   7  -2  -4  119.68   33.04   1
   7  -2  -3 4382.44  283.34   1
   7  -2  -3 4260.17  323.74   1
   7  -2  -3 3456.26  282.19   1
   7  -2  -2  194.88   27.64   1
   7  -2  -2  243.98   39.05   1
   7  -2  -2  184.42   22.00   1
   7  -2  -1 2588.77  204.54   1
   7  -2  -1 2282.93  183.48   1
   7  -2  -1 2645.04  177.95   1
   7  -2   0  625.00   63.00   1
   7  -2   0  543.36   45.69   1
   7  -2   0  545.22   49.03   1
   7  -2   1 1059.50   69.01   1
   7  -2   1  802.02   69.67   1
   7  -2   1  917.48   86.63   1
   7  -2   2  362.52   31.23   1
   7  -2   2  279.56   34.78   1
   7  -2   2  357.21   49.52   1
   7  -2   3   88.92   37.72   1
   7  -2   3  104.45   25.35   1
   7  -2   3   93.70   19.94   1
   7  -2   4   46.10   22.41   1
   7  -2   5   62.09   16.71   1
   7  -1 -11   26.73   21.71   1
   7  -1 -11   17.64   18.48   1
   7  -1 -10  135.72   18.41   1
   7  -1 -10  142.80   22.70   1
   7  -1 -10  116.86   20.32   1
   7  -1 -10  141.37   16.41   1
   7  -1 -10  129.50   21.39   1
   7  -1 -10  109.41   12.34   1
   7  -1  -9   61.31   14.56   1
   7  -1  -9   46.65    7.51   1
   7  -1  -9   43.30   15.00   1
   7  -1  -9   35.28   24.47   1
   7  -1  -9   83.72   21.41   1
   7  -1  -9   27.46   16.87   1
   7  -1  -8   37.82   17.59   1
   7  -1  -8   63.52   22.63   1
   7  -1  -8   29.38   15.61   1
   7  -1  -8   71.40   15.89   1
   7  -1  -8   64.00   16.64   1
   7  -1  -7  241.18   24.54   1
   7  -1  -7  303.11   34.12   1
   7  -1  -7  231.65   24.35   1
   7  -1  -6  199.94   35.35   1
   7  -1  -6  260.18   25.49   1
   7  -1  -6  263.41   24.67   1
   7  -1  -5   26.63   10.53   1
   7  -1  -5   29.16   29.27   1
   7  -1  -5    0.72   14.54   1
   7  -1  -4  315.77   41.23   1
   7  -1  -4  282.24   28.56   1
   7  -1  -3   10.24   36.42   1
   7  -1  -2  122.54   20.15   1
   7  -1  -2  186.60   42.89   1
   7  -1  -1    0.81   24.32   1
   7  -1  -1    8.76   19.18   1
   7  -1   0  -26.11   26.78   1
   7  -1   0   33.64   43.15   1
   7  -1   0   -8.01   17.77   1
   7  -1   1   18.32   41.86   1
   7  -1   1   28.84   24.49   1
   7  -1   1   43.82   18.01   1
   7  -1   2   91.01   41.40   1
   7  -1   2   -7.62   17.39   1
   7  -1   3  150.55   27.73   1
   7  -1   3  104.24   41.86   1
   7  -1   3  175.83   21.48   1
   7  -1   4    3.84   38.89   1
   7  -1   4   21.07   16.25   1
   7  -1   4   21.16   16.10   1
   7  -1   5  256.32   24.34   1
   7   0 -11  101.00   19.70   1
   7   0 -11   94.87   20.84   1
   7   0 -10  188.51   27.46   1
   7   0 -10  163.07   26.56   1
   7   0 -10  139.48   19.84   1
   7   0 -10  156.25   15.00   1
   7   0 -10  173.45   22.65   1
   7   0 -10  182.52   17.29   1
   7   0  -9  140.90   16.86   1
   7   0  -9  114.49   12.20   1
   7   0  -9  166.41   24.77   1
   7   0  -9  129.05   19.31   1
   7   0  -9  127.01   27.05   1
   7   0  -9  146.65   20.34   1
   7   0  -8  319.34   36.10   1
   7   0  -8  302.06   28.16   1
   7   0  -8  314.35   27.66   1
   7   0  -8  317.55   28.87   1
   7   0  -7   47.61   26.22   1
   7   0  -7   32.26   15.00   1
   7   0  -6   -1.96   11.31   1
   7   0  -6  -16.48   16.16   1
   7   0  -6  -24.01   28.22   1
   7   0  -5  309.41   27.44   1
   7   0  -5  329.42   26.14   1
   7   0  -4  135.49   21.65   1
   7   0  -4  152.28   38.50   1
   7   0  -4  132.94   13.61   1
   7   0  -3 1108.22   93.21   1
   7   0  -3 1433.38  113.58   1
   7   0  -2  964.72   71.44   1
   7   0  -2  928.42   89.58   1
   7   0  -1   73.10   20.35   1
   7   0  -1   94.28   27.77   1
   7   0  -1  175.56   47.17   1
   7   0   0  354.57   52.35   1
   7   0   0  344.47   37.86   1
   7   0   1   74.48   25.03   1
   7   0   1   45.16   18.01   1
   7   0   1   18.15    9.37   1
   7   0   1   33.41   43.93   1
   7   0   2  112.57   20.37   1
   7   0   3  100.40   24.85   1
   7   0   3  150.55   42.45   1
   7   0   3  139.71   19.62   1
   7   0   4   55.06   40.51   1
   7   0   4   31.36   21.84   1
   7   0   5  232.26   22.25   1
   7   1 -11   48.16   18.74   1
   7   1 -11   -0.90   15.75   1
   7   1 -10   93.90   13.57   1
   7   1 -10   45.56   21.87   1
   7   1 -10   61.00   18.74   1
   7   1 -10   66.75   10.29   1
   7   1  -9  -35.28   16.75   1
   7   1  -9  -17.14   16.89   1
   7   1  -9   21.07   23.04   1
   7   1  -9   14.90   12.97   1
   7   1  -9   -4.12    7.63   1
   7   1  -9   -3.13   20.57   1
   7   1  -8  129.28   18.19   1
   7   1  -8  151.78   27.60   1
   7   1  -8  115.56   18.92   1
   7   1  -8  162.31   28.54   1
   7   1  -8  124.10   19.83   1
   7   1  -7  152.52   18.77   1
   7   1  -7   86.86   29.45   1
   7   1  -7  127.01   17.58   1
   7   1  -7  117.72   29.51   1
   7   1  -6   10.30   25.10   1
   7   1  -6  -12.74   14.35   1
   7   1  -6    4.93   17.45   1
   7   1  -6  -59.75   34.01   1
   7   1  -5  -10.89   18.08   1
   7   1  -5   36.97   35.99   1
   7   1  -4   -6.71   18.86   1
   7   1  -4   13.40   18.15   1
   7   1  -3  794.11   84.54   1
   7   1  -3 1060.15   70.33   1
   7   1  -3  822.54   88.91   1
   7   1  -2  263.09   43.79   1
   7   1  -2  200.51   22.37   1
   7   1  -1  326.52   52.04   1
   7   1  -1  227.10   24.71   1
   7   1  -1  249.32   27.47   1
   7   1   0  559.32   48.72   1
   7   1   0  555.54   42.43   1
   7   1   0  547.09   65.49   1
   7   1   0  446.90   43.13   1
   7   1   1  179.29   47.67   1
   7   1   1  133.86   16.43   1
   7   1   1  128.82   26.79   1
   7   1   2   42.77   12.69   1
   7   1   2   45.43   40.44   1
   7   1   2   19.36   16.02   1
   7   1   2  -10.63   23.34   1
   7   1   3  188.51   46.13   1
   7   1   3  146.89   18.18   1
   7   1   3  132.25   24.61   1
   7   1   3  183.33   21.39   1
   7   1   4    0.50   39.97   1
   7   2 -11  -12.53   18.05   1
   7   2 -11  -16.48   19.98   1
   7   2 -11   18.66   17.11   1
   7   2 -10  152.77   22.00   1
   7   2 -10  147.14   16.50   1
   7   2 -10  141.13   14.49   1
   7   2 -10  129.28   22.06   1
   7   2 -10  154.50   26.10   1
   7   2 -10  160.53   26.61   1
   7   2  -9   15.37   22.27   1
   7   2  -9    4.49    8.35   1
   7   2  -9    5.90   22.89   1
   7   2  -9  -19.80   18.16   1
   7   2  -9  -11.49   12.95   1
   7   2  -9    5.95   16.93   1
   7   2  -8  161.29   27.69   1
   7   2  -8   97.02   16.94   1
   7   2  -8  134.56   18.56   1
   7   2  -8  115.35   21.91   1
   7   2  -8  101.40   11.88   1
   7   2  -8  106.92   30.61   1
   7   2  -7  259.53   26.74   1
   7   2  -7  295.15   26.80   1
   7   2  -7  308.00   34.05   1
   7   2  -6   30.14   24.60   1
   7   2  -6   87.24   35.87   1
   7   2  -5   41.34   17.23   1
   7   2  -4  169.00   22.88   1
   7   2  -4  120.34   45.64   1
   7   2  -4  182.52   24.86   1
   7   2  -3  -35.05   19.30   1
   7   2  -3   38.81   43.86   1
   7   2  -3  -13.99   18.77   1
   7   2  -2  424.36   58.92   1
   7   2  -2  468.72   36.81   1
   7   2  -2  357.59   37.06   1
   7   2  -1   72.08   18.85   1
   7   2  -1   48.86   13.28   1
   7   2  -1   31.14   36.27   1
   7   2   0 2190.24  204.98   1
   7   2   0 2509.01  178.32   1
   7   2   1  273.57   31.43   1
   7   2   1  243.36   44.30   1
   7   2   1  179.02   21.41   1
   7   2   2  159.52   27.53   1
   7   2   2  184.42   41.55   1
   7   2   2  117.51   17.34   1
   7   2   2  140.42   21.09   1
   7   2   3  275.56   25.23   1
   7   2   3  227.71   43.76   1
   7   2   3  212.28   23.60   1
   7   2   3  269.29   30.85   1
   7   2   4   35.05   13.62   1
   7   3 -10   66.10   19.19   1
   7   3 -10   60.68   13.24   1
   7   3 -10   65.77   18.17   1
   7   3 -10   80.28   19.00   1
   7   3 -10  105.27   24.42   1
   7   3  -9    0.24   16.90   1
   7   3  -9   -0.05   25.37   1
   7   3  -9   15.76   18.66   1
   7   3  -9   -1.12   23.04   1
   7   3  -8  454.12   43.90   1
   7   3  -8  428.90   37.28   1
   7   3  -8  387.70   34.65   1
   7   3  -8  464.83   37.51   1
   7   3  -8  371.72   37.79   1
   7   3  -8  468.29   44.15   1
   7   3  -7  263.74   26.96   1
   7   3  -7  337.82   35.66   1
   7   3  -6  284.93   40.17   1
   7   3  -6  226.80   24.10   1
   7   3  -6  225.30   31.82   1
   7   3  -5    5.38   16.89   1
   7   3  -4  195.16   25.70   1
   7   3  -4  186.87   20.51   1
   7   3  -4  250.27   47.14   1
   7   3  -3   95.06   21.45   1
   7   3  -2   26.73   47.56   1
   7   3  -2  178.76   21.66   1
   7   3  -2  132.71   21.20   1
   7   3  -1  135.72   48.00   1
   7   3  -1   86.86   17.52   1
   7   3  -1  119.68   21.66   1
   7   3   0  351.94   35.64   1
   7   3   1   15.21   16.07   1
   7   3   1   40.32   17.02   1
   7   3   1   -1.19   24.85   1
   7   3   1  -25.00   43.10   1
   7   3   2   25.00   13.20   1
   7   3   2   36.24   15.65   1
   7   3   2   86.12   44.92   1
   7   3   2   40.45   23.66   1
   7   3   3   69.89   44.14   1
   7   3   3   33.99   14.57   1
   7   4 -10  -13.32   19.13   1
   7   4 -10  -15.52   23.40   1
   7   4 -10  -11.70   10.26   1
   7   4 -10   17.47   16.80   1
   7   4  -9  -26.21   17.00   1
   7   4  -9    1.93   11.90   1
   7   4  -9   -2.82    9.00   1
   7   4  -9   21.90   21.34   1
   7   4  -8  252.81   32.75   1
   7   4  -8  262.12   25.26   1
   7   4  -8  289.34   30.28   1
   7   4  -7  -10.24   23.87   1
   7   4  -6  220.52   29.11   1
   7   4  -6  145.20   40.01   1
   7   4  -5   11.83   41.62   1
   7   4  -4   18.40   22.39   1
   7   4  -4  -33.76   44.16   1
   7   4  -3  -23.52   43.94   1
   7   4  -3   21.53   20.42   1
   7   4  -2  315.42   39.07   1
   7   4  -2  252.17   52.40   1
   7   4  -1  116.42   21.80   1
   7   4   0  249.64   50.24   1
   7   4   0  184.14   22.53   1
   7   4   1   18.32   23.71   1
   7   4   1   24.90   45.61   1
   7   4   1   33.87   17.58   1
   7   4   2  256.64   32.36   1
   7   4   2  270.27   26.96   1
   7   4   2  360.24   52.38   1
   7   4   3   17.47   16.05   1
   7   5  -9   12.04   11.24   1
   7   5  -9   13.91   10.97   1
   7   5  -9  -24.60   19.84   1
   7   5  -8   19.80   21.54   1
   7   5  -8   30.36   34.49   1
   7   5  -7   16.56   22.71   1
   7   5  -7   29.05   19.51   1
   7   5  -6   95.65   40.68   1
   7   5  -6   84.46   25.00   1
   7   5  -5  352.31   51.43   1
   7   5  -5  291.38   34.48   1
   7   5  -4   56.40   22.53   1
   7   5  -3   -9.00   42.42   1
   7   5  -3    4.71   22.39   1
   7   5  -2   91.01   43.88   1
   7   5  -1  281.57   44.97   1
   7   5  -1  219.63   27.27   1
   7   5   0   77.97   18.19   1
   7   5   0   39.44   44.84   1
   7   5   1   68.06   23.43   1
   7   5   1   42.51   17.34   1
   7   5   1   37.58   46.96   1
   7   5   2   -5.29   16.70   1
   7   5   2   20.34   14.97   1
   7   6  -8    7.95   32.94   1
   7   6  -8   17.64   21.50   1
   7   6  -7    1.49   20.18   1
   7   6  -7  -27.04   34.63   1
   7   6  -7    3.80   21.84   1
   7   6  -6  -27.04   21.11   1
   7   6  -6   25.91   37.16   1
   7   6  -5  105.06   27.47   1
   7   6  -5  176.62   44.12   1
   7   6  -4    5.15   39.72   1
   7   6  -3  342.25   38.85   1
   7   6  -3  387.70   54.34   1
   7   6  -2  190.72   26.52   1
   7   6  -2  264.71   48.48   1
   7   6  -1  256.32   31.38   1
   7   6   0  127.92   20.13   1
   7   6   0   30.25   45.32   1
   7   7  -6  -39.94   21.87   1
   7   7  -6   11.29   22.18   1
   7   7  -6   20.61   19.98   1
   7   7  -5   29.59   21.32   1
   7   7  -5   -0.56   35.95   1
   7   7  -4  -87.24   41.84   1
   7   7  -4    5.62   21.28   1
   7   7  -3  115.78   24.75   1
   7   7  -2   34.34   45.83   1
   7   7  -2    6.81   18.37   1
   8  -9  -4   15.44   13.05   1
   8  -9  -4   -4.58   22.04   1
   8  -9  -3  115.35   15.90   1
   8  -9  -3   98.60   23.24   1
   8  -9  -2   79.92   16.09   1
   8  -9  -2   70.90   23.24   1
   8  -9  -1   16.89   20.22   1
   8  -9  -1  -28.73   12.01   1
   8  -9   0    0.19   12.08   1
   8  -9   0    7.40   21.00   1
   8  -8  -6  178.22   23.23   1
   8  -8  -6  257.92   33.40   1
   8  -8  -5    8.64   11.00   1
   8  -8  -5   17.81   23.63   1
   8  -8  -5    9.18   19.09   1
   8  -8  -4   53.29   13.72   1
   8  -8  -4   93.51   21.66   1
   8  -8  -4   62.57   14.08   1
   8  -8  -4  124.32   24.75   1
   8  -8  -3   67.90   15.16   1
   8  -8  -3   77.97   24.19   1
   8  -8  -2   33.41   11.79   1
   8  -8  -2   83.54   20.84   1
   8  -8  -2   31.58   23.27   1
   8  -8  -1  -10.37   20.67   1
   8  -8  -1    7.34   12.36   1
   8  -8   0   45.70   24.47   1
   8  -8   0   20.52   14.22   1
   8  -8   1   50.27   16.31   1
   8  -8   1   65.45   25.73   1
   8  -7  -8   97.02   23.84   1
   8  -7  -8  110.04   19.72   1
   8  -7  -7  -21.90   24.90   1
   8  -7  -7   29.05   11.75   1
   8  -7  -6  164.87   16.95   1
   8  -7  -6  170.30   30.80   1
   8  -7  -5  116.64   22.46   1
   8  -7  -5   82.26   13.42   1
   8  -7  -5  124.10   26.74   1
   8  -7  -4   39.56   10.44   1
   8  -7  -4   46.24   12.65   1
   8  -7  -4   -7.40   19.86   1
   8  -7  -4   19.45   22.49   1
   8  -7  -3   47.33   11.15   1
   8  -7  -3   51.12   21.88   1
   8  -7  -3   32.04   11.43   1
   8  -7  -3    0.30   21.65   1
   8  -7  -2   40.20   13.44   1
   8  -7  -2   21.34   22.36   1
   8  -7  -2   56.55   21.96   1
   8  -7  -1  225.90   23.75   1
   8  -7  -1  247.12   31.75   1
   8  -7  -1  173.71   28.73   1
   8  -7   0   86.30   23.41   1
   8  -7   0   79.21   17.44   1
   8  -7   1  123.65   20.24   1
   8  -7   1  163.33   25.82   1
   8  -7   1  165.64   30.89   1
   8  -7   2  147.14   24.50   1
   8  -6  -8  -29.16   24.73   1
   8  -6  -8   12.18   16.40   1
   8  -6  -8   13.84   23.51   1
   8  -6  -7   48.16   18.60   1
   8  -6  -7   89.30   21.36   1
   8  -6  -7   10.43   24.48   1
   8  -6  -6   39.06    9.88   1
   8  -6  -6   81.36   21.11   1
   8  -6  -6   59.75   25.35   1
   8  -6  -5   64.16    9.61   1
   8  -6  -5   77.79   20.64   1
   8  -6  -5   99.20   22.11   1
   8  -6  -5   55.50   10.58   1
   8  -6  -4   18.84   12.24   1
   8  -6  -4   32.83   22.00   1
   8  -6  -4   36.12   20.79   1
   8  -6  -4   27.88    8.13   1
   8  -6  -3  361.38   39.92   1
   8  -6  -3  362.90   35.43   1
   8  -6  -2   12.82   24.27   1
   8  -6  -2   15.76   20.96   1
   8  -6  -1  -11.56   21.56   1
   8  -6  -1  -16.08   16.60   1
   8  -6  -1   18.66   24.80   1
   8  -6   0  197.96   24.48   1
   8  -6   0  228.01   28.09   1
   8  -6   0  222.90   44.49   1
   8  -6   1  156.50   31.53   1
   8  -6   1  138.53   22.60   1
   8  -6   2  302.06   32.33   1
   8  -6   2  393.23   49.58   1
   8  -6   3    8.01   20.32   1
   8  -5  -9   63.84   24.45   1
   8  -5  -8   57.15   20.87   1
   8  -5  -8   81.72   18.08   1
   8  -5  -7   10.18   17.80   1
   8  -5  -7   -4.54   18.53   1
   8  -5  -7   -2.28   23.65   1
   8  -5  -6  255.68   29.74   1
   8  -5  -6  320.41   29.36   1
   8  -5  -6  239.63   27.55   1
   8  -5  -6  309.41   34.12   1
   8  -5  -5   93.32   25.50   1
   8  -5  -5   91.20   18.91   1
   8  -5  -5   81.00   12.96   1
   8  -5  -4   45.70   21.09   1
   8  -5  -4   58.22   26.25   1
   8  -5  -3  247.12   32.70   1
   8  -5  -3  196.28   22.42   1
   8  -5  -3  189.34   21.47   1
   8  -5  -2   -7.56   16.83   1
   8  -5  -2    8.24   13.89   1
   8  -5  -2  -17.56   27.32   1
   8  -5  -1   14.67   21.06   1
   8  -5  -1   21.07   28.18   1
   8  -5  -1   -9.67   18.22   1
   8  -5   0   66.59   20.73   1
   8  -5   0  119.46   32.13   1
   8  -5   1  -11.09   34.83   1
   8  -5   1   29.16   19.33   1
   8  -5   1  -39.69   20.92   1
   8  -5   2  192.93   34.17   1
   8  -5   2  114.06   22.86   1
   8  -5   2  168.48   24.14   1
   8  -5   3  135.26   31.63   1
   8  -5   3   36.72   20.24   1
   8  -4 -10  140.90   18.04   1
   8  -4 -10  136.19   24.74   1
   8  -4 -10   97.02   22.46   1
   8  -4  -9  184.14   27.41   1
   8  -4  -9  149.82   23.26   1
   8  -4  -9  163.58   20.98   1
   8  -4  -8   10.37   17.32   1
   8  -4  -8   25.20   23.19   1
   8  -4  -8   20.25    7.65   1
   8  -4  -7   -5.38    8.72   1
   8  -4  -7    4.75   22.06   1
   8  -4  -7  -13.91    8.80   1
   8  -4  -7  -12.04   17.77   1
   8  -4  -7   24.60   16.17   1
   8  -4  -6  202.78   22.78   1
   8  -4  -6  273.24   32.40   1
   8  -4  -6  190.16   20.68   1
   8  -4  -6  259.21   27.05   1
   8  -4  -5   49.28   19.23   1
   8  -4  -5   56.10   13.63   1
   8  -4  -5   82.26   27.39   1
   8  -4  -4  163.07   20.69   1
   8  -4  -4  138.06   22.32   1
   8  -4  -4  115.78   30.77   1
   8  -4  -3  310.11   32.05   1
   8  -4  -3  347.08   33.53   1
   8  -4  -3  431.81   42.81   1
   8  -4  -2   18.92   19.49   1
   8  -4  -2   11.29   29.50   1
   8  -4  -2   17.56   18.52   1
   8  -4  -1  -10.56   20.15   1
   8  -4  -1   25.10   31.96   1
   8  -4  -1    1.30   20.06   1
   8  -4   0  193.21   24.19   1
   8  -4   0  117.07   24.24   1
   8  -4   0  171.35   36.39   1
   8  -4   1   -0.42   21.24   1
   8  -4   1   31.36   35.06   1
   8  -4   1   31.81   21.09   1
   8  -4   2  187.96   26.87   1
   8  -4   2  186.60   39.07   1
   8  -4   3   33.18   32.72   1
   8  -4   3   36.00   21.24   1
   8  -4   3   22.47   19.34   1
   8  -4   4  403.21   33.73   1
   8  -4   4  424.77   44.52   1
   8  -3 -10  -21.44   19.63   1
   8  -3 -10    5.02   12.68   1
   8  -3 -10   10.43   16.60   1
   8  -3  -9  173.45   21.86   1
   8  -3  -9  150.80   22.10   1
   8  -3  -9  194.60   21.76   1
   8  -3  -9  161.80   26.71   1
   8  -3  -8   16.81   16.24   1
   8  -3  -8   45.70   10.41   1
   8  -3  -8   89.11   24.36   1
   8  -3  -8   39.06   16.75   1
   8  -3  -7  502.66   43.94   1
   8  -3  -7  520.75   50.20   1
   8  -3  -7  530.84   41.93   1
   8  -3  -6   82.99   28.97   1
   8  -3  -6  128.14   16.98   1
   8  -3  -6  138.30   20.70   1
   8  -3  -5  803.72   69.17   1
   8  -3  -5  787.36   58.93   1
   8  -3  -5  733.33   71.49   1
   8  -3  -4  183.87   22.51   1
   8  -3  -4  219.34   32.88   1
   8  -3  -4  138.30   22.58   1
   8  -3  -3 1159.40   95.34   1
   8  -3  -3 1265.22   91.06   1
   8  -3  -3 1462.30  106.31   1
   8  -3  -2  224.70   34.78   1
   8  -3  -2  212.58   24.20   1
   8  -3  -2  205.64   25.53   1
   8  -3  -1   36.36   35.70   1
   8  -3  -1   84.46   20.95   1
   8  -3  -1   52.56   21.17   1
   8  -3   0   71.91   18.32   1
   8  -3   0   34.46   22.66   1
   8  -3   1   10.76   20.34   1
   8  -3   1   -9.86   21.60   1
   8  -3   1    5.90   37.62   1
   8  -3   2  145.68   22.93   1
   8  -3   2  105.47   21.77   1
   8  -3   2  194.04   40.95   1
   8  -3   3  105.68   37.21   1
   8  -3   3   47.61   16.42   1
   8  -3   4   -6.40   17.66   1
   8  -3   4   -1.69   34.48   1
   8  -2 -10  219.04   29.30   1
   8  -2 -10  256.64   25.31   1
   8  -2 -10  220.52   22.28   1
   8  -2 -10  199.09   23.42   1
   8  -2  -9   17.14   14.82   1
   8  -2  -9    1.85   23.04   1
   8  -2  -9   15.60   13.35   1
   8  -2  -8  999.82   80.95   1
   8  -2  -8  907.82   77.74   1
   8  -2  -8  977.19   71.27   1
   8  -2  -8  844.48   69.74   1
   8  -2  -7   -5.57   12.37   1
   8  -2  -7   17.72   16.76   1
   8  -2  -7   14.98   25.85   1
   8  -2  -6  110.88   19.38   1
   8  -2  -6  139.24   15.10   1
   8  -2  -5   65.29   30.54   1
   8  -2  -5   61.00   15.62   1
   8  -2  -4   16.32   18.91   1
   8  -2  -3    0.13   22.33   1
   8  -2  -3    4.84   16.50   1
   8  -2  -3  -46.38   35.14   1
   8  -2  -2  -14.44   22.65   1
   8  -2  -2   -8.76   19.42   1
   8  -2  -2  -13.99   35.90   1
   8  -2  -1  316.84   45.57   1
   8  -2  -1  333.79   32.16   1
   8  -2  -1  326.89   32.18   1
   8  -2   0  177.96   28.28   1
   8  -2   0  193.49   42.84   1
   8  -2   1  330.15   51.60   1
   8  -2   1  295.84   32.68   1
   8  -2   1  358.34   35.97   1
   8  -2   2   49.98   19.80   1
   8  -2   2   82.63   40.00   1
   8  -2   3  637.06   45.94   1
   8  -2   3  489.74   46.47   1
   8  -2   3  595.85   62.00   1
   8  -2   4   31.02   39.21   1
   8  -2   4   54.91   17.49   1
   8  -1 -10  310.11   33.46   1
   8  -1 -10  328.70   30.10   1
   8  -1 -10  362.90   39.24   1
   8  -1 -10  371.72   37.79   1
   8  -1 -10  395.61   33.02   1
   8  -1  -9  -16.48   16.00   1
   8  -1  -9    7.29   13.12   1
   8  -1  -9   15.21   23.24   1
   8  -1  -9   17.81   14.18   1
   8  -1  -8  497.29   43.26   1
   8  -1  -8  586.12   53.26   1
   8  -1  -8  579.36   45.25   1
   8  -1  -8  578.40   44.25   1
   8  -1  -7  248.69   25.55   1
   8  -1  -7  216.68   22.67   1
   8  -1  -7  267.65   33.37   1
   8  -1  -6  506.70   40.52   1
   8  -1  -6  495.95   49.88   1
   8  -1  -6  452.41   43.39   1
   8  -1  -5  455.40   51.64   1
   8  -1  -5  504.45   40.88   1
   8  -1  -4   45.56   36.32   1
   8  -1  -4    4.75   18.18   1
   8  -1  -3   44.22   18.75   1
   8  -1  -3   11.49   36.88   1
   8  -1  -2    5.48   24.10   1
   8  -1  -2  -14.59   19.48   1
   8  -1  -2    4.67   38.10   1
   8  -1  -1   54.02   18.96   1
   8  -1  -1   -1.10   42.92   1
   8  -1   0  -23.14   23.95   1
   8  -1   0   18.66   17.71   1
   8  -1   0   13.40   40.11   1
   8  -1   1  358.72   31.44   1
   8  -1   1  257.28   35.29   1
   8  -1   1  302.41   50.43   1
   8  -1   2  -35.05   23.80   1
   8  -1   2   10.37   17.71   1
   8  -1   3  193.21   23.91   1
   8  -1   3  197.12   42.68   1
   8  -1   4   76.91   18.77   1
   8   0 -10    7.40   12.95   1
   8   0 -10    1.49   15.32   1
   8   0 -10  -19.98   16.36   1
   8   0  -9  145.93   27.06   1
   8   0  -9   93.51   17.79   1
   8   0  -9  115.56   16.77   1
   8   0  -9   64.16   26.11   1
   8   0  -8   42.90   13.36   1
   8   0  -8   48.58   25.79   1
   8   0  -7  160.53   17.48   1
   8   0  -7  201.07   32.90   1
   8   0  -7  147.62   20.41   1
   8   0  -6   84.46   12.68   1
   8   0  -6  119.90   19.49   1
   8   0  -6  105.88   26.55   1
   8   0  -5  243.36   24.34   1
   8   0  -5  269.29   37.09   1
   8   0  -5  189.34   20.36   1
   8   0  -4   20.43   16.45   1
   8   0  -3  464.83   53.90   1
   8   0  -3  461.82   38.68   1
   8   0  -2  161.54   22.37   1
   8   0  -2  147.38   37.15   1
   8   0  -1  370.18   54.64   1
   8   0  -1  328.70   30.82   1
   8   0  -1  350.44   32.57   1
   8   0   0   -1.66   16.80   1
   8   0   0   34.69   25.56   1
   8   0   0   63.20   45.16   1
   8   0   1  769.51   55.48   1
   8   0   1  709.69   76.19   1
   8   0   1  663.06   61.29   1
   8   0   2   -9.06   38.59   1
   8   0   2    2.34   23.56   1
   8   0   2  -12.46   17.86   1
   8   0   3  189.06   23.10   1
   8   0   3  267.32   47.42   1
   8   1 -10  129.05   25.67   1
   8   1 -10   75.52   18.42   1
   8   1 -10  133.63   15.72   1
   8   1 -10   94.48   17.88   1
   8   1  -9   29.27   14.28   1
   8   1  -9   -9.67   24.20   1
   8   1  -9    6.66   16.05   1
   8   1  -9   11.22   14.47   1
   8   1  -9   27.77   23.82   1
   8   1  -8  270.93   29.63   1
   8   1  -8  304.15   27.21   1
   8   1  -8  338.93   37.56   1
   8   1  -8  250.91   34.53   1
   8   1  -8  298.94   26.63   1
   8   1  -7   32.26   32.72   1
   8   1  -7    3.96   11.62   1
   8   1  -7  -13.84   15.92   1
   8   1  -6   92.93   13.50   1
   8   1  -6  163.07   36.52   1
   8   1  -6  117.51   21.03   1
   8   1  -5   49.56   13.66   1
   8   1  -5   29.81   19.44   1
   8   1  -5   34.69    9.78   1
   8   1  -4  101.20   41.85   1
   8   1  -4  192.65   23.87   1
   8   1  -4  158.00   17.85   1
   8   1  -3   11.63   18.14   1
   8   1  -3   10.18    9.06   1
   8   1  -3  -10.05   33.41   1
   8   1  -2  256.32   50.59   1
   8   1  -1   33.99   46.06   1
   8   1  -1   38.32    8.54   1
   8   1  -1   64.48   24.89   1
   8   1  -1   69.89   18.89   1
   8   1   0   78.50   43.77   1
   8   1   0   27.46    9.01   1
   8   1   0    6.60   22.67   1
   8   1   1  204.49   29.46   1
   8   1   1  229.52   49.39   1
   8   1   1  161.80   22.13   1
   8   1   2   19.01   17.00   1
   8   1   2  -14.29   23.97   1
   8   1   2   37.95   41.76   1
   8   1   3  238.39   44.78   1
   8   1   3  199.94   23.19   1
   8   2 -10  144.96   16.62   1
   8   2 -10  149.33   27.86   1
   8   2 -10  126.56   20.02   1
   8   2 -10  102.82   21.70   1
   8   2  -9  302.06   29.55   1
   8   2  -9  356.83   30.60   1
   8   2  -9  310.82   37.38   1
   8   2  -9  305.90   27.98   1
   8   2  -8  874.98   87.56   1
   8   2  -8 1038.77   73.48   1
   8   2  -8  916.88   72.07   1
   8   2  -8  965.34   70.84   1
   8   2  -7   67.57   14.96   1
   8   2  -7   59.60   33.04   1
   8   2  -6   48.86   37.61   1
   8   2  -5  298.94   30.08   1
   8   2  -5  318.27   36.04   1
   8   2  -5  417.79   49.46   1
   8   2  -4  145.93   44.21   1
   8   2  -4  166.67   20.91   1
   8   2  -4  182.25   23.76   1
   8   2  -3   55.35   14.73   1
   8   2  -2   19.54   44.82   1
   8   2  -2   27.98   18.20   1
   8   2  -1    1.80   18.36   1
   8   2  -1   53.00   44.84   1
   8   2   0    0.04   42.94   1
   8   2   0  -17.14   18.22   1
   8   2   0  -12.32    9.83   1
   8   2   0   14.75   26.11   1
   8   2   1   -2.31   17.51   1
   8   2   1  -12.82   11.60   1
   8   2   1   25.91   44.69   1
   8   2   1   41.09   25.26   1
   8   2   2  186.05   21.55   1
   8   2   2  132.94   17.06   1
   8   2   2  194.88   48.02   1
   8   3 -10   26.63   22.91   1
   8   3 -10   -2.22   18.36   1
   8   3  -9  121.66   22.28   1
   8   3  -9  106.09   16.48   1
   8   3  -9  122.32   18.36   1
   8   3  -9  110.67   30.93   1
   8   3  -8  161.54   34.83   1
   8   3  -8  152.28   26.90   1
   8   3  -8  160.53   23.57   1
   8   3  -8  198.53   20.29   1
   8   3  -8  152.77   20.02   1
   8   3  -7  314.35   40.42   1
   8   3  -7  289.00   27.20   1
   8   3  -6  -35.88   36.54   1
   8   3  -6    7.24   16.41   1
   8   3  -5  243.98   28.43   1
   8   3  -5  246.80   26.71   1
   8   3  -5  253.76   48.75   1
   8   3  -4  153.51   47.83   1
   8   3  -4  198.25   24.78   1
   8   3  -4  197.68   23.90   1
   8   3  -3  -15.76   44.31   1
   8   3  -3   39.82   16.91   1
   8   3  -3   59.75   18.71   1
   8   3  -2  331.97   29.88   1
   8   3  -2  272.58   28.73   1
   8   3  -2  344.47   55.68   1
   8   3  -1   51.98   46.14   1
   8   3   0   38.44   43.65   1
   8   3   0   79.39   13.90   1
   8   3   0   99.00   26.27   1
   8   3   1   58.37   44.62   1
   8   3   1  -50.27   25.24   1
   8   3   1  -10.82   22.24   1
   8   3   1   15.05   11.33   1
   8   3   2  176.36   49.14   1
   8   3   2  149.33   18.82   1
   8   4  -9   28.41   19.83   1
   8   4  -9  -21.53   30.35   1
   8   4  -9    0.12   14.41   1
   8   4  -9  -12.32   11.79   1
   8   4  -8  118.81   22.67   1
   8   4  -8  183.33   38.18   1
   8   4  -8  107.95   17.04   1
   8   4  -7  -36.12   36.18   1
   8   4  -7   29.81   24.68   1
   8   4  -6  188.79   23.08   1
   8   4  -6  237.16   44.04   1
   8   4  -5  122.32   21.46   1
   8   4  -5  124.99   22.81   1
   8   4  -5  178.49   42.48   1
   8   4  -4   -3.39   18.25   1
   8   4  -4   45.29   43.21   1
   8   4  -3  -30.58   42.47   1
   8   4  -3  -15.37   17.95   1
   8   4  -2   84.09   19.99   1
   8   4  -2   -4.93   47.06   1
   8   4  -2   86.12   17.63   1
   8   4  -1   89.68   17.42   1
   8   4   0   34.57   42.81   1
   8   4   0   33.29   13.73   1
   8   4   0   74.82   19.03   1
   8   4   1   66.10   18.70   1
   8   5  -8    3.96   20.30   1
   8   5  -8   27.88   33.26   1
   8   5  -7   78.50   17.37   1
   8   5  -7  112.15   24.36   1
   8   5  -6  254.40   29.67   1
   8   5  -6  313.64   47.46   1
   8   5  -5  343.73   37.08   1
   8   5  -5  390.06   51.35   1
   8   5  -4  204.78   48.08   1
   8   5  -4  154.75   26.87   1
   8   5  -3   15.05   18.55   1
   8   5  -2  148.84   48.80   1
   8   5  -2  224.70   25.48   1
   8   5  -1   42.38   45.44   1
   8   5  -1    5.02   16.58   1
   8   5   0  298.25   52.50   1
   8   5   0  225.90   25.25   1
   8   6  -6    1.44   39.34   1
   8   6  -6   26.32   20.73   1
   8   6  -5   20.16   20.38   1
   8   6  -5  -13.91   39.76   1
   8   6  -4   27.25   20.25   1
   8   6  -3   47.75   42.70   1
   8   6  -3    4.97   17.71   1
   8   6  -2   92.93   41.84   1
   9  -8  -5    9.49   23.22   1
   9  -8  -3   -1.77   23.51   1
   9  -8  -2  286.29   35.53   1
   9  -8  -2  229.22   23.92   1
   9  -8  -1   43.69   25.51   1
   9  -7  -7   13.99   22.22   1
   9  -7  -6   24.90   23.15   1
   9  -7  -5   30.25   24.31   1
   9  -7  -4   38.07   19.62   1
   9  -7  -4   43.96   10.48   1
   9  -7  -3  -14.67   12.33   1
   9  -7  -3   -4.04   23.68   1
   9  -7  -3  -19.98   19.49   1
   9  -7  -2    1.77   12.18   1
   9  -7  -2  -28.41   21.11   1
   9  -7  -2   14.06   26.92   1
   9  -7  -1   14.21   27.07   1
   9  -7  -1   47.20   14.29   1
   9  -7   0  -14.29   14.74   1
   9  -7   0    5.86   27.44   1
   9  -6  -8   30.91   17.01   1
   9  -6  -7   66.59   23.99   1
   9  -6  -6  237.47   32.67   1
   9  -6  -6  252.49   27.65   1
   9  -6  -5   -7.62   18.82   1
   9  -6  -5   21.44   25.19   1
   9  -6  -5    1.44    8.50   1
   9  -6  -4  262.44   31.43   1
   9  -6  -4  365.96   38.26   1
   9  -6  -4  278.56   31.38   1
   9  -6  -3  -19.27   26.87   1
   9  -6  -3   20.52   13.59   1
   9  -6  -3   19.62   19.40   1
   9  -6  -2   72.59   21.64   1
   9  -6  -2   32.83   15.59   1
   9  -6  -2   86.86   28.89   1
   9  -6  -1   -0.62   15.41   1
   9  -6  -1   21.53   17.82   1
   9  -6  -1   58.83   28.99   1
   9  -6   0   86.12   22.09   1
   9  -6   0   63.36   18.31   1
   9  -6   0   82.08   31.35   1
   9  -6   1   96.43   33.78   1
   9  -6   1   89.11   19.45   1
   9  -5  -8  -45.02   33.28   1
   9  -5  -8  -20.52   16.13   1
   9  -5  -8  -10.50   15.94   1
   9  -5  -7   -7.90    7.81   1
   9  -5  -7   14.36   15.01   1
   9  -5  -7   -2.66   18.26   1
   9  -5  -7    6.81   14.35   1
   9  -5  -6  134.56   29.00   1
   9  -5  -6  123.88   22.04   1
   9  -5  -6  126.34   14.39   1
   9  -5  -5  -13.10   15.78   1
   9  -5  -5   -8.01   11.77   1
   9  -5  -5   30.25   26.40   1
   9  -5  -4  591.46   48.64   1
   9  -5  -4  640.09   57.68   1
   9  -5  -4  510.31   51.05   1
   9  -5  -3   37.70   19.53   1
   9  -5  -3   40.96   17.41   1
   9  -5  -3   20.34   24.26   1
   9  -5  -2  -14.67   27.42   1
   9  -5  -2   17.64   20.41   1
   9  -5  -2   16.08   18.05   1
   9  -5  -1   68.72   20.39   1
   9  -5  -1   64.00   32.80   1
   9  -5   0  331.60   34.23   1
   9  -5   0  418.20   46.63   1
   9  -5   0  363.28   36.21   1
   9  -5   1  -28.62   34.13   1
   9  -5   1   27.56   18.48   1
   9  -5   1   26.01   21.42   1
   9  -5   2   13.69   18.94   1
   9  -5   2   20.98   34.08   1
   9  -4  -9   54.17   15.16   1
   9  -4  -9   23.62   23.33   1
   9  -4  -9   21.25   27.48   1
   9  -4  -8   -9.49    9.18   1
   9  -4  -8   -1.06   23.71   1
   9  -4  -8   -6.81   15.40   1
   9  -4  -8    1.82    9.23   1
   9  -4  -8  -21.62   16.65   1
   9  -4  -7   26.73   18.10   1
   9  -4  -7   14.98   12.15   1
   9  -4  -7   19.62   26.05   1
   9  -4  -6   45.43   27.36   1
   9  -4  -6   37.21   13.66   1
   9  -4  -6   45.02   18.52   1
   9  -4  -5   45.97   18.98   1
   9  -4  -5   50.55   23.61   1
   9  -4  -5   78.15   16.97   1
   9  -4  -4  502.66   49.77   1
   9  -4  -4  431.39   41.54   1
   9  -4  -4  408.44   39.61   1
   9  -4  -3  309.41   38.35   1
   9  -4  -3  285.27   29.39   1
   9  -4  -3  224.10   28.44   1
   9  -4  -2   12.74   20.28   1
   9  -4  -2   47.89   28.10   1
   9  -4  -1   26.01   20.60   1
   9  -4  -1  109.20   34.07   1
   9  -4   0   95.06   22.42   1
   9  -4   0  116.42   37.12   1
   9  -4   0   48.02   21.48   1
   9  -4   1  177.16   39.13   1
   9  -4   1   35.16   65.11   1
   9  -4   2   16.16   39.15   1
   9  -4   2    9.61   18.97   1
   9  -3  -9    6.30   24.55   1
   9  -3  -9  -14.75   14.82   1
   9  -3  -9   -4.54   14.36   1
   9  -3  -8   13.18   16.41   1
   9  -3  -8   14.52   12.42   1
   9  -3  -8   -5.11   12.70   1
   9  -3  -7  -16.32   11.80   1
   9  -3  -7  -20.25   26.37   1
   9  -3  -7    7.34   17.24   1
   9  -3  -6   18.06   18.70   1
   9  -3  -6  -10.30   15.22   1
   9  -3  -5  -26.63   29.52   1
   9  -3  -5   12.89   17.02   1
   9  -3  -5   -1.74   18.66   1
   9  -3  -4  -11.76   14.27   1
   9  -3  -4  -23.62   29.84   1
   9  -3  -4  -10.89   18.15   1
   9  -3  -3  275.56   30.21   1
   9  -3  -3  348.57   31.37   1
   9  -3  -3  330.88   41.47   1
   9  -3  -2   -2.86   16.09   1
   9  -3  -2   37.58   20.96   1
   9  -3  -2  -27.04   33.28   1
   9  -3  -1  542.89   49.40   1
   9  -3  -1  673.40   62.28   1
   9  -3  -1  585.16   47.90   1
   9  -3   0   15.92   35.67   1
   9  -3   0    6.30   20.03   1
   9  -3   0    0.14   21.56   1
   9  -3   1   41.60   41.28   1
   9  -3   1   32.15   80.63   1
   9  -3   2   17.22   37.60   1
   9  -2 -10  232.87   21.97   1
   9  -2 -10  209.67   23.75   1
   9  -2 -10  197.68   28.12   1
   9  -2  -9  362.14   31.97   1
   9  -2  -9  369.79   32.31   1
   9  -2  -9  345.59   37.18   1
   9  -2  -9  392.44   41.20   1
   9  -2  -8  211.12   22.09   1
   9  -2  -8  216.97   24.16   1
   9  -2  -8  217.86   32.47   1
   9  -2  -7  112.36   13.57   1
   9  -2  -7  121.00   29.70   1
   9  -2  -7  122.99   20.63   1
   9  -2  -6  112.15   20.76   1
   9  -2  -5  512.57   49.36   1
   9  -2  -5  406.83   37.11   1
   9  -2  -4   19.45   18.70   1
   9  -2  -4  -20.79   34.66   1
   9  -2  -4   18.84   20.66   1
   9  -2  -3  109.83   23.48   1
   9  -2  -3   64.16   21.15   1
   9  -2  -2  341.88   31.43   1
   9  -2  -2  360.24   34.54   1
   9  -2  -1  354.19   32.75   1
   9  -2  -1  368.64   51.07   1
   9  -2   0   31.14   19.86   1
   9  -2   0   23.72   24.25   1
   9  -2   0   20.52   38.32   1
   9  -2   1  109.62   21.15   1
   9  -2   1   38.19   41.53   1
   9  -2   1   33.64   23.78   1
   9  -2   2  107.54   42.10   1
   9  -2   2   93.12   21.62   1
   9  -1 -10   55.35   14.73   1
   9  -1 -10   60.22   15.05   1
   9  -1 -10   80.82   16.54   1
   9  -1  -9  252.81   26.39   1
   9  -1  -9  290.02   26.91   1
   9  -1  -9  287.98   33.60   1
   9  -1  -9  291.04   26.95   1
   9  -1  -8   31.70   15.99   1
   9  -1  -8   43.56   12.41   1
   9  -1  -7   38.94   29.70   1
   9  -1  -7    5.02   10.30   1
   9  -1  -7   12.60   17.75   1
   9  -1  -6   13.84   22.99   1
   9  -1  -6  -17.22   18.01   1
   9  -1  -5  573.12   53.63   1
   9  -1  -5  570.73   44.91   1
   9  -1  -4  273.90   28.14   1
   9  -1  -4  297.56   44.16   1
   9  -1  -3  201.64   27.55   1
   9  -1  -3  187.42   24.92   1
   9  -1  -3  239.32   43.01   1
   9  -1  -2  -36.12   18.75   1
   9  -1  -2   -5.20   25.35   1
   9  -1  -2  -21.72   41.57   1
   9  -1  -1   37.45   40.76   1
   9  -1  -1   25.20   19.58   1
   9  -1   0  -18.75   17.58   1
   9  -1   0   10.11   18.57   1
   9  -1   0   -3.28   41.09   1
   9  -1   1   89.30   41.20   1
   9  -1   1   46.65   34.01   1
   9  -1   2   24.01   18.82   1
   9  -1   2   80.10   42.60   1
   9   0 -10   28.30   15.11   1
   9   0 -10  -16.81   12.79   1
   9   0 -10  -30.14   15.04   1
   9   0 -10  -23.14   24.05   1
   9   0  -9    4.08   26.10   1
   9   0  -9   -1.30   15.21   1
   9   0  -8   23.91   11.54   1
   9   0  -8   33.64   28.88   1
   9   0  -7    9.67   16.92   1
   9   0  -7    8.53   23.77   1
   9   0  -7    6.81    9.19   1
   9   0  -6  -53.58   34.70   1
   9   0  -6   -6.97   17.16   1
   9   0  -6   10.05    7.29   1
   9   0  -5  268.96   41.98   1
   9   0  -5  219.04   25.75   1
   9   0  -4   35.52   20.03   1
   9   0  -4   47.33   37.84   1
   9   0  -3   82.45   20.70   1
   9   0  -2   21.72   37.00   1
   9   0  -2    6.40   24.44   1
   9   0  -2   29.59   17.84   1
   9   0  -1   21.25   40.66   1
   9   0  -1    7.67   25.37   1
   9   0   0   17.64   20.66   1
   9   0   0   30.91   40.59   1
   9   0   0   43.56   23.89   1
   9   0   1  258.89   27.67   1
   9   0   1  242.42   44.84   1
   9   0   2  -10.30   18.36   1
   9   0   2   -9.00   43.38   1
   9   1  -9   -5.48   12.96   1
   9   1  -9  -12.04   16.66   1
   9   1  -8   49.00   16.10   1
   9   1  -8  -40.07   30.38   1
   9   1  -8   32.04   11.77   1
   9   1  -7  101.40   14.50   1
   9   1  -7  104.45   35.16   1
   9   1  -7  100.00   18.40   1
   9   1  -6   51.12   17.88   1
   9   1  -6   37.58   36.04   1
   9   1  -6   40.20    9.51   1
   9   1  -5  499.97   53.66   1
   9   1  -5  341.51   50.27   1
   9   1  -5  454.97   37.97   1
   9   1  -4  230.43   26.72   1
   9   1  -4  216.97   46.55   1
   9   1  -3   -4.28   37.09   1
   9   1  -3   -7.56   16.83   1
   9   1  -2  333.43   52.22   1
   9   1  -1  183.33   45.77   1
   9   1  -1  113.42   26.62   1
   9   1  -1  113.42   18.53   1
   9   1   0   48.16   19.15   1
   9   1   0   29.92    8.31   1
   9   1   1   53.88   44.48   1
   9   2  -9  182.79   21.36   1
   9   2  -9  203.92   21.13   1
   9   2  -9  254.40   36.68   1
   9   2  -9  154.50   23.87   1
   9   2  -8  -56.70   32.23   1
   9   2  -8   -5.20   13.22   1
   9   2  -7  -23.14   33.29   1
   9   2  -7  -14.14   10.90   1
   9   2  -6   -7.40   14.58   1
   9   2  -6   21.72   16.59   1
   9   2  -6  -36.97   37.45   1
   9   2  -6   -0.79   10.66   1
   9   2  -5  177.96   20.28   1
   9   2  -5  199.66   24.59   1
   9   2  -4  173.98   20.05   1
   9   2  -4  246.49   26.38   1
   9   2  -3  234.70   48.41   1
   9   2  -3  210.25   25.52   1
   9   2  -2  785.68   76.80   1
   9   2  -2  752.95   57.62   1
   9   2  -1    7.62   18.05   1
   9   2  -1   42.51   25.69   1
   9   2   0   19.36   38.37   1
   9   2   0   10.69   18.38   1
   9   2   1  214.62   47.76   1
   9   2   1  140.42   20.15   1
   9   3  -8  104.24   36.55   1
   9   3  -8   87.05   14.55   1
   9   3  -8   94.87   16.56   1
   9   3  -7   -6.35   33.31   1
   9   3  -7   -4.08   14.79   1
   9   3  -6   44.36   39.03   1
   9   3  -6   12.60   16.68   1
   9   3  -6   54.91   14.67   1
   9   3  -5    1.04   17.32   1
   9   3  -4   13.76   14.77   1
   9   3  -4   44.22   17.02   1
   9   3  -3   52.42   14.19   1
   9   3  -3   82.63   19.09   1
   9   3  -2  723.61   55.95   1
   9   3  -2  632.52   65.39   1
   9   3  -2  883.28   80.24   1
   9   3  -1   75.00   45.03   1
   9   3   0   14.75   31.41   1
   9   4  -7   -3.24   18.68   1
   9   4  -7   11.63   35.81   1
   9   4  -6   12.11   18.72   1
   9   4  -6  -19.36   40.22   1
   9   4  -5   42.77   16.35   1
   9   4  -5   23.72   37.89   1
   9   4  -4   73.62   43.76   1
   9   4  -3   23.91   12.81   1
   9   4  -3  -16.73   45.15   1
   9   4  -2  143.52   47.68   1
   9   5  -5  -15.29   16.50   1
   9   5  -5  -23.14   33.96   1
   9   5  -4   16.40   45.28   1
   9   5  -4   11.49   44.48   1
  10  -7  -4   12.39   23.72   1
  10  -7  -3   17.14   11.10   1
  10  -7  -3   -2.25   26.28   1
  10  -6  -6   89.11   27.00   1
  10  -6  -5   13.84   23.14   1
  10  -6  -4   21.90   28.45   1
  10  -6  -4   15.68   12.83   1
  10  -6  -3  119.68   17.07   1
  10  -6  -2  196.28   23.26   1
  10  -6  -1  207.94   25.96   1
  10  -6  -1  289.34   40.14   1
  10  -5  -7   19.71   25.04   1
  10  -5  -6   -6.86   25.20   1
  10  -5  -6    9.06   11.08   1
  10  -5  -5  207.65   20.75   1
  10  -5  -5  198.81   35.53   1
  10  -5  -4  108.37   17.28   1
  10  -5  -4  113.42   31.31   1
  10  -5  -3    7.90   15.57   1
  10  -5  -2   36.00   33.84   1
  10  -5  -2  -21.25   16.14   1
  10  -5  -1    8.64   33.05   1
  10  -5  -1    2.28   16.64   1
  10  -4  -8  191.82   30.19   1
  10  -4  -7   95.84   19.58   1
  10  -4  -7  131.33   16.50   1
  10  -4  -7  158.26   28.18   1
  10  -4  -6  225.90   33.97   1
  10  -4  -6  164.87   21.06   1
  10  -4  -6  152.03   18.99   1
  10  -4  -5  304.50   40.14   1
  10  -4  -5  247.75   26.13   1
  10  -4  -5  287.30   28.82   1
  10  -4  -4  122.54   21.48   1
  10  -4  -4  168.48   22.59   1
  10  -4  -4  140.42   34.37   1
  10  -4  -3   17.39   28.52   1
  10  -4  -3  -10.76   17.38   1
  10  -4  -2  197.40   25.29   1
  10  -4  -2  205.06   25.49   1
  10  -4  -2  271.26   38.21   1
  10  -4  -1    0.11   38.52   1
  10  -4  -1   -7.29   18.74   1
  10  -4  -1   12.25   18.97   1
  10  -4   0   81.00   40.14   1
  10  -3  -8   58.06   26.21   1
  10  -3  -7   25.91   29.11   1
  10  -3  -7   26.83   17.30   1
  10  -3  -6  169.00   33.54   1
  10  -3  -6  160.02   20.49   1
  10  -3  -6  152.03   19.23   1
  10  -3  -5  254.72   29.69   1
  10  -3  -5  300.68   31.21   1
  10  -3  -5  382.20   43.01   1
  10  -3  -4  -49.98   33.65   1
  10  -3  -4    9.49   18.42   1
  10  -3  -4    2.02   17.66   1
  10  -3  -3   13.91   18.43   1
  10  -3  -3   19.27   27.13   1
  10  -3  -3   -2.66   18.26   1
  10  -3  -2   19.80   19.94   1
  10  -3  -2   37.95   19.84   1
  10  -3  -2   21.90   36.60   1
  10  -3  -1   79.21   20.29   1
  10  -3  -1  108.99   39.25   1
  10  -3   0  156.00   42.47   1
  10  -3   0  105.27   20.93   1
  10  -2  -9   15.68   21.15   1
  10  -2  -9  -16.16   15.03   1
  10  -2  -8   21.34   27.54   1
  10  -2  -8   10.63   14.54   1
  10  -2  -7   16.48   28.99   1
  10  -2  -7  -13.18   16.92   1
  10  -2  -6   82.26   15.24   1
  10  -2  -6   24.40   32.21   1
  10  -2  -5  158.00   34.69   1
  10  -2  -5   85.75   21.30   1
  10  -2  -5   87.98   21.39   1
  10  -2  -4  -63.68   36.07   1
  10  -2  -3  -11.09   20.71   1
  10  -2  -3  -37.33   18.82   1
  10  -2  -3    4.41   32.84   1
  10  -2  -2  -15.21   18.88   1
  10  -2  -2   10.96   21.18   1
  10  -2  -2   -3.96   39.12   1
  10  -2  -1   47.47   41.62   1
  10  -2  -1    0.40   19.23   1
  10  -2  -1   -0.66   22.60   1
  10  -2   0   -9.99   40.01   1
  10  -2   0   14.29   19.88   1
  10  -1  -9   37.45   28.40   1
  10  -1  -9   68.06   15.18   1
  10  -1  -9   44.76   15.92   1
  10  -1  -8   -7.51   30.19   1
  10  -1  -8   -5.71   14.34   1
  10  -1  -7   84.82   18.60   1
  10  -1  -6  -11.76   34.51   1
  10  -1  -6    2.62   17.20   1
  10  -1  -5  -57.61   36.43   1
  10  -1  -5   52.42   18.53   1
  10  -1  -4   25.50   38.18   1
  10  -1  -4  -13.40   20.79   1
  10  -1  -4    7.90   18.60   1
  10  -1  -3  508.50   48.26   1
  10  -1  -3  667.71   47.55   1
  10  -1  -3  682.25   64.78   1
  10  -1  -2   67.24   19.02   1
  10  -1  -2   87.98   42.40   1
  10  -1  -2  110.04   19.09   1
  10  -1  -1  517.56   61.42   1
  10  -1  -1  434.31   44.60   1
  10  -1  -1  583.71   43.00   1
  10  -1   0  -20.70   43.77   1
  10   0  -8   59.29   16.17   1
  10   0  -8   60.84   30.89   1
  10   0  -7   14.98   35.60   1
  10   0  -7   83.72   18.12   1
  10   0  -6  -39.06   17.38   1
  10   0  -5  -49.98   31.67   1
  10   0  -5    0.50   12.23   1
  10   0  -4   27.77   39.63   1
  10   0  -4    4.08   17.90   1
  10   0  -3   -4.54   13.93   1
  10   0  -3    8.35   18.96   1
  10   0  -3  -10.56   44.07   1
  10   0  -2    0.67   21.68   1
  10   0  -2   22.00   30.49   1
  10   0  -1  207.94   48.45   1
  10   0   0   12.67   43.22   1
  10   1  -8   97.02   35.26   1
  10   1  -7  127.92   38.00   1
  10   1  -6  128.82   19.30   1
  10   1  -6  184.69   40.77   1
  10   1  -5  121.44   42.76   1
  10   1  -5  149.57   20.55   1
  10   1  -4  207.07   24.46   1
  10   1  -4  170.56   48.84   1
  10   1  -3   43.43   43.89   1
  10   1  -2  -13.84   43.52   1
  10   1  -1  207.07   48.06   1
  10   2  -7  -40.45   36.63   1
  10   2  -5   45.02   42.00   1
  10   2  -4   54.76   39.22   1
  10   2  -3   52.27   45.12   1
  10   2  -2  151.78   47.06   1
  10   3  -6  137.12   42.16   1
  10   3  -5   -2.59   43.47   1
  10   3  -4  -17.39   46.62   1
  11  -4  -5  105.06   33.01   1
  11  -4  -4  -54.46   33.65   1
  11  -4  -4   20.07   14.87   1
  11  -3  -6  114.06   18.58   1
  11  -3  -5  153.26   33.92   1
  11  -3  -5  157.75   20.85   1
  11  -3  -4   -5.11   16.23   1
  11  -3  -4   21.44   33.71   1
  11  -3  -3   21.34   37.70   1
  11  -2  -6   54.46   16.97   1
  11  -2  -5  195.72   33.58   1
  11  -2  -5  153.51   22.30   1
  11  -2  -4   44.89   18.36   1
  11  -2  -4   74.48   37.97   1
  11  -2  -3  518.47   56.47   1
  11  -1  -6   40.32   34.67   1
  11  -1  -5    1.32   35.42   1
  11  -1  -4  218.45   44.93   1
  11  -1  -3  -49.14   38.70   1
  11   0  -5   51.41   41.01   1
  11   0  -4  119.46   43.28   1
   0   0   0    0.00    0.00   0
;
_shelx_hkl_checksum              51411
_shelx_res_file
;
TITL jj16cg
CELL  0.71073   8.6570   8.8622   9.0321   92.649  113.635  100.632
ZERR     2.00   0.0005   0.0017   0.0011    0.013    0.009    0.012
LATT   1
SFAC  C    H    CL   N
UNIT  28 28 2 6
MERG   2
OMIT    -2.00  180..00
FMAP   2
PLAN   20
SIZE     0.170   0.210   0.370
ACTA
BOND   $H
CONF
HTAB
LIST   4
L.S.   20
OMIT -1 -1 1
TEMP  -153.00
MPLA N1 C2 N3 C4 C4a C11a
MPLA 6 C6a C7 C8 C9 C10 C10a C61 C111
WGHT    0.042200    0.666800
FVAR       1.59460
N1    4    0.572703    0.558342    0.356146    11.00000    0.02667    0.02361 =
         0.02654    0.00576    0.01169    0.00556
C2    1    0.682467    0.654762    0.488370    11.00000    0.03109    0.02149 =
         0.02936    0.00475    0.01539    0.00515
AFIX  43
H2    2    0.664693    0.757099    0.494172    11.00000   -1.20000
AFIX   0
N3    4    0.815695    0.624258    0.614820    11.00000    0.02657    0.02402 =
         0.02481    0.00209    0.01142    0.00070
C4    1    0.840014    0.481016    0.594529    11.00000    0.01993    0.02626 =
         0.02130    0.00524    0.00975    0.00213
CL4   3    1.020734    0.444485    0.754889    11.00000    0.02355    0.03090 =
         0.02493    0.00493    0.00487    0.00246
C4a   1    0.741644    0.367205    0.462721    11.00000    0.01942    0.02542 =
         0.02137    0.00499    0.01102    0.00318
C5    1    0.800953    0.218692    0.447164    11.00000    0.02083    0.02594 =
         0.02463    0.00505    0.00841    0.00730
AFIX  23
H5A   2    0.766784    0.147099    0.515193    11.00000   -1.20000
H5B   2    0.928822    0.243460    0.492154    11.00000   -1.20000
AFIX   0
C6    1    0.729407    0.133892    0.272544    11.00000    0.02038    0.02472 =
         0.02447    0.00512    0.01160    0.00552
AFIX  13
H6    2    0.735548    0.212662    0.198146    11.00000   -1.20000
AFIX   0
C6a   1    0.541568    0.056607    0.221749    11.00000    0.02402    0.02553 =
         0.01767    0.00647    0.01004    0.00648
C7    1    0.482674   -0.103744    0.202351    11.00000    0.02618    0.02412 =
         0.02478    0.00417    0.01103    0.00651
AFIX  43
H7    2    0.561163   -0.168796    0.212301    11.00000   -1.20000
AFIX   0
C8    1    0.311699   -0.170365    0.168793    11.00000    0.03007    0.02217 =
         0.02920    0.00488    0.01298    0.00354
AFIX  43
H8    2    0.273990   -0.279821    0.155116    11.00000   -1.20000
AFIX   0
C9    1    0.196464   -0.076458    0.155369    11.00000    0.02230    0.03034 =
         0.02589    0.00374    0.01064    0.00159
AFIX  43
H9    2    0.080074   -0.121398    0.134602    11.00000   -1.20000
AFIX   0
C10   1    0.251218    0.083226    0.172283    11.00000    0.02233    0.02569 =
         0.02093    0.00398    0.00836    0.00571
AFIX  43
H10   2    0.171699    0.147296    0.161909    11.00000   -1.20000
AFIX   0
C10a  1    0.422233    0.150224    0.204412    11.00000    0.02405    0.02151 =
         0.01630    0.00152    0.00740    0.00377
N11   4    0.471155    0.315096    0.210015    11.00000    0.02245    0.02170 =
         0.02201    0.00465    0.00640    0.00518
C11a  1    0.595418    0.411817    0.344414    11.00000    0.02129    0.02237 =
         0.02061    0.00437    0.01112    0.00233
C61   1    0.843646    0.022354    0.266840    11.00000    0.02571    0.02929 =
         0.03284    0.00110    0.01473    0.00510
AFIX 137
H61A  2    0.796041   -0.034942    0.156993    11.00000   -1.50000
H61B  2    0.846677   -0.050687    0.345661    11.00000   -1.50000
H61C  2    0.961181    0.081458    0.294225    11.00000   -1.50000
AFIX   0
C111  1    0.342552    0.385373    0.086858    11.00000    0.02663    0.02623 =
         0.02254    0.00772    0.00695    0.00820
AFIX 137
H11A  2    0.401192    0.483579    0.068508    11.00000   -1.50000
H11B  2    0.256675    0.404480    0.126204    11.00000   -1.50000
H11C  2    0.284657    0.314581   -0.015664    11.00000   -1.50000
AFIX   0
HKLF 4
REM  jj16cg
REM R1 =  0.0528 for    2068 Fo > 4sig(Fo)  and  0.0858 for all    2835 data
REM    165 parameters refined using      0 restraints
END
WGHT      0.0422      0.6669
REM Instructions for potential hydrogen bonds
EQIV $1 -x+1, -y+1, -z+1
HTAB C111 N3_$1
REM Highest difference peak  0.405,  deepest hole -0.388,  1-sigma level  0.076
Q1    1   0.6616  0.3795  0.4195  11.00000  0.05    0.40
Q2    1   0.9225  0.4621  0.6673  11.00000  0.05    0.34
Q3    1   0.9755  0.3177  0.7208  11.00000  0.05    0.31
Q4    1   0.7462  0.6270  0.5574  11.00000  0.05    0.28
Q5    1   1.0429  0.5712  0.7729  11.00000  0.05    0.27
Q6    1   0.7945  0.4197  0.5061  11.00000  0.05    0.26
Q7    1   0.7521  0.2967  0.4493  11.00000  0.05    0.26
Q8    1   0.5428  0.3690  0.4644  11.00000  0.05    0.26
Q9    1   0.3965  0.4558 -0.0387  11.00000  0.05    0.25
Q10   1   0.5007  0.1130  0.2354  11.00000  0.05    0.25
Q11   1   0.9508  0.3047  0.5680  11.00000  0.05    0.24
Q12   1   0.5056  0.4193  0.0648  11.00000  0.05    0.24
Q13   1   0.9168  0.5483  0.7426  11.00000  0.05    0.24
Q14   1   0.6977  0.2598  0.1435  11.00000  0.05    0.23
Q15   1   0.7971  0.0988  0.2602  11.00000  0.05    0.23
Q16   1   0.3402 -0.0879  0.3271  11.00000  0.05    0.23
Q17   1   0.6567  0.1609  0.5849  11.00000  0.05    0.23
Q18   1   0.9575  0.6495  0.7120  11.00000  0.05    0.23
Q19   1   0.4936  0.5705  0.2634  11.00000  0.05    0.22
Q20   1   0.7533  0.1650  0.3566  11.00000  0.05    0.22
;
_shelx_res_checksum              52080
_shelxl_version_number           2.014
loop_
_space_group_symop_operation_xyz
'x, y, z'
'-x, -y, -z'
loop_
_atom_site_type_symbol
_atom_site_label
_atom_site_fract_x
_atom_site_fract_y
_atom_site_fract_z
_atom_site_U_iso_or_equiv
_atom_site_adp_type
_atom_site_calc_flag
_atom_site_occupancy
N N1 0.5727(3) 0.5583(3) 0.3561(3) 0.0253(5) Uani d 1
C C2 0.6825(3) 0.6548(3) 0.4884(3) 0.0264(5) Uani d 1
H H2 0.6647 0.7571 0.4942 0.032 Uiso calc 1
N N3 0.8157(3) 0.6243(3) 0.6148(3) 0.0256(5) Uani d 1
C C4 0.8400(3) 0.4810(3) 0.5945(3) 0.0225(5) Uani d 1
Cl Cl4 1.02073(8) 0.44448(8) 0.75489(8) 0.02865(19) Uani d 1
C C4a 0.7416(3) 0.3672(3) 0.4627(3) 0.0214(5) Uani d 1
C C5 0.8010(3) 0.2187(3) 0.4472(3) 0.0238(5) Uani d 1
H H5A 0.7668 0.1471 0.5152 0.029 Uiso calc 1
H H5B 0.9288 0.2435 0.4922 0.029 Uiso calc 1
C C6 0.7294(3) 0.1339(3) 0.2725(3) 0.0223(5) Uani d 1
H H6 0.7355 0.2127 0.1981 0.027 Uiso calc 1
C C6a 0.5416(3) 0.0566(3) 0.2217(3) 0.0217(5) Uani d 1
C C7 0.4827(3) -0.1037(3) 0.2024(3) 0.0247(5) Uani d 1
H H7 0.5612 -0.1688 0.2123 0.030 Uiso calc 1
C C8 0.3117(3) -0.1704(3) 0.1688(3) 0.0272(6) Uani d 1
H H8 0.2740 -0.2798 0.1551 0.033 Uiso calc 1
C C9 0.1965(3) -0.0765(3) 0.1554(3) 0.0266(5) Uani d 1
H H9 0.0801 -0.1214 0.1346 0.032 Uiso calc 1
C C10 0.2512(3) 0.0832(3) 0.1723(3) 0.0231(5) Uani d 1
H H10 0.1717 0.1473 0.1619 0.028 Uiso calc 1
C C10a 0.4222(3) 0.1502(3) 0.2044(3) 0.0212(5) Uani d 1
N N11 0.4712(3) 0.3151(2) 0.2100(2) 0.0229(4) Uani d 1
C C11a 0.5954(3) 0.4118(3) 0.3444(3) 0.0209(5) Uani d 1
C C61 0.8436(3) 0.0224(3) 0.2668(3) 0.0287(6) Uani d 1
H H61A 0.7960 -0.0349 0.1570 0.043 Uiso calc 1
H H61B 0.8467 -0.0507 0.3457 0.043 Uiso calc 1
H H61C 0.9612 0.0815 0.2942 0.043 Uiso calc 1
C C111 0.3426(3) 0.3854(3) 0.0869(3) 0.0257(5) Uani d 1
H H11A 0.4012 0.4836 0.0685 0.039 Uiso calc 1
H H11B 0.2567 0.4045 0.1262 0.039 Uiso calc 1
H H11C 0.2847 0.3146 -0.0157 0.039 Uiso calc 1
loop_
_atom_site_aniso_label
_atom_site_aniso_U_11
_atom_site_aniso_U_22
_atom_site_aniso_U_33
_atom_site_aniso_U_12
_atom_site_aniso_U_13
_atom_site_aniso_U_23
N1 0.0267(11) 0.0236(11) 0.0265(11) 0.0056(9) 0.0117(9) 0.0058(9)
C2 0.0311(14) 0.0215(13) 0.0294(13) 0.0051(11) 0.0154(11) 0.0048(10)
N3 0.0266(11) 0.0240(11) 0.0248(11) 0.0007(9) 0.0114(9) 0.0021(9)
C4 0.0199(12) 0.0263(13) 0.0213(11) 0.0021(10) 0.0097(10) 0.0052(10)
Cl4 0.0236(3) 0.0309(4) 0.0249(3) 0.0025(2) 0.0049(2) 0.0049(2)
C4a 0.0194(11) 0.0254(13) 0.0214(11) 0.0032(10) 0.0110(9) 0.0050(10)
C5 0.0208(12) 0.0259(13) 0.0246(12) 0.0073(10) 0.0084(10) 0.0051(10)
C6 0.0204(12) 0.0247(13) 0.0245(12) 0.0055(10) 0.0116(10) 0.0051(10)
C6a 0.0240(12) 0.0255(13) 0.0177(11) 0.0065(10) 0.0100(9) 0.0065(9)
C7 0.0262(13) 0.0241(13) 0.0248(12) 0.0065(10) 0.0110(10) 0.0042(10)
C8 0.0301(14) 0.0222(13) 0.0292(13) 0.0035(11) 0.0130(11) 0.0049(10)
C9 0.0223(12) 0.0303(14) 0.0259(13) 0.0016(11) 0.0106(10) 0.0037(11)
C10 0.0223(12) 0.0257(13) 0.0209(11) 0.0057(10) 0.0084(10) 0.0040(10)
C10a 0.0240(12) 0.0215(12) 0.0163(11) 0.0038(10) 0.0074(9) 0.0015(9)
N11 0.0225(10) 0.0217(11) 0.0220(10) 0.0052(9) 0.0064(8) 0.0046(8)
C11a 0.0213(12) 0.0224(12) 0.0206(11) 0.0023(9) 0.0111(9) 0.0044(9)
C61 0.0257(13) 0.0293(14) 0.0328(14) 0.0051(11) 0.0147(11) 0.0011(11)
C111 0.0266(13) 0.0262(13) 0.0225(12) 0.0082(11) 0.0069(10) 0.0077(10)
loop_
_atom_type_symbol
_atom_type_description
_atom_type_scat_dispersion_real
_atom_type_scat_dispersion_imag
_atom_type_scat_source
C C 0.0033 0.0016 'International Tables Vol C Tables 4.2.6.8 and 6.1.1.4'
H H 0.0000 0.0000 'International Tables Vol C Tables 4.2.6.8 and 6.1.1.4'
Cl Cl 0.1484 0.1585 'International Tables Vol C Tables 4.2.6.8 and 6.1.1.4'
N N 0.0061 0.0033 'International Tables Vol C Tables 4.2.6.8 and 6.1.1.4'
loop_
_geom_angle_atom_site_label_1
_geom_angle_atom_site_label_2
_geom_angle_atom_site_label_3
_geom_angle
C2 N1 C11a 117.6(2)
N1 C2 N3 127.4(2)
N1 C2 H2 116.3
N3 C2 H2 116.3
C2 N3 C4 113.3(2)
N3 C4 C4a 127.0(2)
N3 C4 Cl4 113.32(19)
C4a C4 Cl4 119.63(19)
C4 C4a C11a 113.2(2)
C4 C4a C5 120.4(2)
C11a C4a C5 126.1(2)
C4a C5 C6 115.4(2)
C4a C5 H5A 108.4
C6 C5 H5A 108.4
C4a C5 H5B 108.4
C6 C5 H5B 108.4
H5A C5 H5B 107.5
C6a C6 C61 114.3(2)
C6a C6 C5 108.37(19)
C61 C6 C5 109.1(2)
C6a C6 H6 108.3
C61 C6 H6 108.3
C5 C6 H6 108.3
C7 C6a C10a 118.1(2)
C7 C6a C6 123.0(2)
C10a C6a C6 118.7(2)
C8 C7 C6a 121.5(2)
C8 C7 H7 119.3
C6a C7 H7 119.3
C9 C8 C7 119.7(2)
C9 C8 H8 120.1
C7 C8 H8 120.1
C8 C9 C10 120.0(2)
C8 C9 H9 120.0
C10 C9 H9 120.0
C9 C10 C10a 120.4(2)
C9 C10 H10 119.8
C10a C10 H10 119.8
C10 C10a C6a 120.3(2)
C10 C10a N11 118.7(2)
C6a C10a N11 120.9(2)
C11a N11 C10a 123.9(2)
C11a N11 C111 117.3(2)
C10a N11 C111 115.6(2)
N1 C11a N11 114.7(2)
N1 C11a C4a 121.1(2)
N11 C11a C4a 124.2(2)
C6 C61 H61A 109.5
C6 C61 H61B 109.5
H61A C61 H61B 109.5
C6 C61 H61C 109.5
H61A C61 H61C 109.5
H61B C61 H61C 109.5
N11 C111 H11A 109.5
N11 C111 H11B 109.5
H11A C111 H11B 109.5
N11 C111 H11C 109.5
H11A C111 H11C 109.5
H11B C111 H11C 109.5
loop_
_geom_bond_atom_site_label_1
_geom_bond_atom_site_label_2
_geom_bond_distance
N1 C2 1.325(3)
N1 C11a 1.354(3)
C2 N3 1.340(3)
C2 H2 0.9500
N3 C4 1.341(3)
C4 C4a 1.385(4)
C4 Cl4 1.750(3)
C4a C11a 1.428(3)
C4a C5 1.518(3)
C5 C6 1.540(3)
C5 H5A 0.9900
C5 H5B 0.9900
C6 C6a 1.512(3)
C6 C61 1.534(3)
C6 H6 1.0000
C6a C7 1.396(4)
C6a C10a 1.407(3)
C7 C8 1.390(4)
C7 H7 0.9500
C8 C9 1.386(4)
C8 H8 0.9500
C9 C10 1.387(4)
C9 H9 0.9500
C10 C10a 1.394(3)
C10 H10 0.9500
C10a N11 1.437(3)
N11 C11a 1.372(3)
N11 C111 1.480(3)
C61 H61A 0.9800
C61 H61B 0.9800
C61 H61C 0.9800
C111 H11A 0.9800
C111 H11B 0.9800
C111 H11C 0.9800
loop_
_geom_torsion_atom_site_label_1
_geom_torsion_atom_site_label_2
_geom_torsion_atom_site_label_3
_geom_torsion_atom_site_label_4
_geom_torsion
C11a N1 C2 N3 -0.2(4)
N1 C2 N3 C4 3.8(4)
C2 N3 C4 C4a -1.6(4)
C2 N3 C4 Cl4 176.89(18)
N3 C4 C4a C11a -3.6(4)
Cl4 C4 C4a C11a 178.01(17)
N3 C4 C4a C5 171.3(2)
Cl4 C4 C4a C5 -7.1(3)
C4 C4a C5 C6 -156.0(2)
C11a C4a C5 C6 18.3(3)
C4a C5 C6 C6a -74.1(3)
C4a C5 C6 C61 160.9(2)
C61 C6 C6a C7 12.0(3)
C5 C6 C6a C7 -109.9(3)
C61 C6 C6a C10a -172.7(2)
C5 C6 C6a C10a 65.4(3)
C10a C6a C7 C8 -0.8(4)
C6 C6a C7 C8 174.6(2)
C6a C7 C8 C9 -0.5(4)
C7 C8 C9 C10 1.3(4)
C8 C9 C10 C10a -0.7(4)
C9 C10 C10a C6a -0.7(4)
C9 C10 C10a N11 175.8(2)
C7 C6a C10a C10 1.4(3)
C6 C6a C10a C10 -174.2(2)
C7 C6a C10a N11 -175.0(2)
C6 C6a C10a N11 9.4(3)
C10 C10a N11 C11a 120.1(3)
C6a C10a N11 C11a -63.5(3)
C10 C10a N11 C111 -39.1(3)
C6a C10a N11 C111 137.3(2)
C2 N1 C11a N11 176.0(2)
C2 N1 C11a C4a -5.7(3)
C10a N11 C11a N1 -151.8(2)
C111 N11 C11a N1 7.1(3)
C10a N11 C11a C4a 29.9(4)
C111 N11 C11a C4a -171.2(2)
C4 C4a C11a N1 7.3(3)
C5 C4a C11a N1 -167.3(2)
C4 C4a C11a N11 -174.6(2)
C5 C4a C11a N11 10.9(4)

_cod_database_fobs_code 2020294
