#------------------------------------------------------------------------------
#$Date: 2015-07-16 04:52:48 +0300 (Thu, 16 Jul 2015) $
#$Revision: 152105 $
#$URL: svn://www.crystallography.net/cod/cif/2/02/00/2020050.cif $
#------------------------------------------------------------------------------
#
# This file is available in the Crystallography Open Database (COD),
# http://www.crystallography.net/. The original data for this entry
# were provided by IUCr Journals, http://journals.iucr.org/.
#
# The file may be used within the scientific community so long as
# proper attribution is given to the journal article from which the
# data were obtained.
#
data_2020050
loop_
_publ_author_name
'Weil, Matthias'
_publ_section_title
;
 A linear bridging angle in the pyrovanadate group within the crystal
 structure of Hg~2~V~2~Te~2~O~11~
;
_journal_coeditor_code           KY3085
_journal_issue                   8
_journal_name_full               'Acta Crystallographica Section C'
_journal_page_first
;
;
_journal_paper_doi               10.1107/S2053229615013406
_journal_volume                  71
_journal_year                    2015
_chemical_formula_iupac          'Hg2 Te2 V2 O11'
_chemical_formula_structural     'Hg2 V2 Te2 O11'
_chemical_formula_sum            'Hg2 O11 Te2 V2'
_chemical_formula_weight         934.26
_chemical_name_systematic
;
Dimercury(II) divanadium(V) ditellurium(IV) undecaoxide
;
_space_group_crystal_system      triclinic
_space_group_IT_number           2
_space_group_name_Hall           '-P 1'
_space_group_name_H-M_alt        'P -1'
_symmetry_space_group_name_Hall  '-P 1'
_symmetry_space_group_name_H-M   'P -1'
_atom_sites_solution_primary     difmap
_audit_creation_method           SHELXL-2014/7
_cell_angle_alpha                80.688(6)
_cell_angle_beta                 72.990(5)
_cell_angle_gamma                80.080(5)
_cell_formula_units_Z            1
_cell_length_a                   5.4000(16)
_cell_length_b                   5.6093(17)
_cell_length_c                   9.132(3)
_cell_measurement_reflns_used    2088
_cell_measurement_temperature    293(2)
_cell_measurement_theta_max      30.908
_cell_measurement_theta_min      3.713
_cell_volume                     258.73(14)
_computing_cell_refinement
;
SAINT (Bruker, 2006)
;
_computing_data_collection
;
SMART (Bruker, 2006)
;
_computing_data_reduction
;
SAINT (Bruker, 2006)
;
_computing_molecular_graphics
;
ATOMS (Dowty, 2006)
;
_computing_publication_material
;
publCIF (Westrip, 2010)
;
_computing_structure_refinement
;
SHELXL2014 (Sheldrick, 2015)
;
_computing_structure_solution
;
SHELXS97 (Sheldrick, 2008)
;
_diffrn_ambient_temperature      293(2)
_diffrn_measured_fraction_theta_full 0.997
_diffrn_measured_fraction_theta_max 0.961
_diffrn_measurement_device_type  'Bruker SMART APEX CCD'
_diffrn_measurement_method       \w-scans
_diffrn_radiation_type           MoK\a
_diffrn_radiation_wavelength     0.71073
_diffrn_reflns_av_R_equivalents  0.0217
_diffrn_reflns_limit_h_max       7
_diffrn_reflns_limit_h_min       -7
_diffrn_reflns_limit_k_max       8
_diffrn_reflns_limit_k_min       -7
_diffrn_reflns_limit_l_max       13
_diffrn_reflns_limit_l_min       -13
_diffrn_reflns_number            2989
_diffrn_reflns_theta_full        25.242
_diffrn_reflns_theta_max         30.984
_diffrn_reflns_theta_min         3.714
_exptl_absorpt_coefficient_mu    36.902
_exptl_absorpt_correction_T_max  0.199
_exptl_absorpt_correction_T_min  0.113
_exptl_absorpt_correction_type   multi-scan
_exptl_absorpt_process_details
;
(<i>SADABS</i>; Bruker, 2006)
;
_exptl_crystal_colour            'light yellow'
_exptl_crystal_density_diffrn    5.996
_exptl_crystal_description       block
_exptl_crystal_F_000             398
_exptl_crystal_size_max          0.24
_exptl_crystal_size_mid          0.22
_exptl_crystal_size_min          0.12
_refine_diff_density_max         2.932
_refine_diff_density_min         -2.171
_refine_ls_extinction_coef       0.0145(8)
_refine_ls_extinction_expression Fc^*^=kFc[1+0.001xFc^2^\l^3^/sin(2\q)]^-1/4^
_refine_ls_extinction_method
;
SHELXL2014 (Sheldrick, 2015)
;
_refine_ls_goodness_of_fit_ref   1.044
_refine_ls_matrix_type           full
_refine_ls_number_parameters     80
_refine_ls_number_reflns         1585
_refine_ls_number_restraints     0
_refine_ls_restrained_S_all      1.044
_refine_ls_R_factor_all          0.0280
_refine_ls_R_factor_gt           0.0269
_refine_ls_shift/su_max          0.001
_refine_ls_shift/su_mean         0.000
_refine_ls_structure_factor_coef Fsqd
_refine_ls_weighting_details
'w=1/[\s^2^(Fo^2^)+(0.0305P)^2^+1.9407P] where P=(Fo^2^+2Fc^2^)/3'
_refine_ls_weighting_scheme      calc
_refine_ls_wR_factor_gt          0.0656
_refine_ls_wR_factor_ref         0.0661
_reflns_number_gt                1515
_reflns_number_total             1585
_reflns_threshold_expression     I>2\s(I)
_cod_data_source_file            ky3085sup1.cf
_cod_data_source_block           I
_cod_database_code               2020050
_shelx_space_group_comment
;
The symmetry employed for this shelxl refinement is uniquely defined
by the following loop, which should always be used as a source of
symmetry information in preference to the above space-group names.
They are only intended as comments.
;
_shelx_estimated_absorpt_t_min   0.041
_shelx_estimated_absorpt_t_max   0.096
_shelx_hkl_file
;
   1   0   0   45.55    2.46   3
  -1   0   0   46.50    2.29   2
  -2   0   0 4697.34  138.46   2
   2   0   0 4799.06  146.04   3
  -2   0   0 4311.10  156.63   1
   3   0   0  252.11    9.97   3
  -3   0   0  244.10    9.43   2
  -3   0   0  243.99    9.40   1
   4   0   0   96.16    5.61   3
  -4   0   0   90.84    5.47   2
   5   0   0    7.27    2.29   3
  -5   0   0    7.63    2.48   2
  -6   0   0   78.82    6.17   2
   6   0   0   79.44    6.33   3
   7   0   0  170.25   10.56   3
  -7   0   0  167.24   10.50   2
  -7   1   0  722.77   29.31   2
   7  -1   0  775.96   29.96   3
   6  -1   0   95.24    6.74   3
  -6   1   0   88.86    7.07   2
  -5   1   0 2743.93   85.78   2
   5  -1   0 2706.94   89.53   3
   4  -1   0  479.59   18.10   3
  -4   1   0  486.38   17.86   2
  -3   1   0 2716.01   91.27   1
   3  -1   0 2650.49   85.90   3
  -3   1   0 2636.54   82.06   2
  -2   1   0  350.72   12.19   2
   2  -1   0  345.33   12.41   3
  -1   1   0   75.17    4.11   1
  -1   1   0   75.24    3.86   2
   1  -1   0   70.74    3.72   3
   0  -1   0  271.30    9.58   3
   0   1   0  257.31    9.97   1
   1   1   0  647.94   19.72   2
   1   1   0  632.53   22.53   1
   1   1   0  652.34   21.54   3
  -2  -1   0 1695.95   50.32   2
   2   1   0 1646.03   53.47   3
   2   1   0 1599.88   56.71   1
   3   1   0 4568.35  145.00   3
  -3  -1   0 4535.32  137.01   2
  -3  -1   0 4510.50  156.08   1
  -4  -1   0  425.67   15.41   2
   4   1   0  433.03   16.79   3
  -5  -1   0 3052.09   93.21   2
   5   1   0 2947.95   98.61   3
  -6  -1   0   17.63    3.42   2
  -7  -1   0  321.56   15.14   2
   7   1   0  331.35   16.42   3
  -6   2   0   50.48    6.13   2
   6  -2   0   50.78    5.15   3
   5  -2   0   48.31    4.46   3
  -5   2   0   53.53    5.45   2
  -4   2   0  782.67   27.61   2
   4  -2   0  795.76   27.95   3
  -3   2   0    2.97    1.69   1
   3  -2   0    5.04    1.67   3
  -3   2   0    3.34    2.16   2
   2  -2   0 8453.56  275.49   3
  -2   2   0 8626.72  261.04   2
  -2   2   0 8964.25  297.44   1
  -1   2   0   33.46    3.46   2
   1  -2   0   21.04    2.57   3
  -1   2   0   18.94    2.55   1
   0   2   0 5677.07  184.30   2
   0   2   0 6259.10  209.00   1
   0  -2   0 6303.15  192.86   3
   1   2   0  212.87    7.01   2
   1   2   0  211.86    8.90   1
  -1  -2   0  242.12   11.00   3
   2   2   0  968.87   29.51   2
   2   2   0  960.72   34.01   1
   2   2   0  950.72   32.73   3
  -3  -2   0   38.88    2.83   2
   3   2   0   39.98    3.68   1
   3   2   0   35.50    3.65   3
   4   2   0   37.96    4.30   3
  -4  -2   0   49.37    3.58   2
  -5  -2   0  150.28    7.33   2
   5   2   0  135.89    8.66   3
   6   2   0   69.24    6.62   3
  -6  -2   0   65.69    5.39   2
   7   2   0  262.56   14.75   3
  -7  -2   0  258.38   12.76   2
   6  -3   0  230.51   11.97   3
  -6   3   0  221.23   13.51   2
   5  -3   0 1819.02   62.30   3
  -5   3   0 1871.56   61.60   2
   4  -3   0  335.82   13.67   3
  -4   3   0  319.89   14.65   2
  -3   3   0  397.15   15.85   2
   3  -3   0  380.08   14.84   3
  -3   3   0  392.51   15.84   1
  -2   3   0   74.19    5.99   2
   2  -3   0   75.64    4.76   3
  -2   3   0   80.09    5.20   1
  -1   3   0  260.75   11.74   2
  -1   3   0  250.77   11.19   1
   1  -3   0  265.35   10.37   3
   0   3   0 1052.62   37.42   1
   0  -3   0 1071.27   35.04   3
   0   3   0  990.45   34.49   2
   1   3   0 2688.68   77.69   2
  -1  -3   0 2368.63   86.54   3
   1   3   0 2673.34   89.44   1
   2   3   0  279.13   11.99   1
   2   3   0  292.25    9.48   2
  -2  -3   0  296.40   14.19   3
   3   3   0 4047.15  141.15   1
  -3  -3   0 4156.59  123.85   2
   4   3   0   56.05    5.79   3
  -4  -3   0   59.36    3.85   2
  -5  -3   0 1339.32   43.20   2
   5   3   0 1354.87   48.47   3
  -6  -3   0    2.53    2.22   2
   6   3   0    1.37    3.43   3
   7   3   0   41.54    6.73   3
   5  -4   0   66.19    5.57   3
  -5   4   0   62.19    7.84   2
   4  -4   0 2091.93   69.39   3
  -4   4   0 2071.88   69.24   2
  -3   4   0   27.71    5.22   2
   3  -4   0   14.57    2.64   3
  -3   4   0   18.00    3.13   1
  -2   4   0 5292.89  160.54   2
  -2   4   0 4975.99  178.05   1
   2  -4   0 5279.48  165.38   3
   1  -4   0  195.71    8.70   3
  -1   4   0  186.58    9.70   1
  -1   4   0  178.60   12.70   2
   0   4   0 2083.92   72.56   1
   0  -4   0 2014.79   67.22   3
  -1  -4   0   80.08    8.07   3
   1   4   0   56.39    4.96   1
  -2  -4   0  107.35   10.81   3
   2   4   0   89.71    6.12   1
  -3  -4   0  186.31   12.44   3
   3   4   0  216.06   10.65   1
  -4  -4   0   11.31    4.18   3
  -5  -4   0  387.42   19.57   3
  -6  -4   0  229.32   15.11   3
  -3   5   0  149.63    9.09   1
  -2   5   0  220.97   11.58   1
  -1   5   0  353.95   16.24   1
   1  -5   0  358.90   14.32   3
   0   5   0  380.37   16.79   1
   0  -5   0  372.15   15.22   3
  -1  -5   0 2263.31   73.80   3
   1   5   0 2079.97   77.37   1
  -2  -5   0   84.49    9.52   3
   2   5   0  103.22    7.21   1
   3   5   0 2157.75   76.81   1
  -3  -5   0 2074.12   76.31   3
  -4  -5   0   13.53    5.97   3
  -5  -5   0  297.04   18.24   3
  -6  -5   0    4.73    4.83   3
  -3   6   0   32.74    4.76   1
  -2   6   0 1629.16   60.61   1
  -1   6   0   70.29    6.44   1
   0   6   0  482.80   21.47   1
   1   6   0   27.67    4.62   1
   2   6   0   17.08    4.28   1
   3   6   0  310.09   16.60   1
  -4  -6   0   33.28    8.19   3
  -5  -6   0  170.93   15.87   3
  -2   7   0  224.36   13.29   1
  -1   7   0  514.40   23.67   1
   0   7   0  111.40    8.84   1
   1   7   0 1086.85   43.78   1
   2   7   0    1.90    3.66   1
   3   7   0  617.56   28.92   1
   3   7  -1    8.76    5.00   1
   2   7  -1   26.94    5.68   1
   1   7  -1  413.90   20.85   1
   0   7  -1   43.40    6.30   1
  -1   7  -1 1420.60   55.16   1
  -2   7  -1    1.96    3.14   1
  -5  -6   1    9.31    6.49   3
  -4  -6   1 1025.55   43.47   3
   3   6  -1  153.14   11.36   1
  -3  -6   1  168.15   13.44   3
   2   6  -1  725.90   29.69   1
  -2  -6   1  651.14   30.55   3
  -1  -6   1  189.98   12.76   3
   1   6  -1  164.22   10.72   1
   0   6  -1   44.12    5.68   1
  -1   6  -1   25.41    4.56   1
  -2   6  -1   70.73    6.97   1
  -3   6  -1   98.92    8.09   1
  -6  -5   1   47.99    9.05   3
  -5  -5   1    8.19    5.60   3
  -4  -5   1   -2.38    5.06   3
   3   5  -1  156.79    9.97   1
  -3  -5   1  160.83   13.43   3
   2   5  -1   43.14    4.93   1
  -2  -5   1   28.03    6.89   3
  -1  -5   1 2093.72   72.42   3
   1   5  -1 2051.25   74.62   1
   0   5  -1   11.47    3.43   1
   0  -5   1   12.36    3.58   3
  -1   5  -1 3903.62  134.85   1
   1  -5   1 3809.80  124.97   3
   2  -5   1   53.21    4.96   3
  -2   5  -1   50.85    5.36   1
  -3   5  -1 1001.76   38.92   1
   3  -5   1 1022.27   35.97   3
  -6  -4   1  729.19   32.78   3
  -5  -4   1  149.97   11.45   3
  -4  -4   1 1499.61   55.13   3
  -3  -4   1  204.66   13.30   3
   3   4  -1  206.56   10.67   1
   2   4  -1  459.98   18.88   1
  -2  -4   1  444.82   22.09   3
   1   4  -1   40.88    4.49   1
  -1  -4   1   39.70    6.68   3
   0  -4   1   31.42    4.62   3
   0   4  -1   29.31    3.79   1
   1  -4   1   36.66    3.94   3
  -1   4  -1   27.09    3.83   1
   2  -4   1 1455.85   48.08   3
  -2   4  -1 1428.63   47.63   2
  -2   4  -1 1392.35   51.87   1
   3  -4   1  523.22   19.90   3
  -3   4  -1  528.91   21.49   1
  -3   4  -1  510.24   20.80   2
  -4   4  -1 2786.41   90.24   2
   4  -4   1 2832.90   92.56   3
   5  -4   1  131.86    8.30   3
  -5   4  -1  135.79   10.83   2
   6  -4   1 1277.73   47.21   3
  -6   4  -1 1344.72   48.72   2
   6   3  -1    1.61    3.72   3
   5   3  -1   10.05    4.11   3
  -4  -3   1  100.72    8.13   3
  -4  -3   1   92.26    4.93   2
   3   3  -1 1184.37   42.71   1
  -3  -3   1 1175.33   36.70   2
   2   3  -1   22.96    2.72   1
  -2  -3   1   20.44    1.66   2
  -2  -3   1   30.98    5.33   3
   1   3  -1 6909.61  226.57   1
  -1  -3   1 6359.41  214.82   3
   0  -3   1  103.96    7.21   3
   0   3  -1   87.51    5.68   1
  -1   3  -1 4287.71  148.53   1
   1  -3   1 4369.80  138.32   3
  -1   3  -1 4310.45  131.53   2
   2  -3   1  160.17    7.56   3
  -2   3  -1  157.72    7.81   2
  -2   3  -1  150.12    8.11   1
  -3   3  -1  264.40   11.60   2
   3  -3   1  275.77   11.47   3
  -3   3  -1  266.92   12.04   1
   4  -3   1   40.59    4.07   3
  -4   3  -1   31.79    4.33   2
   5  -3   1   79.73    5.98   3
  -5   3  -1   84.88    7.43   2
  -6   3  -1  169.07   11.24   2
   6  -3   1  167.04   10.02   3
   7   2  -1   56.07    7.14   3
  -7  -2   1   48.26    5.63   2
   6   2  -1 1548.24   54.80   3
  -6  -2   1 1481.41   49.76   2
  -5  -2   1  262.16   11.14   2
   5   2  -1  252.90   13.22   3
   4   2  -1 1796.53   60.51   3
  -4  -2   1 1751.14   55.50   2
  -3  -2   1  332.36   11.40   2
   3   2  -1  326.56   12.82   1
   3   2  -1  299.92   13.44   3
  -2  -2   1   42.63    2.43   2
   2   2  -1   45.68    3.27   1
  -2  -2   1   32.06    3.86   3
  -1  -2   1   94.82    7.91   3
  -1  -2   1   84.33    3.11   2
   1   2  -1   81.14    4.69   1
   0   2  -1  692.48   24.95   1
   0  -2   1  668.73   24.52   3
  -1   2  -1 1730.74   51.39   2
  -1   2  -1 1667.47   58.56   1
   1  -2   1 1638.70   54.53   3
   2  -2   1 5125.93  163.16   3
  -2   2  -1 5070.01  154.96   2
  -2   2  -1 5206.31  175.33   1
  -3   2  -1  348.96   14.13   1
   3  -2   1  349.97   13.51   3
  -3   2  -1  348.16   13.27   2
  -4   2  -1 4362.23  134.98   2
   4  -2   1 4444.46  141.54   3
   5  -2   1    4.50    2.17   3
  -5   2  -1    8.17    2.90   2
  -6   2  -1  925.81   33.79   2
   6  -2   1  927.87   34.40   3
   7  -2   1    7.95    3.14   3
  -7   2  -1    0.55    3.44   2
  -7  -1   1   11.54    3.77   2
   7   1  -1    7.31    3.56   3
   6   1  -1   47.06    5.50   3
  -6  -1   1   51.11    5.11   2
   5   1  -1  192.70   10.29   3
  -5  -1   1  194.12    9.30   2
  -4  -1   1   76.78    4.90   2
   4   1  -1   77.61    5.78   3
  -3  -1   1 4579.61  159.58   1
  -3  -1   1 4687.94  141.05   2
   3   1  -1 4721.74  149.37   3
   2   1  -1   33.17    2.20   1
  -2  -1   1   38.93    2.58   2
   2   1  -1   39.09    3.48   3
  -1  -1   1 9993.33  301.12   2
   0  -1   1  247.04   10.35   3
   0   1  -1  261.79    9.81   1
  -1   1  -1 3640.11  125.64   1
   1  -1   1 3686.66  116.87   3
  -1   1  -1 3720.38  111.09   2
  -2   1  -1    5.85    1.64   1
  -2   1  -1    3.99    1.23   2
  -3   1  -1   99.28    5.21   1
   3  -1   1   89.88    5.09   3
  -3   1  -1   86.66    4.98   2
  -4   1  -1  243.44   10.96   2
   4  -1   1  303.99   11.58   3
   5  -1   1  218.25   10.66   3
  -5   1  -1  246.26   10.95   2
  -6   1  -1  501.12   19.67   2
   6  -1   1  463.71   19.68   3
  -7   1  -1  721.60   28.12   2
   7  -1   1  715.79   28.63   3
   7   0  -1  177.21   11.23   3
  -7   0   1  183.64   11.34   2
  -6   0   1 1346.66   45.21   2
   6   0  -1 1299.58   47.04   3
  -5   0   1  293.84   12.67   2
   5   0  -1  280.35   12.89   3
   4   0  -1  309.70   12.87   3
  -4   0   1  301.92   12.29   2
  -3   0   1   70.37    4.39   2
   3   0  -1   70.86    4.61   3
   2   0  -1  276.09   10.48   3
  -2   0   1  269.24   10.00   2
   1   0  -1 1529.81   49.39   3
  -1   0   1 1539.05   46.94   2
   1   0   1  824.30   24.35   2
   1   0   1  831.72   25.76   3
  -1   0  -1  727.18   29.16   1
  -2   0  -1 5128.55  192.68   1
   2   0   1 5823.19  179.33   3
  -2   0  -1 5951.58  171.35   2
  -3   0  -1   48.63    3.33   2
  -3   0  -1   55.45    4.95   1
   3   0   1   53.19    3.72   3
   4   0   1 4096.19  130.29   3
  -4   0  -1 4017.17  123.51   2
   5   0   1   13.45    2.70   3
  -5   0  -1   17.94    2.88   2
   6   0   1  325.89   14.91   3
  -6   0  -1  345.78   14.66   2
   7   0   1   17.68    3.79   3
  -7   0  -1   22.22    4.13   2
  -7   1   1   32.71    5.70   2
   7  -1  -1   33.19    4.91   3
   6  -1  -1  113.18    7.63   3
  -6   1   1  118.63    8.45   2
   5  -1  -1 1307.96   45.69   3
  -5   1   1 1346.44   44.62   2
   4  -1  -1   28.20    3.08   3
  -4   1   1   15.36    2.93   2
   3  -1  -1 7633.61  236.11   3
  -3   1   1 7248.38  252.31   1
  -3   1   1 7459.65  224.84   2
   2  -1  -1  783.83   25.86   3
  -2   1   1  758.65   25.25   2
  -1   1   1 6500.52  198.88   2
   1  -1  -1 6747.71  211.19   3
  -1   1   1 6606.90  226.01   1
   0   1   1  155.56    6.05   1
   0   1   1  152.01    7.81   2
   1   1   1  675.22   22.14   2
   1   1   1  744.31   25.45   1
   1   1   1  741.02   23.47   3
   2   1   1  477.12   17.77   1
   2   1   1  485.05   16.36   3
   2   1   1  444.66   15.05   2
  -3  -1  -1  265.49    9.99   2
   3   1   1  275.66   10.88   3
  -3  -1  -1  286.79   13.51   1
  -4  -1  -1  793.05   26.13   2
  -4  -1  -1  811.68   32.17   1
   4   1   1  767.68   27.85   3
  -5  -1  -1  635.52   22.00   2
   5   1   1  620.72   23.59   3
   6   1   1  325.14   14.84   3
  -6  -1  -1  324.68   13.91   2
   7   1   1  969.13   36.89   3
  -7  -1  -1  963.96   34.70   2
  -6   2   1  660.91   26.58   2
   6  -2  -1  645.96   25.57   3
   5  -2  -1  148.05    8.18   3
  -5   2   1  159.49    9.70   2
   4  -2  -1  179.76    8.53   3
  -4   2   1  184.88    9.85   2
  -3   2   1  567.40   20.67   2
  -3   2   1  571.71   20.81   1
   3  -2  -1  562.61   20.08   3
  -2   2   1  436.16   16.47   2
   2  -2  -1  459.09   15.86   3
  -2   2   1  460.08   16.90   1
  -1   2   1 2615.90   88.32   1
  -1   2   1 2536.81   79.57   2
   1  -2  -1 2568.43   81.82   3
   0  -2  -1 4359.85  139.49   3
   0   2   1 4566.88  149.76   1
   0   2   1 4259.24  135.44   2
   1   2   1  176.84    7.62   1
   1   2   1  171.90    6.30   2
  -1  -2  -1  189.17    8.60   3
   2   2   1 7244.08  227.19   3
   2   2   1 6980.25  242.01   1
   2   2   1 7136.28  213.88   2
   3   2   1    5.18    1.95   3
   3   2   1    5.33    2.09   1
   3   2   1    6.02    1.32   2
   4   2   1 2081.28   69.09   3
  -4  -2  -1 2089.80   64.63   2
  -5  -2  -1   36.68    3.60   2
   5   2   1   40.58    4.50   3
  -6  -2  -1   10.19    2.61   2
   6   2   1   10.01    3.45   3
  -7  -2  -1   83.74    6.64   2
   7   2   1   77.80    7.45   3
   6  -3  -1   47.81    5.08   3
  -6   3   1   41.80    6.74   2
   5  -3  -1 1845.86   63.66   3
  -5   3   1 1941.68   63.75   2
   4  -3  -1   69.04    4.90   3
  -4   3   1   72.18    6.96   2
  -3   3   1 4433.94  149.16   1
  -3   3   1 4275.73  134.50   2
   3  -3  -1 4339.15  139.10   3
  -2   3   1  352.47   14.93   2
   2  -3  -1  355.78   13.12   3
  -2   3   1  365.22   14.60   1
   1  -3  -1 2031.80   65.02   3
  -1   3   1 2030.55   70.61   1
  -1   3   1 2013.23   65.33   2
   0  -3  -1   11.79    1.80   3
   0   3   1   10.03    4.23   2
   0   3   1    4.32    1.61   1
   1   3   1  136.13    6.99   1
   1   3   1  145.59    5.65   2
  -1  -3  -1  144.38    9.34   3
   2   3   1  974.92   29.44   2
   2   3   1  922.23   34.43   1
   3   3   1   50.37    4.56   1
   3   3   1   61.57    3.28   2
   3   3   1   58.72    5.50   3
   4   3   1  735.92   30.84   3
  -4  -3  -1  872.40   27.99   2
   4   3   1  959.35   33.45   1
  -5  -3  -1 1177.39   37.99   2
   5   3   1 1163.60   42.26   3
   6   3   1  152.00   10.27   3
  -6  -3  -1  155.32    8.05   2
  -7  -3  -1  744.35   27.25   2
   7   3   1  728.94   30.95   3
  -5   4   1   46.91    7.33   2
  -4   4   1  265.20   14.91   2
  -3   4   1  825.24   31.52   1
  -3   4   1  859.70   32.06   2
   3  -4  -1  834.05   29.14   3
   2  -4  -1 1268.04   41.91   3
  -2   4   1 1222.14   45.73   1
  -2   4   1 1302.37   44.77   2
  -1   4   1  277.37   12.44   1
  -1   4   1  271.97   15.63   2
   1  -4  -1  273.12   10.58   3
   0   4   1 3901.14  132.39   1
   0   4   1 3712.38  118.97   2
   0  -4  -1 3885.86  122.32   3
  -1  -4  -1    5.10    3.47   3
   1   4   1    5.41    1.50   2
   1   4   1    7.57    2.35   1
   2   4   1 3685.79  127.80   1
  -2  -4  -1 3693.57  123.69   3
  -3  -4  -1    6.26    3.69   3
   3   4   1    5.03    2.47   1
  -4  -4  -1  202.35   12.20   3
   4   4   1  226.01   11.95   1
   6   4   1   36.50    6.08   3
  -5   5   1 1620.02   60.50   2
  -4   5   1  192.92   15.23   2
  -3   5   1 1504.30   53.03   2
  -3   5   1 1343.17   51.78   1
  -2   5   1   27.34    3.93   1
  -1   5   1  338.58   15.29   1
   0   5   1  520.46   21.51   1
   1   5   1   38.97    4.47   1
  -2  -5  -1  820.04   33.79   3
   2   5   1  877.38   33.20   1
  -3  -5  -1  500.79   24.18   3
   3   5   1  438.37   20.06   1
  -4  -5  -1  350.68   19.21   3
   4   5   1  348.64   17.35   1
  -5  -5  -1  935.63   38.93   3
  -6  -5  -1   18.62    5.85   3
  -2   6   1 1185.56   45.29   1
  -1   6   1   28.86    4.36   1
   0   6   1 2323.41   83.70   1
   1   6   1   15.57    3.73   1
   2   6   1  523.31   23.30   1
   3   6   1    2.38    3.05   1
   4   6   1   14.14    4.79   1
  -2   7   1   45.59    5.90   1
  -1   7   1   47.73    5.99   1
   0   7   1  452.12   21.43   1
   1   7   1   75.14    7.55   1
   2   7   1  452.46   22.21   1
   3   7   1  580.45   27.31   1
   4   7   1   36.80    7.07   1
   1   8   1   17.92    5.16   1
   2   8   1   39.82    6.67   1
   3   7  -2  142.87   12.80   1
   2   7  -2   24.49    5.80   1
   1   7  -2   12.61    4.78   1
   0   7  -2    5.26    4.14   1
  -1   7  -2  149.11   11.41   1
  -2   7  -2  121.84   10.23   1
  -4  -6   2  192.11   14.64   3
   3   6  -2   27.43    5.80   1
  -3  -6   2   16.67    6.34   3
   2   6  -2 1574.93   59.10   1
  -2  -6   2 1501.08   58.38   3
  -1  -6   2    0.53    5.51   3
   1   6  -2    6.77    3.79   1
   0  -6   2 1667.53   59.15   3
   0   6  -2 1620.28   62.25   1
   1  -6   2  123.81    8.82   3
  -1   6  -2  116.52    9.33   1
  -2   6  -2  384.44   19.00   1
  -3   6  -2    3.61    3.52   1
  -5  -5   2  372.69   21.95   3
  -4  -5   2  101.91   11.02   3
   3   5  -2   13.29    4.03   1
  -3  -5   2   19.83    6.16   3
   2   5  -2    8.58    3.51   1
  -2  -5   2    4.24    5.28   3
   1   5  -2   35.92    5.06   1
  -1  -5   2   29.05    6.57   3
   0   5  -2  380.23   18.11   1
   0  -5   2  415.56   18.98   3
   1  -5   2 1399.18   49.83   3
  -1   5  -2 1455.79   53.52   1
   2  -5   2  230.25   11.54   3
  -2   5  -2  231.97   12.54   1
  -3   5  -2 2799.54  100.60   1
   3  -5   2 2842.89   93.39   3
   4  -5   2   19.97    3.65   3
  -4   5  -2   15.85    3.80   1
  -6  -4   2   23.68    6.59   3
  -5  -4   2   41.08    7.25   3
  -4  -4   2 1071.77   42.30   3
   3   4  -2    9.72    3.25   1
  -3  -4   2    1.41    4.52   3
   2   4  -2 3355.44  119.89   1
  -2  -4   2 3517.37  116.47   3
   1   4  -2  461.87   19.04   1
  -1  -4   2  419.11   21.08   3
   0  -4   2 2470.93   83.80   3
   0   4  -2 2468.84   87.48   1
   1  -4   2   63.88    6.06   3
  -1   4  -2   69.57    6.20   1
   2  -4   2   66.34    5.51   3
   3  -4   2  310.66   13.58   3
  -3   4  -2  311.39   14.61   1
   4  -4   2  118.33    7.49   3
  -4   4  -2  114.12    8.84   2
  -4   4  -2  113.51    7.64   1
  -5   4  -2  351.64   17.25   2
   5  -4   2  342.42   15.77   3
  -6   4  -2  949.86   36.00   2
   6  -4   2  834.28   33.92   3
  -6  -3   2  104.48   10.09   3
  -5  -3   2  231.86   14.30   3
  -4  -3   2   12.06    4.03   3
  -3  -3   2   34.65    5.43   3
   2   3  -2  383.65   15.98   1
  -2  -3   2  391.16   18.74   3
   1   3  -2  789.91   28.73   1
  -1  -3   2  715.37   30.28   3
   0   3  -2  970.96   35.11   1
   0  -3   2  918.72   34.76   3
   1  -3   2 5318.71  172.15   3
  -1   3  -2 5396.55  184.49   1
  -1   3  -2 5403.82  162.09   2
   2  -3   2  112.17    6.59   3
  -2   3  -2  117.53    5.93   2
  -2   3  -2  104.56    6.90   1
   3  -3   2 4299.49  144.37   3
  -3   3  -2 4619.56  155.10   1
  -3   3  -2 4558.12  137.26   2
  -4   3  -2    6.53    2.61   1
   4  -3   2    3.88    2.26   3
  -4   3  -2    1.01    2.44   2
  -5   3  -2  851.13   30.76   2
   5  -3   2  835.12   31.20   3
   6  -3   2   38.86    4.81   3
  -6   3  -2   36.41    5.81   2
   6   2  -2  340.08   17.47   3
  -6  -2   2  337.11   14.88   2
  -5  -2   2   34.83    3.89   2
   5   2  -2   36.80    5.45   3
   4   2  -2 2423.58   80.69   3
  -4  -2   2 2368.52   74.33   2
  -3  -2   2  420.02   14.60   2
  -2  -2   2 4594.67  133.67   2
   2   2  -2 4308.18  151.64   1
  -2  -2   2 4414.01  143.94   3
  -1  -2   2  202.89   12.07   3
  -1  -2   2  212.65    7.35   2
   1   2  -2  209.01    9.12   1
   0  -2   2  931.30   34.46   3
   0   2  -2  981.45   34.69   1
  -1   2  -2  794.47   24.37   2
  -1   2  -2  775.22   28.90   1
   1  -2   2  775.19   27.30   3
   2  -2   2   55.76    4.36   3
  -2   2  -2   56.34    4.66   1
  -2   2  -2   57.21    3.55   2
   3  -2   2  877.91   29.48   3
  -3   2  -2  836.63   27.73   2
  -3   2  -2  826.48   31.33   1
  -4   2  -2  683.86   23.93   2
  -4   2  -2  684.18   26.15   1
   4  -2   2  691.14   24.98   3
  -5   2  -2  539.15   20.74   2
   5  -2   2  549.57   21.32   3
   6  -2   2 1560.94   54.41   3
  -6   2  -2 1561.87   52.44   2
   7  -2   2  212.61   12.09   3
  -7   2  -2  202.65   12.19   2
   7   1  -2  371.49   18.95   3
  -7  -1   2  369.27   17.67   2
   6   1  -2  152.96   10.20   3
  -6  -1   2  148.04    9.30   2
  -5  -1   2  106.36    6.85   2
   5   1  -2   99.83    7.46   3
  -4  -1   2  172.03    8.07   2
   4   1  -2  154.93    8.94   3
   3   1  -2  226.75   10.31   3
  -3  -1   2  209.15    8.82   2
  -2  -1   2 1662.70   50.35   2
   2   1  -2 1587.98   54.04   3
   2   1  -2 1644.03   56.00   1
  -1  -1   2 5045.83  160.82   3
   1   1  -2 4794.61  170.46   1
  -1  -1   2 5199.24  150.78   2
   0   1  -2   72.09    4.81   1
   0  -1   2   73.21    3.06   2
   0  -1   2   60.44    5.95   3
  -1   1  -2 7363.03  264.03   1
   1  -1   2 7804.21  234.41   2
   1  -1   2 8104.42  248.43   3
  -2   1  -2  238.66    8.62   2
   2  -1   2  233.53    9.38   3
  -2   1  -2  239.51   10.87   1
   3  -1   2 4100.65  130.55   3
  -3   1  -2 3994.38  123.74   2
  -3   1  -2 4154.39  140.68   1
  -4   1  -2   53.71    4.34   2
  -4   1  -2   68.00    5.11   1
   4  -1   2   55.34    4.49   3
   5  -1   2  129.11    7.34   3
  -5   1  -2  119.77    7.05   2
  -6   1  -2  156.26    9.10   2
   6  -1   2  156.69    9.04   3
  -7   1  -2    9.66    3.76   2
   7  -1   2    9.09    3.20   3
  -7   0   2  128.92    9.66   2
   7   0  -2   97.28    8.56   3
   6   0  -2  797.27   30.41   3
  -6   0   2  757.17   29.24   2
  -5   0   2   26.24    4.09   2
   5   0  -2   30.96    4.04   3
  -4   0   2 4185.23  129.80   2
   4   0  -2 4270.27  136.60   3
  -3   0   2  592.42   20.70   2
   3   0  -2  601.99   21.70   3
  -2   0   2 3785.47  115.29   2
   2   0  -2 3810.15  121.32   3
   1   0  -2  116.63    5.99   1
   1   0  -2  138.47    5.91   3
  -1   0   2  131.19    5.94   2
   0   0   2  137.11    7.56   3
   0   0   2  142.07    7.40   2
   0   0  -2  160.97    8.34   1
  -1   0  -2 2523.52   89.93   1
   1   0   2 2496.32   77.15   2
   1   0   2 2640.27   81.57   3
   2   0   2  406.09   13.93   3
   2   0   2  408.75   13.08   2
  -2   0  -2  370.50   17.68   1
  -3   0  -2 1627.97   59.40   1
   3   0   2 1649.75   53.44   3
  -3   0  -2 1631.72   50.71   2
  -4   0  -2 2855.52   89.30   2
  -4   0  -2 2989.45  101.82   1
   4   0   2 2881.37   94.13   3
   5   0   2  561.60   21.62   3
  -5   0  -2  587.28   20.56   2
  -6   0  -2 1785.13   57.54   2
   6   0   2 1762.57   60.53   3
  -7   0  -2   16.16    3.71   2
   7   0   2   13.33    3.40   3
  -6   1   2   -2.38    2.98   2
   6  -1  -2    1.60    2.22   3
  -5   1   2  124.75    8.36   2
   5  -1  -2  123.22    7.53   3
   4  -1  -2  726.61   26.32   3
  -4   1   2  739.27   26.33   2
   3  -1  -2  900.38   31.05   3
  -3   1   2  922.53   30.77   2
   2  -1  -2  920.93   30.76   3
  -2   1   2  905.27   30.34   2
  -2   1   2  946.87   32.05   1
  -1   1   2 5076.79  155.32   2
   1  -1  -2 5132.91  162.01   3
  -1   1   2 5155.49  174.85   1
   0   1   2   61.49    6.28   2
   0   1   2   60.86    3.95   1
   1   1   2 7668.59  247.44   3
   1   1   2 7898.71  235.72   2
   1   1   2 7793.81  266.73   1
   2   1   2   36.46    2.53   3
  -2  -1  -2   33.46    3.73   1
   2   1   2   35.11    2.21   2
   3   1   2 1381.39   44.77   2
  -3  -1  -2 1485.07   53.74   1
   3   1   2 1490.12   47.63   3
   4   1   2  111.69    6.09   3
  -4  -1  -2  103.55    5.46   2
  -4  -1  -2  100.34   10.99   1
  -5  -1  -2   41.12    3.81   2
   5   1   2   43.77    4.31   3
   6   1   2  494.54   20.58   3
  -6  -1  -2  528.88   19.36   2
  -7  -1  -2    9.71    3.18   2
   7   1   2   15.16    3.84   3
   6  -2  -2 1332.88   47.85   3
  -6   2   2 1363.90   48.54   2
   5  -2  -2  274.72   12.55   3
  -5   2   2  278.20   14.15   2
   4  -2  -2 2409.87   80.01   3
  -4   2   2 2482.23   78.38   2
   3  -2  -2   72.78    4.44   3
  -3   2   2   73.53    6.33   2
   2  -2  -2 1153.65   37.09   3
  -2   2   2 1123.40   39.47   1
  -2   2   2 1106.60   37.38   2
   1  -2  -2  905.99   28.61   3
  -1   2   2  878.43   31.18   1
  -1   2   2  843.83   30.16   2
   0   2   2  369.32   17.24   2
   0   2   2  397.35   14.80   1
   1   2   2 1245.08   39.07   2
   1   2   2 1260.98   44.09   1
   2   2   2 1684.23   58.12   1
   2   2   2 1638.21   50.65   2
   2   2   2 1646.91   53.58   3
   3   2   2 1560.54   49.31   2
   3   2   2 1620.96   52.62   3
   3   2   2 1620.71   57.11   1
   4   2   2 2689.22   88.34   3
   4   2   2 2720.71   83.09   2
  -4  -2  -2 2725.64   97.00   1
   5   2   2   65.31    5.37   3
  -5  -2  -2   72.73    4.73   2
   6   2   2 1109.98   40.19   3
  -6  -2  -2 1109.40   37.11   2
   7   2   2    4.98    3.31   3
  -7  -2  -2    5.37    2.73   2
  -6   3   2  202.26   13.67   2
  -5   3   2  253.99   14.50   2
   5  -3  -2  255.45   11.84   3
  -4   3   2  907.95   32.98   2
   4  -3  -2  854.64   30.71   3
   3  -3  -2 1964.77   63.79   3
  -3   3   2 1942.66   64.12   2
  -2   3   2   73.63    6.78   2
   2  -3  -2   63.65    3.80   3
  -2   3   2   63.70    4.38   1
  -1   3   2 5976.99  205.12   1
   1  -3  -2 6118.44  190.11   3
  -1   3   2 5958.58  185.59   2
   0  -3  -2   11.62    1.26   3
   0   3   2   15.84    2.26   1
   0   3   2    6.67    4.75   2
  -1  -3  -2 3408.80  105.57   3
   1   3   2 3194.16  112.72   1
   1   3   2 3219.26   99.75   2
   2   3   2   59.51    3.16   2
   2   3   2   56.44    4.35   1
   3   3   2  120.60    6.99   3
   3   3   2  120.63    5.33   2
   3   3   2  114.72    6.97   1
   4   3   2  678.16   26.94   1
   4   3   2  662.37   21.93   2
   4   3   2  641.33   24.56   3
   5   3   2    6.36    3.01   3
  -5  -3  -2   11.02    2.12   2
   6   3   2  692.83   27.79   3
  -6  -3  -2  701.49   24.71   2
  -7  -3  -2  117.05    7.49   2
   7   3   2  100.97    8.72   3
  -5   4   2  171.78   13.15   2
  -4   4   2  889.44   35.12   2
  -3   4   2    8.92    4.93   2
  -2   4   2  170.68    8.63   1
  -2   4   2  160.80   12.65   2
  -1   4   2  972.13   35.93   1
  -1   4   2  981.91   37.83   2
   0   4   2  356.63   14.62   1
   0   4   2  322.70   16.47   2
   1   4   2 2272.81   81.98   1
   1   4   2 2340.73   72.19   2
  -1  -4  -2 2397.01   75.54   3
   2   4   2 1492.10   45.61   2
  -2  -4  -2 1394.05   53.13   3
   2   4   2 1536.22   53.35   1
   3   4   2  259.73    9.49   2
   3   4   2  254.22   12.31   1
   4   4   2 1671.17   63.66   1
   4   4   2 1803.02   54.14   2
  -5  -4  -2   14.08    2.32   2
   5   4   2   14.76    4.18   3
   6   4   2  204.30   12.86   3
   7   4   2   24.70    5.77   3
  -4   5   2  254.34   18.16   2
  -3   5   2 2066.85   73.18   2
  -2   5   2   42.51    8.74   2
  -2   5   2   22.72    3.51   1
  -1   5   2 2647.54   91.36   1
  -1   5   2 2511.51   87.64   2
   0   5   2   53.84    5.02   1
   1   5   2  594.22   24.16   1
   2   5   2   77.37    6.17   1
   3   5   2   15.70    3.70   1
   4   5   2  933.75   37.07   1
  -4  -5  -2  898.77   37.37   3
  -5  -5  -2   11.92    4.78   3
  -6  -5  -2  385.40   21.46   3
  -2   6   2  192.81   11.12   1
  -1   6   2 1139.04   43.66   1
   0   6   2  390.75   18.12   1
   1   6   2  631.13   26.60   1
   2   6   2 1118.04   43.31   1
   3   6   2    4.06    3.37   1
   4   6   2  634.35   28.32   1
  -2   7   2   23.48    4.66   1
  -1   7   2  503.48   23.37   1
   0   7   2    2.77    2.90   1
   1   7   2   28.22    4.87   1
   2   7   2  411.65   20.44   1
   3   7   2    3.70    3.57   1
   4   7   2  515.41   25.82   1
   1   8   2   33.94    5.88   1
   2   8   2  471.58   24.12   1
   2   7  -3   62.43    8.74   1
   1   7  -3  567.48   28.01   1
   0   7  -3   30.67    6.34   1
  -1   7  -3   44.15    7.00   1
  -2   7  -3   93.90    9.55   1
  -4  -6   3    3.01    5.18   3
  -3  -6   3   94.06    9.89   3
   2   6  -3   24.06    5.38   1
  -2  -6   3   28.03    6.92   3
  -1  -6   3  194.93   15.11   3
   1   6  -3  209.59   13.59   1
   0  -6   3 1227.35   48.08   3
   0   6  -3 1249.07   49.30   1
  -1   6  -3   36.27    5.62   1
   1  -6   3   32.96    6.02   3
   2  -6   3 2109.89   71.55   3
  -2   6  -3 2018.20   76.85   1
  -3   6  -3    1.92    3.44   1
  -5  -5   3  486.42   26.23   3
  -4  -5   3   51.09    8.59   3
  -3  -5   3 1271.50   49.23   3
   2   5  -3  152.15   10.40   1
  -2  -5   3  164.24   12.38   3
  -1  -5   3  487.05   24.71   3
   1   5  -3  552.23   23.60   1
   0   5  -3   28.13    4.89   1
   0  -5   3   33.02    6.91   3
   1  -5   3   41.69    5.97   3
  -1   5  -3   40.25    5.43   1
  -2   5  -3  535.60   23.33   1
   2  -5   3  503.23   21.71   3
  -3   5  -3  251.57   13.78   1
   3  -5   3  254.87   12.83   3
   4  -5   3  341.56   15.78   3
  -4   5  -3  324.49   16.77   1
   5  -5   3 1175.32   43.33   3
  -5  -4   3   52.59    8.22   3
  -4  -4   3    5.37    5.18   3
  -3  -4   3  419.69   21.39   3
   2   4  -3  858.68   36.38   1
  -2  -4   3 1044.74   38.25   3
   1   4  -3  171.21   10.30   1
  -1  -4   3  176.30   12.78   3
   0   4  -3 3921.25  138.15   1
   0  -4   3 3988.70  132.33   3
  -1   4  -3    4.19    2.87   1
   1  -4   3    1.84    3.89   3
   2  -4   3 2520.01   84.47   3
  -2   4  -3 2548.57   90.56   1
  -3   4  -3   17.68    4.00   1
   3  -4   3   16.85    3.53   3
  -4   4  -3  308.92   15.54   1
   4  -4   3  339.80   15.10   3
   5  -4   3  135.24    8.77   3
   6  -4   3   21.73    4.36   3
  -6  -3   3    2.07    4.34   3
  -5  -3   3 1279.08   49.50   3
  -4  -3   3  388.67   19.58   3
  -3  -3   3 1448.08   52.80   3
   2   3  -3   58.73    5.22   1
  -2  -3   3   71.68    7.86   3
   1   3  -3  156.68    8.68   1
  -1  -3   3  133.23   10.91   3
   0   3  -3 1197.60   42.52   1
   0  -3   3 1081.63   42.25   3
  -1   3  -3  108.67    7.45   1
   1  -3   3  101.87    8.14   3
  -2   3  -3 1060.91   39.31   1
  -2   3  -3 1004.92   33.07   2
   2  -3   3 1037.69   36.50   3
   3  -3   3 1841.21   62.44   3
  -3   3  -3 1882.27   67.32   1
  -4   3  -3  425.00   16.88   2
   4  -3   3  422.82   17.57   3
  -4   3  -3  428.39   18.56   1
  -5   3  -3 1978.24   65.64   2
   5  -3   3 2060.92   68.84   3
   6  -3   3   85.76    6.96   3
  -6   3  -3   81.38    7.68   2
  -6  -2   3   16.18    5.01   3
  -5  -2   3  314.82   17.35   3
  -5  -2   3  316.82   13.66   2
  -4  -2   3  222.47   13.03   3
  -4  -2   3  216.64    9.83   2
  -3  -2   3  731.09   29.00   3
  -3  -2   3  755.65   24.87   2
  -2  -2   3 3749.03  127.06   3
  -2  -2   3 3944.24  117.43   2
   2   2  -3 3919.33  133.03   1
  -1  -2   3   26.60    5.38   3
  -1  -2   3   30.11    3.04   2
   1   2  -3   22.92    3.13   1
   0  -2   3 6382.77  210.37   3
   0   2  -3 6662.44  223.08   1
  -1   2  -3   84.22    6.28   1
   1  -2   3   84.30    6.57   3
  -2   2  -3 2309.17   70.01   2
  -2   2  -3 2271.74   80.99   1
   2  -2   3 2294.41   75.20   3
  -3   2  -3   52.49    4.05   2
   3  -2   3   52.12    4.52   3
  -3   2  -3   54.00    5.45   1
   4  -2   3  108.72    6.71   3
  -4   2  -3  105.82    6.25   2
  -4   2  -3  116.33    7.44   1
   5  -2   3  841.21   30.88   3
  -5   2  -3  835.24   29.43   2
  -6   2  -3   27.66    4.49   2
   6  -2   3   22.57    3.77   3
  -7   2  -3  538.54   22.77   2
   7  -2   3  532.90   23.24   3
   6   1  -3  139.30   10.25   3
  -6  -1   3  144.51    9.60   2
   5   1  -3 1373.15   49.30   3
  -5  -1   3 1366.71   45.93   2
  -4  -1   3  214.22   10.33   2
   4   1  -3  243.38   11.92   3
  -3  -1   3  910.16   29.51   2
   3   1  -3  859.26   31.84   3
  -2  -1   3  517.49   20.37   3
  -2  -1   3  521.48   17.91   2
  -1  -1   3   58.64    5.64   3
   1   1  -3   56.95    4.32   1
  -1  -1   3   62.57    4.84   2
   0  -1   3 1868.27   64.79   3
   0   1  -3 1899.43   67.72   1
   0  -1   3 1992.80   59.06   2
   1  -1   3 1185.17   36.77   2
  -1   1  -3 1184.35   44.17   1
   1  -1   3 1239.67   40.66   3
   2  -1   3 2526.89   79.00   2
   2  -1   3 2627.85   84.25   3
  -2   1  -3 2672.85   92.21   1
   3  -1   3 3612.41  117.74   3
  -3   1  -3 3651.71  111.55   2
  -3   1  -3 3744.92  128.12   1
  -4   1  -3  432.51   18.25   1
   4  -1   3  405.09   16.11   3
  -4   1  -3  404.36   15.16   2
  -5   1  -3 2438.22   76.29   2
   5  -1   3 2429.06   80.58   3
  -6   1  -3    9.72    2.95   2
   6  -1   3    8.08    2.57   3
   7  -1   3  163.49   10.21   3
  -7   1  -3  172.02   10.37   2
  -6   0   3   93.77    8.10   2
   6   0  -3   94.49    8.10   3
  -5   0   3  571.28   22.85   2
   5   0  -3  603.65   23.87   3
   4   0  -3 1472.16   49.85   3
  -4   0   3 1421.47   47.58   2
   3   0  -3  104.77    6.55   3
  -3   0   3  120.21    6.91   2
  -2   0   3 4964.27  150.10   2
   2   0  -3 4915.13  157.81   3
   1   0  -3  151.64    8.24   1
  -1   0   3  179.88    8.27   3
  -1   0   3  167.67    8.19   2
   0   0  -3 4806.67  163.15   1
   0   0   3 4740.09  152.32   3
   0   0   3 4667.80  144.39   2
   1   0   3   84.57    4.08   2
   1   0   3   80.25    4.71   3
  -1   0  -3   86.85    8.16   1
   2   0   3 1770.80   56.32   3
  -2   0  -3 1686.78   63.64   1
   2   0   3 1756.07   53.20   2
   3   0   3  936.47   30.62   3
  -3   0  -3  858.26   35.87   1
   3   0   3  906.50   28.74   2
   4   0   3   33.44    3.42   3
  -4   0  -3   41.28    3.45   2
  -4   0  -3   42.07    6.15   1
  -5   0  -3 1394.97   44.67   2
   5   0   3 1360.61   47.03   3
  -6   0  -3  108.48    6.87   2
   6   0   3  117.50    7.51   3
   7   0   3  391.17   17.64   3
  -7   0  -3  371.50   16.60   2
   6  -1  -3  240.00   12.66   3
  -6   1   3  224.79   13.59   2
  -5   1   3  837.10   31.43   2
   5  -1  -3  841.13   31.08   3
   4  -1  -3    2.49    2.02   3
  -4   1   3    5.29    3.04   2
  -3   1   3  214.74   10.50   2
   3  -1  -3  216.99    9.64   3
   2  -1  -3 1817.26   59.02   1
   2  -1  -3 1695.95   55.71   3
  -2   1   3 1601.19   54.45   2
  -1   1   3 1356.38   45.03   2
  -1   1   3 1410.49   48.30   1
   1  -1  -3 1381.33   45.04   3
   0   1   3 4487.74  138.90   3
   0   1   3 4206.02  148.35   1
   0   1   3 4338.52  134.27   2
   1   1   3 3933.69  115.88   2
   1   1   3 3673.16  121.10   3
  -1  -1  -3 3842.98  131.43   1
   2   1   3 1270.55   41.71   3
   2   1   3 1304.69   39.93   2
  -2  -1  -3 1287.55   47.10   1
   3   1   3 4563.96  145.72   3
  -3  -1  -3 4591.23  160.11   1
   3   1   3 4578.74  138.19   2
   4   1   3   10.36    2.13   3
  -4  -1  -3   16.10    6.52   1
   4   1   3    8.41    1.79   2
  -5  -1  -3 1278.25   41.29   2
   5   1   3 1254.27   43.48   3
  -6  -1  -3   32.32    3.65   2
   6   1   3   34.56    4.24   3
   7   1   3    9.48    3.31   3
  -7  -1  -3    4.92    2.60   2
  -6   2   3  327.53   17.65   2
   6  -2  -3  310.04   15.10   3
   5  -2  -3  442.01   17.83   3
  -5   2   3  405.62   19.45   2
   4  -2  -3 1848.94   61.29   3
  -4   2   3 1831.81   61.27   2
   3  -2  -3   18.06    2.41   3
  -3   2   3   23.83    4.47   2
  -2   2   3 3908.04  133.45   1
  -2   2   3 3883.48  121.36   2
   2  -2  -3 3932.16  124.49   3
  -1   2   3  459.94   16.73   1
  -1   2   3  409.47   17.97   2
   1  -2  -3  442.35   14.91   3
   0   2   3 2928.42   95.42   2
   0   2   3 3055.92  103.00   1
   1   2   3  393.20   14.92   2
   1   2   3  409.79   15.92   1
   2   2   3   28.76    2.52   2
   2   2   3   29.87    2.50   3
   2   2   3   36.55    3.97   1
   3   2   3 2966.42   92.53   2
   3   2   3 3123.92   97.80   3
  -4  -2  -3   24.63    5.33   1
   4   2   3   17.87    2.32   2
   4   2   3   14.92    2.58   3
  -5  -2  -3 1395.42   57.33   1
  -5  -2  -3 1428.36   45.45   2
   5   2   3 1410.11   48.26   3
  -6  -2  -3  619.72   21.99   2
   6   2   3  578.49   23.56   3
   7   2   3  128.94    9.21   3
  -7  -2  -3  132.40    7.95   2
  -5   3   3  361.64   18.93   2
  -4   3   3  115.88    9.71   2
   3  -3  -3  435.76   16.16   3
  -3   3   3  440.66   19.64   2
   2  -3  -3 1886.22   62.47   3
  -2   3   3 1968.54   64.50   2
  -2   3   3 1965.67   67.66   1
   1  -3  -3 1042.16   33.73   3
  -1   3   3 1049.80   37.59   1
  -1   3   3 1038.46   38.29   2
   0   3   3 2629.13   90.30   1
   0   3   3 2573.00   84.91   2
   1   3   3 3385.08  115.21   1
   1   3   3 3281.40  103.02   2
   2   3   3   37.55    3.82   1
   2   3   3   34.27    3.33   3
   2   3   3   32.30    2.95   2
   3   3   3 3010.11  105.12   1
   3   3   3 2983.60   91.57   2
   3   3   3 3030.00   97.19   3
   4   3   3   77.49    6.92   1
   4   3   3   68.83    5.48   3
   4   3   3   68.99    4.30   2
   5   3   3  162.35    7.96   2
  -5  -3  -3  207.04   13.68   1
  -5  -3  -3  208.50   13.72   1
   5   3   3  152.58    9.26   3
   6   3   3  180.41   10.63   3
  -6  -3  -3  184.84    9.09   2
  -7  -3  -3   67.18    5.64   2
   7   3   3   63.95    6.86   3
  -5   4   3  117.94   11.68   2
  -4   4   3 1375.94   50.96   2
  -3   4   3   67.10    8.52   2
  -2   4   3 2155.44   72.17   2
  -2   4   3 2066.07   74.19   1
  -1   4   3   12.30    2.80   1
  -1   4   3   26.19    7.04   2
   0   4   3  464.02   21.55   2
   0   4   3  487.93   19.41   1
   1   4   3 1228.11   45.16   1
   1   4   3 1251.72   41.03   2
   2   4   3   14.40    2.23   2
   2   4   3   11.50    2.91   1
   3   4   3 2158.36   63.31   2
   3   4   3 1936.95   73.26   1
   4   4   3  317.07   14.63   3
   4   4   3  314.48   11.76   2
   4   4   3  306.55   15.40   1
   5   4   3  598.39   24.43   3
   5   4   3  583.06   20.63   2
  -6  -4  -3  574.79   21.48   2
   6   4   3  597.30   25.33   3
   7   4   3   23.37    5.62   3
  -4   5   3  552.10   28.16   2
  -3   5   3  403.46   22.65   2
  -2   5   3 1692.27   62.36   1
  -2   5   3 1767.28   63.42   2
  -1   5   3 1155.97   45.56   2
  -1   5   3 1161.34   43.36   1
   0   5   3  279.56   15.67   2
   0   5   3  320.29   14.43   1
   1   5   3 1733.96   62.99   1
   1   5   3 1748.80   55.91   2
   2   5   3   48.60    5.11   1
   3   5   3  482.81   21.06   1
   4   5   3   74.97    7.27   1
  -2   6   3  417.67   19.18   1
  -1   6   3  108.55    7.89   1
   0   6   3   18.09    3.79   1
   1   6   3 1217.31   46.46   1
   2   6   3  103.77    8.08   1
   3   6   3  901.74   36.57   1
   4   6   3  405.93   20.53   1
  -1   7   3  789.45   33.19   1
   0   7   3   12.01    3.77   1
   1   7   3  612.44   27.22   1
   2   7   3    6.92    3.74   1
   3   7   3   17.36    5.04   1
   4   7   3  134.00   11.80   1
   1   8   3  636.94   29.62   1
   2   8   3  128.46   10.95   1
   2   7  -4   59.38    8.72   1
  -1  -7   4  668.70   34.63   3
   1   7  -4  787.25   35.32   1
   0  -7   4    4.37    5.82   3
   0   7  -4    4.85    5.02   1
  -1   7  -4 1039.46   45.51   1
  -3  -6   4   37.51    6.93   3
   2   6  -4   40.62    7.25   1
  -2  -6   4   50.85    8.21   3
  -1  -6   4  155.63   14.33   3
   1   6  -4  180.26   13.64   1
   0  -6   4   33.67    7.80   3
   0   6  -4   31.90    6.22   1
   1  -6   4  575.89   27.20   3
  -1   6  -4  558.70   26.99   1
  -2   6  -4  442.56   23.28   1
   2  -6   4  507.34   22.94   3
  -3   6  -4  234.03   14.65   1
   3  -6   4  214.14   13.14   3
  -4  -5   4  246.86   16.39   3
  -3  -5   4  640.00   28.54   3
   2   5  -4   11.93    4.74   1
  -2  -5   4    2.29    4.49   3
   1   5  -4 1989.77   73.20   1
  -1  -5   4 1922.25   71.06   3
   0   5  -4   63.12    7.23   1
   0  -5   4   51.61    9.16   3
  -1   5  -4  772.01   33.41   1
   1  -5   4  805.10   33.11   3
   2  -5   4   19.46    4.79   3
  -2   5  -4   21.28    4.89   1
   3  -5   4  106.37    8.73   3
   4  -5   4  489.59   21.11   3
  -4   5  -4  458.36   22.47   1
   5  -5   4   38.87    5.39   3
  -5  -4   4  137.19   12.67   3
  -4  -4   4  253.03   16.49   3
  -3  -4   4    5.87    4.56   3
  -2  -4   4   42.48    6.68   3
   2   4  -4   42.25    5.56   1
   1   4  -4 1016.06   39.43   1
  -1  -4   4  983.30   39.24   3
   0   4  -4  358.44   17.08   1
   0  -4   4  311.79   18.82   3
  -1   4  -4 1186.76   45.60   1
   1  -4   4 1165.87   44.56   3
  -2   4  -4 1752.58   65.12   1
   2  -4   4 1754.97   61.36   3
   3  -4   4  100.14    7.76   3
  -3   4  -4   88.41    7.79   1
  -4   4  -4 2194.92   79.40   1
   4  -4   4 2141.65   73.80   3
   5  -4   4   18.33    4.12   3
  -5  -3   4  272.08   17.49   3
  -4  -3   4  167.20   12.54   3
  -3  -3   4 1779.54   64.01   3
   2   3  -4    8.74    3.37   1
  -2  -3   4    9.81    4.72   3
  -1  -3   4 2302.81   77.06   3
   1   3  -4 2147.42   79.34   1
   0  -3   4   72.75    8.60   3
   0   3  -4   73.77    6.78   1
   1  -3   4 1222.00   45.34   3
  -1   3  -4 1247.23   46.81   1
   2  -3   4  468.70   20.36   3
  -2   3  -4  511.76   21.74   1
  -3   3  -4   55.00    4.30   2
  -3   3  -4   45.10    5.59   1
   3  -3   4   53.36    5.35   3
  -4   3  -4 1629.42   59.38   1
  -4   3  -4 1586.15   51.79   2
   4  -3   4 1564.35   54.92   3
   5  -3   4   94.67    7.27   3
  -6   3  -4  700.25   27.96   2
   6  -3   4  721.05   28.79   3
  -6  -2   4  292.99   18.16   3
  -5  -2   4   60.05    7.93   3
  -4  -2   4  124.11   10.04   3
  -3  -2   4  608.13   21.22   2
  -3  -2   4  568.56   25.06   3
   2   2  -4  322.94   14.20   1
  -2  -2   4  328.05   16.57   3
  -2  -2   4  340.85   13.16   2
   1   2  -4 2439.87   88.69   1
  -1  -2   4 2518.84   85.67   3
  -1  -2   4 2604.63   77.42   2
   0  -2   4 1245.08   36.86   2
   0  -2   4 1160.80   44.02   3
   0   2  -4 1186.61   44.66   1
   1  -2   4  617.48   19.35   2
  -1   2  -4  592.47   25.16   1
   1  -2   4  614.52   24.80   3
  -2   2  -4 3889.86  136.46   1
   2  -2   4 3894.27  126.46   3
   3  -2   4   63.60    5.68   3
  -3   2  -4   74.42    7.34   1
  -3   2  -4   70.21    4.50   2
  -4   2  -4 1972.31   72.44   1
  -4   2  -4 2019.89   62.88   2
   4  -2   4 1989.73   66.90   3
  -5   2  -4   38.72    5.10   1
   5  -2   4   46.01    4.84   3
  -5   2  -4   37.67    4.31   2
   6  -2   4   43.62    5.12   3
  -6   2  -4   49.90    5.59   2
   7  -2   4  280.23   14.69   3
  -7   2  -4  263.23   14.42   2
  -6  -1   4  360.19   20.21   3
  -6  -1   4  365.68   17.64   2
  -5  -1   4 1076.49   38.03   2
  -4  -1   4   42.33    4.84   2
  -4  -1   4   32.88    5.47   3
  -3  -1   4 2368.39   74.17   2
  -3  -1   4 2340.05   79.71   3
  -2  -1   4  507.20   18.48   2
  -2  -1   4  494.45   20.72   3
  -1  -1   4 2685.12   90.98   3
  -1  -1   4 2822.78   84.83   2
   1   1  -4 2671.46   94.96   1
   0  -1   4   92.41    8.13   3
   0  -1   4   84.95    5.19   2
   0   1  -4   83.15    6.96   1
   1  -1   4  717.76   22.83   2
  -1   1  -4  693.00   28.98   1
   1  -1   4  734.98   26.88   3
  -2   1  -4 3026.77  107.93   1
   2  -1   4 3057.40   98.41   3
   2  -1   4 3011.98   91.96   2
   3  -1   4   60.25    4.68   3
  -3   1  -4   71.48    7.51   1
   3  -1   4   64.94    3.91   2
  -4   1  -4 1982.15   68.22   2
  -4   1  -4 2370.43   80.13   1
   4  -1   4 2229.93   72.48   3
  -5   1  -4  763.05   26.13   2
  -5   1  -4  700.17   30.44   1
   5  -1   4  767.73   27.86   3
   6  -1   4  270.00   13.33   3
  -6   1  -4  283.44   12.69   2
  -7   1  -4  832.33   30.61   2
   7  -1   4  791.29   31.82   3
  -6   0   4  216.01   13.14   2
   6   0  -4  192.21   12.26   3
   5   0  -4   33.99    4.89   3
  -5   0   4   20.69    4.64   2
  -4   0   4  187.13   10.31   2
   4   0  -4  184.73   10.25   3
   3   0  -4 2052.71   68.90   3
  -3   0   4 2073.99   66.14   2
  -2   0   4  490.90   18.85   2
  -2   0   4  511.52   19.89   3
  -1   0   4 2943.99   92.77   2
   1   0  -4 3092.92  103.46   1
  -1   0   4 2884.26   97.17   3
   0   0   4 4586.89  151.16   3
   0   0   4 4665.88  143.45   2
   0   0  -4 4800.52  162.00   1
  -1   0  -4  686.17   27.76   1
   1   0   4  682.41   22.46   2
   1   0   4  662.02   24.01   3
   2   0   4 5339.01  162.38   2
   2   0   4 5339.97  171.45   3
  -2   0  -4 5497.77  187.61   1
   3   0   4   30.06    2.96   3
  -3   0  -4   35.07    6.17   1
   3   0   4   29.64    2.67   2
   4   0   4  585.10   21.15   3
   4   0   4  564.39   19.75   2
  -4   0  -4  573.55   26.65   1
   5   0   4  300.68   13.33   3
  -5   0  -4  325.98   17.22   1
  -5   0  -4  303.87   12.67   2
  -6   0  -4   13.36    2.93   2
   6   0   4   14.59    3.18   3
  -7   0  -4  729.69   27.39   2
   7   0   4  742.74   29.17   3
  -6   1   4  159.31   12.00   2
   6  -1  -4  161.43   10.55   3
  -5   1   4 1009.49   37.71   2
   5  -1  -4 1003.27   37.12   3
  -4   1   4   80.98    7.44   2
   4  -1  -4   96.77    6.70   3
   3  -1  -4 2137.78   69.41   3
  -3   1   4 2053.34   67.79   2
   2  -1  -4  160.96    7.91   3
  -2   1   4  175.34    9.77   2
  -1   1   4 1703.98   56.35   2
  -1   1   4 1709.23   56.68   3
   1  -1  -4 1748.93   60.53   1
   0   1   4 1124.52   38.06   3
   0   1   4 1144.74   38.58   2
   0  -1  -4 1086.52   40.53   1
   1   1   4   29.07    3.56   2
   1   1   4   33.24    2.72   3
  -1  -1  -4   35.02    4.14   1
   2   1   4 4363.44  140.04   3
   2   1   4 4305.29  133.48   2
  -2  -1  -4 4580.39  153.66   1
   3   1   4  221.05    9.18   3
  -3  -1  -4  237.23   14.35   1
   3   1   4  227.26    8.89   2
   4   1   4 1733.34   52.65   2
   4   1   4 1650.27   55.43   3
  -4  -1  -4 1639.58   64.90   1
   5   1   4 1448.34   46.98   3
  -5  -1  -4 1285.21   54.44   1
  -6  -1  -4   93.30    6.13   2
   6   1   4   90.82    6.58   3
   7   1   4  401.78   18.04   3
  -7  -1  -4  380.02   16.31   2
  -5   2   4  528.04   24.01   2
   4  -2  -4  413.99   16.26   3
  -4   2   4  371.73   18.38   2
  -3   2   4 1875.94   63.16   2
   3  -2  -4 1924.82   62.66   3
  -2   2   4 1902.16   63.05   2
   2  -2  -4 1919.25   62.17   3
   1  -2  -4 1397.80   44.99   3
  -1   2   4 1390.32   48.76   1
  -1   2   4 1334.60   47.20   2
   0   2   4 4549.44  158.18   1
   0   2   4 4686.77  144.19   2
   1   2   4   13.64    3.23   2
   1   2   4   16.49    2.77   1
   2   2   4 2608.47   80.99   2
   2   2   4 2620.25   84.01   3
   2   2   4 2675.28   92.39   1
   3   2   4   25.03    2.59   2
   3   2   4   26.33    2.54   3
  -3  -2  -4   21.81    4.16   1
   4   2   4   84.67    4.93   2
  -4  -2  -4   78.34    8.30   1
   4   2   4   73.94    5.12   3
   5   2   4  776.68   28.08   3
  -5  -2  -4  773.86   36.24   1
   5   2   4  765.92   26.22   2
  -6  -2  -4   12.51    2.60   2
   6   2   4    6.07    2.70   3
  -7  -2  -4  741.84   27.48   2
   7   2   4  769.54   29.93   3
  -5   3   4  862.66   35.82   2
  -4   3   4  140.57   11.35   2
  -3   3   4  873.81   33.96   2
  -2   3   4  116.14    6.35   1
  -2   3   4  109.60    9.88   2
  -1   3   4  113.76    6.45   1
  -1   3   4  117.50   10.38   2
   0   3   4 3648.86  117.44   2
   0   3   4 3712.68  127.11   1
   1   3   4  153.01    9.40   2
   1   3   4  152.92    8.29   1
   2   3   4 3385.95  106.68   2
   2   3   4 3519.77  121.14   1
   2   3   4 3546.62  111.28   3
   3   3   4 1523.03   49.83   3
   3   3   4 1510.59   55.14   1
   3   3   4 1488.24   47.40   2
   4   3   4  609.06   21.91   3
   4   3   4  572.62   20.24   2
   5   3   4  691.94   23.97   2
  -5  -3  -4  683.85   31.40   1
   5   3   4  710.93   26.24   3
  -6  -3  -4    5.74    2.04   2
   6   3   4   11.79    3.56   3
  -7  -3  -4   96.18    6.74   2
   7   3   4   97.70    8.27   3
  -5   4   4  701.17   32.58   2
  -4   4   4  514.94   25.57   2
  -3   4   4 1326.62   49.80   2
  -2   4   4 2028.32   70.50   2
  -1   4   4  150.52   12.41   2
  -1   4   4   98.74    6.54   1
   0   4   4 2099.48   75.17   1
   0   4   4 2150.08   71.97   2
   1   4   4  136.56    8.19   1
   1   4   4  152.69    9.46   2
   2   4   4  170.94    7.82   2
   2   4   4  137.47    8.94   1
   3   4   4  287.54   11.38   2
   3   4   4  306.42   14.57   1
   4   4   4    9.94    3.68   1
   4   4   4    6.51    2.02   2
   5   4   4 1245.34   40.40   2
   6   4   4    2.01    3.42   3
  -6  -4  -4    1.96    1.79   2
   7   4   4  449.53   22.01   3
  -7  -4  -4  471.31   18.82   2
  -4   5   4   14.39    7.54   2
  -3   5   4  226.32   17.01   2
  -2   5   4  594.50   28.87   2
  -1   5   4   61.09    5.47   1
  -1   5   4   70.33    9.88   2
   0   5   4 2149.94   75.03   2
   0   5   4 2279.83   79.40   1
   1   5   4  667.81   27.34   1
   1   5   4  689.96   25.89   2
   2   5   4 1510.31   47.75   2
   2   5   4 1454.16   54.74   1
   3   5   4  799.26   30.34   1
   3   5   4  672.15   24.42   2
   4   5   4   33.85    5.53   1
   5   5   4  302.67   17.47   1
  -1   6   4    9.28    3.18   1
   0   6   4  263.33   13.79   1
   1   6   4   27.67    4.55   1
   2   6   4   14.16    3.79   1
   3   6   4  659.49   28.53   1
   4   6   4   12.23    4.85   1
   5   6   4  835.09   37.14   1
  -1   7   4  239.31   13.91   1
   0   7   4 1131.15   45.06   1
   1   7   4  371.10   18.93   1
   2   7   4  172.53   11.93   1
   3   7   4  183.63   12.66   1
   4   7   4   27.25    6.17   1
   5   7   4   46.17    8.26   1
  -3  -6   5   12.45    5.35   3
  -2  -6   5  584.11   27.67   3
  -1  -6   5   63.40   10.06   3
   1   6  -5   85.04    9.86   1
   0   6  -5  270.27   17.51   1
   0  -6   5  256.03   18.33   3
   1  -6   5   93.28   11.46   3
  -1   6  -5   99.91   10.53   1
   2  -6   5   26.11    6.48   3
  -2   6  -5   23.08    6.13   1
   3  -6   5  615.11   27.90   3
  -3   6  -5  592.34   29.41   1
  -4  -5   5   69.25    9.12   3
  -3  -5   5   48.20    7.20   3
  -2  -5   5  860.41   35.25   3
  -1  -5   5  243.05   15.92   3
   1   5  -5  267.20   16.18   1
   0  -5   5  315.82   20.29   3
   0   5  -5  340.85   18.83   1
  -1   5  -5 1300.89   52.53   1
   1  -5   5 1324.90   51.94   3
  -2   5  -5   16.95    5.00   1
   2  -5   5   19.11    5.76   3
  -3   5  -5 1365.58   54.92   1
   3  -5   5 1393.53   51.55   3
  -4   5  -5   24.70    5.65   1
   4  -5   5   21.07    4.79   3
  -5  -4   5   11.14    6.60   3
  -4  -4   5  528.49   26.34   3
  -3  -4   5  165.97   12.35   3
  -2  -4   5  610.71   26.57   3
   1   4  -5    7.03    4.04   1
  -1  -4   5   11.87    5.03   3
   0  -4   5  142.38   12.91   3
   0   4  -5  153.65   11.03   1
   1  -4   5  853.71   36.03   3
  -1   4  -5  854.28   35.74   1
  -2   4  -5   69.09    7.67   1
   2  -4   5   67.48    7.81   3
   3  -4   5 1637.80   58.07   3
  -3   4  -5 1601.54   61.93   1
  -4   4  -5  339.39   17.79   1
   4  -4   5  307.51   15.93   3
  -5   4  -5  504.70   24.02   1
   5  -4   5  508.67   22.68   3
  -5  -3   5   52.04    8.81   3
  -4  -3   5  692.34   31.18   3
  -3  -3   5  180.75   13.07   3
  -2  -3   5 1056.76   40.79   3
  -1  -3   5 1581.70   54.62   3
   1   3  -5 1439.75   56.16   1
   0   3  -5  136.39    9.90   1
   0  -3   5   80.68    9.40   3
  -1   3  -5 2923.56  104.11   1
   1  -3   5 2875.97   99.52   3
  -2   3  -5   25.54    5.19   1
   2  -3   5   17.64    5.05   3
  -3   3  -5  827.72   33.93   1
   3  -3   5  793.45   31.24   3
  -4   3  -5  131.54   10.13   1
   4  -3   5  137.75    9.05   3
  -5   3  -5   31.13    5.52   1
   6  -3   5  707.66   29.25   3
  -5  -2   5   19.63    6.48   3
  -4  -2   5  856.52   35.74   3
  -3  -2   5  107.55    9.83   3
  -2  -2   5  524.93   23.45   3
   1   2  -5  283.16   14.66   1
  -1  -2   5  329.99   15.88   3
   0  -2   5  127.37   10.36   3
   0  -2   5  135.90    6.13   2
   0   2  -5  145.76    9.87   1
   1  -2   5 3853.01  117.44   2
   1  -2   5 3927.99  129.52   3
  -1   2  -5 3892.13  137.42   1
  -2   2  -5  331.27   17.73   1
   2  -2   5  327.33   12.00   2
   2  -2   5  344.59   16.14   3
  -3   2  -5 2793.73   86.96   2
  -3   2  -5 2900.38  102.53   1
   3  -2   5 2771.25   93.53   3
   4  -2   5 1510.24   54.59   3
  -4   2  -5 1615.42   50.97   2
  -4   2  -5 1622.96   60.53   1
  -5   2  -5  166.39    9.14   2
   5  -2   5  161.74    9.84   3
  -5   2  -5  184.78   11.82   1
   6  -2   5  825.59   32.60   3
  -6   2  -5  853.67   30.89   2
  -7   2  -5   11.74    4.23   2
  -6  -1   5  155.03   12.74   3
  -5  -1   5  134.14   11.42   3
  -5  -1   5  117.04    9.47   2
  -4  -1   5 1118.11   38.37   2
  -4  -1   5 1039.28   41.41   3
  -3  -1   5  677.56   24.86   2
  -3  -1   5  653.66   27.40   3
  -2  -1   5  753.13   30.08   3
  -2  -1   5  782.12   27.49   2
   1   1  -5 2736.48  100.15   1
  -1  -1   5 2954.03   88.99   2
  -1  -1   5 2858.10   95.31   3
   0  -1   5   47.13    4.57   2
   0   1  -5   47.03    5.96   1
   0  -1   5   46.89    6.27   3
   1  -1   5 2923.47   86.50   2
   1  -1   5 2982.46   94.79   3
  -1   1  -5 2560.30  100.68   1
   2  -1   5   20.11    2.36   2
   2  -1   5   20.96    4.03   3
  -2   1  -5   23.04    5.46   1
   3  -1   5  105.98    5.49   2
  -3   1  -5  111.74   10.51   1
   3  -1   5   92.17    6.83   3
   4  -1   5  745.85   27.38   3
  -4   1  -5  732.43   32.42   1
  -5   1  -5    3.17    2.25   2
   5  -1   5    7.40    2.82   3
  -5   1  -5   12.98    5.00   1
   6  -1   5 1715.16   60.14   3
  -6   1  -5 1738.56   56.62   2
   7  -1   5   21.30    4.39   3
  -7   1  -5   26.73    4.67   2
  -6   0   5  488.19   23.21   2
  -5   0   5  108.23    9.31   2
  -5   0   5  113.93    9.94   3
  -4   0   5  537.89   22.28   2
  -4   0   5  532.35   23.59   3
  -3   0   5    6.22    3.20   3
  -3   0   5    6.82    3.63   2
  -2   0   5  467.25   19.74   3
  -2   0   5  476.23   19.33   2
  -1   0   5 2236.64   77.29   3
   1   0  -5 2437.70   81.57   1
  -1   0   5 2243.21   73.64   2
   0   0  -5  469.57   19.84   1
   0   0   5  444.09   19.02   3
   0   0   5  445.69   17.75   2
  -1   0  -5 5443.78  182.20   1
   1   0   5 5127.54  159.63   2
   1   0   5 5159.84  168.61   3
   2   0   5 1647.19   51.33   2
   2   0   5 1565.70   54.42   3
  -2   0  -5 1709.97   61.67   1
   3   0   5 1258.71   40.74   2
  -3   0  -5 1317.92   50.58   1
   3   0   5 1278.61   43.32   3
   4   0   5 1585.57   48.67   2
   4   0   5 1513.76   51.62   3
  -4   0  -5 1483.82   59.77   1
  -5   0  -5   20.31    6.04   1
   5   0   5   19.76    3.33   3
  -5   0  -5   12.41    2.52   2
  -6   0  -5  394.86   16.28   2
   6   0   5  400.21   17.39   3
  -7   0  -5   34.40    4.54   2
   7   0   5   34.69    5.02   3
  -5   1   5  346.59   18.10   2
   5  -1  -5  340.81   16.33   3
   4  -1  -5 1198.38   42.72   3
  -4   1   5 1201.45   43.33   2
  -3   1   5 1707.16   58.38   2
   3  -1  -5 1774.48   58.81   3
  -2   1   5  362.41   17.05   2
  -2   1   5  403.86   16.23   3
  -1   1   5 2813.91   88.78   2
   1  -1  -5 2692.43   97.12   1
  -1   1   5 2825.30   90.97   3
   0   1   5   59.38    6.10   2
   0   1   5   66.76    6.45   3
   0  -1  -5   54.06    5.69   1
  -1  -1  -5  435.15   19.20   1
   1   1   5  421.77   17.22   2
   1   1   5  437.24   15.95   3
  -2  -1  -5  274.12   15.58   1
   2   1   5  295.54   11.86   2
   2   1   5  321.61   11.54   3
  -3  -1  -5   97.69   10.43   1
   3   1   5   88.94    5.23   2
   3   1   5   96.89    5.21   3
   4   1   5 2965.07   93.22   2
   4   1   5 3035.58   98.27   3
  -4  -1  -5 3100.00  111.19   1
   5   1   5   29.38    3.37   2
   5   1   5   24.16    3.34   3
  -5  -1  -5   26.64    7.51   1
  -6  -1  -5 1395.08   46.03   2
   6   1   5 1375.67   48.52   3
  -7  -1  -5   77.62    6.18   2
   7   1   5   87.31    7.32   3
  -5   2   5   73.92    8.99   2
  -4   2   5  259.72   15.19   2
   3  -2  -5  238.49   10.88   3
  -3   2   5  226.44   13.67   2
  -2   2   5  101.11    9.14   2
  -1   2   5 3965.13  125.37   2
   0   2   5  978.29   34.97   2
   0   2   5  921.25   35.19   1
   1   2   5 3714.17  116.74   2
   1   2   5 3732.60  117.92   3
   2   2   5 1979.93   67.04   3
   2   2   5 2147.40   66.10   2
  -2  -2  -5 2164.79   75.43   1
   3   2   5  109.13    5.39   3
   3   2   5  105.73    6.02   2
   4   2   5  782.42   25.75   2
  -4  -2  -5  781.48   33.29   1
   4   2   5  725.35   26.69   3
   5   2   5   12.92    2.81   3
  -5  -2  -5   17.36    7.38   1
   5   2   5   12.96    2.57   2
   6   2   5   18.62    3.53   3
   7   2   5  154.45    9.71   3
  -7  -2  -5  122.68    8.01   2
  -5   3   5  675.87   31.26   2
  -4   3   5  636.92   28.83   2
  -3   3   5 1443.84   52.47   2
  -2   3   5   59.10    7.54   2
  -1   3   5  994.13   36.57   1
  -1   3   5  978.50   37.99   2
   0   3   5  119.42   10.61   2
   0   3   5  112.42    7.16   1
   1   3   5  293.70   13.28   1
   1   3   5  252.20   14.21   2
   2   3   5 1647.97   53.05   2
   2   3   5 1627.21   59.49   1
   3   3   5   16.04    3.98   1
   3   3   5   18.82    2.75   2
  -4  -3  -5 2799.91  100.40   1
   4   3   5 2798.77   90.43   3
   4   3   5 2730.25   85.79   2
   5   3   5   46.66    4.25   2
   5   3   5   57.07    5.26   3
  -5  -3  -5   49.34    7.74   1
   6   3   5  606.85   24.87   3
   6   3   5  643.79   23.04   2
  -7  -3  -5  218.45   11.32   2
   7   3   5  238.37   13.34   3
  -4   4   5   98.78   11.58   2
  -3   4   5 1056.30   42.51   2
  -2   4   5  399.18   21.23   2
  -1   4   5 3203.20  103.67   2
  -1   4   5 3055.95  109.24   1
   0   4   5 1042.90   40.41   1
   0   4   5 1128.53   41.18   2
   1   4   5 1059.79   40.03   1
   2   4   5  910.74   35.69   1
   2   4   5  933.38   32.23   2
   3   4   5   34.96    3.49   2
   3   4   5   34.62    5.16   1
   4   4   5  176.52    8.26   2
   4   4   5  175.58   11.25   1
  -5  -4  -5   22.37    5.78   1
   5   4   5   25.75    3.25   2
   6   4   5   11.61    2.84   2
  -7  -4  -5  254.92   12.67   2
  -4   5   5  132.89   14.48   2
  -3   5   5  536.87   28.14   2
  -2   5   5   74.63   10.55   2
  -1   5   5  124.72   11.86   2
  -1   5   5  119.60    7.91   1
   0   5   5  268.97   16.34   2
   0   5   5  254.39   13.02   1
   1   5   5    9.92    4.57   2
   1   5   5   20.57    3.85   1
   2   5   5 1886.08   61.32   2
   2   5   5 1904.11   69.30   1
   3   5   5   43.84    4.16   2
   4   5   5 1215.59   39.32   2
   4   5   5 1188.61   47.27   1
   5   5   5  130.83    7.30   2
   5   5   5  138.19   11.19   1
  -3   6   5 1253.42   52.32   2
  -2   6   5  503.26   26.83   2
  -1   6   5 1160.24   45.38   1
  -1   6   5 1200.61   46.62   2
   0   6   5  691.07   30.05   2
   0   6   5  696.45   29.09   1
   1   6   5  107.22    8.30   1
   2   6   5  231.28   13.30   1
   3   6   5   14.59    4.37   1
   4   6   5   -0.14    3.69   1
   5   6   5   77.68    9.12   1
  -1   7   5   16.16    4.32   1
   0   7   5  531.44   24.71   1
   1   7   5    7.25    3.53   1
   2   7   5 1049.94   43.04   1
   3   7   5   75.50    8.62   1
   4   7   5  444.38   23.24   1
  -2  -6   6  245.97   15.88   3
   1   6  -6   66.15    9.87   1
  -1  -6   6   83.37   10.27   3
   0   6  -6  525.91   28.07   1
   0  -6   6  500.84   27.74   3
  -1   6  -6    7.26    5.99   1
   1  -6   6   22.47    7.94   3
  -2   6  -6  435.85   24.95   1
   2  -6   6  453.66   25.26   3
  -3  -5   6   76.17    8.40   3
  -2  -5   6   27.73    5.98   3
   1   5  -6   24.58    6.61   1
  -1  -5   6   18.18    5.72   3
   0   5  -6  890.12   38.88   1
   0  -5   6  842.18   38.39   3
   1  -5   6  119.33   12.85   3
  -1   5  -6  121.00   12.05   1
  -2   5  -6 1213.94   51.51   1
   2  -5   6 1240.40   50.01   3
  -3   5  -6  544.52   27.78   1
   3  -5   6  537.49   26.37   3
  -4   5  -6  207.21   15.30   1
   4  -5   6  220.80   14.23   3
  -4  -4   6  186.04   14.19   3
  -3  -4   6  401.78   20.41   3
  -2  -4   6  654.74   27.82   3
   1   4  -6    6.07    4.40   1
  -1  -4   6    6.80    4.53   3
   0   4  -6 1163.38   47.79   1
   0  -4   6 1188.52   47.14   3
   1  -4   6   38.33    8.08   3
  -1   4  -6   29.46    6.56   1
   2  -4   6  211.72   15.01   3
  -2   4  -6  215.75   14.91   1
  -3   4  -6  326.40   19.06   1
   3  -4   6  315.72   17.75   3
  -4   4  -6    5.44    4.76   1
   4  -4   6    6.36    3.94   3
  -5   4  -6 1371.51   54.38   1
   5  -4   6 1312.99   50.41   3
  -5  -3   6  118.25   12.60   3
  -4  -3   6   24.20    6.97   3
  -3  -3   6   68.93    8.45   3
  -2  -3   6  434.40   20.45   3
  -1  -3   6  118.88    9.70   3
   1   3  -6  115.46    9.42   1
   0   3  -6 2624.35   95.01   1
   0  -3   6 2573.99   90.07   3
  -1   3  -6  542.65   25.12   1
   1  -3   6  505.33   25.77   3
   2  -3   6 1840.46   66.19   3
  -2   3  -6 1782.31   69.24   1
  -3   3  -6 1093.57   44.86   1
   3  -3   6 1058.52   41.26   3
   4  -3   6   21.62    4.71   3
  -4   3  -6   24.35    5.86   1
  -5   3  -6  605.65   28.27   1
   5  -3   6  595.53   25.75   3
   6  -3   6   40.48    5.95   3
  -5  -2   6  588.78   29.23   3
  -4  -2   6  602.26   28.22   3
  -3  -2   6  115.71   10.56   3
  -2  -2   6 1188.83   44.67   3
   1   2  -6   53.71    6.38   1
  -1  -2   6   55.75    6.63   3
   0   2  -6  608.25   26.92   1
   0  -2   6  606.85   26.10   3
  -1   2  -6   34.81    6.59   1
   1  -2   6   17.52    6.98   3
   2  -2   6   80.93    4.96   2
   2  -2   6   80.46    8.79   3
  -2   2  -6   76.55    9.04   1
   3  -2   6 1924.69   61.71   2
   3  -2   6 1998.47   68.21   3
  -3   2  -6 1972.56   75.03   1
  -4   2  -6   24.75    3.63   2
   4  -2   6   24.97    4.58   3
  -4   2  -6   35.46    6.92   1
   5  -2   6 1939.48   69.39   3
  -5   2  -6 2010.88   64.86   2
  -5   2  -6 2058.84   76.60   1
   6  -2   6  141.88   10.10   3
  -6   2  -6  141.33    9.45   2
  -5  -1   6   57.05    8.73   3
  -4  -1   6   39.09    7.27   3
  -4  -1   6   38.16    6.20   2
  -3  -1   6  118.61    8.94   2
  -3  -1   6  104.26    9.83   3
  -2  -1   6 2371.42   74.74   2
  -2  -1   6 2283.91   79.92   3
  -1  -1   6  770.53   30.02   3
   1   1  -6  719.55   30.82   1
  -1  -1   6  820.42   27.01   2
   0  -1   6 4691.79  145.67   2
   0   1  -6 4545.84  166.26   1
   0  -1   6 5075.75  156.30   3
  -1   1  -6 1728.45   64.66   1
   1  -1   6 1785.46   54.53   2
   1  -1   6 1629.94   61.00   3
   2  -1   6  252.65   13.53   3
   2  -1   6  239.47    9.92   2
  -2   1  -6  226.75   14.55   1
  -3   1  -6 1355.58   57.33   1
   3  -1   6 1540.28   47.10   2
   3  -1   6 1505.36   51.43   3
   4  -1   6   13.33    3.53   3
   4  -1   6   14.68    2.69   2
  -4   1  -6   20.98    6.47   1
   5  -1   6  175.04   10.28   3
  -5   1  -6  177.56    9.47   2
  -5   1  -6  185.70   14.08   1
  -6   1  -6  265.37   12.95   2
   6  -1   6  264.35   13.94   3
   7  -1   6   19.91    4.37   3
  -7   1  -6    9.84    3.70   2
  -5   0   6  487.28   23.75   3
  -5   0   6  461.35   22.50   2
  -4   0   6  919.21   35.37   2
  -4   0   6  924.55   36.83   3
  -3   0   6   24.14    5.35   3
  -3   0   6   24.95    5.50   2
  -2   0   6  816.06   30.46   2
  -2   0   6  830.03   31.77   3
  -1   0   6  181.48   10.93   2
  -1   0   6  186.85   11.59   3
   1   0  -6  210.35   11.06   1
   0   0   6  128.57    8.05   2
   0   0   6  128.43    9.67   3
   0   0  -6  123.37    9.25   1
  -1   0  -6 1284.03   47.05   1
   1   0   6 1218.13   44.26   3
   1   0   6 1180.12   40.89   2
   2   0   6   11.34    2.57   2
   2   0   6    9.98    3.32   3
  -2   0  -6   11.80    4.95   1
   3   0   6 4565.95  150.35   3
   3   0   6 4591.88  142.24   2
  -3   0  -6 4856.17  165.08   1
   4   0   6  195.43    9.97   3
  -4   0  -6  218.15   15.26   1
   4   0   6  187.57    9.06   2
   5   0   6 1743.52   58.16   3
   5   0   6 1742.56   54.91   2
  -5   0  -6 1587.76   66.07   1
  -6   0  -6  278.17   13.08   2
   6   0   6  280.74   13.95   3
  -7   0  -6   86.18    7.04   2
   7   0   6   91.60    7.78   3
  -5   1   6   97.14   10.13   2
  -4   1   6  453.19   21.72   2
  -3   1   6  393.17   19.16   2
  -3   1   6  419.29   18.48   3
  -2   1   6 3480.68  113.20   3
  -2   1   6 3400.44  109.57   2
  -1   1   6 1058.70   38.70   2
   1  -1  -6 1124.55   41.06   1
  -1   1   6 1078.68   38.94   3
   0   1   6 1914.28   60.99   3
   0   1   6 1866.13   59.50   2
   0  -1  -6 1634.92   65.53   1
   1   1   6 2254.12   74.67   2
   1   1   6 2414.53   76.80   3
  -1  -1  -6 2313.01   84.31   1
  -2  -1  -6   29.80    6.13   1
   2   1   6   27.94    3.25   3
   2   1   6   24.15    3.75   2
  -3  -1  -6  651.15   29.92   1
   3   1   6  680.70   23.31   2
   3   1   6  648.22   23.58   3
  -4  -1  -6   27.89    6.91   1
   4   1   6   36.28    3.70   2
   4   1   6   30.38    3.49   3
   5   1   6   11.66    2.90   3
  -5  -1  -6    8.50    6.35   1
   5   1   6    4.35    2.21   2
   6   1   6  398.54   17.31   3
  -6  -1  -6  381.05   22.93   1
  -7  -1  -6   49.09    5.28   2
   7   1   6   45.90    5.75   3
  -5   2   6  196.52   14.84   2
  -4   2   6  555.22   26.05   2
  -3   2   6   33.40    6.50   2
  -2   2   6  228.65   13.87   2
   1  -2  -6  184.29    9.74   1
  -1   2   6  168.47   12.04   2
   0   2   6   82.32    7.87   2
   0  -2  -6   88.64    6.98   1
  -1  -2  -6 3421.56  122.23   1
   1   2   6 3549.87  110.61   2
   2   2   6  259.23   12.31   2
   2   2   6  246.01    9.72   3
  -2  -2  -6  263.81   13.85   1
   3   2   6 3647.23  119.15   3
  -3  -2  -6 3670.15  131.98   1
   3   2   6 3847.06  114.74   2
   4   2   6  303.74   12.55   2
   4   2   6  302.25   12.56   3
  -4  -2  -6  320.16   18.46   1
   5   2   6  711.82   26.98   3
   5   2   6  758.59   26.02   2
  -5  -2  -6  736.68   35.25   1
   6   2   6  292.80   12.93   2
   6   2   6  276.85   13.60   3
  -6  -2  -6  293.94   20.33   1
  -7  -2  -6   10.84    3.04   2
   7   2   6    5.76    3.21   3
  -4   3   6 1306.30   50.62   2
  -3   3   6  487.76   24.03   2
  -2   3   6 1945.18   67.58   2
  -1   3   6 1647.65   59.15   1
  -1   3   6 1617.08   57.40   2
   0   3   6  300.53   14.30   1
   0   3   6  295.42   16.07   2
   1   3   6  658.14   26.84   1
   2   3   6   41.23    5.61   2
   3   3   6    2.19    2.34   2
  -3  -3  -6    4.96    3.62   1
  -4  -3  -6  216.17   13.66   1
   4   3   6  222.50   10.08   2
   5   3   6   47.16    4.55   2
  -5  -3  -6   44.09    8.16   1
   6   3   6  889.63   32.67   3
  -6  -3  -6  868.13   42.36   1
   6   3   6  825.78   30.04   2
  -7  -3  -6    4.79    2.35   2
   7   3   6    2.88    3.43   3
  -4   4   6  246.28   17.81   2
  -3   4   6   20.30    7.18   2
  -2   4   6   27.81    7.29   2
  -1   4   6  826.51   33.63   2
  -1   4   6  793.61   31.49   1
   0   4   6   56.73    5.90   1
   0   4   6   78.06    8.80   2
   1   4   6 3100.83  111.38   1
   1   4   6 3219.15  103.04   2
   2   4   6  329.49   16.14   1
   3   4   6 1731.47   63.74   1
   3   4   6 1689.07   55.46   2
   4   4   6  421.31   16.46   2
  -5  -4  -6  115.54   10.75   1
   5   4   6   81.14    6.02   2
  -5  -4  -6  115.00   10.75   1
   6   4   6   59.71    5.13   2
  -6  -4  -6   49.91   10.25   1
  -7  -4  -6   26.98    3.93   2
  -3   5   6  664.66   32.55   2
  -2   5   6  798.03   35.38   2
  -1   5   6  653.74   27.72   1
  -1   5   6  707.46   30.36   2
   0   5   6  148.82   12.14   2
   0   5   6  124.52    8.79   1
   1   5   6   52.60    5.82   1
   1   5   6   53.80    7.49   2
   2   5   6   33.91    5.48   2
   2   5   6   21.74    4.38   1
   3   5   6   38.64    4.54   2
   3   5   6   36.20    5.64   1
   4   5   6  453.17   17.33   2
   4   5   6  425.69   21.45   1
  -5  -5  -6   12.20    5.48   1
   5   5   6   15.10    3.04   2
   6   5   6  995.40   35.14   2
  -6  -5  -6 1066.37   47.71   1
  -2   6   6   10.86    6.92   2
  -1   6   6  970.84   40.09   2
   0   6   6   77.87    9.69   2
   0   6   6   89.10    7.55   1
   1   6   6 1447.52   53.89   1
   1   6   6 1339.98   50.26   2
   2   6   6  247.88   13.05   2
   2   6   6  243.98   14.20   1
   3   6   6  472.21   22.68   1
   4   6   6  109.29    9.90   1
   5   6   6    7.92    5.31   1
  -6  -6  -6    6.00    6.67   1
   0   7   6   18.34    4.61   1
   1   7   6   10.09    4.27   1
   2   7   6   83.56    8.48   1
   3   7   6   19.00    5.44   1
   4   7   6  601.51   29.15   1
   0   6  -7  121.68   13.29   1
   0  -6   7  153.32   14.51   3
  -1   6  -7  602.61   32.08   1
   1  -6   7  577.27   31.79   3
  -2  -5   7   17.54    5.18   3
  -1  -5   7  172.12   13.27   3
   1   5  -7  198.08   15.09   1
   0  -5   7   14.80    6.79   3
   0   5  -7   13.29    6.53   1
  -1   5  -7   72.66   10.66   1
   1  -5   7   51.07    9.92   3
  -2   5  -7  661.32   33.63   1
   2  -5   7  678.78   33.82   3
  -3   5  -7   13.93    6.65   1
   3  -5   7    7.04    5.89   3
  -3  -4   7  418.85   20.97   3
  -2  -4   7  153.03   11.15   3
   1   4  -7 1333.93   54.59   1
  -1  -4   7 1373.13   50.79   3
   0   4  -7  457.38   24.44   1
   0  -4   7  495.42   24.38   3
   1  -4   7  292.25   19.30   3
  -1   4  -7  295.24   18.65   1
   2  -4   7  586.06   29.45   3
  -2   4  -7  570.45   29.60   1
   3  -4   7   22.29    6.62   3
  -3   4  -7   11.93    6.14   1
  -4   4  -7  154.82   14.24   1
   4  -4   7  158.94   12.57   3
   5  -4   7  101.96   10.05   3
  -5   4  -7  112.46   11.73   1
  -4  -3   7   13.94    5.96   3
  -3  -3   7  263.66   15.82   3
  -2  -3   7   94.73    8.56   3
  -1  -3   7  118.51    9.56   3
   1   3  -7  118.52   10.19   1
   0  -3   7  346.25   18.42   3
   0   3  -7  308.54   18.12   1
  -1   3  -7   10.97    5.46   1
   1  -3   7   35.53    8.37   3
  -2   3  -7 2251.47   87.51   1
   2  -3   7 2360.92   83.99   3
  -3   3  -7  233.53   16.44   1
   3  -3   7  226.54   15.34   3
  -4   3  -7 1667.84   66.88   1
   4  -3   7 1672.00   61.44   3
  -5   3  -7  377.07   21.43   1
   5  -3   7  327.92   18.11   3
  -4  -2   7   87.47   10.34   3
  -3  -2   7 1361.65   51.74   3
  -2  -2   7  411.30   19.62   3
   1   2  -7 1456.89   57.44   1
  -1  -2   7 1596.27   54.56   3
   0  -2   7 1276.15   45.96   3
   0   2  -7 1168.55   48.15   1
  -1   2  -7   80.29    9.08   1
   1  -2   7   55.73    9.10   3
   2  -2   7  468.77   23.35   3
  -2   2  -7  443.13   23.65   1
  -3   2  -7   20.79    6.57   1
   3  -2   7   20.24    3.20   2
   3  -2   7   14.31    5.36   3
  -4   2  -7    5.82    5.97   1
  -4   2  -7   12.22    2.91   2
   4  -2   7   11.20    4.43   3
   5  -2   7  628.49   27.81   3
  -5   2  -7  698.05   32.79   1
  -5   2  -7  666.73   25.41   2
   6  -2   7   16.23    4.77   3
  -6   2  -7   14.08    6.06   1
  -6   2  -7   13.84    4.45   2
  -5  -1   7  272.27   18.50   3
  -4  -1   7   25.85    6.79   3
  -3  -1   7  203.52   14.01   3
  -2  -1   7   12.97    3.91   2
  -2  -1   7    7.78    4.51   3
  -1  -1   7   10.58    3.24   2
  -1  -1   7   16.04    4.31   3
   0  -1   7 1435.39   51.62   3
   0   1  -7 1450.81   54.80   1
   0  -1   7 1447.12   46.98   2
  -1   1  -7  144.38   11.02   1
   1  -1   7  120.84   12.28   3
   1  -1   7  119.83    7.51   2
   2  -1   7 3762.60  115.69   2
   2  -1   7 3435.15  125.21   3
  -2   1  -7 4062.66  135.14   1
   3  -1   7  560.90   20.20   2
  -3   1  -7  536.83   26.71   1
   3  -1   7  537.64   23.33   3
  -4   1  -7 1323.78   57.35   1
   4  -1   7 1485.63   47.08   2
   4  -1   7 1466.25   51.16   3
  -5   1  -7  278.39   18.30   1
   5  -1   7  282.73   14.66   3
  -6   1  -7   38.95    8.20   1
  -6   1  -7   30.94    4.96   2
   6  -1   7   36.05    5.65   3
   7  -1   7   56.33    6.87   3
  -7   1  -7   44.27    5.98   2
  -5   0   7  613.54   28.34   2
  -4   0   7  355.04   18.82   2
  -4   0   7  382.55   20.19   3
  -3   0   7 1615.39   57.21   2
  -3   0   7 1705.64   60.04   3
  -2   0   7 1225.90   45.16   3
  -1   0   7  560.92   22.83   3
  -1   0   7  556.92   21.56   2
   0   0   7  970.20   33.82   2
   0   0   7  977.64   36.24   3
   0   0  -7  981.77   38.07   1
   1   0   7   22.84    5.68   3
  -1   0  -7   16.27    4.98   1
   1   0   7   17.12    4.25   2
  -2   0  -7  122.47   10.50   1
   2   0   7  120.95    9.47   3
   2   0   7  118.50    7.61   2
   3   0   7  286.65   12.46   2
  -3   0  -7  295.30   17.08   1
   3   0   7  284.70   13.78   3
   4   0   7    3.22    2.34   2
  -4   0  -7   11.46    5.68   1
   4   0   7    7.05    2.99   3
   5   0   7 1140.72   38.03   2
  -5   0  -7 1050.82   46.78   1
   5   0   7 1129.89   40.48   3
  -6   0  -7    4.59    6.21   1
   6   0   7   -0.07    2.59   3
  -6   0  -7   -1.45    2.07   2
  -7   0  -7 1097.47   39.47   2
   7   0   7 1109.20   42.40   3
  -5   1   7  174.10   14.08   2
  -4   1   7   15.41    5.77   2
  -3   1   7    7.47    4.83   2
  -2   1   7  402.08   18.96   2
  -1   1   7   27.68    5.10   2
  -1   1   7   20.59    4.39   3
   0   1   7 4088.15  126.47   2
   0   1   7 4257.31  131.95   3
   0  -1  -7 3814.64  141.75   1
   1   1   7  814.92   29.70   2
  -1  -1  -7  803.87   33.45   1
   1   1   7  778.98   29.93   3
  -2  -1  -7 3682.53  133.70   1
   2   1   7 3817.68  117.38   2
   2   1   7 3758.41  121.62   3
   3   1   7  538.10   20.19   2
  -3  -1  -7  503.48   25.08   1
   3   1   7  525.26   20.02   3
   4   1   7  474.83   19.43   3
   4   1   7  495.53   18.99   2
  -4  -1  -7  529.42   25.16   1
   5   1   7  112.02    7.26   2
  -5  -1  -7  122.03   11.92   1
   5   1   7  115.15    7.69   3
  -6  -1  -7    7.96    6.51   1
   6   1   7   12.48    3.44   3
   6   1   7   18.76    3.53   2
   7   1   7    0.67    2.85   3
  -7  -1  -7   -0.06    2.53   2
  -4   2   7  645.85   29.87   2
  -3   2   7  945.52   37.78   2
  -2   2   7 1030.01   39.22   2
  -1   2   7   79.34    7.93   2
   0  -2  -7  207.05   11.88   1
   0   2   7  213.23   12.30   2
  -1  -2  -7   28.55    5.26   1
   1   2   7   16.75    4.67   2
   2   2   7   44.58    5.97   2
  -2  -2  -7   59.40    7.10   1
  -3  -2  -7  655.16   29.86   1
   3   2   7  679.17   24.70   2
  -4  -2  -7   19.45    6.36   1
   4   2   7   21.55    3.52   2
   4   2   7   20.21    3.05   3
   5   2   7 1909.42   66.35   3
   5   2   7 1969.90   63.47   2
  -5  -2  -7 2038.89   77.58   1
   6   2   7   28.18    4.18   2
  -6  -2  -7   23.10    7.79   1
   6   2   7   18.62    3.87   3
  -7  -2  -7  597.61   24.15   2
   7   2   7  634.90   26.23   3
  -4   3   7   62.83    9.65   2
  -3   3   7    9.38    5.73   2
  -2   3   7 1099.72   42.46   2
  -1   3   7  299.43   16.39   2
   0   3   7 3875.08  123.46   2
   1   3   7  708.22   28.92   2
  -2  -3  -7 2013.21   74.20   1
  -3  -3  -7  392.86   20.20   1
   3   3   7  430.18   17.63   2
  -4  -3  -7   24.74    5.92   1
   4   3   7   21.15    3.74   2
   5   3   7   28.51    4.01   2
  -5  -3  -7   28.86    7.58   1
   6   3   7   14.52    3.44   2
  -6  -3  -7    2.29    7.34   1
  -3   4   7  303.10   19.65   2
  -2   4   7  223.04   15.54   2
  -1   4   7   70.84    8.56   2
   0   4   7   26.59    4.59   1
   0   4   7   21.18    5.93   2
   1   4   7  179.01   11.01   1
   1   4   7  172.69   12.62   2
   2   4   7   45.76    5.97   1
   2   4   7   37.80    6.49   2
   3   4   7 1440.43   48.98   2
   4   4   7    1.98    2.72   2
  -4  -4  -7   -1.62    3.54   1
  -5  -4  -7 1474.42   60.25   1
   5   4   7 1527.43   49.80   2
   6   4   7   62.55    5.72   2
  -6  -4  -7   78.89   11.98   1
   7   4   7  163.12    9.89   2
  -3   5   7   58.30    9.81   2
  -2   5   7 1431.97   54.43   2
  -1   5   7  408.72   21.25   2
   0   5   7 1758.60   60.91   2
   0   5   7 1636.56   62.96   1
   1   5   7  393.16   20.65   2
   1   5   7  408.89   19.47   1
   2   5   7  174.48   11.55   1
   2   5   7  191.70   12.90   2
   3   5   7   71.31    7.71   1
   3   5   7   70.03    6.80   2
   4   5   7   16.91    3.65   2
  -5  -5  -7   68.27    9.20   1
   5   5   7   89.03    6.73   2
   6   5   7   47.17    5.23   2
  -6  -5  -7   58.41   10.04   1
  -2   6   7   17.21    6.64   2
  -1   6   7   30.91    7.30   2
   0   6   7   49.57    6.19   1
   0   6   7   60.53    9.27   2
   1   6   7  531.79   24.53   2
   1   6   7  468.34   22.97   1
   2   6   7   14.87    4.48   1
   2   6   7   23.96    5.64   2
   3   6   7 1406.32   48.05   2
   3   6   7 1380.45   55.06   1
   4   6   7   60.53    8.10   1
   0   7   7  428.78   21.73   1
   1   7   7  146.05   11.15   1
   2   7   7   14.04    4.76   1
   3   7   7   27.26    6.24   1
   4   7   7    6.67    4.86   1
  -1  -5   8  346.19   19.50   3
   0  -5   8   54.40    9.08   3
   0   5  -8   57.43    9.62   1
  -1   5  -8  162.64   15.54   1
   1  -5   8  133.35   14.15   3
  -2   5  -8   34.66    9.06   1
   2  -5   8   40.64    9.63   3
   3  -5   8    9.55    7.24   3
  -2  -4   8    6.45    4.24   3
  -1  -4   8  296.24   16.48   3
   0  -4   8   19.06    6.41   3
   0   4  -8   18.41    6.72   1
  -1   4  -8 1649.10   68.93   1
   1  -4   8 1801.98   67.11   3
   2  -4   8  279.29   20.27   3
  -2   4  -8  256.27   19.01   1
   3  -4   8 1033.79   45.15   3
  -3   4  -8  993.98   46.42   1
  -4   4  -8  292.71   20.89   1
   4  -4   8  307.80   19.72   3
  -3  -3   8  392.89   20.08   3
  -2  -3   8  375.26   18.50   3
  -1  -3   8  313.77   16.45   3
   0  -3   8   17.08    5.76   3
   0   3  -8   12.11    5.57   1
  -1   3  -8   23.79    6.67   1
   1  -3   8   22.85    7.37   3
  -2   3  -8   26.02    7.83   1
   2  -3   8   33.35    8.97   3
   3  -3   8    7.43    6.36   3
  -3   3  -8    1.82    5.37   1
   4  -3   8 1054.64   42.61   3
  -4   3  -8  930.10   44.62   1
   5  -3   8    0.72    4.28   3
  -5   3  -8    3.05    5.78   1
  -4  -2   8    2.42    5.11   3
  -3  -2   8   64.73    8.41   3
  -2  -2   8    1.79    3.70   3
  -1  -2   8 1356.76   49.04   3
   0   2  -8  436.48   21.81   1
   0  -2   8  411.28   20.33   3
   1  -2   8 2536.72   89.65   3
  -1   2  -8 2530.44   94.21   1
  -2   2  -8  686.19   32.00   1
   2  -2   8  661.75   31.59   3
   3  -2   8  660.50   30.90   3
  -3   2  -8  692.63   33.08   1
   4  -2   8  123.02   11.34   3
  -4   2  -8  136.00   13.57   1
  -5   2  -8   15.21    6.67   1
   5  -2   8   11.94    5.13   3
   6  -2   8   15.03    5.12   3
  -6   2  -8   26.70    7.65   1
  -4  -1   8  682.96   31.70   3
  -3  -1   8  536.35   25.11   3
  -2  -1   8   82.21    8.42   3
  -1  -1   8   88.18    7.74   3
   0   1  -8   17.41    5.08   1
   0  -1   8   14.13    4.84   3
   0  -1   8   17.26    3.18   2
   1  -1   8   15.18    6.71   3
   1  -1   8   28.03    4.06   2
  -1   1  -8   21.10    5.87   1
   2  -1   8  774.02   28.39   2
   2  -1   8  781.43   34.18   3
  -2   1  -8  839.78   35.04   1
  -3   1  -8    7.39    5.48   1
   3  -1   8    6.70    2.77   2
   3  -1   8    2.49    4.83   3
  -4   1  -8 2439.12   90.70   1
   4  -1   8 2335.22   76.17   2
   4  -1   8 2363.20   82.50   3
   5  -1   8   30.75    4.60   2
   5  -1   8   37.20    6.09   3
  -5   1  -8   20.55    6.82   1
   6  -1   8 1214.32   46.07   3
  -6   1  -8 1214.42   42.88   2
  -6   1  -8 1147.29   52.07   1
  -4   0   8   43.39    7.53   2
  -3   0   8  406.73   19.71   2
  -3   0   8  412.48   20.80   3
  -2   0   8  104.59    8.40   2
  -2   0   8  102.92    9.30   3
  -1   0   8 2533.68   81.50   2
  -1   0   8 2602.75   86.04   3
   0   0  -8 1034.20   39.58   1
   0   0   8 1007.01   37.65   3
   0   0   8  999.52   35.03   2
   1   0   8 2289.66   77.74   2
  -1   0  -8 2418.99   88.09   1
   1   0   8 2592.82   84.18   3
   2   0   8  417.26   17.23   2
   2   0   8  375.52   19.21   3
  -2   0  -8  420.79   20.56   1
  -3   0  -8   92.20    9.84   1
   3   0   8   96.77    8.33   3
   3   0   8   96.90    7.31   2
   4   0   8   25.50    4.96   3
  -4   0  -8   24.41    6.41   1
   4   0   8   23.31    4.06   2
  -5   0  -8   10.63    5.67   1
   5   0   8   18.86    3.74   2
   5   0   8    7.11    3.68   3
  -6   0  -8   84.00   11.02   1
   6   0   8   72.12    7.74   3
   7   0   8  280.66   16.17   3
  -7   0  -8  294.48   15.25   2
  -4   1   8  347.07   19.61   2
  -3   1   8  277.95   16.33   2
  -2   1   8   34.89    6.07   2
  -1   1   8   14.09    3.96   2
   0  -1  -8  124.17    9.40   1
   0   1   8  134.57    8.79   2
   1   1   8    7.69    3.73   2
  -1  -1  -8    4.54    4.12   1
   2   1   8 1568.22   54.84   2
  -2  -1  -8 1704.86   62.43   1
   2   1   8 1625.37   56.28   3
   3   1   8    3.62    3.06   2
  -3  -1  -8   -1.97    4.55   1
   3   1   8    1.41    2.60   3
   4   1   8 2535.77   85.46   3
   4   1   8 2585.31   81.86   2
  -4  -1  -8 2565.57   95.09   1
   5   1   8  210.94   11.28   2
   5   1   8  238.59   12.22   3
  -5  -1  -8  202.05   15.05   1
   6   1   8  638.27   25.32   2
   6   1   8  655.18   26.91   3
  -6  -1  -8  665.97   32.86   1
   7   1   8   77.45    7.66   3
  -4   2   8   17.27    6.51   2
  -3   2   8 1105.75   43.27   2
  -2   2   8  526.00   23.70   2
  -1   2   8 2371.80   77.70   2
   0   2   8  544.33   22.66   2
   0  -2  -8  565.70   25.04   1
  -1  -2  -8  882.17   36.93   1
   1   2   8  901.57   33.62   2
   2   2   8  137.45   10.38   2
  -2  -2  -8  164.32   12.19   1
  -3  -2  -8   31.67    7.03   1
   3   2   8   38.29    5.39   2
   4   2   8   46.42    5.22   2
  -4  -2  -8   52.67    8.44   1
   5   2   8  105.10    7.52   2
  -5  -2  -8  113.72   11.85   1
   6   2   8  164.53    9.87   2
  -6  -2  -8  159.91   14.61   1
   7   2   8  600.11   24.65   2
  -3   3   8   21.87    6.78   2
  -2   3   8   42.59    7.08   2
  -1   3   8   62.63    7.22   2
   0  -3  -8  662.23   28.17   1
   0   3   8  664.49   27.03   2
   1   3   8   63.56    7.69   2
  -1  -3  -8   60.25    7.03   1
  -2  -3  -8 2183.76   80.89   1
   3   3   8  147.04   10.42   2
  -3  -3  -8  162.62   12.00   1
   4   3   8 1638.85   54.58   2
  -4  -3  -8 1594.45   63.66   1
  -5  -3  -8  147.54   14.07   1
   5   3   8  152.67    9.30   2
  -6  -3  -8   81.17   12.16   1
   6   3   8   94.58    7.36   2
   7   3   8    2.75    3.03   2
  -3   4   8 1224.90   48.86   2
  -2   4   8  434.44   22.28   2
  -1   4   8 1106.32   41.78   2
   0   4   8  465.08   21.86   2
   1   4   8   98.97    9.71   2
  -2  -4  -8    6.06    4.00   1
   2   4   8    2.51    4.50   2
  -3  -4  -8   12.76    5.03   1
   3   4   8   14.65    4.80   2
  -4  -4  -8  316.33   18.48   1
   4   4   8  315.07   15.30   2
   5   4   8  346.08   15.77   2
  -5  -4  -8  347.19   20.92   1
  -6  -4  -8   60.43   10.67   1
   6   4   8   48.19    5.54   2
  -2   5   8  157.13   12.82   2
  -1   5   8  107.98   10.71   2
   0   5   8  878.37   36.88   1
   0   5   8  925.49   36.71   2
   1   5   8    9.40    4.00   1
   1   5   8   22.05    6.58   2
   2   5   8 1795.60   68.95   1
   2   5   8 1838.95   64.74   2
   3   5   8  257.51   14.58   2
  -4  -5  -8  447.17   24.28   1
   4   5   8  520.80   21.21   2
  -5  -5  -8   24.30    6.60   1
   5   5   8   29.90    4.67   2
  -6  -5  -8    5.82    6.80   1
   6   5   8    7.69    3.51   2
  -1   6   8  261.27   16.78   2
   0   6   8   45.04    6.37   1
   0   6   8   54.12    8.51   2
   1   6   8   25.16    7.09   2
   1   6   8   24.16    5.18   1
   2   6   8  194.80   13.35   1
   2   6   8  200.43   14.07   2
   3   6   8   92.02    8.83   2
   3   6   8   81.20    9.00   1
   4   6   8  185.82   11.40   2
  -5  -6  -8  350.07   22.19   1
   5   6   8  376.86   16.89   2
   1   7   8  134.88   11.08   1
   2   7   8  549.01   27.24   1
   3   7   8   93.33    9.97   1
  -1  -4   9   23.28    5.70   3
   0  -4   9   37.42    7.59   3
   0   4  -9   27.44    7.29   1
   1  -4   9  105.23   12.09   3
  -1   4  -9  105.07   12.03   1
   2  -4   9    7.83    7.41   3
  -2   4  -9    4.86    6.95   1
   3  -4   9 1056.80   47.34   3
  -3   4  -9  971.64   47.00   1
  -2  -3   9  840.19   33.71   3
  -1  -3   9  341.36   17.62   3
   0   3  -9 1102.53   45.16   1
   0  -3   9 1022.13   41.69   3
   1  -3   9  362.15   21.33   3
  -1   3  -9  383.83   21.51   1
   2  -3   9  130.15   14.53   3
  -2   3  -9  138.97   13.38   1
   3  -3   9   65.95   11.20   3
  -3   3  -9   32.19    8.59   1
   4  -3   9   15.90    7.54   3
  -4   3  -9   22.93    7.87   1
   5  -3   9   49.40    8.99   3
  -5   3  -9   42.03    9.56   1
  -3  -2   9   12.12    5.26   3
  -2  -2   9    5.25    3.84   3
  -1  -2   9    6.15    4.06   3
   0  -2   9   45.80    7.01   3
   0   2  -9   53.06    7.46   1
   1  -2   9 1013.03   42.02   3
  -1   2  -9 1046.30   43.43   1
   2  -2   9    2.83    6.46   3
  -2   2  -9    2.49    5.00   1
  -3   2  -9 2210.47   83.35   1
   3  -2   9 2061.98   79.46   3
   4  -2   9  129.48   12.90   3
  -4   2  -9  151.84   13.86   1
  -5   2  -9  846.10   42.65   1
   5  -2   9 1006.08   40.56   3
  -3  -1   9  211.21   13.78   3
  -2  -1   9 1094.28   40.97   3
  -1  -1   9  556.50   23.29   3
   0  -1   9  710.72   30.17   3
   0   1  -9  788.54   32.11   1
  -1   1  -9  269.40   15.79   1
   1  -1   9  267.23   17.10   3
  -2   1  -9   72.93    8.87   1
   2  -1   9   73.06   10.46   3
   2  -1   9   90.92    6.89   2
  -3   1  -9   29.41    7.43   1
   3  -1   9   44.89    5.21   2
   3  -1   9   35.15    7.36   3
  -4   1  -9   41.04    7.63   1
   4  -1   9   27.57    4.62   2
   4  -1   9   18.24    5.94   3
  -5   1  -9  135.79   13.33   1
   5  -1   9  150.03   12.36   3
   5  -1   9  136.20    9.68   2
  -6   1  -9  616.60   25.83   2
   6  -1   9  598.80   28.21   3
  -6   1  -9  587.68   32.08   1
  -2   0   9   56.71    5.91   2
  -1   0   9  448.81   19.21   3
  -1   0   9  426.52   17.75   2
   0   0  -9   28.94    4.99   1
   0   0   9   22.05    5.16   3
   0   0   9   21.72    3.73   2
  -1   0  -9 1976.42   73.04   1
   1   0   9 2085.64   70.26   3
   1   0   9 1884.74   64.38   2
   2   0   9  128.21    8.87   2
  -2   0  -9  149.72   10.95   1
   2   0   9  135.82   11.99   3
   3   0   9 2314.97   75.15   2
   3   0   9 2295.74   80.37   3
  -3   0  -9 2294.11   85.58   1
   4   0   9  364.63   16.61   2
  -4   0  -9  343.92   19.92   1
   4   0   9  369.25   18.56   3
   5   0   9  486.77   22.33   3
   5   0   9  470.78   20.54   2
  -5   0  -9  455.48   24.98   1
  -6   0  -9   22.08    7.57   1
   6   0   9    8.99    3.85   2
   6   0   9   12.78    4.81   3
  -3   1   9  459.68   22.07   2
  -2   1   9  787.85   30.36   2
  -1   1   9  506.58   20.74   2
   0  -1  -9  283.65   14.45   1
   0   1   9  266.47   13.27   2
  -1  -1  -9    6.62    4.25   1
   1   1   9   10.23    3.69   2
   2   1   9   24.02    4.94   2
  -2  -1  -9   30.38    6.01   1
   3   1   9  340.68   16.38   2
  -3  -1  -9  349.66   19.03   1
   4   1   9  419.01   18.73   2
  -4  -1  -9  421.52   22.09   1
   4   1   9  424.39   19.06   3
   5   1   9  101.75    8.19   2
  -5  -1  -9  117.84   11.25   1
   5   1   9  110.06    8.77   3
   6   1   9 1179.63   44.45   3
   6   1   9 1183.17   42.23   2
  -6  -1  -9 1137.62   50.14   1
  -3   2   9   86.72    9.65   2
  -2   2   9  117.07    9.53   2
  -1   2   9  776.90   29.77   2
   0   2   9    6.24    3.53   2
   0  -2  -9   23.17    5.60   1
   1   2   9 2481.52   79.03   2
  -1  -2  -9 2329.24   88.89   1
  -2  -2  -9  571.53   28.03   1
   2   2   9  604.70   25.08   2
  -3  -2  -9 1249.51   52.06   1
   3   2   9 1293.85   45.76   2
   4   2   9  188.92   11.38   2
  -4  -2  -9  160.99   13.53   1
   5   2   9   20.65    4.33   2
  -5  -2  -9   27.16    6.83   1
  -6  -2  -9  113.69   12.38   1
   6   2   9   91.86    7.95   2
  -3   3   9  415.06   22.15   2
  -2   3   9  532.30   24.22   2
  -1   3   9   97.50    8.50   2
   0   3   9   89.99    8.14   2
   1   3   9  166.86   11.64   2
  -1  -3  -9  183.81   12.68   1
  -2  -3  -9  122.95   11.14   1
   2   3   9  149.22   11.52   2
  -3  -3  -9  399.77   21.57   1
   3   3   9  369.40   19.00   2
   4   3   9 1136.38   40.58   2
  -4  -3  -9 1045.50   46.67   1
  -5  -3  -9    7.46    6.46   1
   5   3   9    4.24    3.63   2
  -6  -3  -9  890.19   41.80   1
   6   3   9  853.18   32.89   2
  -2   4   9   42.46    7.05   2
  -1   4   9  956.03   37.21   2
   0   4   9  181.48   12.41   2
  -1  -4  -9 1469.14   58.21   1
   1   4   9 1531.86   54.16   2
  -2  -4  -9  313.59   18.04   1
   2   4   9  315.05   18.26   2
  -3  -4  -9  250.06   15.89   1
   3   4   9  242.11   15.07   2
  -4  -4  -9   14.98    5.74   1
   4   4   9   15.01    4.81   2
  -5  -4  -9   13.88    6.84   1
   5   4   9    9.43    3.97   2
   6   4   9  185.99   11.64   2
  -6  -4  -9  210.53   18.23   1
  -1   5   9   16.27    5.68   2
   0   5   9   63.08    8.49   2
   1   5   9  385.05   20.72   2
   2   5   9  493.89   24.47   2
  -2  -5  -9  456.76   23.66   1
  -3  -5  -9   74.04    8.82   1
   3   5   9   57.04    8.11   2
  -4  -5  -9  723.46   35.04   1
   4   5   9  806.05   31.36   2
  -5  -5  -9   30.75    7.42   1
   5   5   9   26.01    5.47   2
   0   6   9  264.44   17.00   2
   1   6   9  474.74   24.34   2
   2   6   9   78.99    9.94   2
  -3  -6  -9   11.07    5.11   1
   3   6   9   10.94    5.18   2
  -4  -6  -9  105.25   10.88   1
   4   6   9  115.63    9.83   2
   0  -4  10  142.84   12.13   3
  -1   4 -10   43.37    8.83   1
   1  -4  10   41.07    8.70   3
   2  -4  10   25.23    8.45   3
  -2   4 -10   26.06    8.33   1
  -1  -3  10   27.99    5.85   3
   0  -3  10  557.11   26.22   3
  -1   3 -10   86.47   10.22   1
   1  -3  10   78.63   10.30   3
   2  -3  10 1333.07   56.33   3
  -2   3 -10 1395.53   57.26   1
  -3   3 -10  185.01   15.63   1
   3  -3  10  185.52   17.83   3
   4  -3  10  440.02   27.21   3
  -4   3 -10  431.78   26.11   1
  -2  -2  10  347.66   17.61   3
  -1  -2  10  182.54   11.84   3
   0  -2  10    5.43    4.90   3
   1  -2  10   33.73    7.83   3
  -1   2 -10   42.14    6.99   1
  -2   2 -10  185.86   14.14   1
   2  -2  10  180.77   15.91   3
  -3   2 -10  173.90   14.42   1
   3  -2  10  153.92   15.39   3
   4  -2  10   66.17   10.94   3
  -4   2 -10   61.61    9.79   1
   5  -2  10 1071.70   45.30   3
  -5   2 -10  929.59   45.43   1
  -2  -1  10  290.33   15.31   3
  -1  -1  10    3.53    3.55   3
   0  -1  10 1569.12   56.71   3
   1  -1  10  305.44   18.23   3
  -1   1 -10  313.38   17.21   1
  -2   1 -10 1346.34   53.89   1
   2  -1  10 1373.89   53.94   3
   3  -1  10  213.23   16.87   3
  -3   1 -10  258.81   16.54   1
   4  -1  10  122.81   12.65   3
  -4   1 -10  132.31   12.57   1
  -5   1 -10   38.51    8.48   1
   5  -1  10   39.98    8.24   3
   5  -1  10   37.10    6.08   2
  -1   0  10   75.83    6.20   2
   0   0  10   99.37    6.95   2
   1   0  10   38.75    4.97   2
  -1   0 -10   36.38    5.95   1
  -2   0 -10  401.27   19.63   1
   2   0  10  428.06   21.16   3
   2   0  10  322.64   16.36   2
   3   0  10  771.43   33.20   3
  -3   0 -10  799.00   33.75   1
   3   0  10  721.73   29.43   2
   4   0  10   11.57    4.02   2
   4   0  10   18.42    5.67   3
  -4   0 -10   14.23    5.45   1
   5   0  10 1449.84   51.63   2
   5   0  10 1487.87   55.33   3
  -5   0 -10 1400.10   58.61   1
   6   0  10   71.89    7.95   2
   6   0  10   64.79    8.60   3
  -6   0 -10   76.46   10.56   1
  -3   1  10   37.26    6.24   2
  -2   1  10  628.91   25.36   2
  -1   1  10   75.06    6.81   2
   0   1  10 1515.29   50.89   2
  -1  -1 -10  527.15   23.77   1
   1   1  10  516.59   21.40   2
  -2  -1 -10  643.52   28.73   1
   2   1  10  654.73   26.30   2
   3   1  10   47.93    6.35   2
  -3  -1 -10   50.17    7.29   1
   4   1  10   17.37    4.68   2
  -4  -1 -10   19.67    5.60   1
   5   1  10  301.56   15.88   2
  -5  -1 -10  263.04   17.75   1
   6   1  10   42.31    6.54   2
  -6  -1 -10   32.71    7.60   1
  -2   2  10    3.94    3.64   2
  -1   2  10   51.40    6.15   2
   0   2  10  371.55   17.11   2
  -1  -2 -10  435.32   22.18   1
   1   2  10  446.46   19.51   2
  -2  -2 -10  236.78   15.43   1
   2   2  10  197.43   12.69   2
   3   2  10 1407.31   51.36   2
  -3  -2 -10 1466.63   57.92   1
  -4  -2 -10   13.44    6.00   1
   4   2  10   14.69    4.76   2
  -5  -2 -10  713.08   34.17   1
   5   2  10  744.12   29.95   2
  -6  -2 -10   63.12    9.43   1
   6   2  10   73.73    7.89   2
  -2   3  10  837.10   33.41   2
  -1   3  10  346.67   17.21   2
   0   3  10  719.71   28.75   2
   1   3  10  256.16   14.51   2
  -1  -3 -10  280.15   17.34   1
   2   3  10   62.00    7.98   2
  -2  -3 -10   68.76    9.44   1
  -3  -3 -10  156.76   13.75   1
   3   3  10  157.93   12.01   2
  -4  -3 -10   21.30    7.34   1
   4   3  10   33.21    6.24   2
  -5  -3 -10  437.02   25.54   1
   5   3  10  446.38   21.06   2
  -6  -3 -10  119.82   13.29   1
   6   3  10  138.59   10.59   2
  -1   4  10  115.32    9.73   2
   0   4  10  425.63   20.56   2
   1   4  10 1110.59   40.64   2
  -1  -4 -10  993.28   43.66   1
   2   4  10   16.43    6.27   2
  -2  -4 -10   23.85    6.29   1
   3   4  10  918.16   37.53   2
  -3  -4 -10  904.05   40.57   1
  -4  -4 -10  164.15   14.29   1
   4   4  10  138.06   11.61   2
  -5  -4 -10  211.99   17.73   1
   5   4  10  258.94   15.00   2
   6   4  10   25.54    5.57   2
  -6  -4 -10   16.73    7.86   1
   0   5  10  199.27   13.61   2
   1   5  10   -4.74    3.71   2
  -1  -5 -10    1.39    4.74   1
   2   5  10   33.46    7.67   2
  -2  -5 -10   22.87    6.60   1
  -3  -5 -10  389.35   22.14   1
   3   5  10  392.25   21.74   2
   4   5  10   66.71    8.79   2
  -4  -5 -10   61.09    9.12   1
   5   5  10  328.13   17.79   2
  -5  -5 -10  305.31   20.94   1
   1   6  10  560.20   26.59   2
  -1  -6 -10  533.16   26.93   1
   2   6  10   31.11    7.51   2
  -2  -6 -10   28.99    6.66   1
   3   6  10  273.65   17.54   2
   0  -3  11   22.54    6.06   3
   1  -3  11  248.39   16.99   3
  -1   3 -11  275.74   17.37   1
  -2   3 -11  338.91   20.83   1
   2  -3  11  339.61   21.91   3
   3  -3  11   36.72    9.81   3
  -1  -2  11  606.40   26.34   3
   0  -2  11  282.32   16.61   3
  -1   2 -11  443.99   22.86   1
   1  -2  11  432.44   22.92   3
   2  -2  11   83.01   10.88   3
  -2   2 -11   81.13    9.57   1
  -3   2 -11   23.32    6.92   1
   3  -2  11   40.12   10.00   3
  -4   2 -11  193.85   15.39   1
   4  -2  11  159.23   16.24   3
  -1   1 -11  235.42   14.23   1
   1  -1  11  216.25   15.07   3
   2  -1  11 1006.09   41.72   3
  -2   1 -11  961.43   41.00   1
   3  -1  11   23.48    7.70   3
  -3   1 -11   24.90    6.60   1
  -4   1 -11 1030.44   44.64   1
  -5   1 -11  149.50   13.83   1
   5  -1  11  156.61   15.31   3
  -1   0 -11  164.49   11.24   1
   2   0  11   24.49    4.59   2
  -2   0 -11   28.20    5.98   1
  -3   0 -11   74.80    8.83   1
   3   0  11   82.18    7.74   2
   4   0  11  505.06   23.28   2
  -4   0 -11  556.25   26.73   1
  -5   0 -11  184.72   14.34   1
   5   0  11  167.96   12.15   2
  -2   1  11   60.78    6.52   2
  -1   1  11  334.36   15.47   2
   0   1  11  569.06   22.40   2
  -1  -1 -11   37.12    6.03   1
   1   1  11   43.19    5.32   2
   2   1  11 1180.42   41.63   2
  -2  -1 -11 1130.04   46.37   1
   3   1  11  185.91   12.12   2
  -3  -1 -11  185.93   13.32   1
   4   1  11  377.20   19.25   2
  -4  -1 -11  394.64   21.46   1
  -5  -1 -11   29.40    6.74   1
   5   1  11   25.41    6.05   2
   6   1  11   19.59    5.70   2
  -2   2  11  265.20   14.52   2
  -1   2  11  228.60   12.66   2
   0   2  11   97.46    7.67   2
  -1  -2 -11   78.48    8.55   1
   1   2  11   74.34    6.95   2
   2   2  11  441.47   20.33   2
  -2  -2 -11  446.06   22.77   1
  -3  -2 -11  110.58   11.28   1
   3   2  11  111.35    9.76   2
  -4  -2 -11  481.87   24.91   1
   4   2  11  457.47   22.74   2
   5   2  11  364.90   19.15   2
  -5  -2 -11  334.83   20.27   1
  -6  -2 -11   15.74    6.48   1
  -1   3  11  191.68   12.00   2
   0   3  11  762.55   29.97   2
  -1  -3 -11   24.73    6.98   1
   1   3  11   13.02    4.36   2
   2   3  11  732.82   29.92   2
  -2  -3 -11  705.12   34.26   1
  -3  -3 -11  142.98   13.89   1
   3   3  11  150.95   11.90   2
  -4  -3 -11  127.15   13.07   1
   4   3  11  125.27   11.23   2
   5   3  11    3.83    4.40   2
  -5  -3 -11   15.01    6.47   1
   0   4  11   83.33    8.17   2
   1   4  11   75.59    8.12   2
   2   4  11  594.04   26.63   2
  -2  -4 -11  551.11   29.23   1
   3   4  11  194.03   14.44   2
  -3  -4 -11  208.01   16.43   1
   4   4  11  179.84   14.19   2
  -4  -4 -11  208.63   16.97   1
  -5  -4 -11  397.78   25.05   1
   5   4  11  378.05   20.87   2
   1   5  11  119.68   10.59   2
   2   5  11  200.96   14.57   2
  -2  -5 -11  190.89   14.87   1
  -3  -5 -11   27.72    7.85   1
   3   5  11   26.70    7.25   2
  -4  -5 -11   20.12    7.20   1
   4   5  11    9.26    5.80   2
   1  -2  12  520.39   25.37   3
  -2   2 -12  165.40   13.06   1
   2  -2  12  178.03   14.58   3
  -2   1 -12   84.51    9.42   1
  -3   1 -12  614.11   29.49   1
  -4   1 -12  360.50   21.12   1
  -2   0 -12  234.66   14.80   1
  -3   0 -12  150.66   12.10   1
  -4   0 -12    3.90    4.86   1
   0   1  12   63.11    5.74   2
   1   1  12  511.75   21.06   2
   2   1  12  303.08   14.88   2
  -2  -1 -12  278.23   16.72   1
  -3  -1 -12  337.19   19.20   1
   3   1  12  333.80   17.02   2
   4   1  12  470.72   22.79   2
  -4  -1 -12  509.16   25.29   1
  -5  -1 -12    5.80    5.07   1
   5   1  12   -1.94    3.86   2
   0   2  12   81.13    7.13   2
   1   2  12  249.84   13.43   2
   2   2  12   43.66    6.16   2
  -2  -2 -12   55.05    8.05   1
   3   2  12   36.91    6.24   2
  -3  -2 -12   34.56    7.38   1
  -4  -2 -12   86.50   10.01   1
   4   2  12   92.18    9.65   2
  -5  -2 -12   12.76    5.79   1
   5   2  12   21.32    5.99   2
   0   3  12  173.67   11.05   2
   1   3  12  447.49   20.33   2
  -2  -3 -12  455.15   24.98   1
   2   3  12  470.02   21.63   2
   3   3  12   63.42    8.17   2
  -3  -3 -12   78.47   10.51   1
   4   3  12  392.61   21.58   2
  -4  -3 -12  408.51   23.46   1
   1   4  12   58.99    7.30   2
   2   4  12    9.85    4.80   2
  -2  -4 -12    3.48    6.55   1
  -3  -4 -12   12.37    7.42   1
   3   4  12   12.67    5.50   2
  -2   0 -13  123.48   10.24   1
   2   1  13   14.97    4.06   2
  -2  -1 -13    9.39    4.80   1
  -3  -1 -13  241.34   15.60   1
   3   1  13  235.26   13.67   2
   2   2  13    5.97    3.66   2
  -2  -2 -13    7.47    5.05   1
  -3  -2 -13  270.03   17.14   1
   3   2  13  264.22   14.94   2
   0   0   0    0.00    0.00   0
;
_shelx_hkl_checksum              26788
_shelx_res_file
;
    sad.res created by SHELXL-2014/7
TITL sad in P-1
CELL 0.71073   5.4000   5.6093   9.1323  80.688  72.990  80.080
ZERR    1.00   0.0016   0.0017   0.0028   0.006   0.005   0.005
LATT  1
SFAC O V TE HG
UNIT 11 2 2 2
L.S. 4
BOND
FMAP 2
PLAN 20
acta
conn 6 3.0 V
conn 8 3.0 HG
size 0.12 0.22 0.24
WGHT    0.030500    1.940700
EXTI    0.014500
FVAR       0.48446
HG    4    0.241088    0.243232    0.976704    11.00000    0.01871    0.01744 =
         0.02144   -0.00370   -0.00440    0.00835
TE    3    0.343380   -0.195139    0.731757    11.00000    0.01300    0.01220 =
         0.01056   -0.00199   -0.00373    0.00144
V     2   -0.141733    0.284093    0.651828    11.00000    0.01205    0.01464 =
         0.01234    0.00264   -0.00184    0.00299
O1    1   -0.273976    0.107961    0.581078    11.00000    0.02838    0.04339 =
         0.02942   -0.00988   -0.01143   -0.00343
O2    1    0.000000    0.500000    0.500000    10.50000    0.03922    0.03115 =
         0.02914    0.01598    0.00663    0.00255
O3    1    0.088766    0.103233    0.745168    11.00000    0.02030    0.01772 =
         0.02396   -0.00392   -0.01091    0.00900
O4    1   -0.383679    0.432750    0.781235    11.00000    0.01654    0.02411 =
         0.02083   -0.00207   -0.00182    0.00414
O5    1    0.424893   -0.112963    0.900219    11.00000    0.02446    0.01780 =
         0.01948   -0.00854   -0.01505    0.00645
O6    1   -0.084660    0.390943    1.158145    11.00000    0.01329    0.01814 =
         0.02487   -0.00505    0.00069    0.00004
HKLF 4
REM  sad in P-1
REM R1 =  0.0269 for    1515 Fo > 4sig(Fo)  and  0.0280 for all    1585 data
REM     80 parameters refined using      0 restraints
END
WGHT      0.0305      1.9406
REM Highest difference peak  2.932,  deepest hole -2.171,  1-sigma level  0.325
Q1    1   0.2958  0.3312  1.0033  11.00000  0.05    2.93
Q2    1   0.1430  0.1613  1.0152  11.00000  0.05    2.22
Q3    1   0.2420 -0.2795  0.7373  11.00000  0.05    1.59
Q4    1   0.4644 -0.1205  0.7086  11.00000  0.05    1.32
Q5    1   0.2868  0.1393  1.0392  11.00000  0.05    1.25
Q6    1   0.1889  0.3308  0.9254  11.00000  0.05    1.04
Q7    1   0.2615  0.0548  1.1366  11.00000  0.05    1.04
Q8    1   0.2833 -0.0375  0.6797  11.00000  0.05    1.00
Q9    1   0.3408 -0.0237  0.7577  11.00000  0.05    0.98
Q10   1   0.1799  0.4104  0.9195  11.00000  0.05    0.90
Q11   1   0.4667  0.3984  0.9741  11.00000  0.05    0.90
Q12   1   0.2230  0.0752  0.9482  11.00000  0.05    0.88
Q13   1  -0.2212  0.3274  1.1830  11.00000  0.05    0.88
Q14   1  -0.2249  0.1932  0.5900  11.00000  0.05    0.83
Q15   1  -0.4638  0.5674  0.6485  11.00000  0.05    0.82
Q16   1   0.2882  0.4880  1.0051  11.00000  0.05    0.81
Q17   1   0.1532  0.1886  0.9094  11.00000  0.05    0.79
Q18   1  -0.3643  0.1935  0.7955  11.00000  0.05    0.78
Q19   1  -0.0074  0.1555  0.7035  11.00000  0.05    0.78
Q20   1   0.4021 -0.3532  0.8002  11.00000  0.05    0.78
;
_shelx_res_checksum              76453
loop_
_space_group_symop_operation_xyz
'x, y, z'
'-x, -y, -z'
loop_
_atom_site_type_symbol
_atom_site_label
_atom_site_fract_x
_atom_site_fract_y
_atom_site_fract_z
_atom_site_U_iso_or_equiv
_atom_site_adp_type
_atom_site_calc_flag
_atom_site_occupancy
Hg Hg1 0.24109(4) 0.24323(4) 0.97670(3) 0.02060(11) Uani d 1
Te Te1 0.34338(7) -0.19514(7) 0.73176(4) 0.01211(11) Uani d 1
V V1 -0.14173(19) 0.28409(19) 0.65183(12) 0.0144(2) Uani d 1
O O1 -0.2740(11) 0.1080(12) 0.5811(7) 0.0325(12) Uani d 1
O O2 0.0000 0.5000 0.5000 0.040(2) Uani d 1
O O3 0.0888(9) 0.1032(9) 0.7452(6) 0.0209(9) Uani d 1
O O4 -0.3837(9) 0.4327(9) 0.7812(6) 0.0221(9) Uani d 1
O O5 0.4249(9) -0.1130(8) 0.9002(5) 0.0190(9) Uani d 1
O O6 -0.0847(8) 0.3909(9) 1.1581(6) 0.0200(9) Uani d 1
loop_
_atom_site_aniso_label
_atom_site_aniso_U_11
_atom_site_aniso_U_22
_atom_site_aniso_U_33
_atom_site_aniso_U_12
_atom_site_aniso_U_13
_atom_site_aniso_U_23
Hg1 0.01871(14) 0.01744(15) 0.02144(15) 0.00835(9) -0.00440(9) -0.00370(9)
Te1 0.01300(17) 0.01220(19) 0.01056(17) 0.00144(13) -0.00373(13) -0.00199(13)
V1 0.0121(4) 0.0146(5) 0.0123(4) 0.0030(4) -0.0018(3) 0.0026(4)
O1 0.028(2) 0.043(3) 0.029(3) -0.003(2) -0.011(2) -0.010(3)
O2 0.039(4) 0.031(4) 0.029(4) 0.003(4) 0.007(4) 0.016(3)
O3 0.020(2) 0.018(2) 0.024(2) 0.0090(17) -0.0109(18) -0.0039(18)
O4 0.0165(19) 0.024(2) 0.021(2) 0.0041(18) -0.0018(17) -0.0021(19)
O5 0.024(2) 0.018(2) 0.019(2) 0.0064(17) -0.0151(18) -0.0085(17)
O6 0.0133(18) 0.018(2) 0.025(2) 0.0000(16) 0.0007(17) -0.0051(18)
loop_
_atom_type_symbol
_atom_type_description
_atom_type_scat_dispersion_real
_atom_type_scat_dispersion_imag
_atom_type_scat_source
O O 0.0106 0.0060 'International Tables Vol C Tables 4.2.6.8 and 6.1.1.4'
V V 0.3005 0.5294 'International Tables Vol C Tables 4.2.6.8 and 6.1.1.4'
Te Te -0.5308 1.6751 'International Tables Vol C Tables 4.2.6.8 and 6.1.1.4'
Hg Hg -2.3894 9.2266 'International Tables Vol C Tables 4.2.6.8 and 6.1.1.4'
loop_
_geom_angle_atom_site_label_1
_geom_angle_atom_site_label_2
_geom_angle_atom_site_label_3
_geom_angle_site_symmetry_1
_geom_angle_site_symmetry_3
_geom_angle
O6 Hg1 O5 . . 138.66(19)
O6 Hg1 O5 . 2_657 103.38(17)
O5 Hg1 O5 . 2_657 74.30(17)
O6 Hg1 O6 . 2_567 78.7(2)
O5 Hg1 O6 . 2_567 131.49(17)
O5 Hg1 O6 2_657 2_567 136.92(17)
O6 Hg1 O4 . 1_655 132.33(18)
O5 Hg1 O4 . 1_655 88.53(18)
O5 Hg1 O4 2_657 1_655 79.60(17)
O6 Hg1 O4 2_567 1_655 69.22(15)
O6 Hg1 O3 . . 113.52(16)
O5 Hg1 O3 . . 63.37(14)
O5 Hg1 O3 2_657 . 136.85(14)
O6 Hg1 O3 2_567 . 74.12(16)
O4 Hg1 O3 1_655 . 90.92(16)
O6 Hg1 O3 . 2_557 58.05(15)
O5 Hg1 O3 . 2_557 80.87(16)
O5 Hg1 O3 2_657 2_557 84.05(15)
O6 Hg1 O3 2_567 2_557 128.12(13)
O4 Hg1 O3 1_655 2_557 162.44(13)
O3 Hg1 O3 . 2_557 96.70(13)
O6 Hg1 O4 . 2_567 62.79(15)
O5 Hg1 O4 . 2_567 129.99(13)
O5 Hg1 O4 2_657 2_567 55.69(13)
O6 Hg1 O4 2_567 2_567 90.62(15)
O4 Hg1 O4 1_655 2_567 82.77(15)
O3 Hg1 O4 . 2_567 164.72(13)
O3 Hg1 O4 2_557 2_567 93.32(12)
O5 Te1 O6 . 2_557 97.7(2)
O5 Te1 O3 . . 86.95(19)
O6 Te1 O3 2_557 . 92.2(2)
O5 Te1 O4 . 1_645 82.59(19)
O6 Te1 O4 2_557 1_645 80.53(18)
O3 Te1 O4 . 1_645 166.31(19)
O5 Te1 Hg1 . . 34.69(14)
O1 V1 O4 . . 107.3(3)
O1 V1 O2 . . 108.0(2)
O4 V1 O2 . . 108.63(19)
O1 V1 O3 . . 109.5(3)
O4 V1 O3 . . 110.0(2)
O2 V1 O3 . . 113.25(18)
O1 V1 O6 . 2_567 172.3(2)
O4 V1 O6 . 2_567 67.99(19)
O2 V1 O6 . 2_567 79.56(10)
O3 V1 O6 . 2_567 67.79(18)
O1 V1 O1 . 2_556 63.7(3)
O4 V1 O1 . 2_556 168.6(2)
O2 V1 O1 . 2_556 81.61(12)
O3 V1 O1 . 2_556 68.90(18)
O6 V1 O1 2_567 2_556 120.07(12)
V1 O2 V1 2_566 . 180.0
V1 O3 Te1 . . 142.3(3)
V1 O3 Hg1 . . 124.5(2)
Te1 O3 Hg1 . . 92.76(16)
V1 O3 Hg1 . 2_557 106.2(2)
Te1 O3 Hg1 . 2_557 81.09(16)
Hg1 O3 Hg1 . 2_557 83.30(13)
V1 O4 Te1 . 1_465 127.3(3)
V1 O4 Hg1 . 1_455 125.4(3)
Te1 O4 Hg1 1_465 1_455 93.00(15)
V1 O4 Hg1 . 2_567 120.3(2)
Te1 O4 Hg1 1_465 2_567 82.72(14)
Hg1 O4 Hg1 1_455 2_567 97.23(15)
V1 O4 Hg1 . 2_557 76.76(17)
Te1 O4 Hg1 1_465 2_557 152.87(17)
Hg1 O4 Hg1 1_455 2_557 60.22(10)
Hg1 O4 Hg1 2_567 2_557 95.65(11)
Te1 O5 Hg1 . . 116.5(2)
Te1 O5 Hg1 . 2_657 135.7(2)
Hg1 O5 Hg1 . 2_657 105.70(17)
Te1 O5 V1 . 1_655 90.59(18)
Hg1 O5 V1 . 1_655 78.01(14)
Hg1 O5 V1 2_657 1_655 85.28(14)
Te1 O5 Hg1 . 2_557 71.75(14)
Hg1 O5 Hg1 . 2_557 82.74(13)
Hg1 O5 Hg1 2_657 2_557 128.90(18)
V1 O5 Hg1 1_655 2_557 144.51(13)
Te1 O5 Hg1 . 1_545 68.66(14)
Hg1 O5 Hg1 . 1_545 136.30(19)
Hg1 O5 Hg1 2_657 1_545 90.39(14)
V1 O5 Hg1 1_655 1_545 144.81(14)
Hg1 O5 Hg1 2_557 1_545 56.66(7)
Te1 O5 V1 . 2_557 131.7(2)
Hg1 O5 V1 . 2_557 77.96(13)
Hg1 O5 V1 2_657 2_557 68.26(11)
V1 O5 V1 1_655 2_557 137.41(12)
Hg1 O5 V1 2_557 2_557 64.52(8)
Hg1 O5 V1 1_545 2_557 70.75(9)
Te1 O6 Hg1 2_557 . 119.1(2)
Te1 O6 Hg1 2_557 2_567 114.4(2)
Hg1 O6 Hg1 . 2_567 101.3(2)
Te1 O6 V1 2_557 2_567 119.0(2)
Hg1 O6 V1 . 2_567 108.47(16)
Hg1 O6 V1 2_567 2_567 89.41(14)
Te1 O6 V1 2_557 2_557 61.66(13)
Hg1 O6 V1 . 2_557 75.75(13)
Hg1 O6 V1 2_567 2_557 171.44(19)
V1 O6 V1 2_567 2_557 99.15(12)
loop_
_geom_bond_atom_site_label_1
_geom_bond_atom_site_label_2
_geom_bond_site_symmetry_2
_geom_bond_distance
_geom_bond_publ_flag
Hg1 O6 . 2.182(5) y
Hg1 O5 . 2.197(4) y
Hg1 O5 2_657 2.349(4) y
Hg1 O6 2_567 2.374(5) y
Hg1 O4 1_655 2.537(5) y
Hg1 O3 . 2.746(5) y
Hg1 O3 2_557 3.217(5) ?
Hg1 O4 2_567 3.400(5) ?
Te1 O5 . 1.862(4) y
Te1 O6 2_557 1.876(5) y
Te1 O3 . 1.970(4) y
Te1 O4 1_645 2.400(5) y
V1 O1 . 1.620(6) y
V1 O4 . 1.685(5) y
V1 O2 . 1.7692(11) y
V1 O3 . 1.792(4) y
V1 O6 2_567 3.296(5) ?
V1 O1 2_556 3.379(6) ?

_cod_database_fobs_code 2020050
