#------------------------------------------------------------------------------
#$Date: 2017-03-05 07:54:01 +0200 (Sun, 05 Mar 2017) $
#$Revision: 193921 $
#$URL: file:///home/coder/svn-repositories/cod/cif/2/02/07/2020725.cif $
#------------------------------------------------------------------------------
#
# This file is available in the Crystallography Open Database (COD),
# http://www.crystallography.net/. The original data for this entry
# were provided by IUCr Journals, http://journals.iucr.org/.
#
# The file may be used within the scientific community so long as
# proper attribution is given to the journal article from which the
# data were obtained.
#
data_2020725
loop_
_publ_author_name
'Girisha, Marisiddaiah'
'Sagar, Belakavadi K.'
'Yathirajan, Hemmige S.'
'Rathore, Ravindranath S.'
'Glidewell, Christopher'
_publ_section_title
;
 Three closely related 1-(naphthalen-2-yl)prop-2-en-1-ones:
 pseudosymmetry, disorder and supramoleular assembly mediated by
 C---H&#x00B7;&#x00B7;&#x00B7;\p and C---Br&#x00B7;&#x00B7;&#x00B7;\p
 interactions
;
_journal_coeditor_code           SK3650
_journal_issue                   2
_journal_name_full               'Acta Crystallographica Section C'
_journal_page_first              115
_journal_page_last               120
_journal_paper_doi               10.1107/S205322961700105X
_journal_volume                  73
_journal_year                    2017
_chemical_formula_iupac          'C17 H12 O S'
_chemical_formula_moiety         'C17 H12 O S'
_chemical_formula_sum            'C17 H12 O S'
_chemical_formula_weight         264.33
_chemical_name_systematic
;
1-(Naphthalen-2-yl)-3-(thiophen-2-yl)prop-2-en-1-one
;
_space_group_crystal_system      triclinic
_space_group_IT_number           2
_space_group_name_Hall           '-P 1'
_space_group_name_H-M_alt        'P -1'
_symmetry_space_group_name_Hall  '-P 1'
_symmetry_space_group_name_H-M   'P -1'
_atom_sites_solution_hydrogens   geom
_audit_creation_method           SHELXL-2014
_cell_angle_alpha                79.745(3)
_cell_angle_beta                 84.427(3)
_cell_angle_gamma                85.763(3)
_cell_formula_units_Z            2
_cell_length_a                   5.8271(3)
_cell_length_b                   7.4489(4)
_cell_length_c                   15.2068(9)
_cell_measurement_reflns_used    4247
_cell_measurement_temperature    296(2)
_cell_measurement_theta_max      32.635
_cell_measurement_theta_min      1.366
_cell_volume                     645.36(6)
_computing_cell_refinement
;
APEX2 (Bruker, 2012)
;
_computing_data_collection
;
APEX2 (Bruker, 2012)
;
_computing_data_reduction
;
SAINT-Plus (Bruker, 2012)
;
_computing_molecular_graphics
;
PLATON (Spek, 2009)
;
_computing_publication_material
;
SHELXL2014 (Sheldrick, 2015) and PLATON (Spek, 2009)
;
_computing_structure_refinement
;
SHELXL2014 (Sheldrick, 2015)
;
_computing_structure_solution
;
SHELXS86 (Sheldrick, 2008)
;
_diffrn_ambient_temperature      296(2)
_diffrn_measured_fraction_theta_full 0.998
_diffrn_measured_fraction_theta_max 0.998
_diffrn_measurement_device_type  'Bruker Kappa APEXII'
_diffrn_measurement_method       '\f and \w scans'
_diffrn_radiation_type           MoK\a
_diffrn_radiation_wavelength     0.71073
_diffrn_reflns_av_R_equivalents  0.0331
_diffrn_reflns_limit_h_max       7
_diffrn_reflns_limit_h_min       -7
_diffrn_reflns_limit_k_max       9
_diffrn_reflns_limit_k_min       -9
_diffrn_reflns_limit_l_max       19
_diffrn_reflns_limit_l_min       -19
_diffrn_reflns_number            18170
_diffrn_reflns_theta_full        25.242
_diffrn_reflns_theta_max         26.550
_diffrn_reflns_theta_min         2.732
_diffrn_standards_decay_%        0
_diffrn_standards_interval_count 0
_diffrn_standards_interval_time  0
_diffrn_standards_number         0
_exptl_absorpt_coefficient_mu    0.238
_exptl_absorpt_correction_T_max  0.965
_exptl_absorpt_correction_T_min  0.933
_exptl_absorpt_correction_type   multi-scan
_exptl_absorpt_process_details
;
(SADABS; Bruker, 2012)
;
_exptl_crystal_colour            colourless
_exptl_crystal_density_diffrn    1.360
_exptl_crystal_description       block
_exptl_crystal_F_000             276
_exptl_crystal_size_max          0.250
_exptl_crystal_size_mid          0.200
_exptl_crystal_size_min          0.150
_refine_diff_density_max         0.232
_refine_diff_density_min         -0.408
_refine_ls_extinction_method     none
_refine_ls_goodness_of_fit_ref   1.124
_refine_ls_hydrogen_treatment    constr
_refine_ls_matrix_type           full
_refine_ls_number_parameters     185
_refine_ls_number_reflns         2694
_refine_ls_number_restraints     15
_refine_ls_restrained_S_all      1.131
_refine_ls_R_factor_all          0.0727
_refine_ls_R_factor_gt           0.0575
_refine_ls_shift/su_max          0.000
_refine_ls_shift/su_mean         0.000
_refine_ls_structure_factor_coef Fsqd
_refine_ls_weighting_details
'w=1/[\s^2^(Fo^2^)+(0.0278P)^2^+0.8674P] where P=(Fo^2^+2Fc^2^)/3'
_refine_ls_weighting_scheme      calc
_refine_ls_wR_factor_gt          0.1322
_refine_ls_wR_factor_ref         0.1404
_reflns_number_gt                2164
_reflns_number_total             2694
_reflns_threshold_expression     'I > 2\s(I)'
_cod_data_source_file            sk3650sup1.cif
_cod_data_source_block           III
_cod_database_code               2020725
_shelx_space_group_comment
;
The symmetry employed for this shelxl refinement is uniquely defined
by the following loop, which should always be used as a source of
symmetry information in preference to the above space-group names.
They are only intended as comments.
;
_shelx_estimated_absorpt_t_min   0.943
_shelx_estimated_absorpt_t_max   0.965
_shelx_hkl_file
;
  -1   0   0  377.86   11.90
  -1   0   0  373.36   10.30
  -1   0   0  380.56    7.50
  -1   0   0  375.96    7.50
  -1   0   0  396.16   10.80
  -1   0   0  378.16    6.90
   1   0   0  385.16    7.00
   1   0   0  375.76    6.90
   1   0   0  375.86    7.50
   1   0   0  349.37    7.40
   1   0   0  370.26    7.30
   1   0   0  382.56   10.80
  -2   0   0  277.77    5.50
  -2   0   0  278.57    6.00
  -2   0   0  298.47    9.00
  -2   0   0  278.07    8.80
  -2   0   0  281.97    8.70
  -2   0   0  275.07    6.00
  -2   0   0  282.47    5.60
   2   0   0  281.77    6.00
   2   0   0  274.77    5.60
   2   0   0  284.57    6.00
   2   0   0  280.87    5.90
   2   0   0  284.87    8.90
   2   0   0  282.17    5.60
  -3   0   0    1.40    0.70
  -3   0   0    2.30    0.60
  -3   0   0    1.30    0.50
  -3   0   0    2.40    0.60
  -3   0   0    1.20    0.60
  -3   0   0    1.20    0.60
  -3   0   0    1.20    0.30
   3   0   0    1.90    0.80
   3   0   0    1.60    0.60
   3   0   0    1.60    0.60
   3   0   0    2.20    0.50
   3   0   0    1.80    0.60
   3   0   0    1.70    0.60
  -4   0   0   25.90    2.70
  -4   0   0   23.50    1.30
  -4   0   0   25.60    2.80
  -4   0   0   21.60    1.50
  -4   0   0   25.90    1.50
  -4   0   0   24.40    1.60
   4   0   0   23.90    1.40
   4   0   0   23.30    1.40
   4   0   0   25.00    1.40
   4   0   0   22.10    1.70
  -5   0   0   32.80    2.00
  -5   0   0   32.90    3.60
  -5   0   0   28.60    1.90
  -5   0   0   33.40    1.80
  -5   0   0   26.80    3.50
  -5   0   0   33.00    2.10
   5   0   0   31.00    1.70
   5   0   0   32.00    1.90
   5   0   0   32.90    2.40
   5   0   0   31.70    1.70
  -6   0   0   11.70    1.60
  -6   0   0    6.40    1.70
  -6   0   0    6.20    2.00
   6   0   0   10.20    1.60
   6   0   0   10.40    2.10
  -7   0   0   -0.70    1.80
  -7   0   0    1.50    1.40
   7   0   0    4.50    2.20
   7   0   0    4.10    1.30
  -8   0   0    8.50    2.00
   8   0   0   11.20    2.80
   8   0   0   10.00    1.70
   8  -1   0    2.70    2.50
  -8   1   0   -3.00    2.20
   7  -1   0    6.70    2.30
   7  -1   0    5.80    1.20
  -7   1   0    2.00    2.00
  -7   1   0    3.20    1.70
  -7   1   0    6.40    1.50
   6  -1   0   17.70    1.60
   6  -1   0   20.50    2.80
  -6   1   0   22.80    4.00
  -6   1   0   18.50    3.70
   5  -1   0   69.19    2.00
   5  -1   0   70.29    2.30
   5  -1   0   75.79    3.60
   5  -1   0   73.79    2.40
  -5   1   0   73.79    5.10
  -5   1   0   74.49    2.80
  -5   1   0   70.19    2.40
  -5   1   0   73.29    3.90
  -5   1   0   77.69    5.20
   4  -1   0    9.90    0.70
   4  -1   0    9.60    1.70
   4  -1   0   10.50    1.00
   4  -1   0   10.30    0.90
   4  -1   0   10.00    1.60
   4  -1   0    8.80    0.70
  -4   1   0    8.90    1.50
  -4   1   0   10.50    2.20
  -4   1   0    9.60    2.00
  -4   1   0    9.60    1.10
  -4   1   0   10.20    0.90
  -4   1   0   10.50    0.90
   3  -1   0  237.88    6.20
   3  -1   0  248.98    5.90
   3  -1   0  250.47    5.10
   3  -1   0  248.88    5.00
   3  -1   0  244.98    5.10
  -3   1   0  238.78    5.40
  -3   1   0  248.78    8.60
  -3   1   0  248.18    4.90
  -3   1   0  245.48    4.90
  -3   1   0  243.68    5.40
  -3   1   0  241.68    8.60
   2  -1   0  108.09    3.20
   2  -1   0  115.09    2.30
   2  -1   0  114.59    2.30
   2  -1   0  118.69    2.30
  -2   1   0  111.29    2.50
  -2   1   0  115.49    2.30
  -2   1   0  113.39    2.30
  -2   1   0  112.49    2.50
  -2   1   0  110.99    4.40
   0  -1   0   19.90    0.90
   0  -1   0   15.70    0.90
   0  -1   0   19.30    1.40
   0  -1   0   20.90    1.00
   0  -1   0   17.30    1.10
   0   1   0   14.70    1.30
   0   1   0   16.30    1.10
   0   1   0   20.00    1.20
   0   1   0   17.40    0.80
   0   1   0   15.30    0.90
   0   1   0   19.90    0.90
   0   1   0   19.60    0.90
  -1  -1   0  282.87    5.90
  -1  -1   0  278.17    8.20
  -1  -1   0  253.97    5.40
  -1  -1   0  253.67    5.80
  -1  -1   0  263.87    7.80
  -1  -1   0  323.77    8.30
   1   1   0  259.27    5.80
   1   1   0  289.87    5.50
   1   1   0  265.77    5.90
  -2  -1   0   11.00    0.90
  -2  -1   0   14.10    1.50
  -2  -1   0   12.70    0.90
  -2  -1   0   10.90    0.80
  -2  -1   0   12.20    1.30
  -2  -1   0   15.10    1.80
  -2  -1   0   12.00    0.90
   2   1   0   12.20    0.90
   2   1   0   10.70    0.90
   2   1   0   13.30    0.90
   2   1   0   11.40    1.20
   2   1   0   11.80    1.30
   2   1   0   10.60    0.90
  -3  -1   0  215.18    4.80
  -3  -1   0  209.08    5.30
  -3  -1   0  208.78    7.60
  -3  -1   0  206.98    5.30
  -3  -1   0  208.28    7.50
   3   1   0  202.08    7.50
   3   1   0  210.68    4.80
   3   1   0  203.98    5.00
   3   1   0  201.38    4.80
   3   1   0  193.28    5.10
  -4  -1   0  199.88    8.00
  -4  -1   0  190.28    7.80
  -4  -1   0  190.88    5.30
  -4  -1   0  194.28    4.80
  -4  -1   0  187.28    5.30
   4   1   0  196.48    4.90
   4   1   0  187.28    5.20
   4   1   0  193.68    4.90
   4   1   0  197.18    5.20
  -5  -1   0    2.10    1.10
  -5  -1   0    5.40    1.30
  -5  -1   0    5.50    1.40
  -5  -1   0    4.20    1.50
  -5  -1   0    5.40    1.20
   5   1   0    3.70    1.40
   5   1   0    2.40    1.20
   5   1   0    3.50    1.20
   5   1   0    4.60    1.30
  -6  -1   0    0.80    1.60
  -6  -1   0    4.50    1.40
  -6  -1   0    1.60    1.10
   6   1   0    1.00    1.20
   6   1   0    3.00    1.60
  -7  -1   0    5.10    2.30
  -7  -1   0    9.70    2.30
   7   1   0   12.00    2.40
   7   1   0   17.00    2.10
  -8  -1   0    5.50    2.00
   8   1   0    8.20    1.80
   8  -2   0    1.10    2.40
   7  -2   0    1.40    2.00
  -7   2   0    0.00    1.60
  -7   2   0    1.50    1.60
   6  -2   0   16.40    2.50
   6  -2   0   17.70    1.20
  -6   2   0   18.00    3.90
  -6   2   0   16.90    3.80
   5  -2   0    2.80    0.60
   5  -2   0    4.60    0.70
   5  -2   0    2.90    1.50
   5  -2   0    3.70    1.60
  -5   2   0    1.60    1.00
  -5   2   0    1.90    0.60
  -5   2   0    2.20    1.20
   4  -2   0    7.50    1.50
   4  -2   0    7.00    0.60
   4  -2   0    8.00    1.60
   4  -2   0    6.70    0.60
  -4   2   0    7.40    0.80
  -4   2   0    6.40    0.70
  -4   2   0    6.60    1.70
  -4   2   0    5.10    1.30
   3  -2   0   12.80    0.50
   3  -2   0   10.20    1.30
   3  -2   0   12.10    0.40
   3  -2   0   11.40    1.40
  -3   2   0   11.60    0.60
  -3   2   0   12.80    0.70
  -3   2   0   13.40    1.80
   2  -2   0   86.39    2.80
   2  -2   0   90.69    2.60
  -2   2   0   74.09    1.70
  -2   2   0   81.49    1.70
  -1   2   0 5180.68  142.49
   0   2   0 9999.00  193.68
  -1  -2   0 1095.39   22.60
  -1  -2   0 1138.89   21.00
  -1  -2   0 1123.29   21.00
  -1  -2   0 1173.08   31.40
  -1  -2   0 1167.68   30.00
  -1  -2   0 1202.38   32.00
  -1  -2   0 1095.49   22.60
   1   2   0 1150.88   31.90
   1   2   0 1192.68   21.00
   1   2   0 1082.59   22.60
   1   2   0 1134.59   31.40
   1   2   0 1195.18   22.60
   1   2   0 1178.98   30.00
   1   2   0 1070.59   20.90
  -2  -2   0    3.20    0.80
  -2  -2   0    2.20    0.80
  -2  -2   0    3.20    0.70
  -2  -2   0    4.20    0.80
  -2  -2   0    2.10    0.70
  -2  -2   0    3.90    0.70
   2   2   0    4.20    0.80
   2   2   0    4.00    0.70
   2   2   0    2.40    0.70
   2   2   0    1.90    0.50
   2   2   0    3.00    0.80
   2   2   0    3.10    1.00
   2   2   0    3.00    0.80
  -3  -2   0   17.10    2.20
  -3  -2   0   13.90    2.00
  -3  -2   0   14.80    1.30
  -3  -2   0   13.60    1.30
  -3  -2   0   16.10    1.40
   3   2   0   13.90    1.40
   3   2   0   16.50    1.50
   3   2   0   13.90    1.20
  -4  -2   0    6.30    1.30
  -4  -2   0    8.50    1.30
   4   2   0    6.00    1.20
   4   2   0    6.40    1.30
   4   2   0    5.30    1.20
   4   2   0    7.20    1.10
  -5  -2   0   36.10    3.80
  -5  -2   0   34.70    4.10
  -5  -2   0   32.50    2.30
  -5  -2   0   38.40    2.60
   5   2   0   34.40    2.20
   5   2   0   31.80    2.30
   5   2   0   33.40    2.30
  -6  -2   0    0.50    1.50
  -6  -2   0    1.20    1.20
  -6  -2   0    1.30    1.40
   6   2   0    4.60    1.50
  -7  -2   0    6.90    2.00
  -7  -2   0    1.50    2.20
   7   2   0   12.80    2.10
   8   2   0   25.10    3.10
   8  -3   0    2.90    2.50
   7  -3   0   -1.20    2.00
  -7   3   0   -0.40    1.50
  -7   3   0    0.80    1.30
   6  -3   0    0.70    1.90
   6  -3   0    1.30    1.90
  -6   3   0    1.60    1.40
  -6   3   0   -0.20    1.00
   5  -3   0   79.89    4.10
   5  -3   0   73.09    3.80
  -5   3   0   69.89    2.00
  -5   3   0   82.39    5.20
  -5   3   0   82.79    5.50
  -5   3   0   78.19    5.30
   4  -3   0   91.79    4.00
   4  -3   0  101.39    3.90
  -4   3   0  102.69    5.80
  -4   3   0  104.49    5.70
  -4   3   0   98.19    2.20
   3  -3   0    1.10    1.00
   3  -3   0    0.60    0.90
   2  -3   0  408.26    7.20
   2  -3   0  351.56    7.20
   2  -3   0  422.06    8.70
   2  -3   0  414.06    9.30
  -2   3   0  417.16    7.90
  -2   3   0  396.96    7.90
   1  -3   0  378.36    8.80
   1  -3   0  415.76    8.10
   1  -3   0  399.16    7.60
  -1   3   0  407.16    7.60
  -1   3   0  396.16    8.30
  -1   3   0  410.56    8.30
  -1   3   0  410.76    7.60
  -1   3   0  398.16   12.40
   0  -3   0   35.30    1.40
   0  -3   0   33.60    2.20
   0  -3   0   34.10    1.40
   0  -3   0   34.70    1.30
   0   3   0   36.00    1.50
   0   3   0   33.50    1.30
   0   3   0   33.80    1.50
   0   3   0   35.00    1.50
   0   3   0   33.00    2.30
   0   3   0   34.00    1.30
   0   3   0   33.00    1.90
  -1  -3   0   43.80    2.30
  -1  -3   0   44.20    2.70
  -1  -3   0   37.10    1.80
  -1  -3   0   43.00    1.70
  -1  -3   0   42.20    1.80
  -1  -3   0   43.30    2.00
  -1  -3   0   42.20    1.70
   1   3   0   43.50    1.90
   1   3   0   37.90    1.70
   1   3   0   43.00    2.20
   1   3   0   42.70    1.70
   1   3   0   44.10    2.70
   1   3   0   41.00    1.90
   1   3   0   43.60    2.80
  -2  -3   0   44.50    2.00
  -2  -3   0   46.90    2.70
  -2  -3   0   42.50    2.20
  -2  -3   0   45.20    3.20
  -2  -3   0   45.70    2.10
   2   3   0   43.00    2.30
   2   3   0   45.30    3.30
   2   3   0   41.80    1.90
   2   3   0   44.40    2.50
   2   3   0   43.00    2.20
  -3  -3   0    1.00    0.90
  -3  -3   0    1.50    0.90
  -3  -3   0    0.30    0.60
  -3  -3   0    0.10    0.90
   3   3   0    0.70    0.90
   3   3   0    1.70    1.30
   3   3   0    1.10    0.90
  -4  -3   0   56.49    3.00
  -4  -3   0   55.29    4.10
  -4  -3   0   50.69    2.60
  -4  -3   0   58.19    4.50
   4   3   0   50.79    2.60
   4   3   0   54.89    2.90
  -5  -3   0   51.29    4.90
  -5  -3   0   49.10    4.40
  -5  -3   0   48.90    2.90
  -5  -3   0   58.69    3.40
   5   3   0   49.90    2.90
   5   3   0   55.09    3.20
  -6  -3   0   28.50    2.40
  -6  -3   0   34.90    3.10
  -6  -3   0   27.00    4.70
  -6  -3   0   29.50    4.20
   6   3   0   35.80    2.90
   6   3   0   30.10    2.60
  -7  -3   0   -0.10    2.00
  -7  -3   0    2.10    1.50
   7   3   0    5.60    1.90
   8  -4   0   -1.30    2.30
   7  -4   0    0.60    2.40
   7  -4   0    0.80    2.20
  -7   4   0    2.70    1.60
  -7   4   0    0.70    1.20
   6  -4   0   14.60    2.80
   6  -4   0   16.70    3.00
  -6   4   0   22.60    3.50
  -6   4   0   18.30    3.70
  -6   4   0   19.90    3.90
   5  -4   0    5.80    2.00
   5  -4   0    4.10    1.90
  -5   4   0   10.40    2.70
  -5   4   0    4.40    1.50
   4  -4   0   10.50    2.00
   4  -4   0    8.00    1.80
  -4   4   0   10.60    2.60
   3  -4   0    0.50    1.10
   3  -4   0    2.30    1.20
  -3   4   0    0.40    0.90
   2  -4   0   26.30    1.90
   2  -4   0   24.50    1.00
   2  -4   0   23.00    0.90
   2  -4   0   23.90    1.70
  -2   4   0   26.40    2.50
  -2   4   0   21.20    1.10
  -2   4   0   23.10    0.70
  -2   4   0   22.30    0.70
  -2   4   0   22.90    1.10
   1  -4   0 1827.02   34.60
   1  -4   0 1851.31   32.40
   1  -4   0 1756.82   35.40
   1  -4   0 1766.92   32.70
  -1   4   0 1813.82   34.90
  -1   4   0 1777.02   50.29
  -1   4   0 1812.22   32.30
  -1   4   0 1794.12   34.90
  -1   4   0 1752.42   49.20
  -1   4   0 1745.23   32.90
   0  -4   0   90.99    2.70
   0  -4   0   92.19    2.70
   0  -4   0   92.79    2.90
   0   4   0   96.09    3.00
   0   4   0   92.29    3.10
   0   4   0   91.99    2.60
   0   4   0   91.49    4.50
   0   4   0   91.79    3.70
   0   4   0   85.99    2.90
  -1  -4   0  148.19    4.50
  -1  -4   0  155.68    4.10
  -1  -4   0  168.08    5.80
  -1  -4   0  155.88    5.10
  -1  -4   0  148.29    4.10
   1   4   0  169.88    4.60
   1   4   0  157.08    4.10
   1   4   0  164.78    6.70
   1   4   0  158.28    4.60
   1   4   0  163.28    5.60
  -2  -4   0   57.19    2.70
  -2  -4   0   57.99    3.00
  -2  -4   0   56.89    3.30
  -2  -4   0   58.29    2.50
   2   4   0   57.19    2.40
   2   4   0   56.19    3.10
   2   4   0   56.99    2.70
   2   4   0   57.59    4.00
  -3  -4   0   37.40    3.10
  -3  -4   0   33.10    2.10
  -3  -4   0   32.60    2.30
  -3  -4   0   33.60    3.40
   3   4   0   34.90    2.40
   3   4   0   38.70    4.00
   3   4   0   32.70    2.10
  -4  -4   0    8.40    1.80
  -4  -4   0    4.20    1.60
  -4  -4   0    7.80    1.60
  -4  -4   0    3.10    1.10
   4   4   0    5.50    1.60
   4   4   0    5.40    1.50
   4   4   0    4.60    1.10
  -5  -4   0    4.90    1.70
  -5  -4   0    4.10    1.60
  -5  -4   0    3.00    1.60
  -5  -4   0    1.60    1.10
   5   4   0    4.50    1.60
   5   4   0    4.10    1.80
  -6  -4   0    2.10    1.60
  -6  -4   0    1.30    1.40
  -6  -4   0    0.00    1.70
  -6  -4   0    3.00    1.50
   6   4   0    3.80    1.70
   6   4   0    3.80    1.80
  -7  -4   0   22.70    4.60
   7   4   0   22.10    3.10
  -8  -4   0   -0.90    2.10
   7  -5   0    3.70    2.60
   7  -5   0    1.40    2.70
   6  -5   0    8.20    2.70
   6  -5   0    4.10    2.40
  -6   5   0    5.40    1.60
   5  -5   0   -0.40    1.70
   5  -5   0    5.70    2.10
  -5   5   0    0.80    1.30
  -5   5   0    2.00    1.10
   4  -5   0   36.90    2.80
   4  -5   0   37.40    3.00
  -4   5   0   39.40    4.00
  -4   5   0   40.80    4.40
   3  -5   0  230.58    6.40
   3  -5   0  233.88    6.90
  -3   5   0  235.28    9.40
  -3   5   0  223.78    4.80
  -3   5   0  208.68    4.80
   2  -5   0  120.59    2.90
   2  -5   0  120.79    4.20
   2  -5   0  126.49    3.00
   2  -5   0  128.09    4.10
  -2   5   0  116.39    3.30
  -2   5   0  125.49    5.50
  -2   5   0  123.19    3.30
  -2   5   0  113.59    2.90
  -2   5   0  120.19    2.70
  -2   5   0  123.19    6.10
   1  -5   0   91.59    2.90
   1  -5   0  108.19    3.00
   1  -5   0  106.09    2.90
   1  -5   0  107.19    3.50
  -1   5   0  109.19    3.30
  -1   5   0  103.79    2.80
  -1   5   0  102.79    4.10
  -1   5   0  105.59    5.40
  -1   5   0  104.19    3.20
   0  -5   0    1.40    0.80
   0  -5   0    0.30    0.60
   0  -5   0    0.60    0.60
   0  -5   0    1.10    0.80
   0   5   0    0.80    0.70
   0   5   0    1.00    0.80
   0   5   0    0.80    0.70
   0   5   0    0.80    1.00
   0   5   0    0.00    0.50
  -1  -5   0    7.00    1.10
  -1  -5   0    7.10    0.70
  -1  -5   0    4.30    0.90
  -1  -5   0    7.40    1.20
   1   5   0    4.10    1.50
   1   5   0    5.20    1.20
   1   5   0    5.60    1.10
  -2  -5   0   12.00    1.70
  -2  -5   0   13.70    1.60
   2   5   0   14.40    1.80
  -3  -5   0    6.20    1.30
  -3  -5   0   11.30    2.00
  -3  -5   0   11.80    1.80
  -3  -5   0    5.90    1.30
   3   5   0   17.00    4.20
   3   5   0    8.70    1.70
   3   5   0   10.90    1.90
  -4  -5   0    6.10    1.70
  -4  -5   0    4.00    1.60
  -4  -5   0    2.70    1.20
  -4  -5   0    6.10    1.80
   4   5   0    8.80    1.70
   4   5   0    7.10    1.70
   4   5   0    5.70    1.90
   4   5   0    2.00    2.10
  -5  -5   0    5.90    1.90
  -5  -5   0    5.40    1.80
  -5  -5   0    1.40    1.70
  -5  -5   0    1.80    1.30
   5   5   0    3.70    1.70
   5   5   0    3.90    1.80
  -6  -5   0   53.69    3.80
  -6  -5   0   44.00    5.30
  -6  -5   0   43.00    5.70
   6   5   0   53.29    3.80
   6   5   0   52.19    3.80
  -7  -5   0   -1.00    1.80
  -7  -5   0    0.20    2.10
  -7  -5   0   -1.60    1.50
   7   5   0    2.30    2.00
   7  -6   0   -2.00    2.90
   7  -6   0   -2.00    2.30
   6  -6   0    6.70    2.80
   5  -6   0    4.40    2.20
   5  -6   0    4.10    2.40
  -5   6   0    2.90    1.60
  -5   6   0    1.80    1.50
   4  -6   0    8.60    2.10
   4  -6   0   11.00    2.40
  -4   6   0    5.70    1.80
  -4   6   0   11.80    2.80
  -4   6   0   18.00    3.60
   3  -6   0    1.50    1.40
   3  -6   0    2.30    1.40
  -3   6   0    1.40    1.00
  -3   6   0    0.90    0.50
  -3   6   0    1.30    1.20
   2  -6   0   59.39    3.10
   2  -6   0   59.79    2.10
   2  -6   0   59.19    3.00
  -2   6   0   62.19    4.70
  -2   6   0   61.19    2.40
  -2   6   0   55.49    3.50
   1  -6   0  129.69    3.60
   1  -6   0  124.19    3.50
   1  -6   0  120.19    3.60
   1  -6   0  124.89    4.20
  -1   6   0  127.29    4.80
  -1   6   0  126.39    6.60
  -1   6   0  120.69    3.90
  -1   6   0  127.49    3.50
  -1   6   0  133.29    4.10
   0  -6   0   37.30    1.90
   0  -6   0   40.00    2.30
   0  -6   0   43.00    2.20
   0  -6   0   38.50    2.10
   0   6   0   40.70    4.10
   0   6   0   38.40    2.00
   0   6   0   37.20    2.40
   0   6   0   36.20    2.20
  -1  -6   0   15.20    1.80
  -1  -6   0   14.00    1.80
   1   6   0   14.60    1.60
   1   6   0   15.70    3.70
   1   6   0   15.80    2.00
  -2  -6   0    1.80    1.00
  -2  -6   0    6.20    1.50
  -2  -6   0    2.30    0.70
   2   6   0    2.00    2.10
   2   6   0    4.90    1.40
   2   6   0    5.80    1.60
  -3  -6   0   15.10    2.20
   3   6   0   14.70    2.40
   3   6   0    6.90    2.60
   3   6   0   12.60    2.10
  -4  -6   0   -0.10    1.10
  -4  -6   0    1.00    1.50
   4   6   0    1.30    1.60
   4   6   0   -0.40    2.30
   4   6   0    0.30    1.60
  -5  -6   0    0.90    1.60
  -5  -6   0   -0.70    1.10
   5   6   0    4.60    2.00
   5   6   0    2.00    1.70
  -6  -6   0   -3.00    1.90
  -6  -6   0   -1.30    1.40
  -6  -6   0    0.80    1.70
  -6  -6   0   -0.30    1.80
   6   6   0    5.70    2.30
   6   6   0    3.80    2.20
  -7  -6   0    0.50    1.90
  -7  -6   0    7.10    2.50
   5  -7   0   10.50    2.70
   5  -7   0   12.30    2.90
   4  -7   0   20.40    2.80
   4  -7   0   16.90    2.70
  -4   7   0   21.20    3.70
   3  -7   0  137.79    5.30
   3  -7   0  152.08    5.80
  -3   7   0  161.18    8.20
  -3   7   0  144.09    4.00
  -3   7   0  172.28    9.90
   2  -7   0    4.60    1.00
   2  -7   0    3.80    1.40
   2  -7   0    2.40    1.50
  -2   7   0    2.90    1.60
  -2   7   0    3.50    1.10
   1  -7   0   28.50    2.10
   1  -7   0   31.40    2.00
  -1   7   0   32.40    2.30
  -1   7   0   28.90    4.00
   0  -7   0    3.70    1.20
   0  -7   0    4.10    1.40
   0  -7   0    3.90    1.10
   0   7   0    1.90    1.80
   0   7   0    3.30    1.40
   0   7   0    4.60    1.20
  -1  -7   0   -1.40    1.10
  -1  -7   0   -1.20    1.10
   1   7   0    1.40    1.50
   1   7   0    0.50    1.90
   1   7   0   -0.80    1.00
  -2  -7   0   -1.50    1.30
  -2  -7   0   -0.50    1.30
   2   7   0    0.90    1.60
   2   7   0   -2.10    2.20
   2   7   0   -0.60    1.10
  -3  -7   0   -0.40    1.60
  -3  -7   0    0.30    1.60
  -3  -7   0   -1.10    1.00
   3   7   0    0.30    1.60
   3   7   0   -3.80    2.30
   3   7   0    0.80    1.70
  -4  -7   0    4.30    2.00
  -4  -7   0    2.20    1.90
  -4  -7   0    0.00    1.30
   4   7   0    3.50    2.20
   4   7   0   -2.10    2.70
   4   7   0    0.80    1.60
  -5  -7   0   12.20    2.90
  -5  -7   0   13.80    2.70
   5   7   0   15.40    2.80
   5   7   0   14.40    2.80
  -6  -7   0   12.20    2.80
  -6  -7   0    8.90    3.10
   6   7   0   10.30    2.60
   6   7   0   10.10    2.70
   5  -8   0    2.80    2.70
   5  -8   0    2.80    2.30
   4  -8   0    0.50    2.10
   4  -8   0   -0.40    1.80
   3  -8   0    2.50    1.80
   3  -8   0    1.00    1.70
   2  -8   0   17.00    2.40
   2  -8   0   17.80    1.80
   2  -8   0   14.90    2.60
  -2   8   0   19.60    2.00
  -2   8   0   11.50    2.70
   1  -8   0    0.80    1.30
   1  -8   0    1.90    1.30
   1  -8   0    1.20    1.60
  -1   8   0   -0.30    1.70
  -1   8   0   -0.60    1.20
   0  -8   0    0.60    1.40
   0   8   0    2.00    1.50
   0   8   0    0.10    2.10
  -1  -8   0   13.70    2.20
   1   8   0   15.70    2.60
   1   8   0    8.90    3.00
  -2  -8   0   11.60    2.50
  -2  -8   0   11.80    2.20
   2   8   0   12.70    2.10
   2   8   0   14.00    2.70
   2   8   0    4.80    2.80
  -3  -8   0   -1.60    1.70
  -3  -8   0   -1.60    1.00
  -3  -8   0   -1.50    1.60
   3   8   0   -2.10    1.60
   3   8   0    0.90    1.90
  -4  -8   0    0.90    2.00
  -4  -8   0    0.10    2.10
  -4  -8   0   -2.30    1.30
   4   8   0    0.60    1.90
   4   8   0    1.10    1.90
  -5  -8   0   -0.20    2.10
  -5  -8   0   -0.20    2.00
   5   8   0    1.00    2.20
   5   8   0    0.10    1.90
   4  -9   0   49.50    4.10
   4  -9   0   51.49    4.30
   3  -9   0   12.40    2.80
   3  -9   0   14.30    2.70
  -3   9   0    9.30    2.80
   2  -9   0   -0.80    1.90
   2  -9   0   -1.10    1.50
  -2   9   0    0.20    1.20
  -2   9   0   -1.30    1.90
   1  -9   0    6.30    2.20
   1  -9   0    7.10    1.80
  -1   9   0    6.30    1.80
   0  -9   0   -0.50    1.50
   0   9   0    2.10    1.60
   0   9   0   -3.30    2.40
  -1  -9   0   -1.20    1.80
   1   9   0   -0.80    1.70
  -4  -9   0    4.20    2.30
   4   9   0    2.80    2.50
   4   9   0    1.80    2.00
   3 -10   0    1.10    2.40
   3 -10   0    5.30    2.30
   2 -10   0    0.70    2.30
   1 -10   0    1.10    1.60
   1 -10   0    0.50    2.20
  -1  10   0    1.00    1.60
   2  10   0   77.69    5.50
   0 -11   0    2.60    2.30
   2  10  -1   74.99    5.40
  -1  10  -1    0.40    1.50
   1 -10   1   -1.30    1.50
   1 -10   1    2.40    2.30
   2 -10   1    0.10    2.10
   3 -10   1    5.90    2.60
   4   9  -1    2.90    2.20
  -4  -9   1    3.20    2.60
   3   9  -1    7.40    2.50
  -3  -9   1    4.10    2.60
   1   9  -1    4.10    2.00
  -1  -9   1    4.90    2.10
   0   9  -1   -4.70    2.30
   0   9  -1   -1.20    1.50
   0  -9   1   -2.40    1.50
  -1   9  -1    0.60    1.40
   1  -9   1    0.40    1.40
   1  -9   1    0.40    1.80
  -2   9  -1    0.60    1.20
   2  -9   1    0.40    1.60
   2  -9   1   -0.90    1.80
   3  -9   1    3.20    2.20
   3  -9   1    1.50    2.10
   4  -9   1    5.40    2.40
   5   8  -1    4.80    2.30
   5   8  -1    7.30    2.70
  -5  -8   1    2.50    2.20
  -5  -8   1    2.70    2.30
   4   8  -1   18.70    3.20
   4   8  -1   18.60    2.90
  -4  -8   1   12.60    2.80
  -4  -8   1   15.80    3.00
   3   8  -1   -3.30    2.60
   3   8  -1    4.00    1.90
   3   8  -1    6.30    2.30
  -3  -8   1    4.30    2.10
  -3  -8   1    0.80    1.40
  -3  -8   1    2.80    2.00
   2   8  -1   11.10    2.00
   2   8  -1   20.20    3.10
  -2  -8   1   12.30    2.40
  -2  -8   1   13.20    2.40
   1   8  -1   -0.70    1.40
   1   8  -1   -2.60    2.40
  -1  -8   1   -1.90    1.50
   0   8  -1   -1.30    2.00
   0   8  -1    2.20    1.60
   0   8  -1    2.40    1.30
   0  -8   1    0.10    1.40
  -1   8  -1   20.60    4.30
  -1   8  -1   28.60    2.50
  -1   8  -1   33.60    5.00
   1  -8   1   23.90    2.20
   1  -8   1   25.20    2.20
  -2   8  -1    5.40    2.10
  -2   8  -1    8.10    1.60
   2  -8   1    4.90    2.00
   2  -8   1    7.90    1.40
   2  -8   1    8.80    2.00
  -3   8  -1   24.60    4.20
   3  -8   1   23.30    3.10
   3  -8   1   22.90    2.70
   4  -8   1   -0.70    1.80
   4  -8   1    2.00    2.00
   5  -8   1   10.60    3.10
   5  -8   1   10.00    2.80
   6   7  -1    8.40    2.50
  -6  -7   1   11.10    3.10
  -6  -7   1    1.90    1.90
  -6  -7   1    5.20    2.40
   5   7  -1   12.50    2.80
   5   7  -1   14.20    2.60
  -5  -7   1   15.30    2.90
  -5  -7   1   11.30    3.00
   4   7  -1   -1.00    1.80
   4   7  -1   -3.50    2.40
   4   7  -1   -0.30    1.60
  -4  -7   1   -2.30    1.10
  -4  -7   1   -0.90    1.70
  -4  -7   1    1.80    1.90
   3   7  -1   17.30    2.70
   3   7  -1   16.70    2.40
   3   7  -1   25.10    3.50
  -3  -7   1   17.30    2.70
  -3  -7   1   16.60    2.60
   2   7  -1   -0.60    1.20
   2   7  -1    1.10    0.90
   2   7  -1    0.20    1.40
   2   7  -1   -2.60    2.10
  -2  -7   1   -0.60    1.30
  -2  -7   1    1.00    1.60
   1   7  -1    7.30    1.50
   1   7  -1    6.90    2.60
   1   7  -1    8.50    1.80
  -1  -7   1    9.00    1.80
  -1  -7   1   12.10    2.00
   0   7  -1    5.90    2.10
   0   7  -1    9.20    1.80
   0   7  -1    8.30    1.40
   0  -7   1    7.90    1.60
   0  -7   1    7.20    1.50
  -1   7  -1   -0.60    1.30
  -1   7  -1   -0.30    1.00
   1  -7   1    0.30    1.00
   1  -7   1   -0.30    1.10
  -2   7  -1   18.00    3.90
  -2   7  -1   11.20    1.60
  -2   7  -1    7.80    2.00
   2  -7   1   10.90    1.80
   2  -7   1   12.50    2.10
   2  -7   1   12.90    1.40
  -3   7  -1   12.30    1.30
  -3   7  -1   15.30    3.40
   3  -7   1   11.00    2.30
   3  -7   1   17.80    2.40
  -4   7  -1    1.20    1.40
  -4   7  -1    4.50    1.60
   4  -7   1    3.70    1.90
   4  -7   1    3.00    1.90
   5  -7   1   32.10    3.90
   5  -7   1   23.70    3.30
   6  -7   1    2.10    2.50
   6  -7   1    2.50    2.80
   6   6  -1    4.70    2.30
   6   6  -1    1.20    1.90
  -6  -6   1   -1.20    1.50
  -6  -6   1    1.10    1.90
  -6  -6   1   -0.60    2.00
   5   6  -1   28.90    3.00
   5   6  -1   29.10    3.20
  -5  -6   1   26.90    3.00
  -5  -6   1   21.60    4.40
  -5  -6   1   21.20    3.20
   4   6  -1    3.70    1.90
   4   6  -1   -2.10    2.20
   4   6  -1    3.60    1.70
  -4  -6   1    1.20    1.50
  -4  -6   1    1.60    1.70
  -4  -6   1    0.10    1.20
   3   6  -1   70.29    3.50
   3   6  -1   73.69    4.80
   3   6  -1   62.39    5.90
   3   6  -1   72.49    4.00
  -3  -6   1   67.29    3.50
  -3  -6   1   68.49    5.00
  -3  -6   1   67.29    3.90
   2   6  -1    3.00    1.40
   2   6  -1    3.00    1.40
   2   6  -1    0.70    1.80
  -2  -6   1    2.50    1.30
  -2  -6   1    0.90    1.00
  -2  -6   1    2.60    1.40
   1   6  -1    1.30    1.70
   1   6  -1    0.30    1.00
   1   6  -1   -1.60    0.90
  -1  -6   1    0.30    1.10
  -1  -6   1    0.90    1.10
   0   6  -1    8.70    1.40
   0   6  -1    7.60    1.30
   0   6  -1    8.70    1.50
   0   6  -1    5.90    1.70
   0  -6   1    6.40    1.10
   0  -6   1    7.40    1.20
   0  -6   1    8.10    1.40
   0  -6   1    8.50    1.50
  -1   6  -1   55.09    4.30
  -1   6  -1   52.39    2.50
  -1   6  -1   51.99    2.40
  -1   6  -1   58.79    2.70
  -1   6  -1   55.19    2.10
   1  -6   1   54.59    2.60
   1  -6   1   52.89    2.20
   1  -6   1   51.49    2.20
   1  -6   1   55.39    2.40
  -2   6  -1  156.18    7.40
  -2   6  -1  144.29    6.10
  -2   6  -1  159.38    4.40
   2  -6   1  156.78    5.10
   2  -6   1  152.38    3.90
   2  -6   1  150.48    5.10
  -3   6  -1   12.30    2.80
  -3   6  -1   21.20    3.80
  -3   6  -1   12.70    2.50
  -3   6  -1   13.30    1.10
   3  -6   1   13.00    2.20
   3  -6   1   11.10    2.00
  -4   6  -1    2.40    1.20
  -4   6  -1    1.00    1.20
  -4   6  -1    1.40    1.20
   4  -6   1    0.60    1.60
   4  -6   1    0.60    1.60
  -5   6  -1    1.70    1.30
  -5   6  -1    2.00    1.20
  -5   6  -1    2.00    1.30
   5  -6   1   -0.60    1.80
   5  -6   1    2.50    2.00
  -6   6  -1   18.90    3.50
  -6   6  -1   27.30    3.80
   6  -6   1   11.50    3.00
   7  -6   1   -2.20    2.80
   7  -6   1    1.50    2.40
  -7  -5   1   -0.20    1.70
  -7  -5   1   -2.70    1.50
   6   5  -1   57.89    4.00
   6   5  -1   64.79    4.10
  -6  -5   1   51.29    5.60
  -6  -5   1   57.79    4.00
  -6  -5   1   61.09    4.50
  -6  -5   1   52.09    5.50
   5   5  -1    6.30    2.00
   5   5  -1    6.00    1.90
  -5  -5   1    2.80    1.40
  -5  -5   1    2.40    1.60
  -5  -5   1    5.20    1.70
   4   5  -1    4.30    1.60
   4   5  -1    1.60    0.50
   4   5  -1    0.60    1.90
   4   5  -1    4.60    1.60
  -4  -5   1    3.50    1.50
  -4  -5   1    1.10    1.10
   3   5  -1   -0.20    0.50
   3   5  -1   -0.20    1.30
   3   5  -1    1.70    1.80
   3   5  -1   -0.90    1.20
  -3  -5   1    0.90    0.90
  -3  -5   1   -1.20    0.70
  -3  -5   1    0.40    1.20
   2   5  -1    1.00    1.60
   2   5  -1   -1.10    0.90
   2   5  -1   -0.10    1.00
  -2  -5   1    0.10    1.10
  -2  -5   1    0.70    0.80
  -2  -5   1   -0.40    1.00
  -2  -5   1   -0.70    0.50
   1   5  -1    1.10    0.90
   1   5  -1    1.00    1.40
   1   5  -1    0.90    0.80
  -1  -5   1    0.90    0.90
  -1  -5   1    0.00    0.90
  -1  -5   1    0.70    0.70
   0   5  -1   21.20    1.50
   0   5  -1   19.60    1.50
   0   5  -1   21.40    2.80
   0   5  -1   20.40    1.70
   0  -5   1   19.20    1.60
   0  -5   1   20.40    1.50
   0  -5   1   19.80    1.30
   0  -5   1   19.90    1.60
  -1   5  -1    5.00    0.80
  -1   5  -1    4.30    1.00
  -1   5  -1    4.20    1.30
  -1   5  -1    4.60    0.90
  -1   5  -1    5.70    1.00
   1  -5   1    6.70    1.00
   1  -5   1    6.00    0.90
   1  -5   1    5.20    1.10
   1  -5   1    4.40    0.90
  -2   5  -1  185.48    4.70
  -2   5  -1  184.38    7.10
  -2   5  -1  192.28    4.70
  -2   5  -1  199.18    7.90
  -2   5  -1  171.38    4.00
  -2   5  -1  183.68    4.00
   2  -5   1  196.68    5.70
   2  -5   1  191.38    5.40
   2  -5   1  195.48    4.30
  -3   5  -1    1.20    0.90
  -3   5  -1    0.60    0.50
  -3   5  -1    2.30    1.20
  -3   5  -1    2.30    0.60
   3  -5   1    2.90    1.40
   3  -5   1    6.10    1.60
  -4   5  -1    0.40    1.10
  -4   5  -1    2.30    1.10
   4  -5   1    1.20    1.50
   4  -5   1    2.10    1.50
  -5   5  -1   64.89    5.30
  -5   5  -1   59.69    5.00
  -5   5  -1   65.59    5.70
   5  -5   1   54.29    3.70
   5  -5   1   62.09    4.20
  -6   5  -1   15.60    3.70
  -6   5  -1    6.30    2.00
  -6   5  -1    7.10    2.10
   6  -5   1    8.80    2.60
   6  -5   1    6.90    2.50
   7  -5   1   -0.10    2.20
   7  -5   1   -3.40    2.30
   7   4  -1   -0.60    1.70
  -7  -4   1   -0.50    1.60
  -7  -4   1   -1.90    2.00
  -7  -4   1   -0.80    1.80
   6   4  -1    2.60    1.70
   6   4  -1    2.30    1.70
  -6  -4   1    2.30    1.60
  -6  -4   1    0.80    1.40
  -6  -4   1    0.10    1.60
   5   4  -1   42.60    2.90
   5   4  -1   41.20    3.10
  -5  -4   1   40.00    4.30
  -5  -4   1   42.50    4.50
  -5  -4   1   41.30    2.90
   4   4  -1   49.70    2.50
   4   4  -1   55.49    3.20
   4   4  -1   55.69    3.00
  -4  -4   1   54.79    3.00
  -4  -4   1   54.49    4.40
  -4  -4   1   56.99    4.80
  -4  -4   1   56.89    3.30
   3   4  -1   54.59    4.50
   3   4  -1   51.49    2.60
   3   4  -1   51.59    2.90
   3   4  -1   52.39    3.10
  -3  -4   1   50.69    4.00
  -3  -4   1   52.99    2.80
  -3  -4   1   54.89    3.80
  -3  -4   1   52.39    2.60
   2   4  -1   -0.30    0.80
   2   4  -1    0.90    0.90
   2   4  -1    2.00    1.30
  -2  -4   1    1.10    0.70
  -2  -4   1    0.50    0.90
   1   4  -1    4.70    0.90
   1   4  -1    4.10    1.00
   1   4  -1    6.20    1.40
   1   4  -1    5.50    1.10
   1   4  -1    5.00    1.30
  -1  -4   1    6.80    1.00
  -1  -4   1    5.80    0.70
  -1  -4   1    4.60    1.00
  -1  -4   1    6.00    1.10
  -1  -4   1    7.40    1.80
   0   4  -1  161.48    4.50
   0   4  -1  167.88    4.10
   0   4  -1  163.58    4.40
   0   4  -1  165.98    5.90
   0   4  -1  162.88    6.50
   0  -4   1  166.38    4.40
   0  -4   1  166.88    4.10
   0  -4   1  171.88    4.10
   0  -4   1  162.08    6.40
  -1   4  -1    2.00    0.90
   1  -4   1    2.10    0.80
  -2   4  -1  349.96   11.70
  -2   4  -1  345.97    6.70
  -2   4  -1  360.56    7.50
  -2   4  -1  347.87    6.70
  -2   4  -1  345.47    7.50
   2  -4   1  350.86    8.10
   2  -4   1  362.86    6.90
   2  -4   1  357.66    6.90
   2  -4   1  365.36    8.70
  -3   4  -1    2.90    1.20
  -3   4  -1    5.70    0.50
   3  -4   1    7.80    1.60
   3  -4   1    4.70    1.40
  -4   4  -1   12.40    3.00
   4  -4   1    8.60    1.90
   4  -4   1    8.10    1.80
  -5   4  -1   28.80    3.90
  -5   4  -1   29.90    3.70
   5  -4   1   27.30    2.80
   5  -4   1   28.70    2.90
  -6   4  -1    1.70    1.30
  -6   4  -1    0.60    1.40
  -6   4  -1    2.60    1.10
   6  -4   1    1.70    2.20
   6  -4   1    0.90    2.10
  -7   4  -1    2.70    1.50
  -7   4  -1    2.40    1.50
   7  -4   1   -0.70    2.00
   7  -4   1    0.60    2.40
   8  -4   1   -3.30    2.60
   7   3  -1   14.20    2.40
  -7  -3   1   14.40    2.80
  -7  -3   1    8.00    2.30
  -7  -3   1    3.50    2.30
   6   3  -1   40.80    3.00
   6   3  -1   40.60    2.80
  -6  -3   1   40.40    4.70
  -6  -3   1   39.40    4.90
  -6  -3   1   39.80    2.90
  -5  -3   1    1.80    1.20
  -5  -3   1    0.30    1.40
  -5  -3   1    0.60    1.00
  -5  -3   1    1.90    1.20
   4   3  -1    0.80    1.10
   4   3  -1    1.70    1.20
  -4  -3   1    1.50    1.00
  -4  -3   1    2.10    1.10
  -4  -3   1    1.60    1.10
  -4  -3   1    1.90    1.30
   3   3  -1    9.40    1.50
   3   3  -1    7.60    1.10
   3   3  -1    8.90    1.30
   3   3  -1   11.90    2.70
  -3  -3   1   11.40    2.20
  -3  -3   1    8.30    1.80
  -3  -3   1    8.00    1.30
  -3  -3   1    8.30    1.40
   2   3  -1   21.60    1.50
   2   3  -1   19.70    1.60
   2   3  -1   23.40    2.60
   2   3  -1   23.40    1.90
  -2  -3   1   19.50    1.60
  -2  -3   1   22.20    1.50
  -2  -3   1   20.90    2.30
  -2  -3   1   25.40    2.20
   1   3  -1   83.79    2.80
   1   3  -1   87.19    4.00
   1   3  -1   81.79    2.80
   1   3  -1   87.49    4.20
   1   3  -1   84.79    3.50
   1   3  -1   82.29    2.60
   1   3  -1   84.49    2.60
  -1  -3   1   83.29    2.50
  -1  -3   1   85.79    2.80
  -1  -3   1   85.19    3.60
  -1  -3   1   85.69    4.00
  -1  -3   1   82.49    2.60
   0   3  -1    0.70    0.60
   0   3  -1    1.50    0.60
   0   3  -1    1.60    0.50
   0   3  -1    1.20    0.50
   0   3  -1    0.80    0.40
   0  -3   1    1.40    0.50
   0  -3   1    0.50    0.50
   0  -3   1    1.10    0.50
   0  -3   1    1.30    0.50
   0  -3   1    1.00    0.60
  -1   3  -1  189.48    4.30
  -1   3  -1  180.28    4.00
  -1   3  -1  191.98    6.60
  -1   3  -1  195.78    4.00
   1  -3   1  189.58    4.20
   1  -3   1  184.88    4.70
   1  -3   1  189.68    4.00
   1  -3   1  191.98    4.00
  -2   3  -1  668.53   19.40
  -2   3  -1  607.74   11.80
  -2   3  -1  657.63   13.00
  -2   3  -1  619.84   11.90
  -2   3  -1  684.53   13.00
   2  -3   1  689.93   13.40
   2  -3   1  687.13   12.00
   2  -3   1  665.03   14.20
   2  -3   1  664.63   12.00
  -3   3  -1   35.50    1.00
  -3   3  -1   35.60    3.20
  -3   3  -1   35.40    1.00
   3  -3   1   36.10    2.20
   3  -3   1   35.00    2.10
  -4   3  -1   40.00    1.30
  -4   3  -1   38.90    1.30
  -4   3  -1   45.60    3.80
  -4   3  -1   47.90    4.10
   4  -3   1   46.60    2.90
   4  -3   1   47.30    2.80
  -5   3  -1   20.70    3.60
  -5   3  -1   14.10    0.90
  -5   3  -1   19.20    3.10
   5  -3   1   15.30    2.30
   5  -3   1   16.60    2.30
  -6   3  -1   19.80    4.00
  -6   3  -1   21.30    3.60
  -6   3  -1   17.10    3.10
   6  -3   1   17.40    3.00
   6  -3   1   16.90    2.80
  -7   3  -1    4.90    1.90
  -7   3  -1    7.50    2.50
   7  -3   1    6.10    2.50
   8  -3   1    4.40    3.00
   8   2  -1    2.80    1.80
   7   2  -1    3.30    1.60
  -7  -2   1    1.80    1.70
  -7  -2   1   -1.50    1.80
  -7  -2   1    2.80    1.80
   6   2  -1    1.10    1.30
   6   2  -1    2.50    1.40
  -6  -2   1   -0.10    1.50
  -6  -2   1    0.50    1.20
   5   2  -1   16.30    1.70
   5   2  -1   20.00    2.20
   5   2  -1   14.40    1.80
  -5  -2   1   17.40    2.10
  -5  -2   1   15.10    3.10
  -5  -2   1   16.20    1.90
  -5  -2   1   13.60    3.10
   4   2  -1  157.38    4.50
   4   2  -1  150.48    4.20
   4   2  -1  157.48    4.80
  -4  -2   1  150.18    6.80
  -4  -2   1  150.98    4.40
  -4  -2   1  147.79    4.90
  -4  -2   1  155.28    7.00
   3   2  -1   20.90    1.70
   3   2  -1   19.70    1.40
   3   2  -1   17.90    1.40
  -3  -2   1   20.50    1.50
  -3  -2   1   19.50    1.50
  -3  -2   1   23.40    2.40
  -3  -2   1   18.50    2.20
  -3  -2   1   18.90    1.50
   2   2  -1   50.19    3.10
   2   2  -1   47.40    1.80
   2   2  -1   47.50    1.80
   2   2  -1   45.20    2.00
   2   2  -1   44.20    2.60
   2   2  -1   47.00    1.90
   2   2  -1   42.60    2.00
   2   2  -1   49.70    2.60
  -2  -2   1   44.20    1.80
  -2  -2   1   44.80    1.80
  -2  -2   1   44.50    2.90
  -2  -2   1   48.40    2.80
  -2  -2   1   44.40    2.00
  -2  -2   1   48.40    2.00
  -2  -2   1   47.10    2.70
  -1  -2   1    3.50    0.70
  -1  -2   1    6.00    0.70
  -1  -2   1    3.40    0.60
  -1  -2   1    5.80    0.90
   0   2  -1  403.46   11.60
   0   2  -1  396.26    8.30
   0   2  -1  399.66    7.70
   0   2  -1  395.46   11.10
   0   2  -1  398.36    7.70
   0   2  -1  408.16    8.30
   0  -2   1  401.36    7.70
   0  -2   1  397.96    8.30
   0  -2   1  396.06    7.70
   0  -2   1  390.66   11.50
   0  -2   1  400.06    8.30
  -1   2  -1  208.88    4.00
  -1   2  -1  198.08    4.10
  -1   2  -1  204.08    4.30
  -1   2  -1  202.98    6.50
  -1   2  -1  203.68    4.30
  -1   2  -1  205.98    4.00
   1  -2   1  209.48    4.00
   1  -2   1  206.88    4.20
  -2   2  -1   20.10    0.70
  -2   2  -1   18.00    0.50
  -2   2  -1   18.60    0.50
  -2   2  -1   20.20    0.70
   2  -2   1   20.50    1.40
   2  -2   1   20.40    1.30
   2  -2   1   21.20    0.60
   2  -2   1   20.00    0.60
  -3   2  -1   15.30    2.00
  -3   2  -1   14.80    0.80
  -3   2  -1   15.70    0.80
  -3   2  -1   14.70    1.90
  -3   2  -1   16.00    0.80
   3  -2   1   14.60    1.50
   3  -2   1   15.40    0.70
   3  -2   1   15.10    0.60
   3  -2   1   15.00    1.40
  -4   2  -1    5.90    0.80
  -4   2  -1    5.50    0.40
  -4   2  -1    6.60    0.70
  -4   2  -1    7.20    0.90
  -4   2  -1    4.00    1.20
  -4   2  -1    5.10    0.40
   4  -2   1    7.40    0.70
   4  -2   1    6.10    1.50
   4  -2   1    8.70    1.60
   4  -2   1    5.90    0.60
  -5   2  -1   81.89    5.50
  -5   2  -1   78.79    5.50
  -5   2  -1   78.59    2.60
  -5   2  -1   74.99    2.60
  -5   2  -1   81.19    4.80
   5  -2   1   76.59    2.10
   5  -2   1   76.89    3.80
   5  -2   1   76.79    2.10
   5  -2   1   73.89    3.70
  -6   2  -1    3.00    1.40
  -6   2  -1    4.80    0.90
  -6   2  -1    1.90    1.60
   6  -2   1    3.40    0.70
   6  -2   1    5.30    2.10
   6  -2   1    4.00    1.90
  -7   2  -1    2.50    1.50
  -7   2  -1    0.40    1.70
   7  -2   1    4.30    2.20
   8  -2   1    0.80    2.40
   8   1  -1    2.20    1.50
  -8  -1   1    0.60    1.70
   7   1  -1   20.10    2.70
   7   1  -1   20.60    2.20
  -7  -1   1   20.00    4.30
  -7  -1   1   22.60    2.60
   6   1  -1    1.10    1.40
   6   1  -1    0.50    1.10
  -6  -1   1   -0.60    1.10
  -6  -1   1   -1.60    1.30
   5   1  -1    5.00    1.20
   5   1  -1    0.00    1.10
   5   1  -1    3.10    1.10
  -5  -1   1    2.50    1.00
  -5  -1   1    1.70    1.00
  -5  -1   1    0.80    1.10
  -5  -1   1    2.20    1.40
  -5  -1   1    1.20    1.00
   4   1  -1    1.10    0.90
   4   1  -1    1.10    0.80
   4   1  -1    1.10    0.90
   4   1  -1    0.80    0.80
  -4  -1   1    1.70    1.00
  -4  -1   1    0.50    0.80
  -4  -1   1    1.50    0.70
  -4  -1   1    2.00    0.80
  -4  -1   1    0.40    0.70
   3   1  -1    7.10    1.10
   3   1  -1    9.40    1.00
   3   1  -1    9.70    1.40
   3   1  -1    8.00    1.00
   3   1  -1    8.20    1.00
  -3  -1   1   10.00    1.00
  -3  -1   1   10.50    1.10
  -3  -1   1    7.30    1.10
  -3  -1   1    9.70    1.60
  -3  -1   1   12.00    1.90
   2   1  -1    1.20    0.50
   2   1  -1    1.30    0.50
   2   1  -1    1.70    0.60
   2   1  -1    1.00    0.50
   2   1  -1    1.20    0.50
   2   1  -1    0.50    0.40
  -2  -1   1    0.50    0.40
  -2  -1   1    1.80    0.50
  -2  -1   1    0.50    0.50
  -2  -1   1    1.20    0.50
  -2  -1   1    1.40    0.60
  -2  -1   1    1.90    0.80
  -2  -1   1    1.40    0.60
   1   1  -1  735.23   14.80
   1   1  -1  755.82   13.70
   1   1  -1  737.43   14.50
   1   1  -1  746.33   20.50
   1   1  -1  760.02   13.70
   1   1  -1  726.33   14.80
   1   1  -1  767.72   20.70
   1   1  -1  769.42   19.80
   1   1  -1  687.23   23.00
  -1  -1   1  727.83   13.70
  -1  -1   1  728.63   13.70
  -1  -1   1  737.63   14.80
  -1  -1   1  748.03   20.70
  -1  -1   1  742.13   14.80
  -1  -1   1  746.93   19.80
  -1  -1   1  745.43   20.50
   0   1  -1    1.70    0.30
   0   1  -1    2.30    0.50
   0   1  -1    1.60    0.30
   0   1  -1    2.60    0.50
   0   1  -1    2.00    0.30
   0   1  -1    2.30    0.30
   0   1  -1    1.60    0.30
   0  -1   1    1.60    0.30
   0  -1   1    1.70    0.30
   0  -1   1    3.10    0.60
   0  -1   1    1.80    0.30
   0  -1   1    1.80    0.30
   0  -1   1    2.00    0.40
   0  -1   1    1.60    0.30
  -1   1  -1 2717.43   48.30
  -1   1  -1 2671.83   52.09
  -1   1  -1 2572.44   82.89
   1  -1   1 2743.73   48.50
   1  -1   1 2710.13   51.79
   1  -1   1 2628.04   50.59
  -2   1  -1  216.68    4.60
  -2   1  -1  219.08    7.80
  -2   1  -1  222.28    4.60
  -2   1  -1  221.78    4.20
  -2   1  -1  223.98    7.50
  -2   1  -1  228.28    4.20
   2  -1   1  201.88    5.30
   2  -1   1  218.98    4.30
   2  -1   1  215.58    4.90
   2  -1   1  217.88    4.40
   2  -1   1  229.98    4.40
   2  -1   1  219.28    4.40
  -3   1  -1  110.89    2.90
  -3   1  -1  113.69    5.00
  -3   1  -1  114.39    2.60
  -3   1  -1  111.99    4.80
  -3   1  -1  111.49    2.90
   3  -1   1  115.89    3.50
   3  -1   1  112.49    3.60
   3  -1   1  111.89    2.70
   3  -1   1  110.09    2.70
   3  -1   1  111.29    2.60
   3  -1   1  116.09    2.60
  -4   1  -1   95.49    2.90
  -4   1  -1   93.39    2.50
  -4   1  -1   96.19    2.90
  -4   1  -1   99.49    4.60
  -4   1  -1   98.89    5.30
   4  -1   1   95.79    2.40
   4  -1   1   92.89    3.60
   4  -1   1   95.39    2.40
   4  -1   1   97.19    2.60
   4  -1   1   99.59    3.60
   4  -1   1   97.79    2.60
  -5   1  -1    9.80    1.90
  -5   1  -1    6.90    1.70
  -5   1  -1   12.00    1.10
  -5   1  -1   11.00    2.60
  -5   1  -1    9.90    1.30
   5  -1   1   10.10    1.30
   5  -1   1   11.40    1.80
   5  -1   1   13.10    2.10
   5  -1   1    8.30    0.80
   5  -1   1    8.60    1.00
  -6   1  -1    0.30    0.80
  -6   1  -1    1.10    1.10
  -6   1  -1   -0.70    1.30
   6  -1   1   -0.80    1.40
   6  -1   1   -0.80    0.80
  -7   1  -1    3.00    1.60
  -7   1  -1   -0.20    1.70
   7  -1   1    1.60    2.00
   7  -1   1    2.90    1.00
  -8   1  -1    2.80    2.60
   8  -1   1   13.00    3.10
   8   0  -1   -0.80    2.20
   8   0  -1    0.70    1.20
  -8   0   1   -0.30    1.40
   7   0  -1   13.20    1.90
   7   0  -1   11.20    2.40
  -7   0   1    5.50    2.30
  -7   0   1    8.10    2.10
  -7   0   1   12.60    2.10
   6   0  -1    2.40    1.50
   6   0  -1    2.10    1.10
  -6   0   1    0.10    1.30
  -6   0   1    0.20    1.10
   5   0  -1    1.80    0.80
   5   0  -1    1.90    0.90
   5   0  -1    2.60    1.20
   5   0  -1    0.70    0.90
  -5   0   1    0.20    0.90
  -5   0   1    1.70    0.80
  -5   0   1    1.20    0.90
  -5   0   1    1.40    1.20
   4   0  -1   28.90    1.60
   4   0  -1   27.50    1.90
   4   0  -1   25.60    1.50
   4   0  -1   28.10    1.50
  -4   0   1   29.30    1.60
  -4   0   1   31.40    2.90
  -4   0   1   28.10    1.60
  -4   0   1   28.00    2.80
  -4   0   1   28.30    1.50
  -4   0   1   27.00    1.70
   3   0  -1  112.39    3.50
   3   0  -1  118.89    3.10
   3   0  -1  111.49    2.90
   3   0  -1  120.39    3.20
   3   0  -1  117.59    4.80
   3   0  -1  116.99    3.00
  -3   0   1  112.59    3.30
  -3   0   1  114.39    4.00
  -3   0   1  115.59    2.90
  -3   0   1  117.69    4.90
  -3   0   1  116.79    3.20
  -3   0   1  118.79    2.90
  -3   0   1  116.29    5.10
   2   0  -1  544.95   10.80
   2   0  -1  522.75   10.60
   2   0  -1  539.05   15.40
   2   0  -1  533.25   10.00
   2   0  -1  532.25   10.80
  -2   0   1  535.55   10.00
  -2   0   1  533.95   10.80
  -2   0   1  484.45   15.00
  -2   0   1  537.35   10.90
  -2   0   1  548.55   15.50
  -2   0   1  542.65   10.00
   1   0  -1  332.17    6.80
   1   0  -1  343.17    6.80
   1   0  -1  337.97    6.30
   1   0  -1  334.27    6.30
   1   0  -1  336.97    6.70
   1   0  -1  343.97    9.50
   1   0  -1  329.67    9.30
  -1   0   1  336.87    6.70
  -1   0   1  335.97    6.30
  -1   0   1  349.27    9.50
  -1   0   1  339.77    6.30
  -1   0   1  307.07    9.30
  -1   0   1  332.37    6.80
   0   0  -1   -1.70    0.10
   0   0  -1   -1.60    0.10
   0   0  -1   -1.60    0.10
   0   0  -1   -1.60    0.10
   0   0  -1   -1.60    0.10
   0   0  -1   -1.70    0.10
   0   0   1   -1.60    0.10
   0   0   1   -1.70    0.10
   0   0   1   -1.60    0.10
   0   0   1   -1.60    0.10
   0   0   1   -1.60    0.10
   0   0   1   -1.60    0.10
   0   0   1   -1.70    0.10
  -1   0  -1   99.59    2.10
  -1   0  -1  100.09    2.30
  -1   0  -1  102.19    2.10
  -1   0  -1  104.39    3.50
  -1   0  -1   96.09    2.30
  -1   0  -1  101.49    3.50
   1   0   1  102.69    2.30
   1   0   1   98.79    2.30
   1   0   1  100.99    3.50
   1   0   1   99.59    2.10
   1   0   1  104.79    2.10
   1   0   1   98.89    3.50
  -2   0  -1  374.06    7.20
  -2   0  -1  382.86   11.60
  -2   0  -1  385.96   11.50
  -2   0  -1  361.96    7.70
  -2   0  -1  378.96    7.20
  -2   0  -1  358.06    7.70
   2   0   1  375.96    7.70
   2   0   1  365.86   11.40
   2   0   1  365.86    7.70
   2   0   1  371.46    7.10
   2   0   1  357.96    7.20
  -3   0  -1   50.49    1.90
  -3   0  -1   48.30    1.60
  -3   0  -1   49.10    3.10
  -3   0  -1   47.30    2.40
  -3   0  -1   47.90    3.00
  -3   0  -1   47.50    1.80
   3   0   1   46.90    2.90
   3   0   1   48.70    1.70
   3   0   1   47.60    1.60
   3   0   1   48.40    1.80
   3   0   1   45.70    2.00
   3   0   1   47.30    2.10
   3   0   1   48.50    1.70
  -4   0  -1    7.90    1.30
  -4   0  -1    7.60    1.00
  -4   0  -1    6.90    1.10
  -4   0  -1    6.40    0.90
  -4   0  -1    3.90    1.00
  -4   0  -1    4.40    1.20
   4   0   1    7.30    1.20
   4   0   1    6.80    1.00
   4   0   1    6.80    0.90
   4   0   1    6.50    0.90
  -5   0  -1   33.90    3.60
  -5   0  -1   33.30    2.10
  -5   0  -1   35.40    3.90
  -5   0  -1   30.90    1.90
  -5   0  -1   28.90    2.30
  -5   0  -1   32.90    1.70
   5   0   1   32.50    1.90
   5   0   1   33.10    2.30
   5   0   1   31.80    1.70
   5   0   1   31.20    1.70
  -6   0  -1    6.80    1.40
  -6   0  -1    2.60    1.30
   6   0   1    5.70    1.80
   6   0   1    5.30    1.30
  -7   0  -1    8.90    1.70
  -7   0  -1    5.90    2.00
   7   0   1    9.20    2.30
   7   0   1   10.60    1.60
  -8   0  -1    2.10    1.50
   8   0   1    2.30    1.20
   8  -1  -1    6.80    2.90
   7  -1  -1    2.80    1.00
   7  -1  -1    5.50    2.30
  -7   1   1    2.60    1.30
  -7   1   1   -1.30    1.80
  -7   1   1    1.60    1.50
   6  -1  -1    6.30    1.90
   6  -1  -1    5.50    1.10
  -6   1   1    3.00    1.40
  -6   1   1    2.60    1.50
  -6   1   1    5.20    1.30
   5  -1  -1    9.40    1.90
   5  -1  -1    8.20    1.20
   5  -1  -1    6.70    1.10
  -5   1   1    4.80    1.40
  -5   1   1   11.50    2.80
  -5   1   1    7.50    1.60
   4  -1  -1   10.80    1.50
   4  -1  -1   10.60    0.70
   4  -1  -1   12.30    0.90
   4  -1  -1   11.40    0.70
   4  -1  -1   10.10    1.00
  -4   1   1   11.00    1.10
  -4   1   1   13.90    2.20
  -4   1   1   13.40    2.20
  -4   1   1   11.40    1.00
  -4   1   1   10.10    1.40
  -4   1   1   12.80    0.90
   3  -1  -1   59.59    1.70
   3  -1  -1   67.89    2.60
   3  -1  -1   62.39    2.40
   3  -1  -1   54.49    1.50
   3  -1  -1   57.69    1.50
  -3   1   1   52.09    1.80
  -3   1   1   56.09    1.60
  -3   1   1   62.19    3.30
  -3   1   1   58.49    3.40
  -3   1   1   59.19    1.60
  -3   1   1   55.99    1.80
   2  -1  -1  211.68    4.10
   2  -1  -1  215.88    4.20
   2  -1  -1  207.08    5.10
   2  -1  -1  212.98    4.20
  -2   1   1  214.28    4.50
  -2   1   1  199.68    6.90
  -2   1   1  216.18    4.10
  -2   1   1  212.08    4.10
  -2   1   1  213.18    7.00
  -2   1   1  204.98    4.40
  -2   1   1  211.48    4.40
   1  -1  -1 1535.75   27.00
  -1   1   1 1480.95   29.10
  -1   1   1 1493.15   26.90
  -1   1   1 1468.75   26.80
  -1   1   1 1476.45   29.00
   0  -1  -1   10.40    0.70
   0  -1  -1    9.90    0.80
   0  -1  -1    8.80    0.40
   0  -1  -1    9.10    0.50
   0  -1  -1   10.00    0.50
   0  -1  -1    9.00    0.50
   0   1   1   10.20    0.80
   0   1   1   10.40    0.70
   0   1   1   10.80    0.50
   0   1   1    9.20    0.80
   0   1   1    9.80    0.50
   0   1   1    9.20    0.50
   0   1   1   10.20    0.40
  -1  -1  -1 2375.66   68.59
  -1  -1  -1 2232.38   69.29
  -1  -1  -1 2487.05   46.10
  -1  -1  -1 2463.85   45.10
  -1  -1  -1 2363.06   48.60
  -1  -1  -1 2420.06   65.49
  -1  -1  -1 2411.96   48.90
   1   1   1 2353.56   45.80
   1   1   1 2380.66   48.50
   1   1   1 2428.56   44.40
   1   1   1 2440.66   48.40
   1   1   1 2410.66   68.49
   1   1   1 2409.26   64.99
   1   1   1 2510.45   70.59
  -2  -1  -1  192.08    4.70
  -2  -1  -1  189.38    6.30
  -2  -1  -1  196.68    4.30
  -2  -1  -1  199.38    4.30
  -2  -1  -1  202.48    6.80
  -2  -1  -1  190.48    4.70
  -2  -1  -1  190.18    6.50
   2   1   1  196.08    6.70
   2   1   1  190.68    4.60
   2   1   1  187.88    6.50
   2   1   1  191.98    4.70
   2   1   1  191.88    4.30
   2   1   1  197.58    6.20
   2   1   1  191.58    4.20
  -3  -1  -1    7.40    1.80
  -3  -1  -1    6.30    1.00
  -3  -1  -1    5.90    1.30
  -3  -1  -1    6.10    1.50
  -3  -1  -1    6.90    0.90
   3   1   1    7.50    1.40
   3   1   1    6.70    1.00
   3   1   1    6.60    1.00
   3   1   1    3.50    0.90
   3   1   1    5.70    1.00
  -4  -1  -1   33.80    1.80
  -4  -1  -1   31.80    1.90
  -4  -1  -1   31.70    2.90
  -4  -1  -1   32.20    3.10
  -4  -1  -1   33.80    1.80
   4   1   1   35.70    2.00
   4   1   1   32.00    1.80
   4   1   1   32.30    1.80
   4   1   1   35.00    1.90
  -5  -1  -1   11.00    1.70
  -5  -1  -1    5.90    1.40
  -5  -1  -1   13.00    3.00
  -5  -1  -1   10.20    1.40
  -5  -1  -1    9.40    1.30
   5   1   1   11.50    1.60
   5   1   1    8.00    1.30
   5   1   1    9.30    1.60
   5   1   1   11.70    1.80
  -6  -1  -1    3.00    1.70
  -6  -1  -1    7.90    1.70
   6   1   1    6.20    1.50
   6   1   1    8.40    1.90
  -7  -1  -1    5.10    1.80
  -7  -1  -1    2.30    2.00
  -7  -1  -1    7.20    1.70
   7   1   1    9.10    1.60
  -8  -1  -1   -3.30    2.10
   8   1   1    4.00    1.60
   8  -2  -1    2.00    2.60
   7  -2  -1    7.60    2.50
  -7   2   1    3.10    1.90
  -7   2   1    4.10    1.70
   6  -2  -1    2.00    0.70
   6  -2  -1    4.20    2.00
  -6   2   1    2.40    0.90
  -6   2   1    1.50    1.50
  -6   2   1    3.00    1.50
   5  -2  -1   15.20    2.20
   5  -2  -1   12.40    2.20
   5  -2  -1   13.80    0.90
   5  -2  -1   13.00    0.90
  -5   2   1   15.00    2.10
  -5   2   1   13.60    2.90
  -5   2   1   11.90    2.80
  -5   2   1   12.80    1.20
   4  -2  -1   30.70    1.10
   4  -2  -1   30.30    1.00
   4  -2  -1   26.70    2.20
   4  -2  -1   31.10    2.20
  -4   2   1   30.80    2.70
  -4   2   1   29.90    1.20
  -4   2   1   28.00    2.80
  -4   2   1   28.90    0.70
  -4   2   1   28.40    2.90
  -4   2   1   29.70    0.70
   3  -2  -1    1.70    0.30
   3  -2  -1    1.90    0.90
   3  -2  -1    1.20    0.90
   3  -2  -1    1.80    0.30
  -3   2   1    1.60    0.60
  -3   2   1    2.20    0.40
   2  -2  -1  130.39    3.80
   2  -2  -1  126.39    3.30
  -2   2   1  125.29    2.50
  -2   2   1  127.29    2.50
   1  -2  -1 1045.40   20.60
   1  -2  -1 1169.58   20.80
  -1   2   1 1138.99   22.20
  -1   2   1 1077.19   22.10
  -1   2   1 1150.38   20.50
  -1   2   1 1192.38   20.80
   0  -2  -1  107.59    2.70
   0  -2  -1  110.49    2.70
   0  -2  -1  114.79    4.10
   0  -2  -1  112.59    2.50
   0  -2  -1  110.09    2.50
   0   2   1  112.49    4.10
   0   2   1  105.19    2.70
   0   2   1  107.29    2.70
   0   2   1  108.69    2.50
   0   2   1  111.99    2.50
  -1  -2  -1 1583.34   46.20
  -1  -2  -1 1543.55   28.00
  -1  -2  -1 1540.75   46.60
  -1  -2  -1 1579.14   42.80
  -1  -2  -1 1503.85   41.80
  -1  -2  -1 1509.65   30.10
  -1  -2  -1 1523.25   30.10
  -1  -2  -1 1544.85   29.00
   1   2   1 1564.54   27.90
   1   2   1 1533.65   42.50
   1   2   1 1507.45   41.70
   1   2   1 1537.05   28.00
   1   2   1 1515.25   30.10
   1   2   1 1555.44   44.00
   1   2   1 1551.44   30.10
  -2  -2  -1   39.20    1.60
  -2  -2  -1   36.30    2.20
  -2  -2  -1   35.20    1.70
  -2  -2  -1   41.40    2.60
  -2  -2  -1   35.40    1.70
  -2  -2  -1   37.80    1.60
  -2  -2  -1   37.70    2.50
   2   2   1   36.70    2.10
   2   2   1   37.10    1.80
   2   2   1   37.70    1.60
   2   2   1   37.90    2.50
   2   2   1   34.90    1.60
   2   2   1   39.30    2.70
   2   2   1   38.30    1.70
  -3  -2  -1  149.79    6.00
  -3  -2  -1  154.88    4.50
  -3  -2  -1  153.48    4.50
  -3  -2  -1  149.19    6.40
   3   2   1  156.38    4.10
   3   2   1  152.08    4.10
   3   2   1  160.58    5.20
   3   2   1  158.08    4.50
  -4  -2  -1   43.70    3.40
  -4  -2  -1   45.30    3.90
  -4  -2  -1   43.20    2.40
  -4  -2  -1   43.80    2.20
   4   2   1   43.10    2.20
   4   2   1   41.40    2.20
   4   2   1   42.90    2.30
  -5  -2  -1    0.40    1.10
  -5  -2  -1   -1.30    1.00
  -5  -2  -1   -0.10    0.80
  -5  -2  -1    1.60    1.40
   5   2   1   -1.90    1.00
  -6  -2  -1    0.50    1.10
  -6  -2  -1    2.20    1.30
  -6  -2  -1   -0.10    1.60
   6   2   1    2.30    1.20
  -7  -2  -1    3.40    1.70
  -7  -2  -1    5.20    1.70
  -7  -2  -1   -0.80    1.80
   7   2   1    3.80    1.60
   8   2   1    5.40    1.90
   8  -3  -1   -0.60    2.30
   7  -3  -1   32.20    3.60
  -7   3   1   31.00    4.90
  -7   3   1   35.60    4.90
   6  -3  -1    5.70    2.10
   6  -3  -1    4.90    2.20
  -6   3   1    1.50    1.20
  -6   3   1    2.70    1.50
   5  -3  -1    3.20    1.60
   5  -3  -1    0.10    1.50
  -5   3   1    2.60    0.60
  -5   3   1    2.30    1.20
  -5   3   1    1.10    1.00
  -5   3   1    1.90    0.70
   4  -3  -1    3.80    1.50
   4  -3  -1    3.10    1.40
  -4   3   1    4.00    0.40
  -4   3   1    2.70    0.90
  -4   3   1    2.90    0.50
  -4   3   1    1.80    0.90
   3  -3  -1   10.40    1.50
   3  -3  -1    9.60    1.40
   2  -3  -1  593.94   11.70
   2  -3  -1  587.24   12.70
  -2   3   1  575.94   11.20
  -2   3   1  547.65   11.10
   1  -3  -1  302.87    6.10
   1  -3  -1  299.07    6.20
   1  -3  -1  302.97    7.00
   1  -3  -1  314.07    6.50
  -1   3   1  295.57    9.60
  -1   3   1  294.77    6.40
  -1   3   1  295.47    6.30
  -1   3   1  307.77    5.80
  -1   3   1  304.27    5.80
  -1   3   1  301.57    9.90
   0  -3  -1   18.40    1.10
   0  -3  -1   20.50    1.00
   0  -3  -1   17.40    1.70
   0  -3  -1   17.80    1.00
   0  -3  -1   16.80    1.30
   0  -3  -1   19.80    1.10
   0   3   1   17.40    1.00
   0   3   1   19.10    1.10
   0   3   1   18.00    1.30
   0   3   1   19.00    0.90
   0   3   1   18.80    1.00
   0   3   1   19.40    1.30
   0   3   1   19.20    1.80
  -1  -3  -1  202.08    4.60
  -1  -3  -1  194.18    5.00
  -1  -3  -1  189.38    7.00
  -1  -3  -1  199.08    6.50
  -1  -3  -1  200.28    6.10
  -1  -3  -1  201.98    4.60
  -1  -3  -1  192.38    5.00
   1   3   1  199.28    4.60
   1   3   1  205.38    5.00
   1   3   1  191.88    7.10
   1   3   1  194.18    4.60
   1   3   1  200.08    6.10
   1   3   1  201.68    7.10
   1   3   1  192.88    5.00
  -2  -3  -1  334.57   10.10
  -2  -3  -1  337.77    8.00
  -2  -3  -1  338.77    7.30
  -2  -3  -1  329.87   11.20
  -2  -3  -1  330.97    8.00
   2   3   1  326.27    7.30
   2   3   1  322.87   11.10
   2   3   1  330.17    7.30
   2   3   1  333.07    7.90
   2   3   1  328.27    8.00
   2   3   1  335.37   10.10
  -3  -3  -1   49.80    2.20
  -3  -3  -1   47.30    3.10
  -3  -3  -1   46.50    2.40
  -3  -3  -1   53.19    3.70
   3   3   1   53.69    3.90
   3   3   1   49.80    2.30
   3   3   1   51.39    2.50
   3   3   1   48.30    2.50
  -4  -3  -1    0.40    0.70
  -4  -3  -1    1.00    1.10
  -4  -3  -1    1.20    1.00
  -4  -3  -1    1.00    1.20
   4   3   1    0.00    1.10
   4   3   1    0.00    0.20
   4   3   1   -0.10    1.00
  -5  -3  -1   -0.80    0.80
  -5  -3  -1   -0.20    1.30
  -5  -3  -1   -1.20    1.00
  -5  -3  -1   -0.10    1.10
   5   3   1   -1.60    1.30
   5   3   1   -1.60    1.10
  -6  -3  -1    1.40    1.30
  -6  -3  -1    1.60    1.40
  -6  -3  -1    3.30    1.40
  -6  -3  -1   -0.70    1.50
   6   3   1    3.10    1.50
   6   3   1    1.90    1.40
  -7  -3  -1    5.80    2.00
  -7  -3  -1   11.80    2.40
  -7  -3  -1    2.70    2.20
   7   3   1   14.90    2.30
   8  -4  -1    1.20    2.70
   7  -4  -1    2.20    2.40
  -7   4   1    2.90    1.60
  -7   4   1    0.90    1.30
   6  -4  -1    2.20    2.10
   6  -4  -1    0.20    2.00
  -6   4   1    2.30    1.50
  -6   4   1    0.70    1.10
   5  -4  -1    1.70    1.60
   5  -4  -1    0.80    1.60
  -5   4   1    2.20    1.20
  -5   4   1    1.60    1.10
   4  -4  -1   39.80    2.70
   4  -4  -1   40.60    2.90
   3  -4  -1   44.30    2.40
   3  -4  -1   44.90    2.60
   2  -4  -1  138.59    4.40
   2  -4  -1  138.29    3.90
   2  -4  -1  134.19    2.80
   2  -4  -1  135.29    2.80
  -2   4   1  134.09    5.80
  -2   4   1  133.49    3.20
  -2   4   1  130.29    3.10
  -2   4   1  136.79    6.10
   1  -4  -1  235.98    5.00
   1  -4  -1  242.68    5.00
   1  -4  -1  231.88    5.20
   1  -4  -1  241.08    6.00
  -1   4   1  238.38    8.10
  -1   4   1  239.98    4.90
  -1   4   1  238.68    8.80
  -1   4   1  235.68    5.50
  -1   4   1  241.18    5.00
  -1   4   1  233.68    5.50
   0  -4  -1   66.79    2.20
   0  -4  -1   65.69    2.30
   0  -4  -1   65.89    2.20
   0   4   1   62.09    2.80
   0   4   1   65.99    2.80
   0   4   1   63.69    3.80
   0   4   1   64.89    2.30
   0   4   1   63.49    2.40
   0   4   1   68.59    2.20
  -1  -4  -1  583.84   12.00
  -1  -4  -1  567.34   12.90
  -1  -4  -1  625.44   16.60
  -1  -4  -1  604.34   17.50
   1   4   1  570.24   13.00
   1   4   1  627.04   12.00
   1   4   1  608.24   18.40
   1   4   1  617.24   16.50
   1   4   1  569.94   12.90
  -2  -4  -1   75.39    3.60
  -2  -4  -1   75.09    4.40
  -2  -4  -1   71.69    3.00
  -2  -4  -1   71.89    2.70
  -2  -4  -1   75.19    3.70
   2   4   1   79.19    3.20
   2   4   1   73.79    3.50
   2   4   1   75.49    4.70
   2   4   1   73.09    2.80
  -3  -4  -1   22.40    2.00
  -3  -4  -1   18.70    1.80
  -3  -4  -1   21.50    3.00
  -3  -4  -1   21.50    2.40
   3   4   1   19.00    1.80
   3   4   1   19.30    1.90
   3   4   1   23.20    3.70
  -4  -4  -1   16.00    2.10
  -4  -4  -1   20.40    2.90
  -4  -4  -1   18.70    3.30
  -4  -4  -1   16.60    2.00
   4   4   1   14.60    2.00
   4   4   1   19.30    3.90
   4   4   1   14.70    2.10
   4   4   1   15.70    1.90
  -5  -4  -1    9.30    2.00
  -5  -4  -1    4.80    1.90
  -5  -4  -1   11.10    1.90
   5   4   1    9.80    2.00
   5   4   1   10.00    2.00
  -6  -4  -1    8.20    2.10
  -6  -4  -1    9.50    2.00
  -6  -4  -1    5.00    2.10
   6   4   1    9.10    2.00
   6   4   1    9.80    2.00
  -7  -4  -1    0.30    1.50
  -7  -4  -1   -1.70    1.90
   7   4   1    2.30    1.90
   7  -5  -1   10.50    3.20
   7  -5  -1   13.20    3.20
   6  -5  -1   17.70    3.30
   6  -5  -1   14.70    3.10
  -6   5   1   24.10    3.90
  -6   5   1   20.80    3.80
   5  -5  -1   -1.00    1.80
   5  -5  -1    1.00    1.90
  -5   5   1    1.60    1.00
  -5   5   1    2.90    1.30
   4  -5  -1   13.70    2.30
   4  -5  -1   15.90    2.40
  -4   5   1   15.00    3.10
  -4   5   1   15.80    3.20
   3  -5  -1   20.90    2.20
   3  -5  -1   22.40    2.20
  -3   5   1   23.20    3.30
  -3   5   1   23.30    3.10
  -3   5   1   16.10    0.80
  -3   5   1   16.50    0.80
   2  -5  -1  187.28    4.00
   2  -5  -1  184.68    5.60
   2  -5  -1  192.48    5.20
   2  -5  -1  186.88    4.00
  -2   5   1  181.08    3.70
  -2   5   1  187.58    7.50
  -2   5   1  192.48    4.60
  -2   5   1  195.58    3.90
  -2   5   1  189.28    8.10
  -2   5   1  181.68    4.50
   1  -5  -1    8.90    1.00
   1  -5  -1    6.90    1.20
   1  -5  -1    7.70    1.10
  -1   5   1    7.30    1.00
  -1   5   1    7.10    1.50
  -1   5   1    6.70    0.90
  -1   5   1    5.40    1.50
  -1   5   1    6.10    1.00
   0  -5  -1   13.40    1.30
   0  -5  -1   14.00    1.20
   0  -5  -1   13.20    1.30
   0  -5  -1   13.00    1.10
   0   5   1   11.00    1.60
   0   5   1   12.40    2.50
   0   5   1   11.50    1.50
   0   5   1   14.30    1.20
   0   5   1   12.90    1.30
   0   5   1   12.60    1.30
  -1  -5  -1    5.70    1.10
  -1  -5  -1    7.20    1.10
  -1  -5  -1    5.50    1.10
  -1  -5  -1    5.70    1.10
   1   5   1    6.20    1.20
   1   5   1    8.00    1.20
   1   5   1    4.70    1.50
   1   5   1    5.60    1.10
  -2  -5  -1   25.70    2.10
  -2  -5  -1   20.00    2.10
  -2  -5  -1   27.30    2.00
  -2  -5  -1   26.50    2.70
   2   5   1   21.60    1.80
   2   5   1   25.40    2.10
   2   5   1   21.90    3.50
   2   5   1   20.50    2.00
  -3  -5  -1   39.60    2.60
  -3  -5  -1   45.80    3.50
  -3  -5  -1   41.20    4.10
  -3  -5  -1   43.30    2.80
   3   5   1   38.30    2.60
   3   5   1   43.20    4.60
   3   5   1   40.90    2.80
  -4  -5  -1    2.50    1.00
  -4  -5  -1    3.20    1.60
  -4  -5  -1    5.10    1.80
  -4  -5  -1    7.10    1.70
   4   5   1    5.30    1.80
   4   5   1    4.00    2.20
   4   5   1    4.90    1.70
  -5  -5  -1    0.20    0.90
  -5  -5  -1    2.20    1.60
  -5  -5  -1    0.30    1.50
  -5  -5  -1    1.20    1.40
   5   5   1    1.00    1.50
   5   5   1    2.70    1.80
  -6  -5  -1   18.80    2.90
  -6  -5  -1   23.30    3.00
   6   5   1   24.00    2.90
   6   5   1   21.10    2.80
  -7  -5  -1   -2.40    1.90
  -7  -5  -1   -0.80    1.40
   7   5   1    1.00    1.90
   7  -6  -1    2.60    2.40
   7  -6  -1   -1.80    2.80
   6  -6  -1    5.70    2.90
   6  -6  -1    5.10    2.60
  -6   6   1    4.00    1.40
  -6   6   1    5.00    2.10
  -6   6   1    4.20    1.90
   5  -6  -1    3.30    2.30
   5  -6  -1    1.50    2.00
  -5   6   1    3.30    1.70
  -5   6   1    3.40    1.80
  -5   6   1    4.30    1.30
   4  -6  -1    7.40    2.10
   4  -6  -1    5.80    2.00
  -4   6   1    4.00    1.50
  -4   6   1    5.20    1.90
   3  -6  -1    0.60    1.30
   3  -6  -1    1.30    1.40
  -3   6   1    0.30    0.50
  -3   6   1    1.10    1.00
  -3   6   1    0.90    1.20
   2  -6  -1  206.28    6.30
   2  -6  -1  209.58    4.60
   2  -6  -1  204.88    5.80
   2  -6  -1  207.38    4.60
  -2   6   1  202.78    9.00
  -2   6   1  200.68    8.00
  -2   6   1  210.38    5.20
   1  -6  -1    1.60    0.80
   1  -6  -1    1.30    1.00
   1  -6  -1    1.60    0.90
   1  -6  -1    1.20    0.60
  -1   6   1    0.80    0.70
  -1   6   1    0.50    1.20
  -1   6   1    0.90    0.70
  -1   6   1    0.60    0.80
  -1   6   1    0.50    0.90
   0  -6  -1   54.29    2.50
   0  -6  -1   49.70    2.40
   0  -6  -1   47.90    2.20
   0  -6  -1   52.59    2.30
   0   6   1   49.40    2.50
   0   6   1   51.89    2.30
   0   6   1   53.09    4.50
   0   6   1   47.00    3.00
   0   6   1   49.50    2.60
   0   6   1   49.30    2.40
  -1  -6  -1   50.69    2.60
   1   6   1   49.00    4.50
   1   6   1   50.49    2.40
   1   6   1   45.50    2.90
   1   6   1   56.09    3.00
  -2  -6  -1   42.00    2.70
  -2  -6  -1   49.10    3.60
  -2  -6  -1   44.10    2.90
  -2  -6  -1   48.90    2.70
   2   6   1   52.09    5.40
   2   6   1   46.70    2.60
   2   6   1   43.60    2.90
  -3  -6  -1    1.20    1.00
  -3  -6  -1    5.50    1.60
  -3  -6  -1    2.40    1.60
   3   6   1    3.90    1.70
   3   6   1    2.20    2.10
   3   6   1    1.30    1.40
  -4  -6  -1   -0.20    1.50
  -4  -6  -1    1.20    1.10
  -4  -6  -1    3.20    1.70
   4   6   1   -3.40    1.90
   4   6   1    0.80    1.50
   4   6   1    0.70    1.70
  -5  -6  -1    0.60    1.30
  -5  -6  -1    3.70    2.00
  -5  -6  -1    1.70    1.70
  -5  -6  -1    2.80    2.00
   5   6   1    4.30    2.00
   5   6   1    5.90    1.90
  -6  -6  -1    4.90    2.00
  -6  -6  -1    1.70    1.90
  -6  -6  -1   -0.40    1.50
   6   6   1    7.00    2.30
   6   6   1    2.40    2.00
  -7  -6  -1   -2.90    1.50
  -5   7   1   12.00    2.80
   4  -7  -1    9.90    2.40
   4  -7  -1    7.50    2.30
  -4   7   1    4.70    1.90
   3  -7  -1   37.20    3.20
   3  -7  -1   29.00    2.70
  -3   7   1   24.70    1.50
  -3   7   1   31.20    4.10
   2  -7  -1    1.90    1.40
   2  -7  -1    2.40    0.90
   2  -7  -1    1.80    1.40
  -2   7   1    2.60    1.00
  -2   7   1    1.40    1.50
   1  -7  -1   21.70    2.00
   1  -7  -1   20.60    1.70
  -1   7   1   23.30    3.80
  -1   7   1   20.80    1.90
   0  -7  -1    7.80    1.30
   0  -7  -1    8.80    1.60
   0  -7  -1    7.90    1.50
   0   7   1    5.70    2.00
   0   7   1    9.20    1.70
   0   7   1    8.40    1.40
  -1  -7  -1   11.70    1.90
  -1  -7  -1   10.00    1.80
   1   7   1    6.50    2.20
   1   7   1    7.80    1.50
   1   7   1    9.30    1.80
  -2  -7  -1   10.50    2.10
  -2  -7  -1    6.10    1.70
   2   7   1    8.90    1.80
   2   7   1    8.90    2.00
   2   7   1    4.50    2.40
  -3  -7  -1    1.40    1.60
  -3  -7  -1    0.60    1.10
   3   7   1   -0.90    2.30
   3   7   1    0.90    1.50
   3   7   1    2.00    1.80
  -4  -7  -1   -0.60    1.10
  -4  -7  -1    1.00    1.80
   4   7   1    1.30    1.70
   4   7   1    2.40    1.90
   4   7   1   -3.00    2.70
  -5  -7  -1    3.30    1.90
   5   7   1    3.00    2.00
   5   7   1    3.30    2.10
  -6  -7  -1    8.20    2.90
  -6  -7  -1    5.50    2.50
   6   7   1    9.30    2.50
   6   7   1   11.50    2.90
   5  -8  -1    6.20    3.00
   5  -8  -1    7.60    3.00
   4  -8  -1    1.00    2.20
   4  -8  -1   -0.40    1.90
   3  -8  -1   25.80    3.10
   3  -8  -1   24.90    2.80
  -3   8   1   27.30    4.40
   2  -8  -1   43.40    3.20
   2  -8  -1   39.50    2.10
   2  -8  -1   36.00    2.90
  -2   8   1   42.70    5.00
  -2   8   1   39.30    2.40
   1  -8  -1   15.80    2.00
   1  -8  -1   15.50    2.00
   1  -8  -1   14.50    2.30
  -1   8   1   18.10    4.20
  -1   8   1   19.20    2.10
   0  -8  -1   34.50    2.70
   0   8   1   28.80    4.90
   0   8   1   32.70    2.80
  -1  -8  -1    0.30    1.30
   1   8   1    0.50    1.40
   1   8   1   -2.50    2.10
  -2  -8  -1    0.20    1.60
  -2  -8  -1    0.40    1.70
   2   8   1   -3.00    2.50
   2   8   1    1.80    1.80
   2   8   1   -0.20    1.20
  -3  -8  -1    0.90    1.70
  -3  -8  -1   -0.80    1.70
   3   8   1    0.60    1.70
   3   8   1    0.60    1.70
  -4  -8  -1    6.00    2.40
  -4  -8  -1    5.90    2.20
   4   8   1    8.10    2.40
   4   8   1    6.50    2.10
  -5  -8  -1   -0.30    2.10
  -5  -8  -1    0.80    2.00
   5   8   1    2.60    1.90
   5   8   1    2.20    2.30
   4  -9  -1    9.00    2.70
   4  -9  -1    6.50    2.70
   3  -9  -1    6.80    2.40
   3  -9  -1    1.50    1.80
  -3   9   1    2.70    2.10
   2  -9  -1    4.20    2.10
   2  -9  -1    6.20    2.10
  -2   9   1    2.20    2.00
  -2   9   1    4.00    1.40
   1  -9  -1    2.40    1.50
   1  -9  -1    3.90    2.10
  -1   9   1   -0.20    2.10
  -1   9   1    4.00    1.60
   0  -9  -1    5.40    1.80
   0   9   1    0.90    2.50
   0   9   1    8.10    2.00
  -1  -9  -1   -1.00    1.70
   1   9   1   -0.20    1.70
   1   9   1   -4.60    2.50
  -2  -9  -1    1.40    1.90
   2   9   1   -4.40    3.10
   2   9   1    4.70    2.20
  -4  -9  -1   -3.70    1.80
  -4  -9  -1    0.10    2.10
   4   9   1    1.70    2.40
   4   9   1    0.60    1.80
  -5  -9  -1   -0.50    2.30
   3 -10  -1   19.40    3.20
   3 -10  -1   14.80    3.00
   2 -10  -1    0.70    2.00
  -2  10   1   -3.70    2.20
   1 -10  -1    5.60    2.30
   1 -10  -1    3.40    1.70
  -1  10   1    4.40    1.80
   0 -10  -1    5.30    2.10
   0  10   1    7.20    2.20
  -1 -10  -1   -2.40    1.70
   1  10   1    0.60    1.80
   1 -11  -1    1.00    2.40
   0 -11  -1    0.50    2.30
   2  10  -2   85.89    6.00
   0 -10   2    0.30    1.90
  -1  10  -2   -0.10    1.50
   1 -10   2    0.40    1.60
   1 -10   2    1.40    2.30
   2 -10   2    0.60    2.20
   3 -10   2    2.70    2.40
   4   9  -2    1.70    2.00
   3   9  -2    2.10    2.10
  -3  -9   2    3.60    2.50
  -1  -9   2    1.80    1.90
   0  -9   2    1.70    1.80
  -1   9  -2    3.00    1.60
   1  -9   2    2.20    1.60
   1  -9   2    3.90    2.30
  -2   9  -2   -0.90    1.20
   2  -9   2    0.30    2.00
   2  -9   2   -0.80    1.10
   3  -9   2   -0.80    2.10
   3  -9   2    0.90    2.10
   4  -9   2   15.70    3.40
   4  -9   2   10.00    2.80
   5   8  -2    0.90    2.40
   5   8  -2    1.50    2.20
  -5  -8   2   -0.90    2.10
  -5  -8   2    0.10    2.40
   4   8  -2    9.60    2.40
   4   8  -2   11.10    2.90
  -4  -8   2    7.60    2.50
  -4  -8   2    7.70    2.50
   3   8  -2    1.10    1.60
   3   8  -2   -0.80    1.80
  -3  -8   2   -1.20    1.30
  -3  -8   2   -0.90    1.70
  -3  -8   2   -1.90    1.50
   2   8  -2   72.39    7.80
   2   8  -2   81.69    4.00
   2   8  -2   89.09    4.70
  -2  -8   2   87.19    4.30
  -2  -8   2   92.19    4.70
   1   8  -2    6.90    2.10
   1   8  -2    0.50    2.80
  -1  -8   2    8.30    1.90
   0   8  -2    2.70    1.40
   0   8  -2    0.00    2.20
   0   8  -2    1.10    1.40
   0  -8   2    2.70    1.70
  -1   8  -2    0.60    1.30
  -1   8  -2    2.50    1.50
  -1   8  -2   -0.80    1.90
   1  -8   2    1.70    1.40
  -2   8  -2   -0.20    1.10
  -2   8  -2   -1.20    1.50
  -2   8  -2    2.20    1.30
   2  -8   2    1.10    1.60
   2  -8   2   -1.60    1.30
   2  -8   2   -0.20    1.00
  -3   8  -2   16.10    4.30
   3  -8   2    2.50    1.90
   3  -8   2    0.10    1.80
   4  -8   2   -0.20    2.00
   4  -8   2    0.90    1.90
   5  -8   2    3.50    2.60
   5  -8   2    3.50    2.40
   6   7  -2    0.40    2.20
  -6  -7   2   -0.40    2.20
   5   7  -2    6.20    2.30
   5   7  -2    6.50    2.50
  -5  -7   2    5.10    2.30
  -5  -7   2    6.80    2.50
   4   7  -2   11.90    2.40
   4   7  -2   14.80    3.00
   4   7  -2    4.30    3.30
  -4  -7   2   10.60    2.60
  -4  -7   2   13.00    2.70
   3   7  -2   26.00    6.00
   3   7  -2   37.50    3.30
   3   7  -2   36.00    3.00
  -3  -7   2   34.90    3.10
  -3  -7   2   35.20    3.30
  -3  -7   2   27.10    4.30
   2   7  -2   20.70    2.60
   2   7  -2   20.40    2.50
  -2  -7   2   25.20    2.90
  -2  -7   2   21.90    2.50
   1   7  -2    1.60    1.30
   1   7  -2   -1.40    2.00
   1   7  -2    1.80    1.10
   1   7  -2    1.60    1.40
  -1  -7   2    1.40    1.50
  -1  -7   2    0.60    1.30
   0   7  -2   -1.10    1.60
   0   7  -2    0.20    1.00
   0   7  -2    0.50    1.30
   0   7  -2   -0.90    0.90
   0  -7   2   -0.90    1.10
   0  -7   2   -0.20    1.20
  -1   7  -2    2.80    1.60
  -1   7  -2    6.40    1.50
  -1   7  -2    1.70    1.20
   1  -7   2    5.30    1.30
   1  -7   2    3.60    1.30
  -2   7  -2   18.90    3.50
  -2   7  -2   18.40    1.80
  -2   7  -2   24.20    4.30
   2  -7   2   19.00    2.00
   2  -7   2   18.10    1.70
   2  -7   2   17.30    2.30
  -3   7  -2   16.20    3.30
  -3   7  -2   12.70    1.40
   3  -7   2   14.20    2.40
   3  -7   2   12.40    2.30
   4  -7   2   12.40    2.50
   4  -7   2   11.50    2.50
   5  -7   2   28.60    3.50
   5  -7   2   30.40    3.50
   6  -7   2    3.10    2.60
   6  -7   2   -1.30    2.30
   6   6  -2    1.20    1.90
   6   6  -2    0.80    1.90
  -6  -6   2   -0.30    1.80
  -6  -6   2   -0.70    1.90
   5   6  -2    9.60    2.30
   5   6  -2    6.90    2.20
  -5  -6   2    9.60    2.60
  -5  -6   2    9.50    2.30
   4   6  -2    9.20    2.00
   4   6  -2    4.20    2.60
   4   6  -2    9.80    2.30
  -4  -6   2    9.10    2.10
  -4  -6   2    8.50    2.20
   3   6  -2   34.80    3.50
   3   6  -2   26.70    2.50
   3   6  -2   22.90    4.60
   3   6  -2   34.10    3.00
  -3  -6   2   31.70    2.90
  -3  -6   2   29.30    2.70
  -3  -6   2   27.10    3.90
   2   6  -2   82.89    4.00
   2   6  -2   84.89    5.50
   2   6  -2   80.19    3.50
   2   6  -2   75.49    5.80
  -2  -6   2   77.69    3.60
  -2  -6   2   79.29    5.10
  -2  -6   2   79.99    3.90
   1   6  -2   39.70    4.30
   1   6  -2   36.20    4.30
   1   6  -2   35.00    2.20
   1   6  -2   36.10    2.70
  -1  -6   2   38.50    2.70
  -1  -6   2   38.50    2.60
   0   6  -2   15.70    1.70
   0   6  -2   15.60    3.30
   0   6  -2   15.30    1.80
   0   6  -2   15.90    1.70
   0   6  -2   15.40    3.30
   0  -6   2   15.00    1.90
   0  -6   2   14.90    1.60
   0  -6   2   14.10    1.80
   0  -6   2   13.90    1.30
  -1   6  -2    1.60    1.00
  -1   6  -2    0.80    1.00
  -1   6  -2    2.30    0.80
  -1   6  -2    1.10    1.30
   1  -6   2    3.00    0.90
   1  -6   2    1.80    0.90
   1  -6   2    4.10    1.10
   1  -6   2    2.90    1.10
  -2   6  -2    1.10    1.10
  -2   6  -2    1.30    1.00
  -2   6  -2   -0.20    0.80
  -2   6  -2    0.00    0.60
   2  -6   2    1.00    0.80
   2  -6   2    1.80    1.10
   2  -6   2    0.40    1.30
  -3   6  -2    1.30    1.20
  -3   6  -2    2.10    1.20
  -3   6  -2    1.80    0.70
  -3   6  -2    1.50    0.90
   3  -6   2    1.80    1.30
   3  -6   2    1.90    0.50
   3  -6   2   -0.40    1.40
  -4   6  -2    1.70    1.30
  -4   6  -2    2.60    1.30
   4  -6   2    4.80    1.90
   4  -6   2    3.30    1.80
  -5   6  -2    3.20    1.60
  -5   6  -2    3.10    1.50
   5  -6   2    4.20    2.20
   5  -6   2    4.60    2.20
  -6   6  -2   35.00    4.40
  -6   6  -2   44.80    4.90
   7  -6   2    0.60    2.60
   7  -6   2   -0.60    2.50
  -7  -5   2    0.00    1.80
  -7  -5   2   -1.30    1.60
   6   5  -2   10.40    2.40
   6   5  -2    9.10    2.30
  -6  -5   2   11.80    2.60
  -6  -5   2   12.40    2.90
   5   5  -2    6.00    1.90
   5   5  -2   10.60    2.40
  -5  -5   2    6.50    2.10
  -5  -5   2    3.80    1.60
  -5  -5   2    7.80    2.00
   4   5  -2  177.58    5.80
   4   5  -2  166.98    6.90
   4   5  -2  190.58    6.50
  -4  -5   2  174.28    5.80
  -4  -5   2  183.18    6.50
  -4  -5   2  172.78    8.30
   3   5  -2   43.00    2.80
   3   5  -2   38.90    4.60
   3   5  -2   43.90    3.00
   3   5  -2   45.00    3.50
  -3  -5   2   41.10    3.00
  -3  -5   2   43.40    2.80
  -3  -5   2   45.00    4.10
   2   5  -2    1.80    0.80
   2   5  -2    6.10    1.30
   2   5  -2    6.20    1.50
   2   5  -2    4.80    1.80
  -2  -5   2    2.80    0.70
  -2  -5   2    6.10    1.50
  -2  -5   2    5.70    1.40
  -2  -5   2    3.70    1.10
   1   5  -2   23.40    1.80
   1   5  -2   22.70    1.90
   1   5  -2   20.40    2.90
   1   5  -2   24.10    3.20
  -1  -5   2   23.50    1.90
  -1  -5   2   28.30    2.90
  -1  -5   2   24.40    1.90
   0   5  -2    5.70    1.10
   0   5  -2    4.80    1.10
   0   5  -2    5.60    1.20
   0   5  -2    3.20    1.30
   0  -5   2    5.50    1.20
   0  -5   2    5.30    1.00
   0  -5   2    5.90    0.90
   0  -5   2    6.00    1.20
  -1   5  -2    0.70    0.70
  -1   5  -2    1.00    0.40
  -1   5  -2    1.40    0.70
  -1   5  -2    0.30    0.60
  -1   5  -2   -0.10    0.90
  -1   5  -2    1.10    0.70
   1  -5   2    2.30    0.80
   1  -5   2    1.70    0.70
   1  -5   2    1.50    0.70
   1  -5   2    1.40    0.80
  -2   5  -2    3.90    1.20
  -2   5  -2    3.70    0.80
  -2   5  -2    7.50    1.10
  -2   5  -2    5.30    0.70
   2  -5   2    5.20    1.40
   2  -5   2    7.60    1.10
   2  -5   2    6.40    1.30
   2  -5   2    7.20    0.50
   2  -5   2    5.90    0.50
  -3   5  -2   89.79    2.60
  -3   5  -2   96.29    6.60
  -3   5  -2   89.79    5.00
  -3   5  -2   79.89    2.50
   3  -5   2   83.19    2.00
   3  -5   2   89.59    3.80
   3  -5   2   90.39    3.90
   3  -5   2   84.19    2.00
  -4   5  -2   41.20    1.30
  -4   5  -2   53.59    5.20
  -4   5  -2   45.30    3.80
   4  -5   2   45.90    3.10
   4  -5   2   48.20    3.20
  -5   5  -2   45.20    4.20
  -5   5  -2   50.59    4.90
  -5   5  -2   50.19    5.30
   5  -5   2   44.60    3.50
   5  -5   2   50.09    3.70
  -6   5  -2    2.50    1.60
   6  -5   2    3.20    2.30
   6  -5   2    2.90    2.30
   7  -5   2    1.50    2.50
   7  -5   2    0.30    2.60
   7   4  -2   -0.10    1.80
  -7  -4   2    0.00    1.60
  -7  -4   2   -1.90    1.60
  -7  -4   2   -0.30    2.00
   6   4  -2   -0.50    1.50
   6   4  -2    1.50    1.70
  -6  -4   2   -0.20    1.40
  -6  -4   2    2.00    1.70
  -6  -4   2   -0.40    1.40
  -6  -4   2   -1.30    1.00
   5   4  -2    8.00    1.90
   5   4  -2    7.50    1.90
  -5  -4   2    7.90    2.10
  -5  -4   2    7.30    1.90
   4   4  -2   10.50    1.40
   4   4  -2   19.30    2.30
  -4  -4   2   13.90    2.90
  -4  -4   2   13.20    3.20
  -4  -4   2   16.30    2.30
  -4  -4   2   15.80    2.10
   3   4  -2   60.79    2.90
   3   4  -2   63.39    4.80
   3   4  -2   56.89    3.40
   3   4  -2   62.29    3.20
  -3  -4   2   59.69    4.20
  -3  -4   2   60.49    2.90
  -3  -4   2   60.79    3.20
   2   4  -2   15.90    1.50
   2   4  -2   20.00    3.20
   2   4  -2   15.20    1.70
   2   4  -2   14.70    2.10
  -2  -4   2   15.30    1.70
  -2  -4   2   14.50    1.50
  -2  -4   2   19.40    2.50
   1   4  -2   33.00    2.00
   1   4  -2   33.10    1.90
   1   4  -2   33.70    3.20
   1   4  -2   30.90    2.80
   1   4  -2   36.10    1.90
  -1  -4   2   35.90    2.80
  -1  -4   2   35.20    1.80
  -1  -4   2   35.50    2.10
  -1  -4   2   30.90    1.70
   0   4  -2  239.58    8.60
   0   4  -2  242.18    6.10
   0   4  -2  252.27    5.60
   0   4  -2  240.28    8.20
   0   4  -2  244.48    6.10
   0  -4   2  249.68    5.60
   0  -4   2  239.58    8.50
   0  -4   2  253.07    6.10
   0  -4   2  241.08    5.60
  -1   4  -2   18.70    1.20
  -1   4  -2   20.10    1.10
  -1   4  -2   18.80    1.30
  -1   4  -2   18.90    2.10
   1  -4   2   15.80    1.30
   1  -4   2   21.50    1.30
   1  -4   2   20.60    1.30
   1  -4   2   18.40    1.80
   1  -4   2   20.10    1.20
  -2   4  -2   21.70    3.00
  -2   4  -2   22.90    1.30
  -2   4  -2   25.60    2.40
  -2   4  -2   21.80    1.00
  -2   4  -2   22.00    1.00
   2  -4   2   21.30    0.70
   2  -4   2   23.00    0.90
   2  -4   2   20.40    0.70
   2  -4   2   24.20    1.80
   2  -4   2   23.90    1.80
   2  -4   2   24.10    1.20
  -3   4  -2   30.20    3.70
  -3   4  -2   31.60    1.20
  -3   4  -2   32.00    2.80
  -3   4  -2   28.80    1.20
   3  -4   2   30.30    0.90
   3  -4   2   30.10    0.90
   3  -4   2   32.30    2.40
   3  -4   2   30.50    2.20
  -4   4  -2    1.90    0.40
  -4   4  -2    1.40    0.90
  -4   4  -2    1.80    0.40
   4  -4   2    1.30    1.40
   4  -4   2    1.80    1.30
  -5   4  -2    0.10    1.10
  -5   4  -2    0.70    0.80
   5  -4   2   -0.80    1.60
   5  -4   2    0.10    1.50
  -6   4  -2   29.70    4.40
  -6   4  -2   31.10    4.50
   6  -4   2   25.20    3.20
   6  -4   2   24.00    3.10
  -7   4  -2    4.50    1.70
   7  -4   2    5.10    2.80
   7  -4   2    8.70    2.80
   7   3  -2   -0.30    1.70
  -7  -3   2   -0.40    1.40
  -7  -3   2    1.50    1.80
  -7  -3   2   -1.60    1.70
   6   3  -2   19.60    2.50
   6   3  -2   16.70    2.30
  -6  -3   2   15.30    3.60
  -6  -3   2   15.90    2.50
  -6  -3   2   17.60    2.40
  -6  -3   2   19.60    4.20
   5   3  -2  283.87    8.10
   5   3  -2  284.27    7.60
  -5  -3   2  273.97   11.40
  -5  -3   2  290.67   11.60
  -5  -3   2  290.67    7.60
  -5  -3   2  272.57    8.30
   4   3  -2  228.58    6.20
   4   3  -2  243.88    6.90
  -4  -3   2  230.78    9.40
  -4  -3   2  231.58    6.30
  -4  -3   2  236.58    9.40
   3   3  -2    9.60    1.50
   3   3  -2    6.90    1.10
   3   3  -2    6.50    1.30
  -3  -3   2    9.30    2.20
  -3  -3   2    8.90    2.10
  -3  -3   2    6.90    1.30
   2   3  -2   19.60    1.80
   2   3  -2   26.10    2.90
   2   3  -2   21.80    1.50
   2   3  -2   20.90    1.60
  -2  -3   2   24.20    2.20
  -2  -3   2   20.90    1.50
  -2  -3   2   21.30    1.70
   1   3  -2   17.30    1.30
   1   3  -2   18.70    1.80
   1   3  -2   16.30    1.20
   1   3  -2   17.90    1.30
   1   3  -2   14.40    1.70
   1   3  -2   16.80    1.80
   1   3  -2   17.40    2.00
   1   3  -2   14.90    1.20
  -1  -3   2   17.20    1.30
  -1  -3   2   19.30    2.00
  -1  -3   2   16.20    1.40
  -1  -3   2   17.70    1.90
  -1  -3   2   16.50    1.20
  -1  -3   2   15.90    1.20
   0   3  -2   45.50    2.60
   0   3  -2   47.20    2.60
   0   3  -2   41.60    1.80
   0   3  -2   39.70    3.00
   0   3  -2   40.10    1.50
   0   3  -2   45.20    1.60
   0  -3   2   43.90    1.70
   0  -3   2   44.20    2.50
   0  -3   2   43.20    1.60
   0  -3   2   44.20    1.70
   0  -3   2   47.60    1.90
  -1   3  -2    2.90    0.50
  -1   3  -2    2.70    0.50
  -1   3  -2    2.40    0.50
  -1   3  -2    3.00    0.60
  -1   3  -2    2.00    0.40
  -1   3  -2    1.80    0.60
   1  -3   2    3.00    0.50
   1  -3   2    2.90    0.50
   1  -3   2    3.70    0.70
   1  -3   2    3.10    0.60
   1  -3   2    2.30    0.70
  -2   3  -2  105.99    2.30
  -2   3  -2  105.19    4.40
  -2   3  -2  103.39    2.70
  -2   3  -2  100.89    5.40
  -2   3  -2  104.69    2.30
  -2   3  -2  108.09    2.70
   2  -3   2  104.29    3.50
   2  -3   2  107.99    2.50
   2  -3   2  103.59    3.30
   2  -3   2  101.69    2.40
  -3   3  -2    1.10    0.60
   3  -3   2    1.30    1.00
   3  -3   2    2.30    1.00
  -4   3  -2  314.77    6.90
  -4   3  -2  342.57   13.10
  -4   3  -2  338.77   12.50
  -4   3  -2  334.77    6.90
   4  -3   2  312.67    8.80
   4  -3   2  319.67    8.20
  -5   3  -2    0.60    1.20
  -5   3  -2    1.10    0.60
  -5   3  -2    1.20    0.80
   5  -3   2    0.60    1.50
   5  -3   2    1.30    1.50
  -6   3  -2    2.10    1.50
  -6   3  -2    0.60    0.90
  -6   3  -2    2.00    1.30
   6  -3   2    3.30    2.00
   6  -3   2    4.30    2.10
  -7   3  -2    1.60    1.30
  -7   3  -2    1.70    1.70
   7  -3   2    2.40    2.40
   7  -3   2    0.70    2.40
   8  -3   2    0.60    2.50
   7   2  -2    1.60    1.60
  -7  -2   2    1.80    1.60
  -7  -2   2    1.10    1.50
   6   2  -2    1.80    1.30
   6   2  -2    1.30    1.30
  -6  -2   2    0.30    1.30
  -6  -2   2    0.10    1.50
  -6  -2   2    1.30    1.30
   5   2  -2   16.40    2.00
   5   2  -2   17.40    1.70
   5   2  -2   18.00    2.10
  -5  -2   2   15.90    2.00
  -5  -2   2   14.60    3.00
   4   2  -2   43.80    2.30
   4   2  -2   41.30    2.00
   4   2  -2   43.00    2.40
  -4  -2   2   43.40    3.50
  -4  -2   2   47.40    2.40
  -4  -2   2   44.60    3.80
   3   2  -2    1.60    0.80
   3   2  -2    2.00    0.90
  -3  -2   2    1.80    0.80
  -3  -2   2    1.30    0.70
  -3  -2   2    0.80    0.70
   2   2  -2  256.97    8.70
   2   2  -2  257.97    8.60
   2   2  -2  260.77    6.40
   2   2  -2  255.27    8.60
   2   2  -2  270.17    6.50
   2   2  -2  260.37    5.90
   2   2  -2  274.17    6.00
  -2  -2   2  265.47    5.90
  -2  -2   2  271.47    6.00
  -2  -2   2  271.17    8.80
  -2  -2   2  275.67    6.50
  -2  -2   2  262.17    8.60
  -2  -2   2  258.67    9.00
   1   2  -2  275.27    6.30
   1   2  -2  268.17    6.30
   1   2  -2  272.07    8.70
   1   2  -2  272.27    8.70
   1   2  -2  262.07    9.10
   1   2  -2  271.67    8.30
   1   2  -2  279.17    5.80
   1   2  -2  269.27    5.80
  -1  -2   2  274.87    5.80
  -1  -2   2  274.17    8.40
  -1  -2   2  274.27    8.70
  -1  -2   2  270.27    5.80
  -1  -2   2  267.17    6.30
  -1  -2   2  285.47    6.40
   0   2  -2  153.88    3.80
   0   2  -2  156.68    4.50
   0   2  -2  156.78    3.60
   0   2  -2  155.28    3.80
   0   2  -2  155.28    6.10
   0   2  -2  154.38    5.10
   0   2  -2  158.88    5.20
   0   2  -2  155.68    3.50
   0   2  -2  160.78    3.50
   0  -2   2  159.78    3.80
   0  -2   2  160.88    3.50
   0  -2   2  156.68    3.50
   0  -2   2  155.38    3.80
   0  -2   2  156.58    5.20
  -1   2  -2   78.59    3.10
  -1   2  -2   88.99    2.00
  -1   2  -2   88.29    2.00
  -1   2  -2   84.69    4.20
  -1   2  -2   87.19    2.30
  -1   2  -2   85.49    2.20
   1  -2   2   88.19    2.20
   1  -2   2   79.39    2.20
   1  -2   2   87.89    2.10
   1  -2   2   87.09    2.10
   1  -2   2   90.49    2.60
  -2   2  -2  155.58    6.50
  -2   2  -2  156.98    3.10
  -2   2  -2  156.88    3.50
  -2   2  -2  154.68    3.50
  -2   2  -2  158.98    3.10
   2  -2   2  145.99    3.90
   2  -2   2  156.28    3.20
   2  -2   2  138.09    3.10
   2  -2   2  152.98    4.20
   2  -2   2  153.58    3.10
  -3   2  -2  157.88    3.70
  -3   2  -2  168.28    3.80
  -3   2  -2  161.38    3.30
  -3   2  -2  168.78    3.30
  -3   2  -2  164.98    7.10
  -3   2  -2  160.88    3.80
  -3   2  -2  164.18    6.90
   3  -2   2  164.88    3.40
   3  -2   2  167.48    3.50
   3  -2   2  167.58    4.90
   3  -2   2  166.78    4.60
  -4   2  -2    6.80    0.90
  -4   2  -2    5.70    0.50
  -4   2  -2    6.90    0.50
  -4   2  -2    8.00    2.10
  -4   2  -2    6.90    0.80
  -4   2  -2    7.40    0.90
   4  -2   2    7.50    0.80
   4  -2   2    7.10    0.70
   4  -2   2    7.50    1.50
   4  -2   2    5.90    1.50
  -5   2  -2    3.70    1.50
  -5   2  -2    6.30    1.10
  -5   2  -2    4.40    0.90
   5  -2   2    6.80    0.90
   5  -2   2    7.40    1.90
   5  -2   2    6.70    0.80
   5  -2   2    9.40    1.90
  -6   2  -2   -0.70    0.60
  -6   2  -2    0.10    0.70
  -6   2  -2   -0.60    1.30
  -6   2  -2    0.30    1.00
   6  -2   2   -1.10    0.60
   6  -2   2    0.30    1.60
   6  -2   2    1.50    1.80
  -7   2  -2   21.00    4.50
   7  -2   2   17.80    3.00
  -8   2  -2    0.20    2.20
   8   1  -2   -1.40    2.30
   8   1  -2    1.50    1.60
  -8  -1   2    2.40    2.00
   7   1  -2    8.30    2.20
   7   1  -2    8.60    1.70
  -7  -1   2    4.70    1.90
  -7  -1   2    7.30    2.00
   6   1  -2   15.70    1.90
   6   1  -2   16.20    2.10
  -6  -1   2   16.30    2.20
   5   1  -2  592.54   12.40
   5   1  -2  597.94   13.20
   5   1  -2  564.24   12.30
   5   1  -2  583.44   13.40
  -5  -1   2  596.34   19.20
  -5  -1   2  610.74   19.60
  -5  -1   2  581.14   12.30
   4   1  -2   24.90    1.60
   4   1  -2   23.40    1.70
   4   1  -2   25.50    1.70
   4   1  -2   25.30    1.70
  -4  -1   2   22.80    1.60
  -4  -1   2   26.50    2.90
  -4  -1   2   22.60    2.80
  -4  -1   2   25.20    1.60
   3   1  -2    7.80    1.10
   3   1  -2   10.30    1.40
   3   1  -2   10.80    1.00
   3   1  -2    7.80    1.10
   3   1  -2    8.50    1.00
  -3  -1   2   11.90    1.10
  -3  -1   2   11.40    1.80
  -3  -1   2    9.60    1.00
  -3  -1   2   12.80    1.80
   2   1  -2  214.18    7.20
   2   1  -2  226.88    4.90
   2   1  -2  222.98    5.30
   2   1  -2  228.48    5.30
   2   1  -2  220.48    4.90
   2   1  -2  224.78    7.30
   2   1  -2  222.48    6.80
  -2  -1   2  223.68    4.90
  -2  -1   2  211.98    7.40
  -2  -1   2  223.48    4.90
  -2  -1   2  224.58    5.30
  -2  -1   2  224.58    7.60
  -2  -1   2  221.08    7.20
   1   1  -2   67.79    2.60
   1   1  -2   63.19    2.00
   1   1  -2   74.29    2.80
   1   1  -2   62.69    2.60
   1   1  -2   65.59    1.90
   1   1  -2   69.59    1.90
   1   1  -2   56.39    1.80
  -1  -1   2   66.39    2.90
  -1  -1   2   66.69    1.90
  -1  -1   2   60.99    1.90
  -1  -1   2   68.79    2.80
  -1  -1   2   61.89    1.90
  -1  -1   2   54.39    2.50
  -1  -1   2   57.89    2.50
  -1  -1   2   72.49    2.10
   0   1  -2    6.10    0.50
   0   1  -2    6.00    0.50
   0   1  -2    7.60    0.90
   0   1  -2    6.20    0.50
   0   1  -2    6.10    0.50
   0   1  -2    6.10    0.90
   0  -1   2    7.40    0.50
   0  -1   2    6.10    0.50
   0  -1   2    5.70    0.60
   0  -1   2    7.30    0.60
   0  -1   2    5.20    0.80
   0  -1   2    6.20    0.50
  -1   1  -2  249.28    5.10
  -1   1  -2  239.98    8.40
  -1   1  -2  254.97    4.80
  -1   1  -2  242.18    5.10
  -1   1  -2  256.37    4.80
   1  -1   2  250.57    5.10
   1  -1   2  253.27    4.80
   1  -1   2  233.68    8.40
   1  -1   2  251.77    4.80
   1  -1   2  246.98    5.00
   1  -1   2  225.58    5.10
  -2   1  -2  135.29    5.50
  -2   1  -2  137.59    5.40
  -2   1  -2  145.69    3.00
  -2   1  -2  144.59    3.00
  -2   1  -2  142.79    3.20
  -2   1  -2  136.59    3.20
  -2   1  -2  139.29    3.30
   2  -1   2  139.69    3.80
   2  -1   2  135.29    3.00
   2  -1   2  146.09    3.60
   2  -1   2  144.79    3.10
   2  -1   2  142.29    3.00
  -3   1  -2  715.33   14.20
  -3   1  -2  717.43   13.00
  -3   1  -2  695.23   14.20
  -3   1  -2  688.73   21.20
  -3   1  -2  701.83   13.00
  -3   1  -2  715.43   22.30
   3  -1   2  704.03   13.00
   3  -1   2  703.63   13.10
   3  -1   2  680.43   13.60
   3  -1   2  707.33   14.20
   3  -1   2  681.53   15.00
   3  -1   2  696.83   13.80
  -4   1  -2  234.58    5.70
  -4   1  -2  243.28    9.00
  -4   1  -2  234.08    5.70
  -4   1  -2  238.58    9.40
   4  -1   2  239.98    5.20
   4  -1   2  232.68    5.10
   4  -1   2  230.28    6.50
   4  -1   2  234.28    5.20
   4  -1   2  240.98    6.30
  -5   1  -2   20.00    2.50
  -5   1  -2   23.00    1.70
  -5   1  -2   22.30    3.60
  -5   1  -2   21.40    3.10
  -5   1  -2   19.60    1.30
   5  -1   2   24.10    2.40
   5  -1   2   19.20    1.40
   5  -1   2   18.90    1.30
   5  -1   2   19.10    1.10
   5  -1   2   23.20    2.30
  -6   1  -2   16.50    3.70
  -6   1  -2   21.20    3.60
  -6   1  -2   20.90    1.80
   6  -1   2   15.90    1.60
   6  -1   2   16.80    2.40
  -7   1  -2    3.70    2.10
  -7   1  -2    4.40    1.70
  -7   1  -2    9.40    1.60
   7  -1   2    7.90    2.40
   7  -1   2    8.40    1.30
   8   0  -2    5.20    1.50
   8   0  -2    3.80    2.60
  -8   0   2    2.10    1.80
   7   0  -2    2.80    1.20
   7   0  -2    2.40    2.00
  -7   0   2   -2.80    1.50
  -7   0   2    1.50    1.40
  -7   0   2    0.50    1.50
   6   0  -2   30.00    2.10
   6   0  -2   31.20    2.60
  -6   0   2   25.10    4.10
  -6   0   2   36.80    2.50
  -6   0   2   34.60    4.30
   5   0  -2   27.60    1.70
   5   0  -2   32.10    2.40
   5   0  -2   35.40    2.00
   5   0  -2   29.90    1.70
  -5   0   2   27.20    3.60
  -5   0   2   33.40    3.90
  -5   0   2   32.50    2.20
  -5   0   2   31.00    1.80
   4   0  -2   78.69    2.60
   4   0  -2   79.79    2.70
   4   0  -2   79.39    2.60
   4   0  -2   79.39    3.10
  -4   0   2   82.49    4.40
  -4   0   2   78.49    2.80
  -4   0   2   78.89    4.70
  -4   0   2   85.49    2.60
  -4   0   2   75.69    2.90
  -4   0   2   71.99    2.90
   3   0  -2  130.09    3.90
   3   0  -2  138.09    3.60
   3   0  -2  141.19    3.40
   3   0  -2  137.59    3.40
   3   0  -2  140.19    3.60
   3   0  -2  136.19    5.30
  -3   0   2  137.39    3.40
  -3   0   2  141.79    5.40
  -3   0   2  134.19    3.70
  -3   0   2  137.79    5.70
  -2   0   2   29.30    1.10
  -2   0   2   25.60    1.20
  -2   0   2   23.10    1.10
  -2   0   2   29.70    1.70
  -2   0   2   24.80    1.00
  -2   0   2   30.20    1.30
  -2   0   2   30.70    2.00
   1   0  -2  837.72   15.90
   1   0  -2  840.82   22.70
   1   0  -2  862.71   24.70
   1   0  -2  853.41   16.80
   1   0  -2  858.41   15.60
   1   0  -2  858.91   16.80
  -1   0   2  820.32   26.90
  -1   0   2  845.22   24.60
  -1   0   2  863.71   17.30
  -1   0   2  869.81   16.90
  -1   0   2  878.71   17.60
  -1   0   2  872.61   16.40
  -1   0   2  904.51   22.80
  -1   0   2  872.11   16.90
   0   0  -2 1095.49   34.80
   0   0  -2 1042.30   22.40
   0   0  -2 1040.40   29.40
   0   0  -2 1125.69   21.00
   0   0  -2 1064.29   22.40
   0   0  -2 1027.30   20.70
   0   0  -2 1081.79   32.30
   0   0   2 1048.80   29.20
   0   0   2 1145.29   21.20
   0   0   2 1074.69   22.20
   0   0   2 1088.09   34.50
   0   0   2 1012.20   31.60
   0   0   2 1104.19   22.60
   0   0   2 1094.89   20.70
  -1   0  -2  345.77    7.20
  -1   0  -2  344.87   10.40
  -1   0  -2  360.66   11.10
  -1   0  -2  355.56    6.70
  -1   0  -2  353.16    9.70
  -1   0  -2  338.27    7.00
  -1   0  -2  350.06    6.70
  -1   0  -2  366.86    7.20
   1   0   2  354.86   10.40
   1   0   2  356.66    6.70
   1   0   2  347.17    7.20
   1   0   2  360.96    7.20
   1   0   2  343.37    6.70
   1   0   2  359.76   11.10
  -2   0  -2  276.77    8.30
  -2   0  -2  279.87    5.50
  -2   0  -2  279.97    9.00
  -2   0  -2  270.67    6.00
  -2   0  -2  291.77    9.10
  -2   0  -2  275.67    5.50
  -2   0  -2  265.77    5.90
   2   0   2  269.77    5.90
   2   0   2  274.57    5.90
   2   0   2  277.57    5.50
   2   0   2  265.57    5.50
   2   0   2  265.67    8.90
   2   0   2  262.27    9.00
  -3   0  -2  149.39    3.90
  -3   0  -2  156.48    5.80
  -3   0  -2  149.69    5.70
  -3   0  -2  156.08    3.60
  -3   0  -2  153.28    3.60
  -3   0  -2  145.79    3.90
  -3   0  -2  148.29    6.30
   3   0   2  157.48    3.80
   3   0   2  149.99    4.20
   3   0   2  149.49    4.10
   3   0   2  149.09    3.60
   3   0   2  154.08    3.70
   3   0   2  151.68    3.90
  -4   0  -2   18.00    2.50
  -4   0  -2   18.80    1.90
  -4   0  -2   18.00    2.60
  -4   0  -2   17.10    1.40
  -4   0  -2   18.30    1.30
   4   0   2   18.30    1.30
   4   0   2   18.80    1.30
   4   0   2   18.20    1.60
   4   0   2   18.20    1.40
   4   0   2   19.00    1.60
  -5   0  -2    7.50    1.20
  -5   0  -2    9.30    1.30
  -5   0  -2    8.90    1.50
  -5   0  -2    6.50    1.50
  -5   0  -2    4.60    1.60
   5   0   2    9.60    1.30
   5   0   2    8.60    1.10
   5   0   2    7.50    1.20
   5   0   2    9.80    1.70
  -6   0  -2   31.50    4.20
  -6   0  -2   29.40    2.30
  -6   0  -2   25.80    4.10
   6   0   2   27.40    2.60
   6   0   2   27.80    2.00
  -7   0  -2   -0.50    1.70
  -7   0  -2    2.80    1.30
  -7   0  -2    1.30    1.30
   7   0   2    2.30    1.20
   8   0   2    0.90    1.20
   8  -1  -2   -2.40    2.00
   7  -1  -2   12.70    2.60
   7  -1  -2    9.90    1.50
  -7   1   2    5.60    2.00
  -7   1   2   10.60    1.90
   6  -1  -2  126.79    3.70
   6  -1  -2  124.79    5.20
  -6   1   2  122.89    4.30
  -6   1   2  127.69    7.20
  -6   1   2  136.39    7.90
   5  -1  -2  215.18    5.00
   5  -1  -2  202.08    5.10
   5  -1  -2  205.28    6.50
  -5   1   2  208.58    9.10
  -5   1   2  216.48    8.80
  -5   1   2  201.48    7.60
  -5   1   2  206.78    5.50
   4  -1  -2    5.50    0.90
   4  -1  -2    7.00    1.40
   4  -1  -2    4.70    0.60
   4  -1  -2    5.60    0.90
  -4   1   2    5.90    0.80
  -4   1   2    6.30    0.90
  -4   1   2    3.60    1.00
  -4   1   2    3.00    1.00
  -4   1   2    5.70    1.00
   3  -1  -2    5.30    1.10
   3  -1  -2    4.00    0.60
   3  -1  -2    3.60    0.50
   3  -1  -2    5.10    0.60
   3  -1  -2    3.20    0.90
  -3   1   2    6.30    1.30
  -3   1   2    6.30    0.80
  -3   1   2    5.40    0.70
  -3   1   2    3.80    0.60
  -3   1   2    4.40    0.70
   2  -1  -2  227.08    4.40
   2  -1  -2  225.58    4.60
   2  -1  -2  217.58    5.40
  -2   1   2  217.88    4.80
  -2   1   2  220.98    7.10
  -2   1   2  226.98    4.40
  -2   1   2  217.78    7.20
  -2   1   2  226.38    4.40
  -2   1   2  226.08    4.80
  -2   1   2  221.08    4.80
   1  -1  -2  165.08    3.20
   1  -1  -2  160.08    3.40
  -1   1   2  154.48    4.90
  -1   1   2  165.28    3.20
  -1   1   2  173.58    3.50
  -1   1   2  165.78    3.20
  -1   1   2  164.38    3.50
  -1   1   2  152.38    5.60
   0  -1  -2    4.30    0.70
   0  -1  -2    3.40    0.60
   0  -1  -2    4.10    0.40
   0  -1  -2    3.60    0.30
   0  -1  -2    3.90    0.60
   0  -1  -2    3.90    0.40
   0  -1  -2    3.70    0.30
   0  -1  -2    3.50    0.30
   0  -1  -2    3.80    0.40
   0   1   2    3.40    0.60
   0   1   2    3.60    0.40
   0   1   2    4.40    0.30
   0   1   2    4.70    0.70
   0   1   2    4.00    0.60
   0   1   2    4.00    0.40
   0   1   2    4.20    0.40
   0   1   2    3.90    0.40
  -1  -1  -2 1097.99   33.80
  -1  -1  -2 1118.19   20.50
  -1  -1  -2 1154.48   36.70
  -1  -1  -2 1124.99   21.90
  -1  -1  -2 1136.29   22.10
  -1  -1  -2 1142.79   32.50
  -1  -1  -2 1105.69   22.50
  -1  -1  -2 1111.19   31.60
   1   1   2 1154.78   20.90
   1   1   2 1172.18   22.10
   1   1   2 1126.99   36.00
   1   1   2 1183.38   20.90
   1   1   2 1097.29   31.50
   1   1   2 1102.69   22.10
   1   1   2 1097.89   33.10
  -2  -1  -2  263.17    8.40
  -2  -1  -2  258.47    5.50
  -2  -1  -2  262.47    8.60
  -2  -1  -2  262.67    5.50
  -2  -1  -2  257.97    6.00
  -2  -1  -2  259.07    6.00
  -2  -1  -2  258.77    8.20
   2   1   2  254.07    5.90
   2   1   2  259.17    8.60
   2   1   2  257.07    5.50
   2   1   2  255.57    8.20
   2   1   2  257.07    5.90
   2   1   2  265.47    8.50
   2   1   2  256.07    5.40
  -3  -1  -2 1363.86   24.70
  -3  -1  -2 1359.76   36.10
  -3  -1  -2 1293.87   36.90
  -3  -1  -2 1323.27   26.60
  -3  -1  -2 1320.37   26.70
  -3  -1  -2 1311.97   39.90
  -3  -1  -2 1359.76   38.10
   3   1   2 1356.06   24.70
   3   1   2 1275.77   40.00
   3   1   2 1349.07   26.60
   3   1   2 1327.57   24.70
  -4  -1  -2    2.60    1.20
  -4  -1  -2    2.60    0.90
  -4  -1  -2    0.80    0.70
  -4  -1  -2    2.50    0.80
   4   1   2    2.30    0.90
   4   1   2    4.50    1.10
   4   1   2    2.50    0.90
   4   1   2    2.30    0.90
  -5  -1  -2    1.60    1.00
  -5  -1  -2    2.20    1.10
  -5  -1  -2    1.90    1.00
  -5  -1  -2    1.60    1.40
  -5  -1  -2    1.50    1.00
   5   1   2    1.70    1.10
   5   1   2    4.20    1.30
   5   1   2   -0.70    0.90
   5   1   2    2.40    1.20
  -6  -1  -2   10.80    1.90
  -6  -1  -2    7.10    2.20
  -6  -1  -2   13.30    3.10
   6   1   2   11.80    1.80
  -7  -1  -2   17.20    2.30
  -7  -1  -2    5.50    2.50
  -7  -1  -2    9.60    2.20
   7   1   2   16.30    2.10
  -8  -1  -2   -3.60    2.00
   8   1   2    3.50    1.60
   8  -2  -2   -1.30    2.30
   7  -2  -2   15.60    3.00
  -7   2   2    7.00    2.00
  -7   2   2    4.60    2.10
   6  -2  -2   75.99    2.30
   6  -2  -2   77.59    4.30
  -6   2   2   74.89    2.90
  -6   2   2   74.59    5.80
  -6   2   2   82.79    6.30
   5  -2  -2   -0.30    1.30
   5  -2  -2    1.60    0.50
   5  -2  -2    1.30    0.60
  -5   2   2    1.80    0.70
  -5   2   2    0.30    1.00
  -5   2   2    1.20    1.00
   4  -2  -2   33.20    1.20
   4  -2  -2   35.80    2.30
   4  -2  -2   31.30    2.30
   4  -2  -2   33.50    1.20
  -4   2   2   31.40    2.90
  -4   2   2   31.60    0.90
  -4   2   2   32.30    1.40
  -4   2   2   31.20    1.40
  -4   2   2   30.90    3.00
  -4   2   2   32.20    0.90
   3  -2  -2  143.29    4.00
   3  -2  -2  137.89    2.80
   3  -2  -2  135.79    4.40
   3  -2  -2  141.69    2.90
  -3   2   2  137.29    3.20
  -3   2   2  136.39    3.30
  -3   2   2  142.59    3.20
  -3   2   2  140.29    5.60
  -3   2   2  140.59    2.70
  -3   2   2  139.39    2.70
  -3   2   2  140.99    5.80
   2  -2  -2  222.68    4.20
   2  -2  -2  217.48    5.70
   2  -2  -2  229.18    4.20
   2  -2  -2  234.38    5.10
  -2   2   2  229.88    4.70
  -2   2   2  226.58    4.60
  -2   2   2  222.68    7.40
  -2   2   2  225.78    4.10
  -2   2   2  228.38    4.10
   1  -2  -2   71.09    1.60
   1  -2  -2   69.09    1.60
   1  -2  -2   68.39    1.60
  -1   2   2   70.29    3.20
  -1   2   2   68.09    1.60
  -1   2   2   67.19    1.70
  -1   2   2   68.79    1.50
  -1   2   2   68.59    1.80
   0  -2  -2  851.01   16.10
   0  -2  -2  888.31   24.50
   0  -2  -2  863.81   15.70
   0  -2  -2  857.31   16.90
   0  -2  -2  816.92   23.70
   0  -2  -2  848.02   16.80
   0   2   2  868.21   15.60
   0   2   2  874.21   15.70
   0   2   2  828.32   16.90
   0   2   2  850.81   25.10
   0   2   2  823.12   23.70
   0   2   2  895.51   23.90
   0   2   2  846.42   16.80
   0   2   2  850.61   22.60
  -1  -2  -2 2750.02   78.49
  -1  -2  -2 2892.81   54.09
  -1  -2  -2 2781.42   83.29
  -1  -2  -2 2934.81   83.59
  -1  -2  -2 2840.82   58.19
  -1  -2  -2 2868.51   76.19
  -1  -2  -2 2836.22   58.99
  -1  -2  -2 2905.81   54.39
   1   2   2 2902.41   54.39
   1   2   2 2771.92   75.29
   1   2   2 2877.91   53.59
   1   2   2 2819.42   58.59
   1   2   2 2980.80   83.09
   1   2   2 2843.02   56.99
   1   2   2 2793.62   84.19
   1   2   2 2743.83   81.09
  -2  -2  -2   23.80    1.30
  -2  -2  -2   26.20    2.20
  -2  -2  -2   23.90    2.00
  -2  -2  -2   22.80    1.70
  -2  -2  -2   25.00    1.30
  -2  -2  -2   25.90    1.50
  -2  -2  -2   23.70    1.40
   2   2   2   25.20    1.50
   2   2   2   26.70    1.30
   2   2   2   24.30    2.20
   2   2   2   23.10    1.30
   2   2   2   24.70    2.10
   2   2   2   24.30    1.70
   2   2   2   26.00    1.40
  -3  -2  -2   14.10    1.30
  -3  -2  -2   13.70    1.20
  -3  -2  -2   18.10    1.90
  -3  -2  -2   15.50    2.30
  -3  -2  -2   17.60    1.40
   3   2   2   11.70    1.40
   3   2   2   14.50    1.30
   3   2   2   18.00    2.60
   3   2   2   13.90    1.30
   3   2   2   14.60    1.20
  -4  -2  -2    1.50    1.10
  -4  -2  -2    3.50    1.20
  -4  -2  -2    1.20    0.80
   4   2   2    2.50    0.90
   4   2   2    1.70    1.00
   4   2   2    2.70    1.10
  -5  -2  -2   -1.30    1.00
  -5  -2  -2   -0.10    1.30
  -5  -2  -2   -0.20    0.80
  -5  -2  -2   -0.10    1.10
   5   2   2   -2.10    1.00
   5   2   2   -1.70    1.00
  -6  -2  -2   30.80    4.50
  -6  -2  -2   35.00    2.80
  -6  -2  -2   37.60    2.80
  -6  -2  -2   34.60    4.10
   6   2   2   38.90    2.70
  -7  -2  -2    2.30    1.50
  -7  -2  -2    0.60    1.20
   7   2   2    1.50    1.40
   8   2   2    1.20    1.60
   8  -3  -2    0.30    2.40
   7  -3  -2    5.00    2.40
  -7   3   2    1.90    1.60
   6  -3  -2   93.79    5.00
  -6   3   2   92.19    6.30
  -6   3   2   95.89    6.60
   5  -3  -2    4.20    1.80
   5  -3  -2    3.40    1.70
  -5   3   2    5.20    0.70
  -5   3   2    5.00    1.40
  -5   3   2    3.40    1.30
   3  -3  -2    1.50    1.00
   3  -3  -2    0.60    0.90
  -3   3   2    1.10    0.40
  -2   3   2   78.49    1.90
  -2   3   2   93.79    4.40
  -2   3   2   69.29    1.80
   1  -3  -2    8.30    0.60
   1  -3  -2    9.00    0.60
   1  -3  -2    8.70    0.50
   1  -3  -2    8.20    1.00
  -1   3   2    6.90    0.60
  -1   3   2   12.10    1.60
  -1   3   2    5.60    0.60
  -1   3   2    5.50    0.70
  -1   3   2    8.30    0.70
   0  -3  -2    1.10    0.40
   0  -3  -2    2.00    0.50
   0  -3  -2    1.00    0.50
   0  -3  -2    2.40    0.60
   0  -3  -2    2.30    0.50
   0  -3  -2    2.00    0.50
   0   3   2    1.60    0.50
   0   3   2    1.60    0.50
   0   3   2    2.40    0.60
   0   3   2    1.70    0.70
   0   3   2    1.20    0.70
   0   3   2    1.60    0.60
   0   3   2    1.80    0.50
   0   3   2    1.40    0.30
  -1  -3  -2  454.75   14.10
  -1  -3  -2  453.55   10.00
  -1  -3  -2  458.35   10.00
  -1  -3  -2  470.65   12.50
  -1  -3  -2  465.25   14.20
  -1  -3  -2  458.45    9.30
  -1  -3  -2  463.95    9.30
  -1  -3  -2  465.85   13.90
   1   3   2  462.15    9.20
   1   3   2  460.15   10.10
   1   3   2  461.85   10.00
   1   3   2  451.65   13.80
   1   3   2  461.35   12.50
   1   3   2  449.26   14.10
   1   3   2  456.15    9.30
   1   3   2  447.76   14.10
  -2  -3  -2 1061.39   20.00
  -2  -3  -2 1027.90   30.20
  -2  -3  -2 1052.29   21.40
  -2  -3  -2 1026.40   30.30
  -2  -3  -2 1047.80   19.90
  -2  -3  -2 1054.09   21.50
  -2  -3  -2 1018.40   27.90
   2   3   2 1048.00   21.50
   2   3   2 1049.59   29.80
   2   3   2 1049.59   19.80
   2   3   2 1025.60   27.90
   2   3   2 1038.40   19.90
   2   3   2 1042.50   21.40
  -3  -3  -2  210.88    5.40
  -3  -3  -2  207.68    7.50
  -3  -3  -2  208.48    8.40
  -3  -3  -2  209.78    5.90
   3   3   2  214.38    8.50
   3   3   2  203.18    7.40
   3   3   2  210.48    5.40
   3   3   2  219.68    6.00
  -4  -3  -2   82.19    3.50
  -4  -3  -2   79.09    5.20
  -4  -3  -2   80.59    4.60
   4   3   2   74.99    3.10
   4   3   2   76.59    3.40
   4   3   2   75.59    3.30
  -5  -3  -2   17.60    2.10
  -5  -3  -2   19.50    3.00
  -5  -3  -2   16.50    1.90
  -5  -3  -2   21.50    4.00
   5   3   2   16.80    2.30
   5   3   2   15.70    2.10
  -6  -3  -2    1.70    1.20
  -6  -3  -2    3.10    1.40
  -6  -3  -2   -0.10    1.70
  -6  -3  -2    2.90    1.50
   6   3   2    4.20    1.50
   6   3   2    3.70    1.50
  -7  -3  -2    6.60    2.10
  -7  -3  -2   -1.60    2.00
  -7  -3  -2    1.80    1.40
   7   3   2    3.10    1.60
   7  -4  -2   14.80    3.30
  -7   4   2   10.00    2.40
   6  -4  -2   42.80    3.80
   6  -4  -2   41.20    3.50
  -6   4   2   45.40    4.80
  -6   4   2   49.60    4.90
   5  -4  -2   27.70    2.90
   5  -4  -2   24.30    2.70
  -5   4   2   30.00    3.60
  -5   4   2   28.60    3.50
   4  -4  -2    0.70    1.30
   4  -4  -2    0.40    1.30
  -4   4   2    0.70    0.70
   3  -4  -2    4.30    1.30
   3  -4  -2    3.70    1.20
  -3   4   2    1.70    1.10
   2  -4  -2   48.30    1.30
   2  -4  -2   49.80    2.50
   2  -4  -2   48.40    1.30
   2  -4  -2   52.89    2.20
  -2   4   2   51.09    1.60
  -2   4   2   53.09    3.70
  -2   4   2   46.40    1.50
  -2   4   2   50.49    1.00
  -2   4   2   51.59    3.40
   1  -4  -2  447.86    9.60
   1  -4  -2  446.76    8.10
   1  -4  -2  391.86    8.50
   1  -4  -2  412.16    8.70
   1  -4  -2  405.26    8.10
  -1   4   2  393.56    8.00
  -1   4   2  427.76   13.70
  -1   4   2  441.46   13.30
  -1   4   2  384.86    8.80
  -1   4   2  400.26    8.90
  -1   4   2  412.96    8.10
   0  -4  -2   59.39    2.00
   0  -4  -2   58.19    2.00
   0  -4  -2   59.59    2.10
   0  -4  -2   56.39    2.10
   0  -4  -2   54.09    2.80
   0   4   2   58.59    2.20
   0   4   2   56.89    2.30
   0   4   2   56.99    2.40
   0   4   2   57.79    3.60
   0   4   2   60.59    2.90
   0   4   2   61.29    2.00
  -1  -4  -2 1337.17   24.80
  -1  -4  -2 1342.97   37.70
  -1  -4  -2 1321.57   24.80
  -1  -4  -2 1285.87   35.20
  -1  -4  -2 1356.56   26.70
   1   4   2 1324.37   24.70
   1   4   2 1322.57   26.80
   1   4   2 1308.77   26.60
   1   4   2 1274.27   37.30
   1   4   2 1329.17   34.50
  -2  -4  -2   13.40    1.70
  -2  -4  -2   13.20    1.30
  -2  -4  -2   14.40    1.50
  -2  -4  -2   12.00    2.30
  -2  -4  -2   11.40    1.90
   2   4   2   15.30    2.80
   2   4   2   12.30    1.50
   2   4   2   13.20    1.40
   2   4   2   12.20    1.40
  -3  -4  -2    1.10    1.10
  -3  -4  -2    1.30    0.70
  -3  -4  -2    1.90    1.10
   3   4   2    1.50    1.40
   3   4   2    2.10    1.10
   3   4   2    2.00    1.10
  -4  -4  -2    7.50    1.70
  -4  -4  -2    7.40    1.60
  -4  -4  -2    4.30    1.60
  -4  -4  -2    2.80    1.00
   4   4   2    5.50    2.10
   4   4   2    4.30    1.60
   4   4   2    4.50    1.50
  -5  -4  -2   12.90    3.10
  -5  -4  -2   13.20    2.00
  -5  -4  -2   16.40    2.30
  -5  -4  -2   10.10    2.30
   5   4   2   13.10    2.10
   5   4   2   12.50    2.20
  -6  -4  -2    7.70    1.80
  -6  -4  -2    3.00    1.50
  -6  -4  -2    6.50    2.00
   6   4   2    7.80    1.90
   6   4   2    6.30    1.80
  -7  -4  -2    0.30    1.70
  -7  -4  -2   -3.40    1.90
  -7  -4  -2    0.90    1.60
   7   4   2   -1.30    1.80
  -7   5   2    2.90    1.50
   6  -5  -2    7.20    2.50
   6  -5  -2    5.20    2.60
  -6   5   2    4.70    1.50
  -6   5   2    5.30    2.10
  -6   5   2    5.30    1.80
   5  -5  -2    1.50    1.80
   5  -5  -2    2.40    2.00
  -5   5   2    2.40    1.50
  -5   5   2    2.60    1.10
  -5   5   2    3.00    1.30
   4  -5  -2   17.80    2.40
   4  -5  -2   19.70    2.30
  -4   5   2   19.70    3.50
  -4   5   2   17.10    3.30
   3  -5  -2   35.10    2.60
   3  -5  -2   30.30    2.20
  -3   5   2   34.90    3.50
  -3   5   2   25.30    0.90
  -3   5   2   26.40    1.00
  -3   5   2   33.30    3.80
   2  -5  -2   12.90    1.60
   2  -5  -2    9.80    0.90
   2  -5  -2   10.40    1.50
   2  -5  -2   10.50    0.90
  -2   5   2    7.50    1.00
  -2   5   2   12.50    2.20
  -2   5   2   12.60    2.40
  -2   5   2    6.50    1.00
  -2   5   2    6.90    0.60
  -2   5   2    8.60    0.60
   1  -5  -2    6.90    0.90
   1  -5  -2    6.70    1.00
   1  -5  -2    8.80    1.30
  -1   5   2    6.00    1.00
  -1   5   2    5.40    1.00
  -1   5   2    6.90    0.80
  -1   5   2    5.80    1.40
  -1   5   2    6.40    1.10
   0  -5  -2   24.40    1.50
   0  -5  -2   23.90    1.50
   0  -5  -2   24.50    1.50
   0   5   2   25.70    1.50
   0   5   2   28.80    3.10
   0   5   2   23.90    2.10
   0   5   2   24.00    1.60
   0   5   2   26.30    1.80
   0   5   2   23.90    1.80
  -1  -5  -2   31.20    2.00
  -1  -5  -2   29.70    2.10
  -1  -5  -2   28.70    1.70
   1   5   2   31.20    1.80
   1   5   2   28.80    2.10
   1   5   2   31.40    2.00
   1   5   2   33.10    3.30
   1   5   2   31.50    2.00
  -2  -5  -2  435.56   14.30
  -2  -5  -2  450.75   13.40
  -2  -5  -2  455.55   10.80
   2   5   2  456.45   15.50
   2   5   2  440.76    9.90
   2   5   2  463.05   11.00
   2   5   2  434.06   13.20
  -3  -5  -2   12.30    2.20
  -3  -5  -2    8.30    2.00
  -3  -5  -2   13.20    2.00
  -3  -5  -2   13.00    1.80
   3   5   2   11.70    2.00
   3   5   2   15.10    3.60
   3   5   2   12.00    1.80
  -4  -5  -2    3.30    1.60
  -4  -5  -2    4.30    1.60
  -4  -5  -2    2.60    1.00
  -4  -5  -2    6.90    1.90
   4   5   2    5.10    1.60
   4   5   2    5.10    1.80
   4   5   2    2.10    2.00
  -5  -5  -2   12.00    2.30
  -5  -5  -2    5.70    2.10
  -5  -5  -2    9.10    1.90
  -5  -5  -2    5.20    1.50
   5   5   2   10.00    2.10
   5   5   2   11.80    2.30
  -6  -5  -2   16.20    2.80
  -6  -5  -2   13.10    2.40
   6   5   2   13.10    2.50
   6   5   2   13.20    2.40
  -7  -5  -2   -0.90    1.30
  -7  -5  -2    1.90    1.80
  -7  -5  -2   -1.50    1.90
   7   5   2    2.10    1.90
   7  -6  -2    9.00    3.00
   7  -6  -2    4.60    3.00
   6  -6  -2    2.30    2.60
   6  -6  -2    4.60    2.50
  -6   6   2    2.20    1.20
  -6   6   2    4.80    2.10
  -6   6   2    3.70    1.90
   5  -6  -2   17.70    3.10
   5  -6  -2   18.50    3.00
  -5   6   2   26.70    3.60
  -5   6   2   20.80    3.30
  -5   6   2   20.40    4.10
  -5   6   2   20.70    4.00
   4  -6  -2   12.10    2.30
   4  -6  -2   11.80    2.50
  -4   6   2   16.00    3.30
  -4   6   2    9.30    2.40
   3  -6  -2   13.10    2.10
   3  -6  -2   15.50    2.40
  -3   6   2   17.10    3.30
  -3   6   2   12.40    0.90
  -3   6   2   15.00    2.80
   2  -6  -2   16.80    1.90
   2  -6  -2   14.90    1.10
   2  -6  -2   23.40    2.30
   2  -6  -2   15.80    1.30
  -2   6   2   21.40    3.30
  -2   6   2   21.20    2.60
  -2   6   2   16.70    1.50
   1  -6  -2   49.20    2.50
   1  -6  -2   51.19    2.10
   1  -6  -2   50.89    2.00
  -1   6   2   41.80    2.90
  -1   6   2   48.20    3.20
  -1   6   2   48.90    1.90
  -1   6   2   48.40    4.20
  -1   6   2   50.39    2.40
  -1   6   2   51.09    2.20
   0  -6  -2  275.77    6.50
   0  -6  -2  264.57    6.80
   0  -6  -2  271.67    6.50
   0   6   2  278.37    7.10
   0   6   2  267.17    9.00
   0   6   2  269.27    8.60
   0   6   2  277.47    7.30
   0   6   2  269.97    6.40
   0   6   2  280.37   11.00
  -1  -6  -2  133.99    4.20
  -1  -6  -2  135.59    4.50
  -1  -6  -2  122.59    4.90
  -1  -6  -2  128.59    3.60
   1   6   2  133.39    7.10
   1   6   2  133.99    4.10
   1   6   2  132.99    5.00
   1   6   2  134.39    4.80
  -2  -6  -2   11.00    2.00
  -2  -6  -2   15.10    1.90
  -2  -6  -2   15.30    2.10
  -2  -6  -2   13.70    2.50
   2   6   2   15.10    2.20
   2   6   2   18.40    2.10
   2   6   2   20.20    3.90
  -3  -6  -2   -0.10    0.80
  -3  -6  -2    0.80    1.40
  -3  -6  -2    2.80    1.60
   3   6   2    0.70    1.40
   3   6   2    1.10    1.60
   3   6   2    1.00    2.10
  -4  -6  -2    1.20    1.00
  -4  -6  -2    2.90    1.80
  -4  -6  -2    3.40    1.80
  -4  -6  -2    3.20    1.70
   4   6   2    0.60    2.20
   4   6   2    4.20    1.70
   4   6   2    3.00    1.80
  -5  -6  -2   11.90    2.50
  -5  -6  -2   12.50    2.50
  -5  -6  -2    7.00    2.40
   5   6   2    4.70    3.20
   5   6   2   15.10    2.70
   5   6   2   12.30    2.30
  -6  -6  -2   -1.10    1.80
  -6  -6  -2   -1.60    1.10
  -6  -6  -2   -1.20    1.70
  -6  -6  -2    1.70    1.80
   6   6   2    1.00    1.90
   6   6   2   -0.80    1.60
  -7  -6  -2   -1.60    1.50
   6  -7  -2   -1.50    2.60
   6  -7  -2   -0.20    2.50
   5  -7  -2    6.40    2.80
   4  -7  -2   -1.70    1.50
   4  -7  -2   -0.50    1.70
  -4   7   2    1.30    1.20
  -4   7   2    0.20    1.40
   3  -7  -2   30.60    3.10
   3  -7  -2   25.60    2.70
  -3   7   2   28.10    4.10
  -3   7   2   26.60    3.20
  -3   7   2   21.60    1.40
   2  -7  -2    0.30    1.20
   2  -7  -2    0.30    1.20
   2  -7  -2    0.50    0.80
  -2   7   2    1.20    0.90
  -2   7   2    0.80    1.40
  -2   7   2   -0.60    0.70
   1  -7  -2    6.30    1.20
   1  -7  -2    6.10    1.50
   1  -7  -2    6.10    1.50
  -1   7   2    2.40    1.70
  -1   7   2    5.70    1.30
   0  -7  -2   36.60    2.30
   0  -7  -2   37.60    2.10
   0  -7  -2   40.00    2.40
   0   7   2   38.70    4.40
   0   7   2   40.80    2.70
   0   7   2   36.50    2.10
  -1  -7  -2    5.40    1.50
   1   7   2    6.80    1.40
   1   7   2    4.70    2.10
   1   7   2    4.90    1.50
  -2  -7  -2   52.39    3.20
  -2  -7  -2   48.80    3.00
   2   7   2   52.99    3.00
   2   7   2   49.60    6.00
   2   7   2   50.89    3.30
  -3  -7  -2   17.70    2.50
  -3  -7  -2   15.70    3.10
  -3  -7  -2   19.00    2.90
   3   7   2   15.90    2.40
   3   7   2   17.70    2.70
   3   7   2   10.00    3.20
  -4  -7  -2    1.10    1.60
  -4  -7  -2    3.60    2.00
  -4  -7  -2   -0.90    1.00
   4   7   2    3.50    1.80
   4   7   2   -3.30    2.40
   4   7   2    5.20    2.20
  -5  -7  -2    2.80    1.90
  -5  -7  -2    0.80    1.80
   5   7   2    2.00    1.90
   5   7   2    2.60    2.00
  -6  -7  -2    5.50    2.30
   6   7   2    7.50    2.40
   6   7   2    6.20    2.50
   5  -8  -2    0.10    2.30
   5  -8  -2   -0.70    2.60
   4  -8  -2   -1.00    1.90
   4  -8  -2    3.60    2.30
  -4   8   2    0.30    1.50
   3  -8  -2    7.60    2.10
   3  -8  -2   11.90    2.60
  -3   8   2    7.80    2.40
   2  -8  -2   16.20    2.20
   2  -8  -2   21.00    2.60
   2  -8  -2   16.60    1.60
  -2   8   2   19.40    4.20
  -2   8   2   17.90    1.90
   1  -8  -2   16.20    2.10
   1  -8  -2   14.60    2.10
   1  -8  -2   12.80    1.90
  -1   8   2   18.10    2.10
  -1   8   2    9.90    2.50
   0  -8  -2   72.79    3.40
   0   8   2   77.99    6.60
   0   8   2   78.99    3.90
  -1  -8  -2    0.20    1.50
   1   8   2    1.30    1.10
   1   8   2   -0.70    2.10
   1   8   2    1.30    1.40
  -2  -8  -2    0.50    1.50
  -2  -8  -2   -3.00    1.40
   2   8   2   -4.50    2.40
   2   8   2   -1.10    1.50
   2   8   2    0.90    1.30
  -3  -8  -2    6.70    2.10
   3   8   2    4.40    2.10
   3   8   2   -0.60    2.80
   3   8   2    8.60    2.10
  -4  -8  -2   -1.40    1.80
   4   8   2    0.10    1.70
   4   8   2   -1.00    1.80
  -5  -8  -2    0.20    1.90
   5   8   2    0.80    1.90
   5   8   2    0.20    1.90
   4  -9  -2   11.70    3.10
   4  -9  -2    6.40    2.70
  -4   9   2    7.50    2.80
   3  -9  -2    2.50    2.10
   3  -9  -2    2.70    2.10
  -3   9   2    2.00    2.00
   2  -9  -2    2.10    1.80
   2  -9  -2    0.60    1.60
  -2   9   2    0.80    2.00
  -2   9   2    2.20    1.20
   1  -9  -2   -0.60    1.30
   1  -9  -2   -1.10    1.50
  -1   9   2    0.40    1.20
  -1   9   2   -1.70    2.00
   0  -9  -2   14.40    2.20
   0   9   2   10.10    3.30
   0   9   2   19.10    2.60
  -1  -9  -2    5.70    2.00
   1   9   2    5.40    3.20
   1   9   2    9.10    2.40
  -2  -9  -2   -0.20    1.70
   2   9   2    0.40    1.80
  -3  -9  -2   -0.70    1.70
   3   9   2    2.00    2.00
   3   9   2   -0.70    1.50
  -4  -9  -2   -3.30    1.90
  -4  -9  -2   -0.30    2.20
   4   9   2    0.60    1.80
   4   9   2    2.40    2.20
  -5  -9  -2    0.90    2.80
   3 -10  -2    2.20    2.20
   3 -10  -2    1.70    2.10
   2 -10  -2    0.60    2.00
  -2  10   2   -1.90    2.30
   1 -10  -2   18.60    3.00
   1 -10  -2   16.40    2.40
  -1  10   2   21.00    2.80
   0 -10  -2   -1.70    1.60
   0  10   2   -5.60    2.70
   0  10   2    1.20    1.70
  -1 -10  -2   -2.00    1.60
   1  10   2    2.70    1.90
   1 -11  -2    0.70    2.00
   0 -11  -2    1.30    2.30
   2  10  -3   79.59    5.80
   1  10  -3   66.09    6.90
   1 -10   3    2.80    2.40
   1 -10   3    0.30    1.60
   2 -10   3    1.20    2.20
   4   9  -3    1.70    2.30
   3   9  -3    3.70    2.40
  -3  -9   3    4.00    2.40
   1   9  -3    9.90    2.40
  -1  -9   3   14.20    2.70
   0   9  -3   16.20    2.80
   0  -9   3   16.20    2.60
  -1   9  -3    2.00    1.50
   1  -9   3    1.50    1.60
   1  -9   3    3.40    2.20
  -2   9  -3    3.70    1.60
  -2   9  -3    1.50    1.30
   2  -9   3    0.40    1.20
   2  -9   3   -0.70    1.80
   3  -9   3    0.10    2.10
   4  -9   3   -0.60    2.00
   5   8  -3    2.90    2.20
   5   8  -3    2.50    2.40
  -5  -8   3    0.60    2.30
   4   8  -3    1.80    2.10
   4   8  -3    2.50    2.00
  -4  -8   3    1.60    2.10
  -4  -8   3   -1.70    1.60
  -4  -8   3    3.00    2.20
   3   8  -3   16.90    3.00
   3   8  -3   10.80    2.30
  -3  -8   3   13.40    2.60
  -3  -8   3   10.40    2.60
   2   8  -3   39.30    3.20
   2   8  -3   28.00    3.20
  -2  -8   3   34.30    3.40
  -2  -8   3   32.70    3.40
   1   8  -3    7.50    2.10
   1   8  -3    1.00    2.70
  -1  -8   3    7.60    2.00
   0   8  -3   10.00    2.20
   0   8  -3   16.70    4.30
   0   8  -3    4.50    2.80
   0  -8   3   11.50    2.10
  -1   8  -3    4.10    1.60
  -1   8  -3    0.70    1.40
  -1   8  -3   -1.50    1.90
   1  -8   3    1.30    1.30
  -2   8  -3   -0.90    1.00
  -2   8  -3   -2.30    1.50
  -2   8  -3    2.70    1.50
   2  -8   3   -1.40    1.00
   2  -8   3    0.80    1.70
   2  -8   3   -0.30    1.50
  -3   8  -3    3.90    1.60
  -3   8  -3    0.10    1.00
   3  -8   3    0.10    1.80
   3  -8   3    2.50    2.10
   4  -8   3    2.80    2.30
   4  -8   3    5.30    2.40
   5  -8   3    6.70    2.70
   5  -8   3    4.60    2.80
   6   7  -3    2.00    2.20
  -6  -7   3   -1.20    2.10
   5   7  -3    0.10    2.00
   5   7  -3    0.10    1.90
  -5  -7   3   -2.80    1.40
  -5  -7   3   -1.40    1.80
  -5  -7   3   -2.40    1.70
   4   7  -3    6.10    2.10
   4   7  -3    6.20    2.50
  -4  -7   3    5.70    2.20
  -4  -7   3    8.20    2.50
   3   7  -3   28.60    2.80
   3   7  -3   34.50    4.10
   3   7  -3   28.30    3.10
  -3  -7   3   28.00    3.10
  -3  -7   3   28.20    3.00
  -3  -7   3   18.10    4.20
   2   7  -3   10.50    1.90
   2   7  -3    9.50    2.10
   2   7  -3    2.90    2.40
  -2  -7   3    8.70    2.00
  -2  -7   3    8.90    2.00
   1   7  -3   34.50    4.50
   1   7  -3   21.30    4.80
   1   7  -3   27.40    2.80
   1   7  -3   23.20    2.20
  -1  -7   3   28.40    2.70
  -1  -7   3   24.20    2.60
   0   7  -3    0.60    1.10
   0   7  -3   -2.70    1.60
   0   7  -3   -0.10    1.00
   0   7  -3    1.00    1.20
   0  -7   3    0.60    1.20
   0  -7   3    1.90    1.40
  -1   7  -3    2.60    1.40
  -1   7  -3    1.40    1.60
  -1   7  -3    2.50    1.40
   1  -7   3    2.70    1.30
  -2   7  -3    3.00    1.10
  -2   7  -3    3.30    1.60
  -2   7  -3    4.00    1.50
   2  -7   3    5.60    1.80
   2  -7   3    4.50    1.50
   2  -7   3    5.30    1.20
  -3   7  -3    2.50    1.50
  -3   7  -3    1.40    0.90
  -3   7  -3    0.60    1.30
   3  -7   3    0.70    0.70
   3  -7   3    0.10    1.60
   3  -7   3    0.40    1.50
  -4   7  -3    4.60    1.70
   4  -7   3    4.90    2.10
   4  -7   3    2.40    1.90
   5  -7   3    6.80    2.70
   6  -7   3    0.00    2.20
   6  -7   3    2.20    2.50
   6   6  -3   -0.30    2.00
   6   6  -3    1.50    2.00
  -6  -6   3   -2.10    2.10
  -6  -6   3   -1.90    1.60
  -6  -6   3   -0.40    1.80
   5   6  -3    2.00    1.90
   5   6  -3    0.60    1.80
  -5  -6   3    2.20    2.10
  -5  -6   3    0.50    1.80
   4   6  -3    0.20    1.60
   4   6  -3    0.70    1.70
  -4  -6   3    2.30    1.80
  -4  -6   3    3.10    1.90
  -4  -6   3   -1.20    1.10
   3   6  -3  183.18    6.60
   3   6  -3  170.78    9.40
   3   6  -3  190.28    8.60
   3   6  -3  186.08    6.00
  -3  -6   3  173.08    8.30
  -3  -6   3  187.18    6.70
  -3  -6   3  178.68    6.00
   2   6  -3   23.10    2.50
   2   6  -3   25.80    3.80
   2   6  -3   18.20    4.30
   2   6  -3   24.40    2.40
  -2  -6   3   21.70    3.60
  -2  -6   3   22.60    2.50
  -2  -6   3   17.40    2.20
   1   6  -3   23.50    3.90
   1   6  -3   19.10    2.00
   1   6  -3   16.10    3.90
   1   6  -3   17.40    2.20
  -1  -6   3   16.50    2.20
  -1  -6   3   13.40    1.90
   0   6  -3    8.70    1.50
   0   6  -3    8.00    1.30
   0   6  -3    5.10    1.80
   0  -6   3    9.30    1.60
   0  -6   3   10.50    1.60
   0  -6   3   12.00    1.80
  -1   6  -3    3.00    1.30
  -1   6  -3    6.10    1.00
  -1   6  -3    5.90    1.40
  -1   6  -3    4.20    1.60
   1  -6   3    7.40    1.20
   1  -6   3    6.20    1.30
   1  -6   3    6.70    1.30
  -2   6  -3    6.70    1.20
  -2   6  -3    5.00    1.50
  -2   6  -3    3.40    1.40
  -2   6  -3    8.00    1.50
   2  -6   3    7.10    1.60
   2  -6   3    9.70    1.70
   2  -6   3    6.10    1.10
  -3   6  -3    2.70    1.40
  -3   6  -3    3.90    0.90
  -3   6  -3    2.50    1.20
   3  -6   3    3.40    1.60
   3  -6   3    5.00    1.70
   3  -6   3    5.20    0.80
  -4   6  -3    3.40    1.60
  -4   6  -3    1.40    1.20
   4  -6   3    3.80    1.80
   4  -6   3    5.10    1.90
  -5   6  -3    3.10    1.70
  -5   6  -3    3.90    1.70
   5  -6   3    2.60    2.10
   5  -6   3    4.10    2.20
  -6   6  -3   20.30    3.80
   6   5  -3    9.40    2.50
   6   5  -3    7.10    2.30
  -6  -5   3    9.20    2.80
  -6  -5   3   10.90    2.40
   5   5  -3    4.50    1.80
   5   5  -3   10.30    2.30
  -5  -5   3    9.60    2.40
  -5  -5   3    2.80    1.60
  -5  -5   3    5.90    2.00
   4   5  -3    8.60    1.90
   4   5  -3   17.50    2.80
  -4  -5   3    8.50    1.90
  -4  -5   3   16.40    2.80
  -4  -5   3    4.30    1.50
   3   5  -3   25.60    2.60
   3   5  -3   26.40    3.00
   3   5  -3   26.70    2.40
   3   5  -3   27.80    4.20
  -3  -5   3   26.60    2.70
  -3  -5   3   24.40    3.70
  -3  -5   3   28.00    2.70
   2   5  -3    6.60    1.90
   2   5  -3    8.90    1.70
   2   5  -3    4.10    1.00
   2   5  -3    8.80    1.50
  -2  -5   3    4.20    0.70
  -2  -5   3    9.20    1.70
  -2  -5   3    5.90    1.50
  -2  -5   3    4.50    1.30
   1   5  -3   16.70    1.80
   1   5  -3   19.40    3.30
   1   5  -3   16.20    1.80
   1   5  -3   16.20    2.80
  -1  -5   3   17.90    1.90
  -1  -5   3   13.30    1.80
  -1  -5   3   16.40    2.80
   0   5  -3   43.10    4.10
   0   5  -3   49.10    3.80
   0   5  -3   48.00    2.20
   0   5  -3   44.60    2.30
   0   5  -3   44.70    2.40
   0  -5   3   48.40    2.50
   0  -5   3   44.80    2.10
   0  -5   3   41.20    2.20
  -1   5  -3   15.00    1.20
  -1   5  -3   17.00    3.20
  -1   5  -3   17.00    1.30
  -1   5  -3   16.10    1.00
  -1   5  -3   17.50    1.50
  -1   5  -3   17.80    1.40
  -1   5  -3   15.90    2.50
   1  -5   3   16.20    1.40
   1  -5   3   16.70    1.50
   1  -5   3   17.40    1.40
   1  -5   3   16.10    1.40
  -2   5  -3    5.20    1.00
  -2   5  -3    3.30    1.10
  -2   5  -3    5.10    0.80
   2  -5   3    7.00    1.00
   2  -5   3    6.50    1.00
   2  -5   3    4.70    1.20
   2  -5   3    4.70    0.70
   2  -5   3    5.50    1.50
  -3   5  -3    7.60    1.10
  -3   5  -3    9.90    2.10
   3  -5   3    7.70    1.80
   3  -5   3    7.40    0.90
   3  -5   3    7.80    0.80
   3  -5   3    7.20    1.60
  -4   5  -3    0.90    1.10
  -4   5  -3    2.70    1.10
  -4   5  -3    2.60    0.60
   4  -5   3    2.20    1.50
   4  -5   3    1.40    1.50
  -5   5  -3   33.20    3.70
  -5   5  -3   35.50    4.30
  -5   5  -3   26.10    4.70
   5  -5   3   22.10    2.90
   5  -5   3   26.60    3.00
  -6   5  -3   20.80    4.60
  -6   5  -3    8.50    2.50
   6  -5   3   10.70    2.90
   6  -5   3   12.90    2.90
   7  -5   3   -0.30    2.20
   7  -5   3    1.60    2.60
   7   4  -3    0.50    1.90
  -7  -4   3   -0.90    1.50
  -7  -4   3   -0.40    1.70
  -7  -4   3   -0.80    1.90
   6   4  -3    9.10    2.10
   6   4  -3   11.50    2.40
  -6  -4   3    9.80    2.40
  -6  -4   3    6.10    1.90
  -6  -4   3    9.30    2.20
  -6  -4   3    3.90    1.80
   5   4  -3    1.30    1.60
   5   4  -3    0.20    1.40
  -5  -4   3   -0.50    1.20
  -5  -4   3    1.20    1.60
  -5  -4   3    0.50    1.20
  -5  -4   3    0.10    1.30
   4   4  -3  109.69    4.50
   4   4  -3   93.69    4.10
   4   4  -3  103.39    4.10
  -4  -4   3  102.69    6.10
  -4  -4   3  114.39    4.80
  -4  -4   3  101.49    4.10
   3   4  -3  392.16   13.30
   3   4  -3  381.26    9.10
   3   4  -3  396.86   10.00
  -3  -4   3  384.96    9.20
  -3  -4   3  393.26   10.10
  -3  -4   3  387.16   13.30
   2   4  -3    6.30    1.30
   2   4  -3    6.40    1.30
   2   4  -3    5.20    1.60
  -2  -4   3    7.60    1.40
  -2  -4   3    7.10    1.30
  -2  -4   3    4.90    1.10
   1   4  -3   20.70    2.60
   1   4  -3   24.60    1.60
   1   4  -3   24.80    2.90
   1   4  -3   24.90    1.80
  -1  -4   3   28.90    2.80
  -1  -4   3   25.50    1.60
  -1  -4   3   23.60    1.90
  -1  -4   3   22.60    1.70
   0   4  -3    6.00    1.10
   0  -4   3    7.50    1.40
   0  -4   3    7.10    1.10
   0  -4   3   10.00    1.10
   0  -4   3    8.60    1.20
  -1   4  -3    6.20    1.00
  -1   4  -3    5.90    0.80
  -1   4  -3    5.90    1.20
  -1   4  -3    6.30    0.90
  -1   4  -3    6.50    1.60
   1  -4   3    7.00    1.10
   1  -4   3    6.40    0.90
   1  -4   3    6.60    1.00
   1  -4   3    6.70    0.90
   1  -4   3    3.70    0.90
  -2   4  -3   12.50    1.00
  -2   4  -3   10.00    2.50
  -2   4  -3   12.10    0.90
  -2   4  -3   14.90    1.80
  -2   4  -3   12.90    1.10
   2  -4   3   13.40    0.80
   2  -4   3   12.50    0.80
   2  -4   3   11.70    1.60
   2  -4   3   13.00    1.00
   2  -4   3   11.70    1.40
   2  -4   3   13.40    1.10
   2  -4   3   12.60    0.80
  -3   4  -3   61.19    2.10
  -3   4  -3   70.79    5.40
  -3   4  -3   60.69    2.00
  -3   4  -3   64.49    3.70
  -3   4  -3   55.39    1.40
   3  -4   3   64.09    1.80
   3  -4   3   66.89    3.10
   3  -4   3   62.29    1.70
   3  -4   3   62.99    3.10
  -4   4  -3    0.00    0.80
  -4   4  -3    0.30    0.90
  -4   4  -3    0.70    0.50
   4  -4   3    1.50    1.40
   4  -4   3    1.70    1.40
  -5   4  -3    1.70    0.50
  -5   4  -3    0.90    1.00
  -5   4  -3    1.20    1.20
   5  -4   3    0.60    1.60
   5  -4   3    1.80    1.80
  -6   4  -3    1.30    1.70
  -6   4  -3    1.40    1.20
   6  -4   3    3.70    2.10
   6  -4   3    0.80    1.90
  -7   4  -3    3.80    2.00
  -7   4  -3    3.00    1.50
   7  -4   3    2.30    2.70
   7  -4   3    2.20    2.40
   7   3  -3    4.50    2.10
  -7  -3   3    1.60    1.80
  -7  -3   3    1.10    1.90
  -7  -3   3    4.40    2.10
   6   3  -3    7.60    2.00
  -6  -3   3    3.60    1.70
  -6  -3   3    4.80    1.80
  -6  -3   3    5.10    1.60
  -6  -3   3    4.20    2.00
   5   3  -3   48.50    2.90
   5   3  -3   54.29    3.40
  -5  -3   3   50.09    3.00
  -5  -3   3   51.19    3.30
  -5  -3   3   50.39    5.00
  -5  -3   3   46.30    4.40
   4   3  -3   38.20    2.80
   4   3  -3   36.40    2.50
  -4  -3   3   34.00    3.70
  -4  -3   3   35.70    2.70
  -4  -3   3   34.40    3.60
  -4  -3   3   35.20    2.40
   3   3  -3    2.60    1.00
   3   3  -3    1.20    0.40
   3   3  -3    3.40    1.10
  -3  -3   3    1.90    1.10
  -3  -3   3    2.80    1.10
  -3  -3   3    1.40    0.80
  -3  -3   3    3.20    1.20
   2   3  -3   43.20    3.30
   2   3  -3   38.80    2.20
   2   3  -3   41.10    2.70
   2   3  -3   43.10    2.10
  -2  -3   3   42.00    3.00
  -2  -3   3   42.60    2.10
  -2  -3   3   43.20    2.30
   1   3  -3    1.60    0.70
   1   3  -3    1.50    0.70
   1   3  -3    0.60    0.40
   1   3  -3    1.70    0.80
   1   3  -3    1.20    0.70
   1   3  -3    2.80    1.00
   1   3  -3    0.80    0.50
  -1  -3   3    2.00    0.70
  -1  -3   3    1.10    0.80
  -1  -3   3    1.70    0.70
  -1  -3   3    1.10    0.30
  -1  -3   3    1.40    0.70
  -1  -3   3    2.00    0.90
   0   3  -3    7.20    1.60
   0   3  -3    8.40    1.00
   0   3  -3    9.60    1.00
   0   3  -3    9.60    1.50
   0   3  -3    9.60    0.80
   0   3  -3   11.10    1.60
   0   3  -3   10.70    1.00
   0  -3   3    9.80    1.30
   0  -3   3    9.80    1.10
   0  -3   3    9.20    0.90
   0  -3   3    9.40    0.90
   0  -3   3    8.50    0.90
  -1   3  -3   79.79    2.20
  -1   3  -3   81.19    2.50
  -1   3  -3   85.99    2.60
  -1   3  -3   82.99    2.30
  -1   3  -3   80.39    4.60
  -1   3  -3   81.69    3.50
   1  -3   3   81.89    2.50
   1  -3   3   80.39    2.60
   1  -3   3   83.69    2.30
   1  -3   3   81.49    2.30
   1  -3   3   78.29    3.40
   1  -3   3   83.89    2.40
  -2   3  -3   78.19    2.00
  -2   3  -3   79.89    2.30
  -2   3  -3   78.89    3.50
  -2   3  -3   79.09    2.00
  -2   3  -3   80.79    2.30
  -2   3  -3   77.39    4.70
   2  -3   3   80.29    2.20
   2  -3   3   80.49    2.10
   2  -3   3   81.89    2.90
   2  -3   3   78.79    2.90
   2  -3   3   75.99    2.00
   2  -3   3   79.99    2.00
   2  -3   3   67.99    2.00
  -3   3  -3   95.89    2.20
  -3   3  -3  103.39    2.80
  -3   3  -3  100.89    2.20
  -3   3  -3  100.89    2.80
  -3   3  -3  102.59    5.80
   3  -3   3  108.29    3.90
   3  -3   3  103.99    3.70
   3  -3   3  105.09    2.50
   3  -3   3  102.89    2.40
  -4   3  -3   22.20    3.10
  -4   3  -3   18.60    1.10
  -4   3  -3   23.30    3.60
  -4   3  -3   20.80    1.20
   4  -3   3   19.70    0.90
   4  -3   3   20.20    2.20
   4  -3   3   18.20    0.90
   4  -3   3   22.30    2.20
  -5   3  -3    6.30    0.90
  -5   3  -3    4.30    1.60
   5  -3   3    5.80    0.50
   5  -3   3    6.50    1.90
   5  -3   3    6.50    2.00
  -6   3  -3   23.70    4.00
  -6   3  -3   24.50    1.40
  -6   3  -3   23.70    4.10
   6  -3   3   27.20    3.20
   6  -3   3   25.40    3.00
  -7   3  -3   24.60    5.20
  -7   3  -3   27.40    4.70
   7  -3   3   26.20    3.60
   7  -3   3   20.00    3.20
   7   2  -3    1.50    1.60
  -7  -2   3    0.10    1.60
  -7  -2   3    2.30    1.80
  -7  -2   3   -2.10    1.70
   6   2  -3   12.40    1.90
   6   2  -3   11.80    1.90
  -6  -2   3    6.90    1.90
  -6  -2   3    6.00    1.90
  -6  -2   3   15.80    2.50
   5   2  -3    3.10    1.10
   5   2  -3    2.10    1.30
   5   2  -3    3.20    1.40
  -5  -2   3    2.20    1.40
  -5  -2   3    0.10    1.30
  -5  -2   3    1.60    1.20
  -5  -2   3    2.80    1.20
   4   2  -3  485.55   10.70
   4   2  -3  488.25   10.80
   4   2  -3  495.85   11.60
  -4  -2   3  492.55   16.10
  -4  -2   3  496.75   10.80
  -4  -2   3  500.95   11.80
  -4  -2   3  497.25   16.20
   3   2  -3  103.29    3.60
   3   2  -3  103.39    3.60
   3   2  -3  100.89    3.30
   3   2  -3  103.29    4.80
  -3  -2   3  104.09    4.70
  -3  -2   3  103.19    3.70
  -3  -2   3  105.79    5.10
  -3  -2   3  102.99    3.30
   2   2  -3  117.39    3.30
   2   2  -3  115.89    4.70
   2   2  -3  115.79    4.50
   2   2  -3  116.19    3.60
   2   2  -3  114.79    3.30
  -2  -2   3  117.39    5.60
  -2  -2   3  120.89    3.70
  -2  -2   3  120.39    5.00
  -2  -2   3  118.29    3.40
  -2  -2   3  117.49    3.60
   1   2  -3    4.30    1.00
   1   2  -3    4.80    0.80
   1   2  -3    5.70    1.40
   1   2  -3    2.50    0.60
   1   2  -3    4.10    0.80
   1   2  -3    4.80    0.80
  -1  -2   3    4.20    0.80
  -1  -2   3    5.70    1.30
  -1  -2   3    3.10    0.80
  -1  -2   3    4.10    0.80
  -1  -2   3    4.40    0.70
  -1  -2   3    5.00    0.70
  -1  -2   3    4.10    0.80
   0   2  -3    1.00    0.50
   0   2  -3    1.70    0.60
   0   2  -3    0.10    0.30
   0   2  -3    1.20    0.50
   0   2  -3    1.00    0.40
   0   2  -3    1.90    0.50
   0   2  -3    1.60    0.50
   0   2  -3    0.80    0.30
   0  -2   3    1.00    0.50
   0  -2   3    0.90    0.50
   0  -2   3    1.50    0.50
   0  -2   3    0.60    0.40
   0  -2   3    0.90    0.40
   0  -2   3    1.10    0.50
  -1   2  -3  243.28    5.40
  -1   2  -3  245.68    7.30
  -1   2  -3  247.18    5.00
  -1   2  -3  247.18    5.00
  -1   2  -3  238.38    5.40
  -1   2  -3  243.38    9.10
   1  -2   3  244.58    5.40
   1  -2   3  242.08    5.00
   1  -2   3  248.38    5.10
   1  -2   3  242.08    5.40
   1  -2   3  244.58    5.00
  -2   2  -3   62.39    3.70
  -2   2  -3   65.69    1.70
  -2   2  -3   63.39    1.70
  -2   2  -3   62.79    1.90
  -2   2  -3   65.99    1.90
   2  -2   3   62.69    1.70
   2  -2   3   64.19    1.80
   2  -2   3   63.39    2.30
   2  -2   3   63.99    1.80
   2  -2   3   63.09    2.40
   2  -2   3   62.09    1.70
   2  -2   3   59.19    1.40
  -3   2  -3  111.39    3.00
  -3   2  -3  112.99    2.60
  -3   2  -3  108.79    5.50
  -3   2  -3  114.99    3.00
  -3   2  -3  114.39    2.60
  -3   2  -3  112.19    5.60
   3  -2   3  113.49    2.70
   3  -2   3  111.69    2.40
   3  -2   3  112.89    3.60
   3  -2   3  103.99    2.40
   3  -2   3  111.69    3.80
  -4   2  -3    4.80    1.40
  -4   2  -3    7.10    0.70
  -4   2  -3    6.30    0.90
  -4   2  -3    6.40    0.90
  -4   2  -3    6.40    0.80
   4  -2   3    7.40    1.60
   4  -2   3    7.20    0.90
   4  -2   3    9.30    1.60
   4  -2   3    5.50    0.70
  -5   2  -3   20.60    1.50
  -5   2  -3   17.20    1.40
  -5   2  -3   22.90    3.70
  -5   2  -3   18.80    3.00
   5  -2   3   20.90    1.30
   5  -2   3   21.60    2.50
   5  -2   3   21.40    2.30
  -6   2  -3   14.20    1.60
  -6   2  -3    9.90    2.40
  -6   2  -3   17.20    3.70
   6  -2   3   12.20    1.20
   6  -2   3   13.20    2.60
   6  -2   3   11.60    2.50
  -7   2  -3    1.40    1.30
  -7   2  -3    1.30    0.90
  -7   2  -3    0.00    1.70
   7  -2   3    2.60    2.10
  -8   2  -3   -0.40    2.10
   8   1  -3    3.30    1.60
   7   1  -3   29.90    2.70
   7   1  -3   28.10    2.90
  -7  -1   3   28.50    2.90
  -7  -1   3   28.20    4.80
   6   1  -3   11.90    1.90
   6   1  -3   10.40    1.90
  -6  -1   3    9.40    1.80
  -6  -1   3    6.40    1.80
   5   1  -3  111.59    3.80
   5   1  -3  109.29    3.90
   5   1  -3  102.99    3.90
  -5  -1   3  104.09    6.30
  -5  -1   3  104.89    3.60
  -5  -1   3  104.49    5.90
  -5  -1   3  112.09    4.30
   4   1  -3  133.49    4.10
   4   1  -3  135.89    4.20
   4   1  -3  136.19    4.00
   4   1  -3  127.39    3.80
  -4  -1   3  121.49    4.10
  -4  -1   3  141.09    4.00
  -4  -1   3  132.89    5.90
  -4  -1   3  128.29    4.30
  -4  -1   3  133.79    6.40
   3   1  -3   16.80    1.30
   3   1  -3   17.70    1.20
   3   1  -3   19.00    1.30
   3   1  -3   17.80    1.40
   3   1  -3   16.70    1.80
  -3  -1   3   17.10    1.30
  -3  -1   3   18.60    1.30
  -3  -1   3   18.90    2.00
  -3  -1   3   15.30    2.00
  -3  -1   3   16.90    1.40
   2   1  -3   65.99    2.90
   2   1  -3   65.89    2.10
   2   1  -3   65.89    2.10
   2   1  -3   64.29    2.30
   2   1  -3   66.79    2.70
   2   1  -3   63.69    2.30
   2   1  -3   64.39    3.20
  -2  -1   3   63.99    2.30
  -2  -1   3   64.09    2.60
  -2  -1   3   63.69    2.10
  -2  -1   3   66.79    3.30
  -2  -1   3   69.19    3.00
  -2  -1   3   66.89    2.40
  -2  -1   3   63.69    2.30
  -2  -1   3   66.29    2.10
   1   1  -3    9.40    0.90
   1   1  -3   11.30    1.20
   1   1  -3   11.90    0.80
   1   1  -3   11.80    1.10
   1   1  -3   12.30    0.90
   0   1  -3  183.88    6.60
   0   1  -3  179.68    5.80
   0   1  -3  188.98    3.90
   0   1  -3  185.68    4.30
   0   1  -3  183.18    5.90
   0   1  -3  182.18    4.30
   0   1  -3  184.88    4.00
   0  -1   3  191.18    5.50
   0  -1   3  195.18    5.90
   0  -1   3  186.88    4.00
   0  -1   3  182.88    6.60
   0  -1   3  187.08    5.90
   0  -1   3  181.38    4.30
   0  -1   3  185.28    3.90
   0  -1   3  186.88    4.30
  -1   1  -3    6.40    0.50
  -1   1  -3    9.80    0.70
  -1   1  -3    6.40    1.20
  -1   1  -3    9.70    0.60
   1  -1   3    8.90    0.60
   1  -1   3    7.70    1.10
   1  -1   3    6.90    0.50
  -2   1  -3   76.79    3.80
  -2   1  -3   77.59    1.90
  -2   1  -3   74.79    1.90
  -2   1  -3   71.89    2.10
  -2   1  -3   71.89    3.60
  -2   1  -3   75.39    2.10
  -2   1  -3   73.59    2.10
   2  -1   3   76.69    2.00
   2  -1   3   74.19    2.10
   2  -1   3   73.19    2.00
   2  -1   3   74.59    2.50
   2  -1   3   74.19    2.40
   2  -1   3   74.49    3.70
   2  -1   3   71.99    1.90
  -3   1  -3  266.27    6.10
  -3   1  -3  265.57    6.00
  -3   1  -3  266.57    5.50
  -3   1  -3  272.87    5.60
  -3   1  -3  279.67   10.00
  -3   1  -3  268.67    6.10
  -3   1  -3  264.47    9.70
   3  -1   3  274.77    5.60
   3  -1   3  262.07    6.70
   3  -1   3  271.27    5.80
   3  -1   3  273.57    6.50
   3  -1   3  267.17    5.60
  -4   1  -3   67.19    2.10
  -4   1  -3   64.99    2.40
  -4   1  -3   65.09    2.40
  -4   1  -3   64.99    4.00
  -4   1  -3   66.99    4.40
  -4   1  -3   66.49    2.40
   4  -1   3   68.39    2.30
   4  -1   3   69.79    3.10
   4  -1   3   68.89    3.10
   4  -1   3   67.09    2.10
  -5   1  -3   38.00    2.10
  -5   1  -3   44.40    2.20
  -5   1  -3   33.80    3.90
  -5   1  -3   32.60    3.20
   5  -1   3   39.40    2.80
   5  -1   3   35.30    1.70
   5  -1   3   43.00    2.80
   5  -1   3   36.80    1.80
   5  -1   3   34.50    1.60
  -6   1  -3    1.10    1.10
  -6   1  -3   -0.40    1.30
  -6   1  -3    1.40    0.90
  -6   1  -3    0.70    1.00
   6  -1   3    0.90    1.60
   6  -1   3    0.30    0.90
  -7   1  -3   24.60    5.30
  -7   1  -3   27.90    2.30
  -7   1  -3   32.50    4.90
   7  -1   3   27.20    2.00
  -8   1  -3   -2.70    2.20
   8   0  -3    1.00    1.30
   8   0  -3   -0.40    2.40
  -8   0   3   -0.30    1.60
   7   0  -3   15.70    2.10
   7   0  -3   14.50    2.40
  -7   0   3   13.20    2.20
   6   0  -3    5.20    1.30
   6   0  -3    7.50    2.00
  -6   0   3    5.50    1.50
  -6   0   3    1.90    1.30
   5   0  -3   42.40    2.20
   5   0  -3   42.00    2.10
   5   0  -3   46.10    2.70
  -5   0   3   40.80    2.10
  -5   0   3   43.20    2.50
  -5   0   3   41.90    4.10
  -5   0   3   38.40    3.70
   4   0  -3  383.36    8.00
   4   0  -3  371.76    8.00
   4   0  -3  380.16    8.50
   4   0  -3  373.26    9.10
  -4   0   3  372.76   12.80
  -4   0   3  367.16    8.70
  -4   0   3  372.86    8.00
  -4   0   3  357.16   11.50
  -4   0   3  385.96   12.40
  -4   0   3  368.36    8.80
   3   0  -3   91.29    2.80
   3   0  -3   87.79    3.00
   3   0  -3   88.39    2.60
   3   0  -3   90.89    2.60
   3   0  -3   89.09    3.80
  -3   0   3   92.89    2.90
  -3   0   3   87.89    3.40
  -3   0   3   88.09    2.80
  -3   0   3   88.09    2.90
  -3   0   3   88.29    4.40
  -3   0   3   91.59    4.00
  -3   0   3   93.39    2.60
   2   0  -3   37.40    1.40
   2   0  -3   37.30    1.80
   2   0  -3   39.00    1.50
   2   0  -3   35.10    1.50
   2   0  -3   37.30    2.30
   2   0  -3   39.10    1.40
  -2   0   3   38.50    1.90
  -2   0   3   39.40    1.40
  -2   0   3   37.90    1.90
  -2   0   3   35.60    2.30
  -2   0   3   35.80    1.50
  -2   0   3   37.50    1.50
  -2   0   3   37.80    1.30
  -2   0   3   34.90    1.40
   1   0  -3   -0.20    0.30
   1   0  -3    0.10    0.30
   1   0  -3   -0.30    0.30
   1   0  -3    0.20    0.20
   1   0  -3   -0.20    0.30
   1   0  -3   -0.10    0.30
   1   0  -3   -0.60    0.30
  -1   0   3   -0.80    0.40
  -1   0   3   -0.10    0.30
  -1   0   3   -0.40    0.30
  -1   0   3    0.10    0.20
  -1   0   3   -0.50    0.30
  -1   0   3   -0.40    0.30
  -1   0   3   -0.20    0.40
   0   0  -3  503.65   14.80
   0   0  -3  508.75    9.50
   0   0  -3  504.55   10.20
   0   0  -3  514.05   10.20
   0   0  -3  496.65   13.50
   0   0  -3  514.55    9.50
   0   0  -3  507.95   15.70
   0   0   3  498.25   10.20
   0   0   3  496.45   10.20
   0   0   3  506.65    9.40
   0   0   3  513.15    9.50
   0   0   3  515.45   15.70
   0   0   3  511.65   13.50
   0   0   3  477.45   14.70
  -1   0  -3   88.89    2.40
  -1   0  -3   91.39    2.30
  -1   0  -3   93.89    3.60
  -1   0  -3   93.19    2.40
  -1   0  -3   94.89    3.70
  -1   0  -3   92.89    2.20
  -1   0  -3   96.79    3.90
  -1   0  -3   91.79    2.80
  -1   0  -3   95.59    2.20
   1   0   3   91.09    2.40
   1   0   3   97.39    2.90
   1   0   3   92.99    2.40
   1   0   3   91.49    2.20
   1   0   3   92.49    2.30
   1   0   3   91.99    3.80
   1   0   3   90.69    2.20
   1   0   3   89.69    3.50
  -2   0  -3  496.85   15.70
  -2   0  -3  483.85   13.80
  -2   0  -3  494.05   14.90
  -2   0  -3  477.95    9.90
  -2   0  -3  493.25   10.20
  -2   0  -3  482.35   10.20
  -2   0  -3  500.95    9.40
  -2   0  -3  490.25    9.40
   2   0   3  501.15   10.10
   2   0   3  479.85   15.60
   2   0   3  486.15   10.20
   2   0   3  493.05    9.40
   2   0   3  500.35    9.90
   2   0   3  481.55    9.40
   2   0   3  475.35   14.80
  -3   0  -3   44.30    1.60
  -3   0  -3   39.30    1.70
  -3   0  -3   39.20    2.70
  -3   0  -3   35.90    2.90
  -3   0  -3   39.50    2.60
  -3   0  -3   40.20    1.70
  -3   0  -3   39.40    1.70
   3   0   3   42.80    2.00
   3   0   3   42.40    1.70
   3   0   3   38.90    1.60
   3   0   3   40.50    1.60
   3   0   3   41.50    2.50
   3   0   3   40.90    1.60
   3   0   3   39.60    1.90
  -4   0  -3   91.69    4.50
  -4   0  -3   93.19    3.10
  -4   0  -3   88.09    3.10
  -4   0  -3   95.79    2.80
  -4   0  -3   96.29    5.30
   4   0   3   85.09    3.40
   4   0   3   93.49    2.80
   4   0   3   91.29    3.40
   4   0   3   91.49    3.00
   4   0   3   95.79    2.90
  -5   0  -3    2.00    1.40
  -5   0  -3    1.70    1.10
  -5   0  -3    1.00    0.70
  -5   0  -3    1.90    1.00
   5   0   3    3.40    1.40
   5   0   3    2.20    0.90
   5   0   3    1.90    0.90
   5   0   3    1.40    1.00
  -6   0  -3   31.20    4.20
  -6   0  -3   27.70    4.20
  -6   0  -3   29.70    2.30
   6   0   3   28.80    2.10
  -7   0  -3    4.90    1.90
  -7   0  -3    6.90    1.60
  -7   0  -3    6.80    1.50
  -7   0  -3    2.10    2.10
   7   0   3    5.70    1.40
  -8   0  -3   -3.60    2.20
  -8   0  -3    3.80    1.50
   8   0   3    1.20    1.30
   8  -1  -3   -3.80    1.90
   7  -1  -3    7.80    2.40
   7  -1  -3    5.40    1.20
  -7   1   3    2.60    1.60
  -7   1   3    5.80    1.60
   6  -1  -3   74.09    4.10
   6  -1  -3   77.39    2.90
  -6   1   3   81.99    6.30
  -6   1   3   73.29    5.40
  -6   1   3   78.09    3.40
   5  -1  -3  120.49    4.70
   5  -1  -3  118.89    3.40
  -5   1   3  116.79    6.50
  -5   1   3  119.69    6.00
  -5   1   3  105.19    4.70
  -5   1   3  113.59    3.80
   4  -1  -3  143.29    3.60
   4  -1  -3  146.09    4.80
   4  -1  -3  148.79    3.70
  -4   1   3  143.99    6.20
  -4   1   3  141.69    4.00
  -4   1   3  138.99    3.50
  -4   1   3  148.79    4.10
  -4   1   3  147.89    6.70
   3  -1  -3  121.59    3.00
   3  -1  -3  113.89    3.80
   3  -1  -3  117.89    2.90
   3  -1  -3  123.09    3.00
  -3   1   3  119.59    3.30
  -3   1   3  121.89    3.30
  -3   1   3  121.39    5.30
  -3   1   3  121.49    2.90
  -3   1   3  123.09    4.80
  -3   1   3  117.39    3.20
  -3   1   3  119.89    2.90
   2  -1  -3    6.30    0.60
   2  -1  -3    4.30    0.50
   2  -1  -3    7.70    0.90
   2  -1  -3    7.10    0.60
   2  -1  -3    6.60    0.60
   2  -1  -3    6.70    1.10
  -2   1   3    6.00    1.10
  -2   1   3    6.30    0.60
  -2   1   3    5.70    0.50
  -2   1   3    4.20    0.80
  -2   1   3    4.90    0.60
  -2   1   3    6.70    0.70
   1  -1  -3  137.99    3.10
   1  -1  -3  129.19    4.40
   1  -1  -3  135.09    2.90
   1  -1  -3  133.99    3.20
   1  -1  -3  141.09    2.90
  -1   1   3  142.19    2.90
  -1   1   3  144.79    4.50
  -1   1   3  134.49    5.10
  -1   1   3  140.49    3.20
  -1   1   3  138.09    3.20
  -1   1   3  137.79    2.90
   0  -1  -3  184.58    5.10
   0  -1  -3  194.18    6.30
   0  -1  -3  190.98    3.80
   0  -1  -3  183.18    4.20
   0  -1  -3  183.68    4.10
   0  -1  -3  184.78    3.80
   0  -1  -3  184.48    5.50
   0   1   3  183.38    5.80
   0   1   3  180.68    4.20
   0   1   3  189.68    6.50
   0   1   3  180.68    6.10
   0   1   3  180.78    3.90
   0   1   3  183.48    5.10
   0   1   3  182.68    4.10
   0   1   3  183.68    3.80
   0   1   3  184.38    5.50
  -1  -1  -3  494.95    9.30
  -1  -1  -3  478.75   14.60
  -1  -1  -3  481.95   15.30
  -1  -1  -3  477.55    9.70
  -1  -1  -3  487.55    9.30
  -1  -1  -3  481.05   10.00
  -1  -1  -3  483.95   13.70
  -1  -1  -3  486.15   10.10
   1   1   3  485.05   10.00
   1   1   3  500.25   10.20
   1   1   3  493.75   15.30
   1   1   3  477.85   14.60
   1   1   3  501.75   14.20
   1   1   3  491.75    9.30
   1   1   3  487.95    9.40
   1   1   3  486.45   13.70
  -2  -1  -3   44.10    2.40
  -2  -1  -3   40.90    1.70
  -2  -1  -3   42.50    1.70
  -2  -1  -3   44.70    1.60
  -2  -1  -3   43.10    1.60
  -2  -1  -3   44.40    2.70
  -2  -1  -3   43.90    2.30
   2   1   3   42.50    1.60
   2   1   3   40.90    1.60
   2   1   3   43.20    2.50
   2   1   3   39.70    1.70
   2   1   3   44.10    2.60
   2   1   3   44.80    2.50
   2   1   3   42.60    1.50
  -3  -1  -3  160.48    6.00
  -3  -1  -3  157.08    4.40
  -3  -1  -3  160.98    6.10
  -3  -1  -3  162.78    4.00
  -3  -1  -3  156.98    4.40
  -3  -1  -3  160.88    6.60
   3   1   3  159.78    4.10
   3   1   3  158.38    4.40
   3   1   3  161.48    6.00
   3   1   3  158.78    4.00
  -4  -1  -3   12.50    2.50
  -4  -1  -3   13.00    1.80
  -4  -1  -3   11.60    2.00
  -4  -1  -3   12.00    1.50
  -4  -1  -3   11.30    1.20
  -4  -1  -3   10.60    1.30
   4   1   3    8.90    1.30
   4   1   3   11.30    1.30
   4   1   3   10.90    1.20
   4   1   3    9.60    1.30
  -5  -1  -3   54.19    4.30
  -5  -1  -3   52.39    2.80
  -5  -1  -3   58.89    4.80
  -5  -1  -3   52.49    2.90
  -5  -1  -3   51.39    2.70
   5   1   3   56.39    2.70
   5   1   3   50.69    2.40
   5   1   3   54.59    2.70
  -6  -1  -3   60.29    5.20
  -6  -1  -3   54.79    3.10
  -6  -1  -3   49.70    5.50
   6   1   3   52.49    2.80
  -7  -1  -3    2.30    1.30
  -7  -1  -3    1.50    1.30
   7   1   3    2.20    1.30
  -8  -1  -3    1.00    1.40
   8   1   3    0.80    1.40
   8  -2  -3   -2.90    2.10
   7  -2  -3   10.10    2.70
  -7   2   3    9.00    2.30
  -6   2   3    0.40    1.30
  -6   2   3    4.10    1.50
   5  -2  -3   58.59    3.40
   5  -2  -3   57.59    1.90
  -5   2   3   60.99    2.40
  -5   2   3   57.09    4.30
  -5   2   3   56.09    4.50
   4  -2  -3   16.60    0.90
   4  -2  -3   18.00    1.90
   4  -2  -3   16.90    1.00
   4  -2  -3   16.50    1.80
  -4   2   3   15.70    1.00
  -4   2   3   15.30    1.20
  -4   2   3   15.00    0.80
  -4   2   3   14.70    2.30
  -4   2   3   18.70    2.50
   3  -2  -3  130.89    3.70
   3  -2  -3  124.09    4.20
   3  -2  -3  126.39    2.80
  -3   2   3  129.49    2.70
  -3   2   3  121.19    3.20
  -3   2   3  121.09    2.70
  -3   2   3  123.09    5.40
  -3   2   3  127.79    5.10
  -3   2   3  128.09    3.10
  -3   2   3  121.89    3.10
   2  -2  -3   69.89    2.70
   2  -2  -3   69.59    1.50
   2  -2  -3   75.69    1.50
   2  -2  -3   72.69    1.70
  -2   2   3   71.19    1.70
  -2   2   3   71.89    1.60
  -2   2   3   72.39    1.90
  -2   2   3   72.59    1.90
  -2   2   3   68.39    3.90
  -2   2   3   70.79    3.30
   1  -2  -3    3.80    0.50
   1  -2  -3    4.60    0.50
  -1   2   3    5.00    1.30
  -1   2   3    3.60    0.50
  -1   2   3    5.00    0.60
  -1   2   3    5.50    0.50
  -1   2   3    5.20    0.80
  -1   2   3    3.70    0.50
  -1   2   3    4.30    0.50
   0  -2  -3  609.44   12.50
   0  -2  -3  600.24   17.70
   0  -2  -3  625.34   12.00
   0  -2  -3  616.54   12.50
   0  -2  -3  612.44   11.60
   0  -2  -3  660.53   18.50
   0   2   3  632.64   11.70
   0   2   3  605.74   12.60
   0   2   3  623.44   11.60
   0   2   3  599.14   17.70
   0   2   3  636.74   17.60
   0   2   3  612.34   18.30
   0   2   3  618.64   12.50
  -1  -2  -3  324.37    8.90
  -1  -2  -3  322.67   10.40
  -1  -2  -3  330.07    6.70
  -1  -2  -3  328.27    7.30
  -1  -2  -3  324.37    7.30
  -1  -2  -3  322.27   10.00
  -1  -2  -3  333.87   10.30
  -1  -2  -3  329.77    6.70
   1   2   3  348.17    7.30
   1   2   3  325.57    6.70
   1   2   3  322.57   10.20
   1   2   3  336.37    6.80
   1   2   3  320.67   10.30
   1   2   3  321.47    7.30
   1   2   3  319.97   10.10
  -2  -2  -3   97.39    2.80
  -2  -2  -3   99.79    2.80
  -2  -2  -3   99.59    3.10
  -2  -2  -3  100.79    4.50
  -2  -2  -3   98.79    4.30
  -2  -2  -3   96.19    3.80
  -2  -2  -3  102.79    3.10
  -2  -2  -3   99.89    4.50
   2   2   3   98.49    4.40
   2   2   3   97.19    4.10
   2   2   3   99.99    4.40
   2   2   3   99.79    3.00
   2   2   3   93.79    3.10
   2   2   3   95.79    2.80
   2   2   3   98.99    2.80
  -3  -2  -3   11.30    1.20
  -3  -2  -3    9.50    1.20
  -3  -2  -3   12.10    1.70
  -3  -2  -3   12.50    1.20
  -3  -2  -3   10.80    2.10
   3   2   3   12.30    1.10
   3   2   3   10.00    1.60
   3   2   3   12.60    2.40
   3   2   3   10.90    1.20
   3   2   3   10.40    1.20
  -4  -2  -3  131.69    4.00
  -4  -2  -3  128.29    4.30
  -4  -2  -3  130.09    6.60
  -4  -2  -3  127.49    5.90
   4   2   3  125.19    3.80
   4   2   3  127.69    4.00
   4   2   3  131.09    4.40
   4   2   3  122.99    4.90
  -5  -2  -3   18.90    3.00
  -5  -2  -3   18.30    3.60
  -5  -2  -3   18.20    2.10
   5   2   3   16.50    1.90
   5   2   3   15.50    1.90
  -6  -2  -3    4.60    2.00
  -6  -2  -3    6.90    1.50
  -6  -2  -3    7.40    1.70
  -6  -2  -3    4.60    1.60
   6   2   3   10.40    1.70
  -7  -2  -3    4.80    1.70
  -7  -2  -3    1.30    1.40
  -7  -2  -3   -1.60    2.00
   7   2   3    4.20    1.70
  -8  -2  -3    3.50    2.00
   8   2   3    2.90    1.70
   8  -3  -3   -0.70    2.60
   7  -3  -3   24.40    3.80
  -7   3   3   23.00    4.80
   6  -3  -3   56.89    4.10
  -6   3   3   62.39    5.40
  -6   3   3   55.69    5.00
   5  -3  -3   69.39    3.50
   5  -3  -3   74.09    4.00
  -5   3   3   65.29    2.20
  -5   3   3   70.29    4.80
  -5   3   3   75.89    5.20
   4  -3  -3   24.10    2.30
   4  -3  -3   22.90    2.00
  -4   3   3   20.50    1.00
  -4   3   3   20.60    1.20
  -4   3   3   20.80    2.50
  -4   3   3   23.70    2.90
  -4   3   3   21.20    1.00
   3  -3  -3   84.89    3.50
   3  -3  -3   89.99    3.10
  -3   3   3   89.79    4.50
  -3   3   3   90.19    2.20
  -3   3   3   89.39    2.20
   2  -3  -3   15.50    0.70
   2  -3  -3   16.60    1.50
   2  -3  -3   17.40    1.20
   2  -3  -3   16.20    0.70
  -2   3   3   14.90    0.70
  -2   3   3   17.30    2.20
  -2   3   3   17.50    1.70
  -2   3   3   15.40    0.60
  -2   3   3   17.10    0.80
  -2   3   3   15.60    0.60
   1  -3  -3  216.98    4.70
   1  -3  -3  219.68    4.50
   1  -3  -3  212.48    4.50
   1  -3  -3  218.48    5.50
  -1   3   3  214.08    4.80
  -1   3   3  224.38    4.40
  -1   3   3  216.88    4.50
  -1   3   3  217.28    7.90
  -1   3   3  217.88    4.90
  -1   3   3  212.98    7.70
   0  -3  -3    0.90    0.60
   0  -3  -3    0.80    0.50
   0  -3  -3    1.80    0.60
   0  -3  -3    1.90    0.50
   0  -3  -3    3.00    0.60
   0  -3  -3    1.30    0.50
   0   3   3    1.90    0.40
   0   3   3    1.40    0.50
   0   3   3    0.90    0.50
   0   3   3    2.20    0.60
   0   3   3    2.20    0.50
   0   3   3    1.40    0.70
   0   3   3    0.80    0.60
   0   3   3    0.50    0.40
  -1  -3  -3  255.47    6.20
  -1  -3  -3  253.57    6.20
  -1  -3  -3  266.07    5.80
  -1  -3  -3  249.48    8.70
  -1  -3  -3  257.97    5.70
  -1  -3  -3  253.27    8.60
  -1  -3  -3  261.97    8.80
  -1  -3  -3  259.07    7.20
   1   3   3  255.37    8.80
   1   3   3  245.68    8.60
   1   3   3  253.17    8.50
   1   3   3  253.97    6.20
   1   3   3  252.37    5.60
   1   3   3  263.27    6.10
   1   3   3  258.47    5.70
  -2  -3  -3  286.77    6.50
  -2  -3  -3  282.97    6.40
  -2  -3  -3  277.57    7.00
  -2  -3  -3  274.97    9.60
  -2  -3  -3  282.27    9.90
  -2  -3  -3  277.07    8.50
   2   3   3  283.67    9.80
   2   3   3  279.57    7.00
   2   3   3  277.37    6.40
  -3  -3  -3   21.00    1.70
  -3  -3  -3   19.50    2.00
  -3  -3  -3   20.70    1.60
  -3  -3  -3   24.20    2.80
   3   3   3   17.80    2.00
   3   3   3   20.70    1.70
   3   3   3   22.00    1.80
   3   3   3   25.90    3.20
  -4  -3  -3   10.80    1.60
  -4  -3  -3   17.10    1.90
  -4  -3  -3   14.70    2.40
  -4  -3  -3   18.10    3.40
   4   3   3   13.90    1.70
   4   3   3   13.10    1.80
   4   3   3   11.50    1.80
   4   3   3   19.50    3.70
  -5  -3  -3    0.60    0.80
  -5  -3  -3    0.00    1.50
  -5  -3  -3    0.20    1.20
   5   3   3   -1.40    1.10
   5   3   3   -1.40    1.30
  -6  -3  -3   34.50    4.10
  -6  -3  -3   34.50    2.50
  -6  -3  -3   33.20    3.10
  -6  -3  -3   30.10    5.20
   6   3   3   41.60    3.00
   6   3   3   40.50    2.90
  -7  -3  -3    7.20    2.20
  -7  -3  -3    2.70    1.60
  -7  -3  -3   -1.10    2.30
   7   3   3    4.00    1.70
   7  -4  -3    4.20    2.70
  -7   4   3   -0.20    1.40
  -7   4   3    2.70    2.00
   6  -4  -3    3.80    2.20
  -6   4   3    1.30    1.20
  -6   4   3    2.90    1.90
  -6   4   3    0.90    1.30
   5  -4  -3    7.00    1.90
   5  -4  -3   11.90    2.50
  -5   4   3    5.90    2.00
  -5   4   3    6.60    1.60
  -5   4   3   12.60    3.00
   4  -4  -3   13.70    2.20
   4  -4  -3   15.10    2.10
  -4   4   3   14.20    2.50
  -4   4   3   15.60    0.90
  -4   4   3   16.10    2.60
  -4   4   3   13.90    3.40
   3  -4  -3    4.50    1.20
   3  -4  -3    3.20    1.30
  -3   4   3    4.10    0.50
  -3   4   3    2.90    1.30
  -3   4   3    2.10    0.80
  -3   4   3    3.90    0.40
   2  -4  -3   47.90    2.10
   2  -4  -3   52.89    2.60
   2  -4  -3   50.59    1.40
   2  -4  -3   50.19    1.40
  -2   4   3   46.00    1.20
  -2   4   3   44.30    1.50
  -2   4   3   50.69    3.80
  -2   4   3   45.10    1.20
  -2   4   3   48.40    1.60
  -2   4   3   51.39    3.50
   1  -4  -3   -0.20    0.50
   1  -4  -3    1.00    0.50
   1  -4  -3    1.50    0.70
   1  -4  -3    1.20    0.80
   1  -4  -3   -0.80    0.50
   1  -4  -3    0.10    0.10
  -1   4   3    1.30    0.80
  -1   4   3    0.80    0.60
  -1   4   3    0.20    0.60
  -1   4   3   -0.70    0.60
  -1   4   3   -0.50    0.50
   0  -4  -3   62.69    3.20
   0  -4  -3   65.29    2.20
   0  -4  -3   62.59    2.10
   0  -4  -3   65.49    2.30
   0   4   3   63.89    2.10
   0   4   3   64.39    2.30
   0   4   3   61.59    3.80
   0   4   3   61.59    2.40
   0   4   3   62.69    2.30
   0   4   3   65.49    3.30
  -1  -4  -3  354.66    9.70
  -1  -4  -3  347.57    7.60
  -1  -4  -3  351.66   11.30
  -1  -4  -3  343.67    8.20
  -1  -4  -3  350.56    7.60
   1   4   3  355.16    7.60
   1   4   3  354.36   11.20
   1   4   3  343.97   11.80
   1   4   3  340.77    9.60
   1   4   3  344.17    8.20
   1   4   3  338.87    8.30
  -2  -4  -3   71.89    3.20
  -2  -4  -3   71.49    3.90
  -2  -4  -3   71.29    2.70
  -2  -4  -3   72.39    3.00
  -2  -4  -3   75.89    4.50
   2   4   3   72.79    4.40
   2   4   3   73.99    3.10
   2   4   3   71.99    2.80
   2   4   3   70.59    3.10
  -3  -4  -3   30.30    3.40
  -3  -4  -3   28.00    2.00
  -3  -4  -3   28.10    2.10
  -3  -4  -3   28.70    2.40
   3   4   3   31.90    2.30
   3   4   3   27.50    2.50
   3   4   3   31.40    2.10
   3   4   3   30.70    3.60
  -4  -4  -3   50.09    4.60
  -4  -4  -3   46.90    3.00
  -4  -4  -3   44.60    3.50
   4   4   3   45.60    3.00
   4   4   3   40.60    3.20
   4   4   3   50.39    5.10
   4   4   3   42.90    2.70
  -5  -4  -3   29.30    3.60
  -5  -4  -3   27.80    2.40
  -5  -4  -3   26.80    4.30
  -5  -4  -3   29.80    2.80
   5   4   3   34.20    3.00
   5   4   3   27.60    2.50
  -6  -4  -3   -1.00    1.60
  -6  -4  -3    0.80    1.50
  -6  -4  -3   -0.30    1.00
  -6  -4  -3    0.70    1.40
   6   4   3    1.90    1.40
   6   4   3   -0.40    1.60
  -7  -4  -3    0.20    1.70
  -7  -4  -3   -2.50    2.00
  -7  -4  -3   -0.80    1.10
   7   4   3   -2.10    1.70
   7  -5  -3   36.00    4.10
  -7   5   3   29.80    5.10
   6  -5  -3    3.80    2.30
   6  -5  -3    6.90    2.70
  -6   5   3    3.00    1.90
  -6   5   3    2.20    1.30
  -6   5   3    4.00    1.70
   5  -5  -3   37.00    3.40
   5  -5  -3   30.60    3.20
  -5   5   3   33.60    4.70
  -5   5   3   32.40    3.80
  -5   5   3   35.90    3.90
   4  -5  -3    2.80    1.40
   4  -5  -3    3.80    1.70
  -4   5   3    1.80    0.90
  -4   5   3    3.50    1.50
   3  -5  -3    2.70    1.40
   3  -5  -3    1.10    1.10
  -3   5   3   -0.10    0.40
  -3   5   3    0.30    0.40
  -3   5   3    0.20    1.20
  -3   5   3    0.30    1.00
   2  -5  -3    8.90    1.50
   2  -5  -3    7.20    1.40
   2  -5  -3    4.40    0.70
   2  -5  -3    5.20    0.70
  -2   5   3    3.60    0.80
  -2   5   3    3.90    1.10
  -2   5   3    4.30    1.40
  -2   5   3    4.40    0.50
  -2   5   3    4.10    0.80
   1  -5  -3  106.69    3.70
   1  -5  -3  115.59    3.00
   1  -5  -3  114.49    2.80
   1  -5  -3  110.29    3.30
  -1   5   3  112.29    5.80
  -1   5   3  109.69    3.40
  -1   5   3  110.79    2.90
  -1   5   3  112.99    5.10
  -1   5   3  108.79    3.30
   0  -5  -3   27.00    1.60
   0  -5  -3   26.50    1.60
   0  -5  -3   29.00    1.50
   0  -5  -3   28.40    2.20
   0  -5  -3   28.90    1.70
   0   5   3   27.70    1.60
   0   5   3   29.00    1.60
   0   5   3   29.60    3.00
   0   5   3   28.90    1.70
   0   5   3   27.70    1.80
   0   5   3   28.20    2.50
  -1  -5  -3    1.10    0.80
  -1  -5  -3    1.10    0.80
  -1  -5  -3    0.90    0.60
  -1  -5  -3    1.20    0.80
   1   5   3    0.50    0.30
   1   5   3    0.30    1.00
   1   5   3    1.40    0.80
   1   5   3    0.50    0.90
   1   5   3    0.60    0.90
   1   5   3    0.70    0.80
  -2  -5  -3  120.69    4.80
  -2  -5  -3  120.99    4.00
  -2  -5  -3  117.19    5.40
  -2  -5  -3  121.69    4.30
   2   5   3  112.59    6.30
   2   5   3  123.29    4.40
   2   5   3  116.89    4.50
   2   5   3  120.69    3.90
  -3  -5  -3    3.10    1.40
  -3  -5  -3    1.40    0.70
  -3  -5  -3    0.90    1.30
   3   5   3    2.30    1.70
   3   5   3    1.40    1.30
   3   5   3    0.90    1.20
  -4  -5  -3    9.50    1.80
  -4  -5  -3   11.90    2.30
  -4  -5  -3   10.50    2.40
  -4  -5  -3    7.70    2.00
   4   5   3    7.40    2.50
   4   5   3   10.00    2.10
   4   5   3   10.60    2.00
  -5  -5  -3   29.30    3.60
  -5  -5  -3   23.60    4.30
  -5  -5  -3   30.00    3.00
  -5  -5  -3   27.60    2.70
   5   5   3   32.40    3.00
   5   5   3   30.90    3.00
  -6  -5  -3   -0.70    1.50
  -6  -5  -3   -0.40    1.20
  -6  -5  -3   -2.30    1.40
  -6  -5  -3   -1.00    1.70
   6   5   3   -0.20    1.60
   6   5   3    0.60    1.70
  -7  -5  -3   -1.70    2.00
  -7  -5  -3   -1.60    1.30
  -7  -5  -3    0.60    1.70
   7   5   3   -2.20    1.90
   7  -6  -3    2.80    2.50
   6  -6  -3   -2.30    2.20
   6  -6  -3   -0.80    2.30
  -6   6   3    1.10    1.20
  -6   6   3    1.40    1.50
  -6   6   3    2.10    1.60
   5  -6  -3   10.00    2.80
   5  -6  -3    5.10    2.10
  -5   6   3    3.50    1.20
  -5   6   3    5.50    2.10
   4  -6  -3   -0.10    1.40
   4  -6  -3    0.80    1.70
  -4   6   3    0.80    1.20
  -4   6   3    0.70    1.50
  -4   6   3    0.70    0.80
   3  -6  -3   30.20    2.30
   3  -6  -3   27.10    2.60
  -3   6   3   28.50    3.60
  -3   6   3   27.40    3.40
  -3   6   3   26.20    1.20
   2  -6  -3   -0.10    0.60
   2  -6  -3    3.70    1.10
   2  -6  -3    2.00    1.20
   2  -6  -3    0.50    0.70
  -2   6   3    3.10    1.10
  -2   6   3    1.20    0.80
  -2   6   3    2.60    1.40
   1  -6  -3    6.00    1.10
   1  -6  -3    8.60    1.40
   1  -6  -3    6.90    1.10
   1  -6  -3    5.90    0.90
   1  -6  -3    7.40    1.40
  -1   6   3    4.60    1.70
  -1   6   3    6.70    1.00
  -1   6   3    5.10    1.20
  -1   6   3    7.00    1.20
  -1   6   3    7.00    1.30
   0  -6  -3   10.80    1.40
   0  -6  -3    8.30    1.20
   0  -6  -3   10.30    1.30
   0   6   3   10.90    1.70
   0   6   3    8.50    2.10
   0   6   3   10.20    1.30
   0   6   3    7.70    1.30
   0   6   3    7.50    2.00
   0   6   3   12.00    1.40
  -1  -6  -3   31.90    1.70
  -1  -6  -3   33.50    2.20
  -1  -6  -3   34.00    2.40
   1   6   3   31.70    2.00
   1   6   3   36.60    4.30
   1   6   3   35.80    2.60
   1   6   3   31.10    2.00
  -2  -6  -3  112.39    5.30
  -2  -6  -3  117.79    4.90
  -2  -6  -3  111.99    4.40
   2   6   3  113.09    4.10
   2   6   3  113.99    4.60
   2   6   3  117.39    7.20
   2   6   3  103.29    4.40
  -3  -6  -3   67.59    4.10
  -3  -6  -3   70.79    3.50
  -3  -6  -3   75.69    4.10
   3   6   3   68.69    5.90
   3   6   3   75.89    3.70
   3   6   3   70.99    3.90
  -4  -6  -3   -0.20    0.90
  -4  -6  -3    0.70    1.50
  -4  -6  -3    0.80    1.50
  -4  -6  -3    1.80    1.70
   4   6   3   -1.30    2.30
   4   6   3    0.30    1.70
   4   6   3    2.20    1.60
  -5  -6  -3    8.20    2.20
  -5  -6  -3    9.50    2.40
  -5  -6  -3    4.30    2.00
   5   6   3    9.20    2.30
   5   6   3   10.50    2.20
  -6  -6  -3   -1.20    1.60
  -6  -6  -3   -1.90    1.80
  -6  -6  -3   -0.60    1.20
  -6  -6  -3    3.00    2.00
   6   6   3    3.20    2.00
   6   6   3    3.00    2.00
  -7  -6  -3   -1.30    1.50
   6  -7  -3   -0.90    2.30
   6  -7  -3   -0.40    2.50
  -6   7   3    1.40    1.70
   5  -7  -3    7.50    2.70
   5  -7  -3    5.50    2.60
  -5   7   3    4.80    2.00
  -5   7   3    3.40    1.70
   4  -7  -3    3.30    2.20
   4  -7  -3    1.40    2.00
  -4   7   3    2.80    1.40
  -4   7   3    2.60    1.70
   3  -7  -3   11.90    2.00
  -3   7   3   13.60    2.80
  -3   7   3    8.00    1.10
  -3   7   3   10.10    2.50
   2  -7  -3    9.30    1.20
   2  -7  -3    9.50    1.90
   2  -7  -3    9.30    1.70
  -2   7   3    9.50    1.40
  -2   7   3    5.40    2.00
   1  -7  -3   17.10    1.20
   1  -7  -3   22.10    2.10
   1  -7  -3   20.60    1.70
   1  -7  -3   16.70    1.80
  -1   7   3   20.60    1.90
  -1   7   3   12.50    2.50
  -1   7   3   20.30    3.50
   0  -7  -3    7.20    1.30
   0  -7  -3    8.00    1.50
   0  -7  -3    7.10    1.40
   0   7   3    4.80    1.90
   0   7   3    6.90    1.20
   0   7   3    5.90    1.50
  -1  -7  -3   16.90    2.00
  -1  -7  -3   12.80    1.80
   1   7   3   14.40    2.30
   1   7   3   13.50    1.80
   1   7   3   10.40    2.50
  -2  -7  -3   10.90    1.90
  -2  -7  -3   13.90    2.10
   2   7   3    7.50    2.50
   2   7   3   14.30    2.00
   2   7   3   13.60    2.20
  -3  -7  -3    3.00    1.80
  -3  -7  -3    0.70    1.00
  -3  -7  -3    3.90    1.80
   3   7   3    3.70    1.90
   3   7   3    2.30    1.60
   3   7   3    1.20    2.30
  -4  -7  -3   -0.90    0.90
  -4  -7  -3    1.40    1.60
  -4  -7  -3    0.00    1.50
   4   7   3    0.60    1.60
   4   7   3    2.40    2.00
   4   7   3   -4.40    2.20
  -5  -7  -3   12.10    2.70
  -5  -7  -3    8.80    2.30
   5   7   3   10.10    2.50
   5   7   3    5.80    2.20
  -6  -7  -3    3.40    2.30
  -6  -7  -3    0.90    2.00
  -6  -7  -3    2.30    2.00
   6   7   3    7.10    2.50
   6   7   3    4.00    2.20
   5  -8  -3    4.70    2.70
   5  -8  -3    3.20    2.80
  -5   8   3    4.10    2.20
   4  -8  -3    8.60    2.40
   4  -8  -3    4.50    2.60
  -4   8   3    3.40    2.00
   3  -8  -3    3.70    2.10
   3  -8  -3    1.50    1.80
  -3   8   3    2.20    1.70
   2  -8  -3    2.50    1.60
   2  -8  -3    2.20    1.00
   2  -8  -3    2.40    1.60
  -2   8   3    2.40    1.10
  -2   8   3    2.40    1.70
   1  -8  -3    8.40    1.50
   1  -8  -3    8.20    1.70
   1  -8  -3    7.70    1.80
  -1   8   3    8.50    1.70
   0  -8  -3   21.30    2.20
   0  -8  -3   18.60    1.90
   0   8   3   20.90    2.50
   0   8   3   20.20    4.20
  -1  -8  -3    6.90    1.70
   1   8   3    5.70    1.90
   1   8   3    5.60    2.70
  -2  -8  -3   12.40    2.30
   2   8   3   10.00    1.90
   2   8   3   10.30    2.40
   2   8   3    5.70    2.90
  -3  -8  -3   41.70    3.40
  -3  -8  -3   46.40    3.60
   3   8   3   43.20    3.70
   3   8   3   46.90    3.50
  -4  -8  -3    2.90    1.80
  -4  -8  -3    0.90    1.80
   4   8   3    2.30    2.00
   4   8   3    3.10    1.90
  -5  -8  -3   -0.60    1.90
   5   8   3    3.70    2.40
   5   8   3    1.30    2.00
   6   8   3    1.10    2.30
   4  -9  -3    1.00    2.50
   4  -9  -3    2.30    2.40
  -4   9   3    1.30    2.00
   3  -9  -3    5.60    2.20
   3  -9  -3    1.80    2.10
  -3   9   3    1.10    2.00
   2  -9  -3   15.80    2.50
   2  -9  -3   15.30    2.60
  -2   9   3   19.20    2.00
  -2   9   3   10.70    3.00
   1  -9  -3   -1.70    1.10
   1  -9  -3    0.60    1.50
   1  -9  -3   -0.30    1.30
  -1   9   3   -2.50    2.00
  -1   9   3    0.90    1.30
   0  -9  -3    1.70    1.50
   0   9   3   -0.10    2.10
   0   9   3    1.50    1.50
  -1  -9  -3    2.00    1.60
   1   9   3    1.70    1.70
   1   9   3   -0.60    2.40
  -2  -9  -3   -1.10    1.70
   2   9   3   -0.80    1.70
   2   9   3   -4.50    2.70
  -3  -9  -3    1.60    1.90
   3   9   3    1.60    1.70
   3   9   3    0.90    1.90
  -4  -9  -3   -0.50    2.10
  -4  -9  -3    1.50    2.10
   4   9   3    0.70    2.10
   4   9   3    2.70    1.90
  -5  -9  -3   -4.50    1.90
   5   9   3    3.40    2.40
   3 -10  -3   -2.10    2.10
   3 -10  -3    3.00    2.10
   2 -10  -3    0.50    1.90
   2 -10  -3    1.70    1.90
  -2  10   3   -0.30    2.30
   1 -10  -3    5.00    2.10
   1 -10  -3    1.10    1.50
  -1  10   3   -0.60    2.50
  -1  10   3    3.30    1.50
   0 -10  -3    1.40    1.80
   0  10   3    1.80    1.70
   0  10   3   -2.10    3.00
  -1 -10  -3    3.10    2.10
   1  10   3   -3.80    3.20
   1  10   3    7.20    2.20
  -2 -10  -3   -0.20    1.90
   1 -11  -3    1.70    1.80
   0 -11  -3    6.30    2.30
   1 -10   4    0.50    2.20
   2 -10   4   -0.40    2.00
   4   9  -4    1.00    2.00
   1   9  -4    1.40    1.90
  -1  -9   4    5.70    2.30
   0  -9   4    3.80    1.90
  -1   9  -4   15.70    2.70
   1  -9   4   13.90    2.90
   1  -9   4   11.30    2.10
  -2   9  -4    6.20    1.70
   2  -9   4    8.90    1.70
   2  -9   4    8.70    2.60
   3  -9   4    3.70    2.20
   4  -9   4    0.20    2.00
  -5  -8   4   -3.70    2.30
   4   8  -4    0.40    2.20
   4   8  -4    1.00    1.90
  -4  -8   4   -0.90    1.80
  -4  -8   4    0.70    2.30
  -4  -8   4   -1.90    1.50
   3   8  -4   14.30    2.50
   3   8  -4   14.00    2.80
  -3  -8   4   11.70    2.70
  -3  -8   4   15.80    2.80
   2   8  -4   24.00    3.10
   2   8  -4   21.50    2.60
  -2  -8   4   20.10    3.20
  -2  -8   4   23.00    3.20
   1   8  -4   27.50    4.70
   1   8  -4   17.70    2.70
  -1  -8   4   15.40    2.50
   0   8  -4   41.00    3.30
   0   8  -4   44.00    5.70
   0  -8   4   33.20    2.80
  -1   8  -4    1.60    1.50
  -1   8  -4    2.30    1.50
   1  -8   4    1.70    1.40
  -2   8  -4   -0.40    1.10
  -2   8  -4    2.10    1.40
   2  -8   4   -0.40    1.10
   2  -8   4   -0.20    1.80
  -3   8  -4    0.90    1.10
  -3   8  -4    2.30    1.60
   3  -8   4    1.40    2.00
   4  -8   4   -0.80    1.90
   5  -8   4   -1.20    2.00
   6   7  -4    2.40    2.40
  -6  -7   4    1.50    2.40
   5   7  -4    1.00    2.30
   5   7  -4    3.90    2.20
  -5  -7   4    1.60    2.20
  -5  -7   4    0.80    2.20
  -5  -7   4   -3.30    1.60
   4   7  -4   -0.10    1.80
   4   7  -4   -0.40    1.80
  -4  -7   4   -0.50    1.80
  -4  -7   4    0.60    2.00
  -4  -7   4   -2.60    1.30
   3   7  -4   -4.30    2.30
   3   7  -4    1.60    1.00
   3   7  -4    0.30    1.70
   3   7  -4    2.40    1.70
  -3  -7   4    0.90    1.90
  -3  -7   4    0.00    1.70
  -3  -7   4   -0.70    1.30
   2   7  -4   35.50    2.80
   2   7  -4   36.10    3.20
   2   7  -4   45.50    5.20
  -2  -7   4   37.10    3.10
  -2  -7   4   40.40    3.30
   1   7  -4    0.20    1.20
   1   7  -4    3.00    1.40
   1   7  -4   -1.40    1.90
   1   7  -4    0.90    1.40
  -1  -7   4    1.70    1.40
  -1  -7   4    0.10    1.40
   0   7  -4   -1.30    1.80
   0   7  -4   -0.30    1.10
   0   7  -4    1.00    1.40
   0   7  -4   -0.60    1.30
   0  -7   4   -0.10    1.20
  -1   7  -4   61.49    3.30
  -1   7  -4   49.80    4.90
  -1   7  -4   66.99    6.90
   1  -7   4   56.59    3.00
  -2   7  -4    0.10    1.40
  -2   7  -4    2.80    1.20
  -2   7  -4    1.80    1.40
   2  -7   4    0.90    1.10
   2  -7   4    1.20    1.50
  -3   7  -4    5.50    1.90
  -3   7  -4    6.70    1.30
   3  -7   4    3.20    2.00
   3  -7   4    5.70    1.10
   3  -7   4    8.10    2.20
  -4   7  -4    4.40    2.00
   4  -7   4    5.20    2.20
   4  -7   4    3.90    2.20
  -5   7  -4   20.80    4.80
   5  -7   4    4.00    2.40
   5  -7   4    3.40    2.30
   6  -7   4    2.00    2.60
   6   6  -4    2.20    2.00
   6   6  -4    5.40    2.40
  -6  -6   4    9.10    2.90
  -6  -6   4    0.30    2.10
  -6  -6   4    4.00    2.50
   5   6  -4    2.70    2.00
   5   6  -4    6.10    2.30
  -5  -6   4   -0.80    1.40
  -5  -6   4    2.60    2.20
  -5  -6   4    3.40    2.10
   4   6  -4    4.60    2.00
   4   6  -4    6.00    2.00
  -4  -6   4    4.00    2.00
  -4  -6   4    5.00    1.90
  -4  -6   4    1.30    1.60
   3   6  -4    9.90    2.20
   3   6  -4    8.90    1.90
   3   6  -4    4.70    2.60
  -3  -6   4    8.80    2.20
  -3  -6   4    7.30    1.90
   2   6  -4  102.49    6.40
   2   6  -4   80.99    6.40
   2   6  -4   92.59    4.30
   2   6  -4   86.69    3.80
  -2  -6   4   94.69    4.50
  -2  -6   4   88.79    5.70
  -2  -6   4   81.99    3.90
   1   6  -4   40.40    4.40
   1   6  -4   39.20    2.80
   1   6  -4   34.40    4.40
   1   6  -4   35.30    2.40
  -1  -6   4   39.00    2.60
  -1  -6   4   40.90    2.90
   0   6  -4   92.69    3.90
   0   6  -4  110.49    7.10
   0   6  -4   98.69    5.90
   0   6  -4   94.59    3.50
   0  -6   4   91.89    3.60
   0  -6   4  100.89    3.90
  -1   6  -4    2.80    1.30
  -1   6  -4    5.60    1.40
  -1   6  -4    4.30    1.00
  -1   6  -4    3.40    1.50
   1  -6   4    7.70    1.40
   1  -6   4    5.10    1.20
  -2   6  -4    0.10    1.00
  -2   6  -4    0.40    1.10
  -2   6  -4    1.70    1.00
   2  -6   4    1.50    1.40
   2  -6   4    0.80    1.20
   2  -6   4    1.30    0.90
  -3   6  -4    2.00    0.90
  -3   6  -4    0.80    1.00
  -3   6  -4    1.30    1.30
   3  -6   4    2.70    1.70
   3  -6   4    2.20    1.60
   3  -6   4    2.60    0.80
  -4   6  -4    3.90    1.70
  -4   6  -4    6.60    1.00
   4  -6   4    7.80    2.10
   4  -6   4    7.80    2.10
  -5   6  -4    4.10    1.60
  -5   6  -4    0.60    1.40
   5  -6   4    0.40    1.90
   5  -6   4    2.10    2.10
  -6   6  -4   27.00    4.90
  -6   6  -4   26.30    4.50
   6   5  -4   -1.80    1.60
   6   5  -4    0.20    2.00
  -6  -5   4   -0.70    1.60
  -6  -5   4   -1.60    1.50
  -6  -5   4    0.10    2.20
   5   5  -4    8.30    2.10
   5   5  -4    7.60    2.20
  -5  -5   4   12.10    2.60
  -5  -5   4    8.40    2.20
   4   5  -4    9.10    2.10
   4   5  -4    9.30    2.00
  -4  -5   4    4.70    1.70
  -4  -5   4    8.90    2.20
  -4  -5   4    8.10    2.00
   3   5  -4    3.30    1.50
   3   5  -4    1.60    0.80
   3   5  -4    4.20    1.70
  -3  -5   4    6.50    1.70
  -3  -5   4    8.10    2.00
  -3  -5   4    2.40    1.20
   2   5  -4   87.69    3.90
   2   5  -4   87.49    3.60
   2   5  -4   91.99    5.50
   2   5  -4   90.69    6.00
  -2  -5   4   77.59    3.20
  -2  -5   4   89.09    4.00
  -2  -5   4   84.29    3.60
  -2  -5   4   87.59    5.30
   1   5  -4   14.00    1.80
   1   5  -4   14.60    3.30
   1   5  -4   13.40    3.10
   1   5  -4   14.80    1.60
  -1  -5   4   13.00    2.70
  -1  -5   4   16.10    2.00
  -1  -5   4   15.20    2.00
   0   5  -4   31.90    2.10
   0   5  -4   33.20    3.80
   0   5  -4   33.20    2.00
   0   5  -4   33.10    2.10
   0   5  -4   35.30    3.40
   0  -5   4   30.60    2.10
   0  -5   4   31.50    2.00
   0  -5   4   34.60    2.00
  -1   5  -4   15.90    1.00
  -1   5  -4   16.20    1.60
  -1   5  -4   17.90    2.50
  -1   5  -4   16.70    3.30
  -1   5  -4   16.50    1.40
   1  -5   4   17.40    1.50
   1  -5   4   17.40    1.50
   1  -5   4   16.40    1.70
  -2   5  -4   66.39    2.60
  -2   5  -4   53.79    3.50
  -2   5  -4   67.69    5.60
  -2   5  -4   63.19    3.80
  -2   5  -4   58.19    2.10
   2  -5   4   64.69    2.40
   2  -5   4   57.49    3.00
   2  -5   4   65.39    3.00
   2  -5   4   64.39    2.30
  -3   5  -4    3.00    1.00
  -3   5  -4    1.60    1.20
  -3   5  -4    4.80    1.00
   3  -5   4    3.10    1.50
   3  -5   4    3.70    0.80
   3  -5   4    3.50    1.60
  -4   5  -4    0.70    0.90
  -4   5  -4   -0.30    0.50
  -4   5  -4   -0.40    1.00
   4  -5   4   -0.20    1.40
   4  -5   4   -0.70    1.30
  -5   5  -4    4.00    1.80
  -5   5  -4   14.20    3.30
   5  -5   4    9.10    2.40
   5  -5   4    6.50    2.20
  -6   5  -4    4.80    1.90
  -6   5  -4    5.80    2.30
   6  -5   4    7.40    2.70
   6  -5   4   11.80    2.80
   7  -5   4   -1.00    2.40
   7   4  -4    2.80    2.10
  -7  -4   4   -1.20    1.90
   6   4  -4    2.80    1.80
   6   4  -4    2.10    2.00
  -6  -4   4    2.20    1.90
  -6  -4   4   -1.00    1.40
  -6  -4   4    3.30    1.90
   5   4  -4    4.90    1.80
   5   4  -4    4.00    1.70
  -5  -4   4    3.40    1.70
  -5  -4   4    1.70    1.40
  -5  -4   4    4.30    1.90
   4   4  -4   29.50    2.70
   4   4  -4   29.60    2.70
   4   4  -4   19.80    2.20
  -4  -4   4   28.90    2.80
  -4  -4   4   23.50    4.00
  -4  -4   4   26.60    2.50
   3   4  -4   17.00    2.00
   3   4  -4   20.30    2.30
   3   4  -4   16.30    2.40
  -3  -4   4   18.20    2.30
  -3  -4   4   21.80    3.20
  -3  -4   4   18.20    2.20
   2   4  -4    2.80    1.60
   2   4  -4    1.50    0.70
   2   4  -4    2.90    1.10
   2   4  -4    3.40    1.10
  -2  -4   4    2.20    1.00
  -2  -4   4    2.20    0.60
  -2  -4   4    5.20    1.40
  -2  -4   4    3.10    1.10
   1   4  -4  378.86   12.80
   1   4  -4  399.96    9.60
   1   4  -4  398.96   14.40
   1   4  -4  397.66    8.80
  -1  -4   4  397.46    9.60
  -1  -4   4  404.16   12.90
  -1  -4   4  395.36    8.90
   0   4  -4   85.69    4.40
   0   4  -4   80.39    5.10
   0   4  -4   85.49    2.80
   0   4  -4   81.39    3.10
   0  -4   4   88.09    3.10
   0  -4   4   80.09    4.00
   0  -4   4   81.79    2.90
   0  -4   4   86.69    2.80
  -1   4  -4    8.10    1.70
  -1   4  -4    6.80    1.00
  -1   4  -4    7.70    1.10
  -1   4  -4    5.90    1.00
   1  -4   4    7.20    1.20
   1  -4   4    8.00    1.00
   1  -4   4    5.20    1.20
   1  -4   4    7.50    1.10
  -2   4  -4   24.30    1.50
  -2   4  -4   26.30    1.50
  -2   4  -4   23.00    3.30
  -2   4  -4   27.00    2.20
  -2   4  -4   23.00    1.20
   2  -4   4   22.40    1.80
   2  -4   4   25.20    1.30
   2  -4   4   23.80    2.00
   2  -4   4   25.10    1.40
  -3   4  -4    4.10    0.80
  -3   4  -4    3.00    0.90
  -3   4  -4    1.50    1.00
  -3   4  -4    2.40    0.70
  -3   4  -4    3.80    0.60
   3  -4   4    2.20    0.50
   3  -4   4    3.60    0.70
   3  -4   4    3.70    1.40
   3  -4   4    3.90    1.30
  -4   4  -4    1.70    0.90
  -4   4  -4    1.20    0.60
  -4   4  -4    0.30    0.90
   4  -4   4    0.90    0.50
   4  -4   4    1.00    0.40
   4  -4   4    1.50    1.40
   4  -4   4    2.30    1.40
  -5   4  -4   -0.50    1.00
  -5   4  -4    0.10    0.50
  -5   4  -4    0.80    0.90
  -5   4  -4    0.80    1.20
   5  -4   4   -0.70    1.60
   5  -4   4   -0.90    1.60
  -6   4  -4   56.09    6.20
  -6   4  -4   54.59    6.00
   6  -4   4   49.20    4.00
   6  -4   4   52.19    4.00
  -7   4  -4    2.90    2.00
  -7   4  -4    4.80    1.90
   7  -4   4    1.20    2.50
   7   3  -4    9.50    2.50
  -7  -3   4    7.10    2.60
  -7  -3   4    3.20    1.90
   6   3  -4   10.60    2.20
  -6  -3   4    7.30    2.00
  -6  -3   4    6.50    1.90
  -6  -3   4   10.80    2.50
   5   3  -4    1.70    1.40
   5   3  -4    0.60    1.30
  -5  -3   4    1.60    1.50
  -5  -3   4    0.80    1.20
  -5  -3   4    1.20    1.30
  -5  -3   4    0.30    1.40
   4   3  -4   18.30    2.10
   4   3  -4   18.80    2.20
  -4  -3   4   18.70    3.20
  -4  -3   4   16.00    2.70
  -4  -3   4   20.10    2.30
  -4  -3   4   18.60    2.50
   3   3  -4   -0.40    0.90
   3   3  -4    0.60    1.00
   3   3  -4   -0.30    0.40
  -3  -3   4   -0.70    0.90
  -3  -3   4    0.10    1.00
  -3  -3   4    0.70    0.80
   2   3  -4   91.39    3.40
   2   3  -4   89.59    4.40
   2   3  -4   92.09    3.10
  -2  -3   4   84.69    3.10
  -2  -3   4   91.29    4.70
  -2  -3   4   89.79    3.50
  -2  -3   4   83.99    4.00
   1   3  -4   39.80    1.90
   1   3  -4   39.60    3.00
   1   3  -4   38.70    3.00
   1   3  -4   40.60    2.10
  -1  -3   4   43.10    3.00
  -1  -3   4   37.90    2.10
  -1  -3   4   37.40    1.90
  -1  -3   4   38.80    1.80
  -1  -3   4   39.00    2.80
  -1  -3   4   36.50    1.90
   0   3  -4  119.89    5.80
   0   3  -4  120.09    3.60
   0   3  -4  113.39    3.80
   0   3  -4  120.29    3.60
   0   3  -4  120.59    4.70
   0   3  -4  121.29    3.30
   0  -3   4  123.49    4.70
   0  -3   4  118.99    3.30
   0  -3   4  120.79    3.60
   0  -3   4  118.49    3.20
  -1   3  -4  144.79    3.90
  -1   3  -4  143.19    5.10
  -1   3  -4  158.38    3.60
  -1   3  -4  145.59    5.10
  -1   3  -4  140.09    3.90
  -1   3  -4  148.49    7.00
   1  -3   4  144.39    3.70
   1  -3   4  146.59    3.60
   1  -3   4  139.29    5.00
   1  -3   4  142.79    3.90
  -2   3  -4   37.70    3.50
  -2   3  -4   39.50    1.40
  -2   3  -4   41.40    1.70
  -2   3  -4   43.10    2.30
  -2   3  -4   40.80    1.70
   2  -3   4   32.70    1.90
   2  -3   4   38.30    1.50
   2  -3   4   38.10    2.10
   2  -3   4   42.20    1.50
   2  -3   4   45.30    1.70
   2  -3   4   40.10    1.50
  -3   3  -4   22.90    1.30
  -3   3  -4   22.60    1.30
  -3   3  -4   23.00    1.00
  -3   3  -4   25.40    2.00
  -3   3  -4   22.80    3.10
   3  -3   4   23.70    1.90
   3  -3   4   21.70    0.80
   3  -3   4   23.40    1.90
   3  -3   4   21.70    0.80
   3  -3   4   23.90    1.20
  -4   3  -4   22.40    1.40
  -4   3  -4   22.40    3.40
  -4   3  -4   23.10    1.30
  -4   3  -4   21.10    3.20
   4  -3   4   19.30    2.20
   4  -3   4   23.30    1.20
   4  -3   4   15.80    1.90
   4  -3   4   19.80    1.10
  -5   3  -4    0.90    1.20
  -5   3  -4    0.40    0.90
  -5   3  -4    2.90    0.80
   5  -3   4    1.20    0.60
   5  -3   4    1.80    1.60
   5  -3   4    2.10    1.60
  -6   3  -4    2.40    0.80
  -6   3  -4    1.60    1.60
  -6   3  -4    0.80    1.10
   6  -3   4    2.90    1.90
   6  -3   4    3.60    2.20
  -7   3  -4    1.90    1.90
  -7   3  -4    4.20    1.70
   7  -3   4    1.50    2.30
   7   2  -4   16.50    2.60
  -7  -2   4    9.50    2.50
  -7  -2   4   14.80    2.90
   6   2  -4    0.60    1.40
  -6  -2   4   -0.30    1.30
  -6  -2   4    0.30    1.20
  -6  -2   4   -0.80    1.30
   5   2  -4    5.70    1.40
   5   2  -4    4.20    1.50
   5   2  -4    4.00    1.50
  -5  -2   4    3.00    1.30
  -5  -2   4    3.10    1.40
  -5  -2   4    8.00    1.60
  -5  -2   4    6.90    1.80
   4   2  -4    5.00    1.40
   4   2  -4    3.70    1.00
   4   2  -4    5.30    1.40
  -4  -2   4    2.70    1.10
  -4  -2   4    4.50    1.40
  -4  -2   4    5.50    1.50
  -4  -2   4    2.90    1.20
   3   2  -4   13.50    1.50
   3   2  -4   14.30    2.00
   3   2  -4   12.90    1.50
   3   2  -4   14.00    1.60
  -3  -2   4   12.60    1.40
  -3  -2   4   13.30    2.00
  -3  -2   4   14.80    2.50
  -3  -2   4   13.80    1.60
   2   2  -4  389.86    8.30
   2   2  -4  390.26    8.30
   2   2  -4  390.46   12.70
   2   2  -4  387.06   12.10
   2   2  -4  392.56    9.10
  -2  -2   4  374.46    8.70
  -2  -2   4  381.86   12.20
  -2  -2   4  368.46   12.40
  -2  -2   4  385.06    9.00
  -2  -2   4  396.46    9.20
  -2  -2   4  403.86    8.40
   1   2  -4  473.75   10.40
   1   2  -4  469.15   10.40
   1   2  -4  500.65    9.70
   1   2  -4  468.75   15.50
   1   2  -4  463.05   13.90
   1   2  -4  463.05    9.50
  -1  -2   4  483.05   14.10
  -1  -2   4  476.05    9.60
  -1  -2   4  443.36   14.10
  -1  -2   4  474.25   10.40
  -1  -2   4  472.05   14.00
  -1  -2   4  479.75    9.70
  -1  -2   4  478.25   10.50
  -1  -2   4  480.55   15.50
  -1  -2   4  471.75   10.10
   0   2  -4    4.90    1.10
   0   2  -4    2.70    0.60
   0   2  -4    3.00    0.60
   0   2  -4    1.80    0.40
   0   2  -4    2.30    0.60
   0   2  -4    1.70    0.60
   0   2  -4    3.00    0.60
   0  -2   4    2.20    0.60
   0  -2   4    4.20    0.70
   0  -2   4    2.30    0.50
   0  -2   4    2.40    0.60
   0  -2   4    4.10    1.00
   0  -2   4    1.20    0.40
   0  -2   4    3.60    0.60
   0  -2   4    2.90    0.60
  -1   2  -4   11.20    0.90
  -1   2  -4   10.60    1.40
  -1   2  -4   11.20    0.90
  -1   2  -4    8.90    0.80
  -1   2  -4    9.00    0.70
  -1   2  -4    9.50    1.70
  -1   2  -4   10.10    0.80
   1  -2   4   10.80    1.00
   1  -2   4   11.00    0.90
   1  -2   4    9.20    0.80
   1  -2   4    9.80    0.70
   1  -2   4    9.20    0.80
   1  -2   4    8.80    1.50
  -2   2  -4   56.49    2.00
  -2   2  -4   58.29    1.70
  -2   2  -4   58.39    3.80
  -2   2  -4   58.89    2.00
  -2   2  -4   57.49    2.40
  -2   2  -4   57.29    1.70
   2  -2   4   55.79    1.70
   2  -2   4   59.29    1.80
   2  -2   4   55.69    1.80
   2  -2   4   59.79    2.30
   2  -2   4   58.39    1.90
   2  -2   4   56.39    2.30
   2  -2   4   60.29    1.90
  -3   2  -4   49.20    3.80
  -3   2  -4   51.19    1.90
  -3   2  -4   49.60    3.60
  -3   2  -4   52.29    1.60
  -3   2  -4   54.49    1.90
   3  -2   4   51.69    2.40
   3  -2   4   52.59    1.60
   3  -2   4   48.20    1.60
   3  -2   4   55.99    2.60
   3  -2   4   54.29    1.80
   3  -2   4   50.79    1.70
  -4   2  -4   28.90    3.50
  -4   2  -4   27.70    1.50
  -4   2  -4   26.50    1.20
  -4   2  -4   25.50    3.10
  -4   2  -4   25.40    1.40
   4  -2   4   26.30    0.90
   4  -2   4   26.20    2.00
   4  -2   4   28.10    1.40
   4  -2   4   29.50    2.30
   4  -2   4   25.60    0.90
  -5   2  -4   35.90    1.90
  -5   2  -4   36.50    1.90
  -5   2  -4   38.00    4.20
  -5   2  -4   38.00    4.00
   5  -2   4   39.80    1.80
   5  -2   4   36.70    2.90
   5  -2   4   38.30    2.90
  -6   2  -4   55.09    2.50
  -6   2  -4   43.90    4.50
  -6   2  -4   55.09    5.40
   6  -2   4   51.19    3.60
   6  -2   4   48.40    3.70
   6  -2   4   52.39    2.10
  -7   2  -4    5.20    1.20
  -7   2  -4    3.10    2.40
  -7   2  -4    4.50    1.80
   8   1  -4    2.50    1.70
   7   1  -4   -0.10    1.40
   7   1  -4    1.00    1.70
  -7  -1   4   -0.60    1.30
  -7  -1   4    0.20    1.60
   6   1  -4    6.20    1.70
   6   1  -4    6.90    1.60
  -6  -1   4    5.80    1.80
  -6  -1   4    3.00    1.50
   5   1  -4   66.79    3.10
   5   1  -4   67.89    3.10
   5   1  -4   62.99    3.10
  -5  -1   4   64.39    4.50
  -5  -1   4   65.19    3.40
  -5  -1   4   63.29    2.90
  -5  -1   4   67.99    5.20
   4   1  -4    8.50    1.30
   4   1  -4    6.70    1.30
   4   1  -4    7.20    1.40
  -4  -1   4    4.20    1.20
  -4  -1   4    8.70    2.20
  -4  -1   4    7.50    1.40
  -4  -1   4    7.80    1.30
  -4  -1   4    7.70    1.30
   3   1  -4   13.20    1.60
   3   1  -4   13.50    1.30
   3   1  -4   12.50    1.30
   3   1  -4   12.80    1.10
   3   1  -4   12.90    1.20
  -3  -1   4   13.50    1.20
  -3  -1   4   13.20    1.40
  -3  -1   4   12.90    1.20
  -3  -1   4   12.30    1.70
  -3  -1   4   11.20    1.30
  -3  -1   4   11.70    1.00
  -3  -1   4   13.30    2.00
   2   1  -4   25.80    1.40
   2   1  -4   22.50    2.00
   2   1  -4   23.60    1.80
   2   1  -4   24.20    1.70
   2   1  -4   21.50    1.30
   2   1  -4   23.40    1.40
   2   1  -4   24.00    1.50
  -2  -1   4   21.70    1.30
  -2  -1   4   24.10    1.70
  -2  -1   4   18.90    2.10
  -2  -1   4   25.00    2.20
  -2  -1   4   23.50    1.50
  -2  -1   4   22.90    1.60
  -2  -1   4   24.90    1.40
  -2  -1   4   24.10    1.50
  -2  -1   4   23.40    1.40
   1   1  -4    2.40    0.60
   1   1  -4    2.20    0.60
   1   1  -4    1.80    0.60
   1   1  -4    1.20    0.40
   1   1  -4    1.20    0.50
   1   1  -4    1.20    0.40
   1   1  -4    2.10    0.60
  -1  -1   4    2.70    0.60
  -1  -1   4    2.10    0.60
  -1  -1   4    1.90    0.50
  -1  -1   4    2.00    0.60
  -1  -1   4    1.80    0.60
  -1  -1   4    1.20    0.50
  -1  -1   4    0.70    0.30
  -1  -1   4    1.30    0.50
   0   1  -4    1.80    0.50
   0   1  -4    2.60    0.50
   0   1  -4    1.80    0.50
   0   1  -4    1.10    0.40
   0   1  -4    1.60    0.50
   0   1  -4    2.30    0.50
   0   1  -4    1.40    0.40
   0  -1   4    2.20    0.50
   0  -1   4    2.10    0.50
   0  -1   4    0.90    0.40
   0  -1   4    1.80    0.50
  -1   1  -4  756.62   15.00
  -1   1  -4  738.13   15.10
  -1   1  -4  739.13   13.90
  -1   1  -4  751.12   21.80
  -1   1  -4  765.82   13.90
  -1   1  -4  752.22   23.60
   1  -1   4  739.93   14.00
   1  -1   4  731.03   15.00
   1  -1   4  738.73   13.90
   1  -1   4  752.72   15.10
   1  -1   4  746.43   23.50
  -2   1  -4   30.70    2.40
  -2   1  -4   31.50    1.40
  -2   1  -4   32.30    2.50
  -2   1  -4   32.00    1.40
  -2   1  -4   31.90    1.20
  -2   1  -4   31.70    1.20
   2  -1   4   30.70    1.30
   2  -1   4   30.40    1.30
   2  -1   4   31.80    1.30
   2  -1   4   30.70    1.30
   2  -1   4   29.40    2.30
   2  -1   4   33.00    1.40
   2  -1   4   30.10    1.50
  -3   1  -4    9.30    1.00
  -3   1  -4   10.10    0.90
  -3   1  -4   11.00    1.00
  -3   1  -4   10.10    1.80
  -3   1  -4    9.60    2.00
  -3   1  -4   10.00    0.90
   3  -1   4    9.40    0.80
   3  -1   4   12.50    1.40
   3  -1   4   10.30    0.90
   3  -1   4    9.90    0.90
   3  -1   4    9.00    0.90
   3  -1   4   12.90    1.60
   3  -1   4    9.60    1.10
  -4   1  -4   10.20    1.20
  -4   1  -4   11.20    1.20
  -4   1  -4   10.60    1.00
  -4   1  -4   10.90    2.40
  -4   1  -4   12.10    1.10
  -4   1  -4   11.30    2.30
   4  -1   4    9.90    1.00
   4  -1   4   10.80    1.20
   4  -1   4   12.40    1.70
   4  -1   4   11.40    1.70
  -5   1  -4   18.60    1.60
  -5   1  -4   18.50    1.60
  -5   1  -4   16.30    3.30
  -5   1  -4   13.90    2.80
   5  -1   4   21.00    2.20
   5  -1   4   16.50    2.30
   5  -1   4   18.10    1.60
  -6   1  -4    9.60    1.50
  -6   1  -4    4.70    1.50
  -6   1  -4    4.20    2.00
  -6   1  -4    9.10    1.50
   6  -1   4    7.40    2.10
   6  -1   4    8.80    1.40
  -7   1  -4   13.40    2.00
  -7   1  -4   20.80    4.00
   7  -1   4   14.70    1.70
   8   0  -4    0.40    1.20
   8   0  -4    1.50    2.30
  -8   0   4   -0.60    1.60
   7   0  -4    9.10    2.50
   7   0  -4    9.30    1.70
  -7   0   4    5.10    2.00
  -7   0   4    9.60    2.10
   6   0  -4    0.60    1.10
   6   0  -4    0.10    1.50
  -6   0   4   -1.10    1.10
  -6   0   4    0.20    1.30
   5   0  -4   41.60    2.80
   5   0  -4   43.50    2.30
   5   0  -4   40.00    2.10
  -5   0   4   40.10    4.20
  -5   0   4   43.00    2.60
  -5   0   4   38.40    3.50
  -5   0   4   40.70    2.10
   4   0  -4   28.20    1.80
   4   0  -4   27.00    2.10
   4   0  -4   27.30    2.00
   4   0  -4   24.40    1.70
  -4   0   4   26.30    2.70
  -4   0   4   29.80    3.10
  -4   0   4   26.70    1.70
  -4   0   4   25.30    1.80
  -4   0   4   26.50    1.70
  -4   0   4   23.40    1.70
   3   0  -4  117.29    3.20
   3   0  -4  121.39    3.50
   3   0  -4  118.09    3.70
   3   0  -4  118.19    4.50
   3   0  -4  119.29    3.30
  -3   0   4  116.59    3.60
  -3   0   4  118.19    5.40
  -3   0   4  120.49    3.60
  -3   0   4  119.99    3.50
  -3   0   4  119.19    3.30
  -3   0   4  117.19    4.60
  -3   0   4  120.89    4.60
   2   0  -4  607.44   11.80
   2   0  -4  597.64   17.40
   2   0  -4  612.84   11.80
   2   0  -4  629.94   17.20
   2   0  -4  624.84   12.70
   2   0  -4  610.04   12.90
  -2   0   4  589.94   19.00
  -2   0   4  618.64   12.90
  -2   0   4  619.24   11.90
  -2   0   4  614.14   11.80
  -2   0   4  622.44   17.60
  -2   0   4  627.74   19.10
  -2   0   4  613.74   17.20
  -2   0   4  614.84   12.80
  -2   0   4  612.64   12.60
   1   0  -4    7.00    0.80
   1   0  -4    8.60    0.60
   1   0  -4    6.00    1.10
   1   0  -4    6.50    1.00
   1   0  -4    6.80    0.70
   1   0  -4    9.70    1.40
   1   0  -4    7.20    0.70
   1   0  -4    7.10    0.70
  -1   0   4   10.10    1.40
  -1   0   4    7.30    0.70
  -1   0   4    7.80    1.20
  -1   0   4    8.70    0.80
  -1   0   4    5.90    1.20
  -1   0   4    7.80    0.80
  -1   0   4    6.20    0.70
   0   0  -4    1.40    0.40
   0   0  -4    1.10    0.40
   0   0  -4    0.70    0.50
   0   0  -4    1.20    0.50
   0   0  -4    1.40    0.40
   0   0  -4    1.10    0.40
   0   0   4    0.60    0.40
   0   0   4    0.60    0.40
   0   0   4    0.70    0.40
   0   0   4    0.80    0.40
   0   0   4    1.30    0.50
   0   0   4    0.70    0.50
   0   0   4    1.10    0.50
  -1   0  -4    0.90    0.40
  -1   0  -4    1.40    0.60
  -1   0  -4    0.60    0.40
  -1   0  -4    0.80    0.40
  -1   0  -4    0.20    0.40
  -1   0  -4    0.70    0.40
  -1   0  -4    0.50    0.40
   1   0   4    0.40    0.40
   1   0   4    0.80    0.40
   1   0   4    1.70    0.60
   1   0   4    0.20    0.30
   1   0   4    0.90    0.40
   1   0   4    0.20    0.40
   1   0   4    0.30    0.40
  -2   0  -4   28.20    1.20
  -2   0  -4   26.90    2.20
  -2   0  -4   24.50    1.20
  -2   0  -4   26.70    1.50
  -2   0  -4   26.40    1.10
  -2   0  -4   26.20    2.10
  -2   0  -4   27.90    2.30
  -2   0  -4   26.70    1.30
  -2   0  -4   26.10    1.30
   2   0   4   27.00    1.30
   2   0   4   26.50    1.30
   2   0   4   24.40    1.20
   2   0   4   25.50    2.00
   2   0   4   26.40    1.20
   2   0   4   26.90    1.30
   2   0   4   25.80    2.00
  -3   0  -4   20.10    1.20
  -3   0  -4   19.00    2.20
  -3   0  -4   21.50    1.30
  -3   0  -4   20.30    2.30
  -3   0  -4   21.00    1.30
  -3   0  -4   20.50    1.30
  -3   0  -4   20.40    1.90
   3   0   4   21.20    1.50
   3   0   4   18.90    1.10
   3   0   4   21.70    1.90
   3   0   4   22.40    1.30
   3   0   4   20.50    1.30
  -4   0  -4   42.30    2.10
  -4   0  -4   45.10    3.30
  -4   0  -4   43.90    3.70
  -4   0  -4   44.70    2.10
  -4   0  -4   46.10    1.90
  -4   0  -4   45.80    2.20
   4   0   4   45.30    2.00
   4   0   4   42.60    2.00
   4   0   4   44.30    2.80
   4   0   4   45.10    1.90
   4   0   4   43.20    2.30
  -5   0  -4  156.18    4.70
  -5   0  -4  152.48    7.90
  -5   0  -4  138.69    6.70
  -5   0  -4  151.38    4.70
  -5   0  -4  154.48    4.20
   5   0   4  147.49    4.30
   5   0   4  153.48    4.40
   5   0   4  140.99    4.00
  -6   0  -4    9.80    1.50
  -6   0  -4   12.90    3.00
  -6   0  -4   10.90    1.70
  -6   0  -4    7.20    2.30
   6   0   4   11.20    1.80
  -7   0  -4    1.00    1.30
  -7   0  -4    0.30    1.20
  -7   0  -4   -1.80    1.70
  -7   0  -4    1.20    1.20
   7   0   4    0.60    1.10
  -8   0  -4    3.40    1.50
  -8   0  -4   -3.10    2.30
   8   0   4    4.40    1.40
   8  -1  -4    2.10    2.50
   7  -1  -4    6.80    1.30
   7  -1  -4    6.50    2.40
  -7   1   4    8.30    1.80
  -7   1   4    3.50    1.80
   6  -1  -4   18.40    1.70
   6  -1  -4   19.70    2.80
  -6   1   4   19.50    4.30
  -6   1   4   15.90    2.00
   5  -1  -4   31.40    2.70
   5  -1  -4   32.70    1.90
  -5   1   4   30.30    2.10
  -5   1   4   33.80    4.00
  -5   1   4   31.80    3.30
   4  -1  -4  152.68    5.00
   4  -1  -4  149.69    3.80
  -4   1   4  150.98    4.30
  -4   1   4  149.19    5.90
  -4   1   4  147.29    3.80
  -4   1   4  154.08    4.30
  -4   1   4  143.59    4.20
  -4   1   4  149.09    6.10
  -4   1   4  154.18    6.90
   3  -1  -4   38.40    1.60
   3  -1  -4   38.70    1.50
   3  -1  -4   39.80    2.10
   3  -1  -4   40.40    1.60
   3  -1  -4   39.90    1.60
  -3   1   4   39.70    2.90
  -3   1   4   37.10    1.60
  -3   1   4   40.90    2.40
  -3   1   4   39.40    1.50
  -3   1   4   39.90    1.80
  -3   1   4   38.20    1.80
   2  -1  -4    7.20    0.70
   2  -1  -4    7.60    1.20
   2  -1  -4    7.40    0.70
   2  -1  -4    8.90    1.00
   2  -1  -4    8.50    0.80
   2  -1  -4    8.90    0.80
  -2   1   4    7.00    0.90
  -2   1   4    7.30    1.30
  -2   1   4    6.90    0.80
  -2   1   4    6.40    1.60
  -2   1   4    7.40    0.70
  -2   1   4    7.40    0.70
  -2   1   4    6.50    0.70
   1  -1  -4  155.48    5.60
   1  -1  -4  141.69    4.70
   1  -1  -4  132.09    3.40
   1  -1  -4  142.09    3.20
   1  -1  -4  134.09    3.40
   1  -1  -4  134.79    3.20
  -1   1   4  133.69    4.60
  -1   1   4  151.28    5.60
  -1   1   4  155.38    3.60
  -1   1   4  138.99    3.40
  -1   1   4  145.29    3.20
  -1   1   4  142.49    3.20
  -1   1   4  144.39    5.50
   0  -1  -4  384.56   11.70
   0  -1  -4  372.86    7.30
   0  -1  -4  363.76    7.30
   0  -1  -4  369.06   12.20
   0  -1  -4  364.96   10.10
   0  -1  -4  374.36    7.90
   0  -1  -4  371.86   10.60
   0  -1  -4  365.26    7.90
   0   1   4  376.26    7.30
   0   1   4  365.96   10.60
   0   1   4  370.86    7.80
   0   1   4  370.16   11.70
   0   1   4  375.96   10.10
   0   1   4  366.46    7.60
   0   1   4  382.36    7.30
   0   1   4  380.36   12.30
   0   1   4  368.66    7.90
  -1  -1  -4  203.88    6.60
  -1  -1  -4  194.68    4.30
  -1  -1  -4  196.68    6.90
  -1  -1  -4  195.68    4.50
  -1  -1  -4  194.18    6.10
  -1  -1  -4  193.28    4.70
  -1  -1  -4  204.28    4.40
  -1  -1  -4  194.58    4.70
  -1  -1  -4  199.98    7.20
   1   1   4  191.38    6.10
   1   1   4  194.38    6.90
   1   1   4  200.38    7.20
   1   1   4  200.28    4.30
   1   1   4  197.78    4.40
   1   1   4  195.98    4.50
   1   1   4  197.08    4.70
   1   1   4  201.48    6.60
   1   1   4  194.98    4.70
  -2  -1  -4   23.90    2.00
  -2  -1  -4   21.40    1.20
  -2  -1  -4   23.00    1.30
  -2  -1  -4   22.20    1.30
  -2  -1  -4   23.90    2.00
  -2  -1  -4   22.60    1.20
  -2  -1  -4   23.50    2.30
  -2  -1  -4   22.80    1.20
  -2  -1  -4   23.40    1.60
   2   1   4   22.40    1.20
   2   1   4   21.90    1.20
   2   1   4   20.70    1.80
   2   1   4   23.80    1.90
   2   1   4   22.00    1.30
   2   1   4   25.70    1.90
   2   1   4   21.90    1.10
  -3  -1  -4  171.38    6.60
  -3  -1  -4  169.78    4.70
  -3  -1  -4  167.68    4.70
  -3  -1  -4  169.48    7.10
  -3  -1  -4  177.68    4.30
  -3  -1  -4  171.08    6.30
   3   1   4  174.48    4.30
   3   1   4  170.88    4.40
   3   1   4  169.48    4.70
   3   1   4  178.18    6.70
  -4  -1  -4   59.09    2.60
  -4  -1  -4   60.49    2.60
  -4  -1  -4   62.19    3.60
  -4  -1  -4   59.69    2.40
  -4  -1  -4   62.99    4.40
   4   1   4   59.39    2.40
   4   1   4   59.69    2.30
   4   1   4   62.69    2.70
   4   1   4   58.09    3.20
  -5  -1  -4    0.00    0.50
  -5  -1  -4   -0.30    0.90
  -5  -1  -4    0.50    1.30
  -5  -1  -4    0.20    0.80
  -5  -1  -4   -0.10    0.90
  -5  -1  -4    0.10    0.80
   5   1   4   -0.70    1.10
   5   1   4   -0.40    0.80
   5   1   4   -0.30    1.00
  -6  -1  -4    3.70    1.90
  -6  -1  -4    7.00    1.70
  -6  -1  -4    3.90    1.40
   6   1   4    7.10    1.50
  -7  -1  -4    1.10    2.20
  -7  -1  -4    4.40    1.70
  -7  -1  -4    9.50    2.00
   7   1   4    9.40    1.80
  -8  -1  -4    8.90    2.10
   8   1   4    9.50    1.90
   8  -2  -4    2.10    2.40
   7  -2  -4    4.90    2.60
  -7   2   4    2.60    1.70
   6  -2  -4   14.70    1.30
   6  -2  -4   14.50    2.70
  -6   2   4   11.90    1.60
  -6   2   4   18.60    4.10
  -6   2   4    8.50    1.90
   5  -2  -4   12.60    2.10
   5  -2  -4   10.90    1.10
  -5   2   4   12.70    2.90
  -5   2   4   10.30    1.40
  -5   2   4   10.30    2.40
   4  -2  -4   32.70    1.40
   4  -2  -4   33.80    2.40
  -4   2   4   32.80    3.10
  -4   2   4   30.60    1.50
  -4   2   4   32.20    1.70
  -4   2   4   30.80    1.60
  -4   2   4   31.00    2.70
  -4   2   4   29.00    1.20
   3  -2  -4  380.36    9.40
   3  -2  -4  391.56    7.60
   3  -2  -4  397.86    8.40
   3  -2  -4  394.96    7.50
   3  -2  -4  368.36    7.60
  -3   2   4  374.46    7.40
  -3   2   4  384.96   11.90
  -3   2   4  381.36    8.30
  -3   2   4  380.16    8.10
  -3   2   4  380.36    8.20
  -3   2   4  375.16    7.30
  -3   2   4  383.66   12.20
  -3   2   4  363.46   13.50
   2  -2  -4    0.40    0.30
   2  -2  -4   -0.10    0.40
   2  -2  -4    0.00    0.70
   2  -2  -4    0.60    0.40
  -2   2   4    0.20    0.70
  -2   2   4    0.20    0.40
  -2   2   4    0.00    0.40
  -2   2   4    0.10    0.30
  -2   2   4    0.10    0.30
  -2   2   4    0.00    0.30
   1  -2  -4   57.49    1.70
   1  -2  -4   54.29    1.60
   1  -2  -4   55.89    1.60
   1  -2  -4   52.69    1.60
   1  -2  -4   54.39    3.00
  -1   2   4   54.59    1.60
  -1   2   4   55.59    3.10
  -1   2   4   52.19    1.70
  -1   2   4   53.19    1.50
  -1   2   4   54.69    1.60
  -1   2   4   57.69    2.30
  -1   2   4   53.89    1.80
   0  -2  -4   19.50    1.00
   0  -2  -4   18.30    1.00
   0  -2  -4   19.10    1.50
   0  -2  -4   22.40    1.80
   0  -2  -4   19.30    1.00
   0  -2  -4   19.40    1.00
   0  -2  -4   18.90    0.80
   0  -2  -4   20.00    1.00
   0   2   4   19.00    1.60
   0   2   4   21.30    1.50
   0   2   4   18.00    1.10
   0   2   4   20.80    1.80
   0   2   4   20.00    1.00
   0   2   4   21.00    1.00
   0   2   4   19.50    1.10
   0   2   4   20.00    1.00
  -1  -2  -4   49.50    2.60
  -1  -2  -4   44.70    1.80
  -1  -2  -4   37.90    1.70
  -1  -2  -4   45.70    1.60
  -1  -2  -4   49.10    2.70
  -1  -2  -4   43.60    1.60
  -1  -2  -4   37.10    1.60
  -1  -2  -4   48.10    2.50
   1   2   4   44.60    1.60
   1   2   4   45.00    2.50
   1   2   4   37.70    1.60
   1   2   4   44.00    1.80
   1   2   4   45.10    2.50
   1   2   4   48.50    2.70
   1   2   4   45.50    1.80
   1   2   4   45.40    2.70
  -2  -2  -4    0.70    0.70
  -2  -2  -4    0.60    0.60
  -2  -2  -4    0.60    0.50
  -2  -2  -4    1.00    0.70
   2   2   4    1.00    0.60
   2   2   4   -0.10    0.50
  -3  -2  -4    0.30    0.50
  -3  -2  -4    0.40    0.80
  -3  -2  -4    1.60    0.90
  -3  -2  -4    2.30    0.80
  -3  -2  -4    1.70    0.70
   3   2   4    0.90    0.90
   3   2   4    1.40    0.70
   3   2   4    0.40    0.50
   3   2   4    0.60    1.00
   3   2   4    0.90    0.70
  -4  -2  -4    6.90    1.30
  -4  -2  -4    9.00    2.00
  -4  -2  -4    8.50    1.40
   4   2   4    8.70    1.40
   4   2   4    5.90    1.20
   4   2   4    6.50    1.40
  -5  -2  -4  114.19    4.00
  -5  -2  -4  116.09    4.40
  -5  -2  -4  124.09    6.50
  -5  -2  -4  116.89    7.00
   5   2   4  118.59    4.20
   5   2   4  121.39    4.50
  -6  -2  -4    1.30    1.30
  -6  -2  -4   -0.50    0.90
  -6  -2  -4    0.00    1.60
  -6  -2  -4    2.00    1.40
   6   2   4    1.70    1.40
  -7  -2  -4    2.50    2.30
  -7  -2  -4    7.90    2.00
  -7  -2  -4    3.60    1.60
   7   2   4    8.10    1.90
  -8  -2  -4    1.40    1.80
   8   2   4    2.60    1.70
   8  -3  -4    0.00    2.60
   7  -3  -4    5.30    2.60
  -7   3   4    6.10    2.70
  -7   3   4    2.10    1.60
   6  -3  -4   48.00    3.80
  -6   3   4   44.00    4.50
  -6   3   4   47.10    5.10
  -6   3   4   46.80    5.60
   5  -3  -4   13.20    2.30
   5  -3  -4   14.70    0.60
  -5   3   4   14.40    1.20
  -5   3   4   12.30    2.50
  -5   3   4   15.00    3.20
   4  -3  -4  173.58    5.10
   4  -3  -4  159.78    3.40
   4  -3  -4  167.28    5.80
   4  -3  -4  173.58    3.40
  -4   3   4  176.58    8.70
  -4   3   4  162.88    4.30
  -4   3   4  174.48    7.50
  -4   3   4  165.08    4.00
  -4   3   4  162.08    4.10
  -4   3   4  174.18    7.00
   3  -3  -4   23.10    0.90
   3  -3  -4   23.40    0.90
   3  -3  -4   24.50    2.00
   3  -3  -4   24.40    1.70
  -3   3   4   21.00    1.00
  -3   3   4   20.60    0.60
  -3   3   4   19.90    0.60
  -3   3   4   24.20    2.40
  -3   3   4   22.00    2.90
  -3   3   4   23.60    1.10
   2  -3  -4   40.40    1.30
   2  -3  -4   41.00    1.70
   2  -3  -4   38.20    0.90
   2  -3  -4   41.50    2.20
  -2   3   4   41.30    1.20
  -2   3   4   40.70    1.20
  -2   3   4   39.10    1.40
  -2   3   4   40.80    3.20
  -2   3   4   41.10    1.50
  -2   3   4   42.00    2.40
  -2   3   4   40.20    1.20
   1  -3  -4   58.49    1.80
   1  -3  -4   57.19    1.70
   1  -3  -4   57.39    1.70
   1  -3  -4   63.29    3.50
   1  -3  -4   55.29    1.80
  -1   3   4   58.89    1.70
  -1   3   4   59.19    1.70
  -1   3   4   51.49    2.20
  -1   3   4   54.29    3.40
  -1   3   4   56.69    1.90
  -1   3   4   55.19    3.20
  -1   3   4   58.89    1.90
   0  -3  -4  319.97   10.60
   0  -3  -4  326.07    6.90
   0  -3  -4  320.97    7.30
   0  -3  -4  327.07    6.70
   0  -3  -4  321.97    6.70
   0  -3  -4  321.27    7.20
   0  -3  -4  349.37   11.00
   0   3   4  328.97    6.70
   0   3   4  318.97   10.70
   0   3   4  328.57    6.80
   0   3   4  329.57    7.40
   0   3   4  330.77   10.30
   0   3   4  311.17   10.60
   0   3   4  324.37    7.20
  -1  -3  -4   16.40    1.80
  -1  -3  -4   17.40    1.80
  -1  -3  -4   17.90    2.00
  -1  -3  -4   15.50    1.30
  -1  -3  -4   15.90    1.20
  -1  -3  -4   16.50    1.20
  -1  -3  -4   17.00    0.90
  -1  -3  -4   15.80    1.30
   1   3   4   15.90    1.10
   1   3   4   16.90    1.90
   1   3   4   15.30    1.30
   1   3   4   18.20    1.90
   1   3   4   16.20    1.20
   1   3   4   18.40    2.00
   1   3   4   15.30    1.20
  -2  -3  -4  164.18    5.50
  -2  -3  -4  170.38    6.80
  -2  -3  -4  163.08    6.60
  -2  -3  -4  164.38    4.70
  -2  -3  -4  164.18    4.30
   2   3   4  163.48    6.60
   2   3   4  157.68    4.30
   2   3   4  162.58    4.80
   2   3   4  162.98    6.50
  -3  -3  -4   37.50    2.00
  -3  -3  -4   35.40    2.50
  -3  -3  -4   36.10    2.20
  -3  -3  -4   36.70    3.40
   3   3   4   33.40    2.20
   3   3   4   34.40    2.80
   3   3   4   34.70    2.00
   3   3   4   37.40    3.40
  -4  -3  -4  115.59    5.60
  -4  -3  -4  115.39    6.40
  -4  -3  -4  122.09    4.40
  -4  -3  -4  111.99    3.90
   4   3   4  118.69    5.30
   4   3   4  117.19    4.40
   4   3   4  117.39    4.00
   4   3   4  117.29    6.30
  -5  -3  -4   43.50    2.70
  -5  -3  -4   46.30    3.00
  -5  -3  -4   48.30    4.00
  -5  -3  -4   44.30    4.80
   5   3   4   49.70    2.90
   5   3   4   48.40    3.20
  -6  -3  -4   -0.40    1.90
  -6  -3  -4    2.10    1.40
  -6  -3  -4    1.50    1.20
  -6  -3  -4    1.40    1.20
   6   3   4    4.20    1.60
  -7  -3  -4    0.90    1.30
  -7  -3  -4    1.20    1.70
   7   3   4    0.70    1.50
   7  -4  -4    4.10    2.60
  -7   4   4    1.50    1.50
   6  -4  -4   25.50    3.40
  -6   4   4   28.30    4.10
  -6   4   4   25.90    5.10
   5  -4  -4    9.90    2.00
   5  -4  -4   11.40    2.40
  -5   4   4    5.50    1.40
  -5   4   4    5.90    1.50
  -5   4   4    5.40    2.10
   4  -4  -4    1.00    1.30
   4  -4  -4    0.70    1.10
  -4   4   4    0.00    0.50
  -4   4   4    0.10    0.80
  -4   4   4    0.50    0.70
  -4   4   4    0.50    0.30
  -4   4   4    0.60    1.30
  -4   4   4    0.30    0.30
   3  -4  -4  130.79    4.80
   3  -4  -4  137.19    4.10
  -3   4   4  132.49    3.20
  -3   4   4  131.99    5.70
  -3   4   4  126.89    6.70
  -3   4   4  122.29    3.00
   2  -4  -4  105.89    2.50
   2  -4  -4  103.59    2.50
   2  -4  -4  105.69    3.90
   2  -4  -4  106.69    3.10
  -2   4   4  105.59    2.40
  -2   4   4  103.69    4.30
  -2   4   4  105.09    5.40
  -2   4   4  104.99    2.90
  -2   4   4  105.49    2.40
  -2   4   4  103.39    5.60
  -2   4   4  105.49    2.80
   1  -4  -4   39.40    1.50
   1  -4  -4   39.50    2.10
   1  -4  -4   38.20    1.50
   1  -4  -4   43.60    1.70
   1  -4  -4   41.50    1.60
   1  -4  -4   39.80    1.50
  -1   4   4   41.10    1.80
  -1   4   4   39.60    1.70
  -1   4   4   40.50    1.50
  -1   4   4   41.90    3.30
  -1   4   4   43.10    3.00
   0  -4  -4   16.70    1.10
   0  -4  -4   13.50    1.00
   0  -4  -4   11.10    1.00
   0  -4  -4   16.30    1.20
   0  -4  -4   18.40    1.80
   0   4   4   13.10    1.20
   0   4   4   15.50    2.00
   0   4   4   13.90    2.20
   0   4   4   13.60    1.30
   0   4   4   10.00    1.00
  -1  -4  -4   37.80    2.70
  -1  -4  -4   35.30    1.80
  -1  -4  -4   38.10    1.60
  -1  -4  -4   37.60    1.80
  -1  -4  -4   29.80    2.00
   1   4   4   36.00    1.90
   1   4   4   37.30    2.10
   1   4   4   39.00    2.90
   1   4   4   37.10    1.80
   1   4   4   36.90    3.00
  -2  -4  -4    6.30    1.10
  -2  -4  -4    7.20    1.30
  -2  -4  -4    5.80    1.20
  -2  -4  -4    4.80    1.30
   2   4   4    5.30    1.10
   2   4   4    3.80    1.30
   2   4   4    5.70    1.20
  -3  -4  -4    3.90    1.20
  -3  -4  -4    2.00    0.60
  -3  -4  -4    2.10    1.30
  -3  -4  -4    3.40    1.10
   3   4   4    2.30    1.20
   3   4   4    2.60    1.10
   3   4   4    1.30    0.70
   3   4   4    3.00    1.60
  -4  -4  -4   26.50    2.90
  -4  -4  -4   22.60    2.20
  -4  -4  -4   27.90    3.80
  -4  -4  -4   25.20    2.40
   4   4   4   33.40    4.70
   4   4   4   25.40    2.40
   4   4   4   24.10    2.30
  -5  -4  -4   19.00    2.40
  -5  -4  -4   16.00    3.90
  -5  -4  -4   20.80    3.00
   5   4   4   21.50    2.50
   5   4   4   19.20    2.30
  -6  -4  -4   -0.60    1.40
  -6  -4  -4   -0.30    1.30
  -6  -4  -4    0.00    1.10
  -6  -4  -4   -0.70    1.70
   6   4   4    3.40    1.50
   6   4   4    2.10    1.70
  -7  -4  -4    0.40    2.20
  -7  -4  -4    1.40    1.40
  -7  -4  -4    3.80    1.90
   7   4   4    4.10    2.10
   7  -5  -4    2.40    2.60
  -7   5   4    2.30    1.60
   6  -5  -4    3.80    2.40
  -6   5   4    2.50    1.80
  -6   5   4    1.80    1.30
   5  -5  -4   52.89    3.60
   5  -5  -4   53.49    3.90
  -5   5   4   55.29    5.80
  -5   5   4   54.49    4.50
  -5   5   4   58.99    4.90
   4  -5  -4   55.59    3.10
   4  -5  -4   52.79    3.50
  -4   5   4   55.49    4.10
  -4   5   4   57.89    5.20
   3  -5  -4    2.30    1.10
   3  -5  -4    4.20    1.40
  -3   5   4    3.60    0.90
  -3   5   4    2.90    1.30
  -3   5   4    2.40    0.50
  -3   5   4    3.30    1.60
  -3   5   4    4.20    0.70
   2  -5  -4   41.60    1.50
   2  -5  -4   47.70    2.20
   2  -5  -4   46.00    2.70
  -2   5   4   42.30    4.00
  -2   5   4   44.20    3.60
  -2   5   4   41.60    1.80
  -2   5   4   40.80    1.30
  -2   5   4   41.30    1.70
   1  -5  -4    0.10    0.60
   1  -5  -4   -0.30    0.40
   1  -5  -4   -0.10    0.70
   1  -5  -4   -0.50    0.80
   1  -5  -4    0.20    0.60
   1  -5  -4    0.50    0.50
  -1   5   4    1.90    1.10
  -1   5   4   -0.20    0.60
  -1   5   4   -0.30    0.50
  -1   5   4    0.40    0.60
  -1   5   4   -0.30    0.70
   0  -5  -4   35.50    1.90
   0  -5  -4   36.30    1.80
   0  -5  -4   33.60    1.90
   0  -5  -4   36.90    2.60
   0  -5  -4   35.30    1.80
   0   5   4   37.00    1.90
   0   5   4   36.00    2.90
   0   5   4   36.40    2.10
   0   5   4   35.70    3.50
   0   5   4   35.80    1.50
   0   5   4   34.60    1.80
  -1  -5  -4    9.30    1.30
  -1  -5  -4    9.30    1.20
  -1  -5  -4    8.80    1.40
  -1  -5  -4   10.60    1.80
   1   5   4    7.50    1.20
   1   5   4    8.80    1.40
   1   5   4    9.30    0.80
   1   5   4    9.00    1.90
   1   5   4   10.90    2.30
   1   5   4    8.40    1.30
  -2  -5  -4  285.17    7.60
  -2  -5  -4  273.47    6.90
  -2  -5  -4  281.17   10.90
  -2  -5  -4  280.57    8.60
   2   5   4  276.97    7.00
   2   5   4  272.57   10.80
   2   5   4  272.97    7.60
  -3  -5  -4   37.80    2.80
  -3  -5  -4   35.60    2.50
  -3  -5  -4   36.70    4.00
  -3  -5  -4   39.50    2.70
   3   5   4   41.00    2.80
   3   5   4   43.50    5.00
   3   5   4   41.00    2.60
  -4  -5  -4    4.70    1.60
  -4  -5  -4    1.80    0.90
  -4  -5  -4    4.90    1.50
  -4  -5  -4    1.80    1.70
   4   5   4    2.90    1.70
   4   5   4    0.50    2.10
   4   5   4    3.00    1.50
  -5  -5  -4   43.60    4.10
  -5  -5  -4   45.40    5.30
  -5  -5  -4   44.40    3.10
  -5  -5  -4   47.00    3.50
   5   5   4   40.50    5.60
   5   5   4   52.09    3.50
   5   5   4   50.29    3.50
  -6  -5  -4    0.60    1.20
  -6  -5  -4    2.00    1.80
  -6  -5  -4    0.80    1.90
  -6  -5  -4    3.00    1.70
   6   5   4    4.20    1.90
   6   5   4    2.20    1.90
  -7  -5  -4    1.60    1.60
  -7  -5  -4    4.20    2.00
  -7  -5  -4   -1.50    2.10
   7   5   4    4.10    2.20
   7  -6  -4    6.50    3.20
   6  -6  -4    1.10    2.50
   6  -6  -4   -1.50    2.30
  -6   6   4    3.30    1.90
  -6   6   4    3.30    1.90
   5  -6  -4   23.50    3.30
   5  -6  -4   22.90    3.10
  -5   6   4   27.10    4.50
  -5   6   4   22.10    3.40
  -5   6   4   28.40    4.60
  -5   6   4   31.30    3.50
   4  -6  -4   13.00    2.40
   4  -6  -4   15.10    2.60
  -4   6   4   17.00    3.80
  -4   6   4   15.30    3.50
  -4   6   4   14.90    2.60
   3  -6  -4    4.10    1.40
   3  -6  -4    1.70    1.40
  -3   6   4    2.50    0.60
  -3   6   4    1.70    1.50
  -3   6   4    1.70    1.10
  -3   6   4    2.10    0.80
   2  -6  -4   11.00    1.20
   2  -6  -4   15.40    1.70
   2  -6  -4   16.60    2.10
   2  -6  -4    9.50    1.00
  -2   6   4   10.50    1.40
  -2   6   4   15.90    3.00
   1  -6  -4   38.00    1.60
   1  -6  -4   38.80    2.00
   1  -6  -4   35.30    2.30
   1  -6  -4   40.60    1.90
  -1   6   4   35.80    3.30
  -1   6   4   39.70    2.00
  -1   6   4   32.30    2.20
  -1   6   4   38.60    4.10
  -1   6   4   37.70    1.70
  -1   6   4   38.80    2.20
   0  -6  -4   67.89    2.90
   0  -6  -4   73.19    2.90
   0  -6  -4   74.29    2.90
   0  -6  -4   66.19    3.80
   0  -6  -4   71.69    2.70
   0   6   4   71.59    2.90
   0   6   4   68.59    2.60
   0   6   4   70.59    2.70
   0   6   4   73.19    5.10
   0   6   4   68.99    3.10
   0   6   4   71.79    4.20
  -1  -6  -4    5.00    1.20
  -1  -6  -4    2.50    0.90
  -1  -6  -4    3.70    1.10
  -1  -6  -4    2.60    0.80
   1   6   4    3.10    1.10
   1   6   4    1.30    1.00
   1   6   4    6.10    1.50
   1   6   4    3.60    0.80
   1   6   4    1.70    1.50
  -2  -6  -4    4.20    1.40
  -2  -6  -4    2.80    0.80
  -2  -6  -4    6.80    1.50
   2   6   4    4.70    2.00
   2   6   4    7.00    1.50
   2   6   4    5.30    1.60
  -3  -6  -4    2.70    1.50
  -3  -6  -4    1.10    0.80
  -3  -6  -4    2.60    1.50
   3   6   4    2.10    2.10
   3   6   4    3.80    1.70
   3   6   4    2.80    1.50
  -4  -6  -4   17.60    2.50
  -4  -6  -4   19.30    2.70
  -4  -6  -4   13.80    2.60
   4   6   4   16.30    2.40
   4   6   4    8.60    3.00
   4   6   4   18.30    2.70
  -5  -6  -4    1.00    1.60
  -5  -6  -4   -0.90    0.90
  -5  -6  -4    1.20    1.70
  -5  -6  -4   -1.30    1.50
   5   6   4   -4.40    2.50
   5   6   4    2.40    2.00
   5   6   4    1.10    1.60
  -6  -6  -4   -2.30    1.90
  -6  -6  -4    1.40    1.80
  -6  -6  -4    2.40    2.00
  -6  -6  -4    0.00    1.20
   6   6   4    2.70    2.00
   6   6   4    4.50    2.30
   6  -7  -4   -0.30    2.80
   6  -7  -4    0.80    2.60
   5  -7  -4   14.40    3.20
   5  -7  -4   11.30    2.70
  -5   7   4   19.70    4.20
   4  -7  -4   10.30    2.60
   4  -7  -4    9.60    2.20
  -4   7   4    5.80    2.10
  -4   7   4   14.90    3.40
   3  -7  -4    3.60    1.60
   3  -7  -4    4.00    1.80
  -3   7   4    0.00    0.60
  -3   7   4    2.00    1.20
  -3   7   4    1.80    1.60
   2  -7  -4   14.40    1.80
   2  -7  -4   10.50    1.30
   2  -7  -4   10.90    2.00
  -2   7   4   11.40    1.50
  -2   7   4    9.00    2.30
   1  -7  -4    5.80    1.50
   1  -7  -4    3.80    0.80
   1  -7  -4    5.00    1.20
   1  -7  -4    6.10    1.40
  -1   7   4    3.50    1.80
  -1   7   4    2.90    1.20
  -1   7   4    6.10    1.40
   0  -7  -4    1.10    0.90
   0  -7  -4    0.70    1.10
   0   7   4    0.10    0.90
   0   7   4    1.50    1.30
   0   7   4   -0.70    0.90
   0   7   4    0.70    1.60
  -1  -7  -4    7.10    1.50
  -1  -7  -4    6.90    1.20
   1   7   4    5.60    2.30
   1   7   4    8.60    1.80
   1   7   4    7.50    1.40
  -2  -7  -4   75.39    3.80
   2   7   4   76.99    4.00
   2   7   4   78.39    3.60
   2   7   4   67.89    6.20
  -3  -7  -4   32.70    3.30
  -3  -7  -4   34.00    2.90
  -3  -7  -4   40.20    3.30
   3   7   4   37.60    3.30
   3   7   4   31.40    5.40
   3   7   4   36.40    2.90
  -4  -7  -4   24.70    3.00
  -4  -7  -4   17.50    2.60
   4   7   4   21.10    2.90
   4   7   4   22.80    2.80
  -5  -7  -4    2.20    2.00
  -5  -7  -4    6.40    2.30
  -5  -7  -4    7.10    2.40
   5   7   4    7.00    2.20
   5   7   4    2.90    2.10
  -6  -7  -4    1.70    2.10
  -6  -7  -4    3.30    2.30
  -6  -7  -4   -1.00    1.90
   6   7   4    1.50    2.00
   6   7   4    4.10    2.40
   5  -8  -4    6.90    2.70
   5  -8  -4    3.30    2.70
  -5   8   4    5.20    2.40
   4  -8  -4    7.10    2.40
   4  -8  -4    7.20    2.60
  -4   8   4    4.90    2.30
   3  -8  -4    0.10    1.70
   3  -8  -4    3.20    1.70
  -3   8   4    1.40    1.70
   2  -8  -4    6.30    1.20
   2  -8  -4    5.30    1.80
   2  -8  -4    8.30    1.80
  -2   8   4    5.00    2.10
  -2   8   4    9.70    1.60
   1  -8  -4    0.20    1.10
   1  -8  -4    1.70    1.30
   1  -8  -4    0.40    1.10
  -1   8   4    1.50    1.30
  -1   8   4    0.40    1.80
   0  -8  -4   28.20    2.20
   0  -8  -4   32.20    2.00
   0  -8  -4   35.40    2.50
   0   8   4   31.60    5.10
   0   8   4   34.10    2.80
  -1  -8  -4    2.70    1.60
   1   8   4    0.60    2.00
   1   8   4    0.50    1.40
  -2  -8  -4   -0.20    1.20
  -2  -8  -4   -2.10    1.50
   2   8   4   -0.40    1.50
   2   8   4   -3.40    2.10
   2   8   4    1.40    1.50
  -3  -8  -4   13.20    2.40
   3   8   4   17.70    2.50
   3   8   4   16.90    2.90
  -4  -8  -4    0.30    1.80
  -4  -8  -4    1.10    1.80
   4   8   4    1.20    1.80
   4   8   4    1.70    2.10
  -5  -8  -4    2.90    2.10
  -5  -8  -4    0.10    1.90
   5   8   4    1.80    2.30
   5   8   4    3.30    2.30
   6   8   4    5.60    2.50
   4  -9  -4    6.00    2.70
   4  -9  -4    5.10    2.30
   3  -9  -4    2.30    1.90
   3  -9  -4    0.50    2.00
  -3   9   4    0.20    1.90
   2  -9  -4    1.90    1.60
   2  -9  -4   -0.20    1.70
  -2   9   4    3.40    1.20
  -2   9   4    0.90    1.90
   1  -9  -4    1.10    1.40
   1  -9  -4   -0.80    1.20
   1  -9  -4    0.60    1.40
  -1   9   4   -1.50    2.00
  -1   9   4    1.40    1.40
   0  -9  -4    4.80    1.70
   0   9   4    1.20    2.30
   0   9   4    6.70    2.00
  -1  -9  -4   14.30    2.30
   1   9   4    8.70    3.30
   1   9   4   14.30    2.50
  -2  -9  -4    4.70    2.10
   2   9   4    3.50    2.20
   2   9   4   -2.10    2.90
  -3  -9  -4    1.20    2.10
   3   9   4    2.10    2.00
   3   9   4    4.00    2.10
  -4  -9  -4    6.50    2.40
   4   9   4   15.50    3.30
   4   9   4    9.30    2.30
   5   9   4    3.00    2.40
   3 -10  -4   -2.20    1.90
   3 -10  -4   -0.30    2.00
   2 -10  -4    4.00    2.00
   2 -10  -4    0.60    2.00
   1 -10  -4    5.70    1.70
   1 -10  -4   12.50    2.40
  -1  10   4   14.10    2.40
  -1  10   4    4.70    2.80
   0 -10  -4   -2.70    1.50
   0  10   4   -3.60    2.70
   0  10   4    2.60    1.70
  -1 -10  -4    0.40    1.80
   1  10   4    3.00    1.90
   1 -11  -4    2.30    2.10
   0 -11  -4    3.40    2.20
   1 -10   5   -1.30    2.10
   2 -10   5   -2.20    2.00
   2   9  -5   40.70    5.10
   1   9  -5    0.50    2.00
  -1  -9   5   -0.60    2.00
   0   9  -5    8.70    2.20
   0  -9   5    7.10    2.30
  -1   9  -5   15.60    2.60
   1  -9   5   10.30    2.10
   1  -9   5   11.50    2.80
  -2   9  -5    2.20    1.40
   2  -9   5    1.90    1.40
   2  -9   5    3.40    2.30
   3  -9   5    1.80    2.00
   4   8  -5    1.00    2.30
   4   8  -5   -2.00    1.80
  -4  -8   5   -0.20    2.20
  -4  -8   5   -3.40    2.00
   3   8  -5   -1.10    1.60
   3   8  -5    0.90    1.90
  -3  -8   5    1.60    2.20
  -3  -8   5    3.00    2.10
   2   8  -5    3.70    1.70
   2   8  -5    2.40    1.60
   2   8  -5    3.20    2.10
  -2  -8   5    0.20    2.00
   1   8  -5    0.80    1.70
   1   8  -5    3.80    1.80
  -1  -8   5    2.40    1.80
   0   8  -5    5.50    1.80
   0   8  -5    6.10    2.20
   0  -8   5    5.00    1.90
  -1   8  -5    2.10    1.70
  -1   8  -5    2.30    1.50
   1  -8   5    5.90    1.70
  -2   8  -5    1.20    1.30
  -2   8  -5    3.20    1.90
   2  -8   5    0.70    1.90
   2  -8   5   -1.00    1.20
  -3   8  -5    9.80    1.70
  -3   8  -5    7.70    2.50
   3  -8   5    8.90    2.50
   4  -8   5    1.70    2.00
   5  -8   5   -1.40    2.10
   6   7  -5    2.50    2.30
   5   7  -5   -0.30    2.00
   5   7  -5    0.90    2.10
  -5  -7   5   -2.60    1.70
  -5  -7   5    2.50    2.40
  -5  -7   5    1.90    2.20
   4   7  -5    1.60    1.80
   4   7  -5   -1.00    1.90
  -4  -7   5   -0.20    1.90
  -4  -7   5   -1.60    1.80
   3   7  -5    3.30    2.00
   3   7  -5    1.80    1.70
   3   7  -5    0.80    1.10
  -3  -7   5   -0.60    1.50
  -3  -7   5    1.30    2.00
  -3  -7   5    2.10    2.00
   2   7  -5    1.80    2.50
   2   7  -5    9.40    2.20
   2   7  -5    5.70    1.70
   2   7  -5   10.50    2.10
  -2  -7   5    8.80    2.20
  -2  -7   5   10.60    2.30
   1   7  -5   -1.20    1.30
   1   7  -5    0.50    1.30
   1   7  -5    0.10    1.20
  -1  -7   5   -0.80    1.40
  -1  -7   5   -0.20    1.40
   0   7  -5    0.10    1.30
   0   7  -5   -0.30    1.20
   0  -7   5   -1.90    1.10
  -1   7  -5   55.39    3.30
  -1   7  -5   59.19    6.40
   1  -7   5   49.40    2.90
  -2   7  -5    0.80    1.40
  -2   7  -5   -0.50    1.00
   2  -7   5   -0.50    1.10
   2  -7   5    1.20    1.70
  -3   7  -5    3.10    1.80
  -3   7  -5    1.50    1.10
   3  -7   5    0.80    1.00
   3  -7   5    2.40    1.80
  -4   7  -5    4.60    2.00
   4  -7   5    7.30    2.30
  -5   7  -5    0.90    1.60
   5  -7   5    0.90    2.30
   6  -7   5    0.60    2.50
   6   6  -5    1.00    2.10
  -6  -6   5   -3.10    1.80
  -6  -6   5   -2.80    1.80
   5   6  -5    6.40    2.20
   5   6  -5    6.00    2.40
  -5  -6   5    4.00    2.10
  -5  -6   5    0.10    1.60
  -5  -6   5    3.00    2.20
   4   6  -5   19.10    2.90
   4   6  -5   18.20    2.60
  -4  -6   5   18.70    3.00
  -4  -6   5   16.70    2.70
   3   6  -5    6.40    2.20
   3   6  -5    6.20    1.90
  -3  -6   5    8.40    2.10
  -3  -6   5    2.80    1.50
  -3  -6   5    5.90    2.10
   2   6  -5    1.70    1.40
   2   6  -5    0.80    1.10
   2   6  -5    1.20    1.50
   2   6  -5    1.60    2.10
  -2  -6   5    0.60    1.30
  -2  -6   5    0.30    1.40
  -2  -6   5    0.60    1.50
   1   6  -5    1.20    1.30
   1   6  -5   -1.80    1.70
   1   6  -5    0.30    1.00
   1   6  -5    1.70    1.50
  -1  -6   5    1.00    1.50
  -1  -6   5    1.70    1.40
   0   6  -5    2.10    1.10
   0   6  -5   -0.30    1.50
   0   6  -5    1.60    1.30
   0   6  -5    1.90    1.20
   0  -6   5    3.40    1.40
   0  -6   5    2.70    1.40
  -1   6  -5   25.60    3.50
  -1   6  -5   29.40    2.40
  -1   6  -5   31.50    5.00
  -1   6  -5   26.70    1.90
   1  -6   5   26.60    2.00
   1  -6   5   26.60    2.20
  -2   6  -5   19.30    1.90
  -2   6  -5   22.80    4.40
  -2   6  -5   17.10    2.80
   2  -6   5   18.20    1.80
   2  -6   5   19.90    2.40
  -3   6  -5    3.50    1.70
  -3   6  -5    6.30    1.30
   3  -6   5    5.30    1.80
   3  -6   5    5.70    1.10
  -4   6  -5    1.90    0.90
  -4   6  -5    1.40    1.50
   4  -6   5    1.60    1.80
  -5   6  -5    3.20    1.50
  -5   6  -5    0.60    1.60
   5  -6   5    0.60    2.00
  -6   6  -5    7.50    2.40
   6  -6   5    7.00    3.00
   6   5  -5    0.30    1.80
   6   5  -5    1.20    1.90
  -6  -5   5    1.20    1.90
  -6  -5   5   -0.50    2.30
  -6  -5   5   -1.60    1.70
   5   5  -5    6.00    2.10
   5   5  -5    8.80    2.20
  -5  -5   5    9.90    2.60
  -5  -5   5    7.10    1.90
  -5  -5   5    7.90    2.20
   4   5  -5   11.80    2.10
   4   5  -5   12.90    2.40
  -4  -5   5   13.20    2.60
  -4  -5   5   13.10    2.30
  -4  -5   5   14.00    2.60
   3   5  -5    0.80    1.50
   3   5  -5    2.00    1.40
   3   5  -5    0.80    0.70
  -3  -5   5    4.30    1.70
  -3  -5   5    2.00    1.30
  -3  -5   5    4.00    1.80
  -3  -5   5    2.40    0.80
   2   5  -5   24.70    3.60
   2   5  -5   21.60    2.10
   2   5  -5   21.50    2.40
   2   5  -5   25.80    4.10
  -2  -5   5   24.40    3.60
  -2  -5   5   26.60    2.40
  -2  -5   5   23.40    2.50
  -2  -5   5   21.40    1.70
   1   5  -5   -0.40    1.00
   1   5  -5    0.90    1.60
   1   5  -5    0.60    1.00
   1   5  -5   -0.30    0.80
  -1  -5   5    1.40    1.20
  -1  -5   5    0.30    1.10
   0   5  -5   59.19    2.90
   0   5  -5   59.79    5.00
   0   5  -5   59.39    4.30
   0   5  -5   58.39    2.60
   0  -5   5   61.19    3.00
   0  -5   5   59.19    2.90
  -1   5  -5   24.70    2.80
  -1   5  -5   19.70    1.10
  -1   5  -5   24.10    1.90
  -1   5  -5   23.20    3.80
  -1   5  -5   23.80    1.70
   1  -5   5   22.00    1.80
   1  -5   5   22.40    1.70
   1  -5   5   23.00    1.80
  -2   5  -5    1.70    0.80
  -2   5  -5    1.50    0.90
  -2   5  -5   -0.80    0.90
  -2   5  -5    1.00    1.00
   2  -5   5    1.00    0.60
   2  -5   5    2.20    0.80
   2  -5   5    1.40    1.00
   2  -5   5    1.40    1.30
  -3   5  -5    2.00    0.80
  -3   5  -5    0.70    1.10
  -3   5  -5    0.40    0.80
   3  -5   5    1.70    0.80
   3  -5   5    2.00    1.30
   3  -5   5   -0.20    1.20
  -4   5  -5   11.20    1.30
   4  -5   5   10.00    1.00
   4  -5   5   10.00    2.20
   4  -5   5    9.60    2.10
  -5   5  -5    8.00    2.30
   5  -5   5   13.30    2.60
   5  -5   5   10.50    2.50
  -6   5  -5    5.00    2.10
  -6   5  -5    1.40    1.80
   6  -5   5    2.70    2.40
   7  -5   5    2.90    2.80
  -7  -4   5    4.50    2.30
   6   4  -5    8.30    2.30
  -6  -4   5    5.30    2.20
  -6  -4   5    5.90    2.40
  -6  -4   5    1.40    1.80
   5   4  -5    4.80    1.80
   5   4  -5    3.90    1.70
  -5  -4   5    1.80    1.50
  -5  -4   5    6.60    1.90
  -5  -4   5    3.70    2.00
   4   4  -5   13.90    2.20
   4   4  -5   16.80    2.60
  -4  -4   5   18.00    2.50
  -4  -4   5   16.30    3.10
  -4  -4   5   14.80    2.20
   3   4  -5   63.09    3.50
   3   4  -5   60.49    3.20
   3   4  -5   65.59    4.20
  -3  -4   5   68.99    3.40
  -3  -4   5   67.29    3.70
  -3  -4   5   67.79    4.00
  -3  -4   5   72.29    5.20
   2   4  -5   52.59    3.90
   2   4  -5   49.60    2.60
   2   4  -5   53.29    2.90
  -2  -4   5   54.39    2.80
  -2  -4   5   54.59    2.90
  -2  -4   5   58.99    4.50
  -2  -4   5   55.09    3.00
   1   4  -5   15.70    1.60
   1   4  -5   12.30    2.60
   1   4  -5   19.70    2.90
   1   4  -5   18.00    1.80
  -1  -4   5   15.90    2.60
  -1  -4   5   15.20    1.20
  -1  -4   5   18.50    1.70
  -1  -4   5   17.00    1.80
   0   4  -5   77.99    3.10
   0   4  -5   83.59    4.20
   0   4  -5   69.19    5.00
   0   4  -5   83.89    2.90
   0   4  -5   74.19    3.00
   0  -4   5   79.39    3.90
   0  -4   5   89.69    3.30
   0  -4   5   81.19    3.00
   0  -4   5   77.59    2.80
  -1   4  -5   35.60    2.60
  -1   4  -5   29.00    1.80
  -1   4  -5   33.40    1.90
  -1   4  -5   34.20    3.70
  -1   4  -5   30.80    2.00
  -1   4  -5   31.90    1.70
   1  -4   5   29.20    2.10
   1  -4   5   32.20    1.90
   1  -4   5   31.50    1.70
   1  -4   5   30.20    1.90
  -2   4  -5   50.69    3.40
  -2   4  -5   58.09    2.40
  -2   4  -5   58.49    4.90
  -2   4  -5   61.19    3.10
  -2   4  -5   57.89    2.00
  -2   4  -5   54.49    2.30
   2  -4   5   57.09    2.90
   2  -4   5   57.89    2.10
   2  -4   5   58.39    2.30
   2  -4   5   55.49    2.10
  -3   4  -5    1.00    0.70
  -3   4  -5   -0.10    0.60
  -3   4  -5    0.80    0.70
  -3   4  -5    0.60    0.50
  -3   4  -5   -0.40    0.90
   3  -4   5    0.20    1.10
   3  -4   5    0.20    0.70
   3  -4   5    1.90    1.20
   3  -4   5    0.20    0.60
   3  -4   5    0.70    0.30
  -4   4  -5    2.20    1.30
  -4   4  -5    2.00    0.80
  -4   4  -5    0.40    1.10
  -4   4  -5    0.90    0.80
   4  -4   5    2.90    1.60
   4  -4   5    2.00    0.70
   4  -4   5    1.50    1.20
  -5   4  -5    3.60    1.60
  -5   4  -5    2.00    0.70
  -5   4  -5   -0.10    1.10
   5  -4   5    1.40    1.70
   5  -4   5    0.10    1.60
  -6   4  -5    9.20    2.70
   6  -4   5   12.30    2.80
  -7   4  -5    3.10    2.30
   7  -4   5    2.30    2.70
   7   3  -5   -0.50    1.90
  -7  -3   5    1.40    2.00
  -7  -3   5   -3.20    1.60
   6   3  -5    0.10    1.50
  -6  -3   5   -0.20    1.60
  -6  -3   5   -0.10    1.20
  -6  -3   5   -1.70    1.30
   5   3  -5    1.30    1.40
   5   3  -5    2.10    1.40
  -5  -3   5    1.00    1.30
  -5  -3   5    2.40    1.60
  -5  -3   5    0.80    1.30
  -5  -3   5    0.40    1.10
   4   3  -5   45.90    2.80
   4   3  -5   46.60    3.00
  -4  -3   5   50.29    3.20
  -4  -3   5   44.20    4.30
  -4  -3   5   49.00    2.90
   3   3  -5   20.00    2.10
   3   3  -5   15.50    1.80
   3   3  -5   16.80    2.30
  -3  -3   5   17.20    1.90
  -3  -3   5   18.80    2.50
  -3  -3   5   19.30    3.00
  -3  -3   5   18.40    2.10
   2   3  -5   25.50    1.80
   2   3  -5   25.90    2.50
   2   3  -5   27.10    2.00
  -2  -3   5   24.90    1.90
  -2  -3   5   24.20    2.80
  -2  -3   5   21.90    2.20
  -2  -3   5   26.50    2.10
   1   3  -5  135.29    5.60
   1   3  -5  136.29    4.30
   1   3  -5  137.79    3.90
   1   3  -5  139.49    6.40
  -1  -3   5  137.99    4.00
  -1  -3   5  132.59    4.00
  -1  -3   5  138.39    4.40
  -1  -3   5  131.09    5.80
  -1  -3   5  137.59    5.70
  -1  -3   5  133.79    4.90
   0   3  -5  129.09    4.90
   0   3  -5  122.79    4.30
   0   3  -5  129.09    3.50
   0   3  -5  123.69    3.90
   0   3  -5  126.79    3.90
   0   3  -5  130.99    6.30
   0  -3   5  130.99    4.00
   0  -3   5  127.29    3.60
   0  -3   5  133.49    5.00
   0  -3   5  127.79    3.60
   0  -3   5  124.09    3.60
  -1   3  -5    1.10    0.60
  -1   3  -5    2.60    0.70
  -1   3  -5    2.00    0.70
  -1   3  -5    1.00    0.60
  -1   3  -5    1.90    0.70
  -2   3  -5    9.40    1.00
  -2   3  -5   10.80    1.20
  -2   3  -5   10.50    1.10
  -2   3  -5   10.00    0.90
   2  -3   5   10.40    0.90
   2  -3   5    9.80    1.00
   2  -3   5    8.80    1.20
   2  -3   5    8.80    0.70
   2  -3   5   10.00    1.00
   2  -3   5   10.00    1.20
  -3   3  -5    7.10    1.00
  -3   3  -5    8.20    0.80
  -3   3  -5    7.70    1.10
  -3   3  -5    4.60    1.20
  -3   3  -5    7.90    1.30
   3  -3   5    9.70    1.60
   3  -3   5    8.30    1.00
   3  -3   5    8.10    1.10
   3  -3   5    7.10    1.50
   3  -3   5    7.30    0.70
  -4   3  -5    2.50    1.20
  -4   3  -5    3.40    1.40
  -4   3  -5    6.60    1.00
   4  -3   5    6.20    1.60
   4  -3   5    5.80    1.70
   4  -3   5    5.00    0.90
  -5   3  -5    5.20    1.50
  -5   3  -5    8.20    1.20
  -5   3  -5    6.80    2.00
   5  -3   5    9.80    2.20
   5  -3   5    8.70    1.00
   5  -3   5    9.00    2.10
  -6   3  -5   15.10    1.50
  -6   3  -5   18.60    4.10
   6  -3   5   12.40    2.80
  -7   3  -5   42.60    6.20
  -7   3  -5   43.50    5.30
   7  -3   5   30.90    4.00
   7   2  -5    1.30    1.70
  -7  -2   5   -0.10    1.60
  -7  -2   5   -0.60    1.90
   6   2  -5    1.40    1.40
  -6  -2   5    1.20    1.50
  -6  -2   5   -0.40    1.20
  -6  -2   5    1.00    1.50
   5   2  -5   50.79    3.10
   5   2  -5   48.30    2.50
   5   2  -5   53.59    3.00
  -5  -2   5   52.69    2.90
  -5  -2   5   49.50    4.00
  -5  -2   5   47.00    3.40
  -5  -2   5   52.09    4.90
   4   2  -5   18.90    2.00
   4   2  -5   18.00    1.60
   4   2  -5   17.60    2.00
  -4  -2   5   22.00    2.70
  -4  -2   5   18.80    2.20
  -4  -2   5   19.70    2.40
  -4  -2   5   21.70    3.30
   3   2  -5   30.20    2.10
   3   2  -5   28.30    1.90
   3   2  -5   31.40    2.30
   3   2  -5   28.20    2.50
  -3  -2   5   30.90    3.10
  -3  -2   5   28.70    3.00
  -3  -2   5   31.40    2.10
  -3  -2   5   31.90    2.10
  -3  -2   5   27.70    2.10
   2   2  -5  284.17   10.00
   2   2  -5  290.37    7.20
   2   2  -5  273.07    9.20
   2   2  -5  288.07    6.60
  -2  -2   5  289.27    9.80
  -2  -2   5  283.77    9.90
  -2  -2   5  274.97    9.70
  -2  -2   5  284.57    7.30
  -2  -2   5  273.97    6.90
  -2  -2   5  282.87    6.60
  -1  -2   5   22.60    1.60
   0   2  -5  533.15   11.40
   0   2  -5  515.35   10.40
   0   2  -5  528.85   15.60
   0   2  -5  530.75   17.50
   0   2  -5  520.15   11.30
   0   2  -5  537.05   10.40
   0   2  -5  515.45   15.20
   0  -2   5  522.85   15.60
   0  -2   5  515.55   10.50
   0  -2   5  518.25   10.80
   0  -2   5  502.35   11.20
   0  -2   5  534.65   10.40
   0  -2   5  530.65   11.40
   0  -2   5  510.55   17.40
   0  -2   5  538.75   14.90
  -1   2  -5   23.70    1.40
  -1   2  -5   27.30    1.30
  -1   2  -5   27.40    1.30
  -1   2  -5   31.00    1.50
  -1   2  -5   24.20    2.60
  -1   2  -5   30.20    1.30
  -1   2  -5   30.20    2.10
   1  -2   5   32.00    1.60
   1  -2   5   28.50    1.40
   1  -2   5   26.90    1.30
   1  -2   5   25.70    1.30
  -2   2  -5   12.90    0.90
  -2   2  -5   13.50    2.40
  -2   2  -5   13.80    1.10
  -2   2  -5   13.60    0.90
  -2   2  -5   11.90    1.00
  -2   2  -5   11.00    2.00
   2  -2   5   13.00    1.10
   2  -2   5   11.10    1.20
   2  -2   5   13.10    1.10
   2  -2   5   12.90    1.00
   2  -2   5   12.80    1.00
   2  -2   5   13.00    1.10
  -3   2  -5   11.90    0.90
  -3   2  -5   16.20    1.10
  -3   2  -5   11.30    1.10
  -3   2  -5   11.50    2.10
  -3   2  -5   10.10    2.60
   3  -2   5   13.40    1.10
  -4   2  -5   11.00    1.10
  -4   2  -5   11.80    2.60
  -4   2  -5   12.00    1.00
  -4   2  -5   13.20    1.30
   4  -2   5   13.50    1.20
   4  -2   5   11.90    1.90
   4  -2   5   11.70    1.10
   4  -2   5   11.50    0.90
  -5   2  -5   16.40    3.30
  -5   2  -5   17.10    1.50
  -5   2  -5   13.30    3.40
   5  -2   5   16.50    1.40
   5  -2   5   16.10    2.30
  -6   2  -5    3.60    1.10
  -6   2  -5    1.80    1.60
   6  -2   5    3.20    1.00
   6  -2   5    3.10    2.10
  -7   2  -5    2.00    1.30
  -7   2  -5   -0.40    1.90
  -7   2  -5    2.20    1.20
   7  -2   5   -0.70    2.30
   7   1  -5    1.00    1.40
   7   1  -5   -0.80    1.70
  -7  -1   5   -1.00    1.50
  -7  -1   5   -2.20    1.50
   6   1  -5    4.20    1.50
   6   1  -5    1.70    1.40
  -6  -1   5   -1.10    1.20
  -6  -1   5    2.10    1.60
  -6  -1   5    1.50    1.40
   5   1  -5   14.10    1.80
   5   1  -5   10.90    1.80
   5   1  -5   11.40    1.80
  -5  -1   5   11.30    1.70
  -5  -1   5   13.10    2.20
   4   1  -5    6.70    1.30
   4   1  -5    8.80    1.70
   4   1  -5    8.30    1.40
   4   1  -5    8.20    1.30
   4   1  -5    8.20    1.40
  -4  -1   5    8.00    1.60
  -4  -1   5    5.60    1.20
  -4  -1   5    9.40    1.40
  -4  -1   5    5.30    1.30
   3   1  -5   26.20    1.70
   3   1  -5   24.20    1.60
   3   1  -5   26.30    2.00
   3   1  -5   25.40    1.60
   3   1  -5   27.40    1.60
  -3  -1   5   26.10    1.70
  -3  -1   5   26.10    1.80
  -3  -1   5   25.90    1.70
  -3  -1   5   28.60    2.80
  -3  -1   5   25.60    2.10
  -3  -1   5   25.50    1.80
  -3  -1   5   25.60    1.70
   2   1  -5   75.69    2.70
   2   1  -5   71.79    2.40
   2   1  -5   76.19    3.20
   2   1  -5   76.09    3.60
   2   1  -5   71.49    2.50
  -2  -1   5   70.69    2.60
  -2  -1   5   71.79    2.60
  -2  -1   5   74.29    3.40
  -2  -1   5   70.89    2.50
  -2  -1   5   71.49    3.90
  -2  -1   5   71.19    2.80
  -2  -1   5   72.19    3.90
   1   1  -5  772.42   23.80
   1   1  -5  784.32   14.60
   1   1  -5  744.43   15.70
   1   1  -5  748.93   14.50
   1   1  -5  732.53   20.90
   1   1  -5  755.62   15.70
   1   1  -5  757.02   22.40
  -1  -1   5  757.02   14.60
  -1  -1   5  752.02   15.70
  -1  -1   5  753.22   15.80
  -1  -1   5  786.62   15.40
  -1  -1   5  726.63   22.30
  -1  -1   5  762.42   14.50
  -1  -1   5  755.32   21.10
  -1  -1   5  767.32   23.70
   0   1  -5    3.00    0.60
   0   1  -5    2.60    0.60
   0   1  -5    2.80    0.60
   0   1  -5    1.90    0.60
   0   1  -5    2.80    0.60
   0   1  -5    1.50    0.50
   1  -1   5   10.80    0.90
   1  -1   5   14.70    1.70
   2  -1   5   10.40    1.60
   2  -1   5   10.00    0.90
  -3   1  -5   11.70    2.00
  -3   1  -5   11.50    1.00
  -3   1  -5   11.60    1.10
  -3   1  -5   12.00    1.10
  -3   1  -5   10.80    1.50
  -3   1  -5   12.70    1.00
  -3   1  -5   12.20    2.30
   3  -1   5   10.40    1.40
   3  -1   5   11.50    1.10
   3  -1   5   12.60    1.10
   3  -1   5   12.50    1.00
  -4   1  -5   91.49    4.50
  -4   1  -5  101.39    5.60
  -4   1  -5  101.49    3.30
  -4   1  -5  105.59    2.90
  -4   1  -5  103.69    3.30
  -4   1  -5  102.29    3.30
  -4   1  -5   97.99    5.70
   4  -1   5  100.89    2.90
   4  -1   5  102.29    3.10
   4  -1   5   97.19    3.60
   4  -1   5   99.89    3.00
  -5   1  -5   10.60    1.40
  -5   1  -5   10.10    1.40
   5  -1   5   10.80    1.40
   5  -1   5    8.30    1.90
  -6   1  -5    4.70    1.30
  -6   1  -5    3.40    1.10
  -6   1  -5    2.40    1.70
   6  -1   5    4.60    1.20
   6  -1   5    1.90    1.90
  -7   1  -5   64.69    6.60
  -7   1  -5   65.69    3.40
  -7   1  -5   74.89    6.30
   7  -1   5   62.89    2.90
   8   0  -5   13.40    2.90
   8   0  -5   11.00    1.90
   7   0  -5   -0.10    1.80
   7   0  -5    1.90    1.30
  -7   0   5    0.00    1.60
  -7   0   5    1.60    1.60
   6   0  -5    6.20    1.50
   6   0  -5    8.70    2.00
  -6   0   5    3.20    1.60
  -6   0   5    7.60    1.80
   5   0  -5   19.20    2.20
   5   0  -5   19.40    1.90
   5   0  -5   18.60    1.70
  -5   0   5   18.20    1.70
  -5   0   5   19.50    3.40
  -5   0   5   18.20    2.10
  -5   0   5   15.90    2.70
   4   0  -5  115.89    3.50
   4   0  -5  117.89    4.20
   4   0  -5  118.69    3.60
   4   0  -5  116.39    3.70
  -4   0   5  118.19    4.00
  -4   0   5  114.69    3.80
  -4   0   5  119.79    4.10
  -4   0   5  115.79    6.20
  -4   0   5  117.99    3.60
  -4   0   5  117.69    5.10
  -4   0   5  110.39    4.60
   3   0  -5   63.49    2.30
   3   0  -5   64.69    2.70
   3   0  -5   66.49    2.50
   3   0  -5   66.89    2.40
   3   0  -5   63.99    2.80
  -3   0   5   61.39    2.40
  -3   0   5   61.19    2.50
  -3   0   5   61.59    4.20
  -3   0   5   65.29    3.30
  -3   0   5   63.29    3.00
  -3   0   5   66.69    2.40
  -3   0   5   65.69    2.70
  -3   0   5   63.99    3.90
   2   0  -5  563.44   10.70
   2   0  -5  531.15   11.50
   2   0  -5  549.15   10.70
   2   0  -5  522.55   15.70
   2   0  -5  539.45   15.10
   2   0  -5  542.55   11.50
  -2   0   5  563.04   15.10
  -2   0   5  544.25   17.20
  -2   0   5  534.95   11.60
  -2   0   5  537.45   11.50
  -2   0   5  519.95   15.70
  -2   0   5  536.95   11.40
  -2   0   5  518.55   17.10
  -2   0   5  549.95   10.70
   1   0  -5   53.49    3.00
   1   0  -5   53.09    1.90
   1   0  -5   54.39    3.00
   1   0  -5   51.99    1.80
   1   0  -5   53.69    1.80
   1   0  -5   52.69    2.60
   1   0  -5   51.89    1.80
   1   0  -5   52.99    2.00
  -1   0   5   50.19    2.90
  -1   0   5   50.59    2.90
  -1   0   5   55.39    1.90
  -1   0   5   51.09    1.70
  -1   0   5   52.49    2.70
  -1   0   5   51.69    1.90
  -1   0   5   49.99    2.00
   0   0  -5  384.96   11.00
   0   0  -5  389.96   11.20
   0   0  -5  379.26    8.40
   0   0  -5  386.96   13.00
   0   0  -5  394.76    7.80
   0   0  -5  383.26    7.80
   0   0  -5  409.16   12.30
   0   0  -5  377.06    8.40
   0   0   5  377.26   12.20
   0   0   5  389.66    8.40
   0   0   5  388.66   12.90
   0   0   5  377.76    7.70
   0   0   5  389.66    7.80
   0   0   5  395.26   11.10
   0   0   5  390.16    8.50
  -1   0  -5  152.18    5.40
  -1   0  -5  147.39    3.50
  -1   0  -5  147.39    5.60
  -1   0  -5  141.69    3.80
  -1   0  -5  145.69    3.50
  -1   0  -5  140.89    3.70
  -1   0  -5  152.98    6.20
   1   0   5  151.18    3.50
   1   0   5  146.19    3.70
   1   0   5  145.59    6.00
   1   0   5  145.39    3.80
   1   0   5  142.89    4.30
   1   0   5  145.99    3.60
   1   0   5  146.99    3.50
   1   0   5  146.09    5.70
  -2   0  -5   64.09    3.50
  -2   0  -5   66.49    2.50
  -2   0  -5   75.39    3.80
  -2   0  -5   71.59    2.10
  -2   0  -5   65.19    2.30
  -2   0  -5   66.49    2.10
  -2   0  -5   75.89    2.40
  -2   0  -5   67.39    3.90
  -2   0  -5   65.59    2.20
   2   0   5   68.59    2.20
   2   0   5   66.99    2.30
   2   0   5   60.29    3.50
   2   0   5   58.49    2.10
   2   0   5   64.89    2.10
  -3   0  -5   92.59    3.00
  -3   0  -5   92.49    3.00
  -3   0  -5   92.19    2.70
  -3   0  -5   91.29    3.80
  -3   0  -5   92.69    4.80
  -3   0  -5   93.59    4.90
  -3   0  -5   92.99    3.00
   3   0   5   91.09    2.70
   3   0   5   90.69    3.10
   3   0   5   90.99    3.00
   3   0   5   90.99    4.50
   3   0   5   91.29    2.80
  -5   0  -5   20.40    1.80
  -5   0  -5   19.20    1.80
  -5   0  -5   22.40    3.60
  -5   0  -5   15.80    3.00
  -5   0  -5   21.40    1.60
   5   0   5   19.90    1.70
   5   0   5   21.30    2.40
   5   0   5   21.20    1.80
  -6   0  -5    1.60    1.60
  -6   0  -5    4.00    1.40
  -6   0  -5    2.90    1.30
  -6   0  -5    4.00    1.30
   6   0   5    4.20    1.30
  -7   0  -5    4.00    1.60
  -7   0  -5    5.30    1.70
  -7   0  -5    2.30    1.30
   7   0   5    4.50    1.40
  -8   0  -5    9.20    2.00
   8   0   5    8.60    1.70
   8  -1  -5    2.70    2.60
   7  -1  -5   -1.20    2.00
   7  -1  -5    1.20    1.00
  -7   1   5    1.70    1.70
  -7   1   5    2.30    1.40
  -7   1   5    3.20    2.10
   6  -1  -5    7.80    2.20
   6  -1  -5    5.20    1.20
  -6   1   5    2.90    1.60
  -6   1   5    6.30    1.60
   5  -1  -5   15.80    1.50
   5  -1  -5   15.10    2.10
  -5   1   5   15.20    2.60
  -5   1   5   15.00    3.10
  -5   1   5   15.40    1.80
   4  -1  -5   10.90    1.20
   4  -1  -5   11.30    1.10
   4  -1  -5   10.20    1.60
   4  -1  -5   10.20    1.20
  -4   1   5    9.90    1.40
  -4   1   5   11.20    1.10
  -4   1   5   11.70    1.20
  -4   1   5   10.90    1.30
  -4   1   5   11.10    2.60
  -4   1   5   10.60    2.00
   3  -1  -5    5.00    1.10
   3  -1  -5    5.00    0.80
   3  -1  -5    5.70    0.90
   3  -1  -5    5.50    0.90
  -3   1   5    6.10    1.00
  -3   1   5    2.90    1.10
  -3   1   5    5.90    0.80
  -3   1   5    5.40    0.90
  -3   1   5    5.80    0.90
   2  -1  -5  225.08    4.90
   2  -1  -5  224.48    5.20
   2  -1  -5  232.78    4.90
   2  -1  -5  216.38    5.20
   2  -1  -5  217.38    7.40
  -2   1   5  225.88    4.80
  -2   1   5  217.88    5.30
  -2   1   5  226.78    8.10
  -2   1   5  228.38    7.60
  -2   1   5  217.98    5.40
  -2   1   5  227.48    4.90
  -2   1   5  220.18    6.50
  -2   1   5  211.08    8.40
   1  -1  -5  542.75   11.50
   1  -1  -5  557.84   17.30
   1  -1  -5  564.04   11.50
   1  -1  -5  564.54   10.80
   1  -1  -5  568.34   10.70
   1  -1  -5  556.44   15.40
  -1   1   5  533.15   17.20
  -1   1   5  560.34   10.80
  -1   1   5  578.04   10.70
  -1   1   5  558.54   15.40
  -1   1   5  546.25   11.60
  -1   1   5  563.74   11.60
  -1   1   5  561.64   17.90
   0  -1  -5   65.69    3.50
   0  -1  -5   66.49    3.40
   0  -1  -5   64.09    2.50
   0  -1  -5   66.29    2.50
   0  -1  -5   64.09    1.90
   0  -1  -5   65.59    2.10
   0  -1  -5   61.59    2.10
   0  -1  -5   66.99    2.00
   0   1   5   65.69    1.90
   0   1   5   65.09    2.00
   0   1   5   60.59    2.50
   0   1   5   64.59    2.10
   0   1   5   67.69    3.50
   0   1   5   63.79    2.40
   0   1   5   65.69    3.30
   0   1   5   62.39    2.20
   0   1   5   62.69    1.90
  -1  -1  -5   11.90    1.30
  -1  -1  -5   10.70    1.00
  -1  -1  -5    9.20    0.90
  -1  -1  -5   11.60    0.90
  -1  -1  -5   15.20    2.00
  -1  -1  -5   11.90    0.90
  -1  -1  -5   11.00    0.90
  -1  -1  -5   11.60    1.50
  -1  -1  -5    9.90    0.90
   1   1   5    9.70    0.80
   1   1   5   10.10    1.10
   1   1   5   13.00    1.90
   1   1   5   10.30    1.20
   1   1   5   13.10    1.80
   1   1   5   10.90    0.90
   1   1   5   11.50    0.90
   1   1   5   11.10    1.00
   1   1   5   10.20    0.80
  -2  -1  -5   11.50    1.00
  -2  -1  -5   11.80    1.10
  -2  -1  -5   13.90    2.00
  -2  -1  -5   11.00    0.90
  -2  -1  -5   12.10    1.70
  -2  -1  -5   11.20    1.00
  -2  -1  -5   11.30    1.20
  -2  -1  -5   11.30    1.00
  -2  -1  -5   11.30    1.90
   2   1   5   12.40    0.90
   2   1   5   11.60    1.00
   2   1   5   12.20    1.00
   2   1   5   11.50    1.50
   2   1   5   11.60    1.10
   2   1   5   12.30    1.60
   2   1   5   11.60    1.80
   2   1   5   11.50    1.00
  -3  -1  -5    8.80    1.90
  -3  -1  -5    9.60    1.00
  -3  -1  -5   11.30    2.10
  -3  -1  -5    9.60    1.50
  -3  -1  -5    9.70    1.10
  -3  -1  -5    9.80    1.10
  -3  -1  -5    9.20    1.10
   3   1   5   10.50    1.40
   3   1   5    9.80    1.00
   3   1   5    9.40    1.60
   3   1   5    9.20    1.10
   3   1   5   10.10    1.20
  -4  -1  -5   89.89    3.00
  -4  -1  -5   83.99    3.30
  -4  -1  -5   90.69    5.40
  -4  -1  -5   86.29    3.30
  -4  -1  -5   88.19    4.70
   4   1   5   85.49    3.20
   4   1   5   88.99    3.10
   4   1   5   87.29    3.00
   4   1   5   86.59    4.40
  -5  -1  -5   61.49    2.90
  -5  -1  -5   46.30    3.60
  -5  -1  -5   56.49    2.60
  -5  -1  -5   54.59    4.90
  -5  -1  -5   59.49    4.50
   5   1   5   58.29    3.30
   5   1   5   55.19    2.80
   5   1   5   52.19    2.50
   5   1   5   58.99    2.80
  -6  -1  -5   71.69    5.50
  -6  -1  -5   67.69    3.50
  -6  -1  -5   65.39    3.30
  -6  -1  -5   63.69    6.00
   6   1   5   72.69    3.30
  -7  -1  -5   15.60    3.60
  -7  -1  -5   11.60    2.10
  -7  -1  -5   13.10    2.10
   7   1   5   14.50    2.20
  -8  -1  -5    7.10    2.00
   8   1   5    7.60    1.80
   8  -2  -5    3.70    2.50
   7  -2  -5    4.60    2.40
  -7   2   5    3.20    2.50
  -7   2   5    3.00    1.70
  -7   2   5    3.50    1.40
   6  -2  -5   34.10    3.50
   6  -2  -5   33.10    1.80
  -6   2   5   31.00    2.20
  -6   2   5   37.20    4.80
  -6   2   5   38.10    5.30
   5  -2  -5    4.30    1.90
   5  -2  -5    6.70    1.00
  -5   2   5    5.80    2.00
  -5   2   5    4.40    1.50
  -5   2   5    3.40    1.10
  -5   2   5    6.80    1.20
   4  -2  -5   15.80    1.20
   4  -2  -5   15.30    1.20
   4  -2  -5   16.80    0.80
   4  -2  -5   18.90    2.00
  -4   2   5   16.60    1.20
  -4   2   5   17.00    1.40
  -4   2   5   17.40    1.50
  -4   2   5   16.30    1.10
  -4   2   5   16.40    3.50
  -4   2   5   17.20    2.60
  -4   2   5   18.00    2.10
   3  -2  -5  240.28    5.50
   3  -2  -5  268.97    5.50
   3  -2  -5  257.37    5.50
   3  -2  -5  256.97    5.60
   3  -2  -5  255.17    7.00
  -3   2   5  259.67    8.40
  -3   2   5  258.47    6.10
  -3   2   5  263.57    6.20
  -3   2   5  255.17   10.30
  -3   2   5  257.17    6.00
  -3   2   5  259.37    9.10
  -3   2   5  257.07    5.40
   2  -2  -5  224.78    4.70
   2  -2  -5  213.18    4.90
   2  -2  -5  214.88    5.90
   2  -2  -5  211.78    4.90
   2  -2  -5  218.08    4.70
  -2   2   5  221.38    7.30
  -2   2   5  219.08    4.60
  -2   2   5  205.68    8.50
  -2   2   5  220.78    4.60
  -2   2   5  218.18    5.10
  -2   2   5  213.68    5.10
   1  -2  -5   72.59    2.20
   1  -2  -5   73.09    2.10
   1  -2  -5   74.09    2.10
   1  -2  -5   71.79    3.80
   1  -2  -5   71.49    2.80
   1  -2  -5   71.59    2.20
  -1   2   5   73.79    2.20
  -1   2   5   70.59    2.10
  -1   2   5   73.99    2.40
  -1   2   5   74.09    2.70
  -1   2   5   76.09    2.10
  -1   2   5   73.19    3.80
  -1   2   5   74.19    2.90
   0  -2  -5    1.20    0.50
   0  -2  -5    2.20    0.50
   0  -2  -5    1.10    0.60
   0  -2  -5    1.90    0.50
   0  -2  -5    1.50    0.50
   0  -2  -5    2.10    0.60
   0  -2  -5    1.30    0.50
   0   2   5    0.70    0.50
   0   2   5    1.70    0.50
   0   2   5    1.40    0.50
   0   2   5    1.80    0.50
   0   2   5    2.00    0.60
   0   2   5    1.70    0.60
   0   2   5    1.90    0.50
   0   2   5    1.00    0.70
   0   2   5    1.10    0.60
  -1  -2  -5    0.30    0.50
  -1  -2  -5    0.30    0.50
  -1  -2  -5    0.30    0.40
  -1  -2  -5    0.80    0.50
  -1  -2  -5    0.20    0.50
  -1  -2  -5    0.50    0.50
  -1  -2  -5    0.20    0.60
  -1  -2  -5    0.80    0.50
   1   2   5    0.30    0.50
   1   2   5    0.40    0.40
   1   2   5   -0.10    0.50
   1   2   5    0.10    0.40
   1   2   5    0.70    0.60
   1   2   5    0.80    0.50
   1   2   5    0.50    0.60
   1   2   5    0.50    0.50
  -2  -2  -5    3.70    1.00
  -2  -2  -5    7.70    1.30
  -2  -2  -5    6.70    1.00
  -2  -2  -5    6.00    0.80
  -2  -2  -5    6.60    0.90
  -2  -2  -5    3.70    1.00
  -2  -2  -5    6.30    0.90
  -2  -2  -5    5.70    0.90
   2   2   5    6.20    1.00
   2   2   5    5.90    0.90
   2   2   5    4.90    0.80
   2   2   5   10.30    1.70
   2   2   5    8.20    1.70
   2   2   5    8.00    1.00
   2   2   5    6.60    1.30
  -3  -2  -5  141.79    4.50
  -3  -2  -5  148.09    6.10
  -3  -2  -5  148.29    6.60
  -3  -2  -5  143.69    4.10
  -3  -2  -5  143.39    4.40
   3   2   5  151.18    6.30
   3   2   5  142.19    4.50
   3   2   5  139.69    4.10
   3   2   5  147.29    6.20
   3   2   5  143.59    4.00
  -4  -2  -5   74.09    4.30
  -4  -2  -5   75.39    5.10
  -4  -2  -5   70.29    3.20
  -4  -2  -5   75.89    3.00
   4   2   5   70.99    2.90
   4   2   5   72.39    3.20
   4   2   5   71.69    4.00
  -5  -2  -5    4.60    1.50
  -5  -2  -5    2.80    1.30
  -5  -2  -5    4.20    1.70
  -5  -2  -5    2.70    1.00
   5   2   5    3.30    1.30
   5   2   5    4.90    1.50
  -6  -2  -5   17.00    3.50
  -6  -2  -5   20.10    2.40
   6   2   5   18.60    2.10
  -7  -2  -5   -3.20    1.90
  -7  -2  -5    2.30    1.60
  -7  -2  -5    1.50    1.30
   7   2   5    1.30    1.60
  -8  -2  -5    3.30    1.60
   8   2   5    5.30    1.90
   8  -3  -5    3.20    3.00
   7  -3  -5    0.40    2.30
  -7   3   5   -1.10    1.20
  -7   3   5    1.00    2.10
   6  -3  -5    3.50    2.30
  -6   3   5    2.20    1.40
  -6   3   5    2.50    0.90
  -6   3   5    4.00    2.10
   5  -3  -5   -0.10    1.60
   5  -3  -5    1.60    0.50
  -5   3   5    0.50    1.70
  -5   3   5    0.90    1.00
  -5   3   5   -0.10    0.80
  -5   3   5    1.70    0.80
   4  -3  -5    4.40    0.60
   4  -3  -5    4.60    1.50
  -4   3   5    4.60    0.90
  -4   3   5    2.40    1.00
  -4   3   5    3.80    1.60
  -4   3   5    4.10    0.90
  -4   3   5    3.00    0.90
  -4   3   5    4.50    0.70
   3  -3  -5   60.89    1.80
   3  -3  -5   67.09    3.20
   3  -3  -5   69.49    2.60
   3  -3  -5   68.69    1.90
  -3   3   5   67.49    3.80
  -3   3   5   64.69    1.70
  -3   3   5   64.09    2.20
  -3   3   5   65.29    2.10
  -3   3   5   66.49    4.80
   2  -3  -5  260.37    5.20
   2  -3  -5  246.58    5.40
   2  -3  -5  271.07    5.70
   2  -3  -5  248.98    5.30
   2  -3  -5  252.47    6.80
   2  -3  -5  231.18    5.20
  -2   3   5  251.67    5.70
  -2   3   5  253.57    5.80
  -2   3   5  254.77    8.10
  -2   3   5  247.68    5.40
  -2   3   5  252.27    5.20
  -2   3   5  251.67    9.80
  -2   3   5  255.27    5.10
   1  -3  -5   39.30    1.50
   1  -3  -5   37.20    1.50
   1  -3  -5   39.70    2.90
   1  -3  -5   36.40    1.50
   1  -3  -5   37.00    1.40
  -1   3   5   38.90    2.30
  -1   3   5   37.50    1.40
  -1   3   5   36.20    2.70
  -1   3   5   37.10    1.40
  -1   3   5   38.90    1.80
  -1   3   5   35.40    1.30
  -1   3   5   34.50    1.60
  -1   3   5   36.30    1.50
  -1   3   5   33.70    2.90
   0  -3  -5   34.30    1.40
   0  -3  -5   31.00    1.50
   0  -3  -5   34.70    1.50
   0  -3  -5   32.40    1.40
   0  -3  -5   32.30    1.50
   0  -3  -5   40.90    3.00
   0   3   5   35.10    2.70
   0   3   5   30.90    1.60
   0   3   5   31.90    1.40
   0   3   5   34.30    1.60
   0   3   5   32.90    2.20
   0   3   5   34.00    1.40
   0   3   5   33.90    2.60
  -1  -3  -5    5.70    0.90
  -1  -3  -5    4.00    0.90
  -1  -3  -5    6.10    0.90
  -1  -3  -5    6.50    1.00
  -1  -3  -5    5.40    0.80
  -1  -3  -5    7.80    1.80
  -1  -3  -5    6.70    1.30
  -1  -3  -5    6.00    0.60
   1   3   5    4.40    0.90
   1   3   5    7.00    1.40
   1   3   5    8.20    1.80
   1   3   5    4.80    1.10
   1   3   5    5.80    0.90
   1   3   5    5.90    0.90
  -2  -3  -5    7.20    1.10
  -2  -3  -5    6.70    1.10
  -2  -3  -5    9.20    2.00
  -2  -3  -5    8.80    1.30
   2   3   5    8.00    1.30
   2   3   5    7.40    1.90
   2   3   5    7.70    1.20
   2   3   5    8.60    2.10
  -3  -3  -5   43.00    2.40
  -3  -3  -5   45.90    3.80
  -3  -3  -5   43.10    2.80
  -3  -3  -5   42.10    2.20
   3   3   5   39.60    2.20
   3   3   5   44.70    3.70
   3   3   5   42.40    3.30
   3   3   5   42.40    2.40
  -4  -3  -5    2.00    1.10
  -4  -3  -5    3.10    1.40
  -4  -3  -5    5.00    1.30
  -4  -3  -5    2.00    0.80
   4   3   5    0.80    0.70
   4   3   5    3.50    1.60
   4   3   5    2.50    1.20
   4   3   5    4.60    1.50
  -5  -3  -5    0.60    1.50
  -5  -3  -5    0.10    1.10
  -5  -3  -5    0.90    0.90
  -5  -3  -5    1.20    1.20
   5   3   5    1.60    1.30
   5   3   5    0.70    1.30
  -6  -3  -5   55.99    6.30
  -6  -3  -5   57.89    5.00
  -6  -3  -5   65.19    3.80
   6   3   5   63.69    3.70
   6   3   5   66.79    3.70
  -7  -3  -5   14.30    2.60
  -7  -3  -5    6.50    1.80
  -7  -3  -5    3.90    2.60
   7   3   5   12.10    2.20
   7  -4  -5    1.60    2.50
  -7   4   5    1.30    1.50
   6  -4  -5   18.10    3.10
  -6   4   5   20.30    4.10
  -6   4   5   20.70    5.10
   5  -4  -5   11.60    2.50
  -5   4   5   15.60    2.50
  -5   4   5   14.20    3.20
  -5   4   5    9.20    2.60
   4  -4  -5   16.80    1.90
   4  -4  -5   16.90    2.20
  -4   4   5   19.70    2.80
  -4   4   5   20.80    2.40
  -4   4   5   16.90    1.30
  -4   4   5   17.60    3.70
  -4   4   5   17.50    1.10
   3  -4  -5   99.29    4.10
   3  -4  -5   92.69    2.20
   3  -4  -5   96.89    3.30
   3  -4  -5  100.09    2.30
  -3   4   5   93.49    2.60
  -3   4   5   96.49    4.80
  -3   4   5   94.99    2.70
  -3   4   5   98.69    5.90
   2  -4  -5   60.79    1.90
   2  -4  -5   57.09    1.50
   2  -4  -5   56.49    2.90
   2  -4  -5   66.09    2.30
   2  -4  -5   57.99    1.50
  -2   4   5   61.59    1.80
  -2   4   5   61.39    4.30
  -2   4   5   60.29    2.10
  -2   4   5   60.69    2.00
  -2   4   5   62.49    3.10
  -2   4   5   61.79    4.20
   1  -4  -5    6.00    0.90
   1  -4  -5    6.30    0.80
   1  -4  -5    5.50    1.20
   1  -4  -5    6.20    0.80
  -1   4   5    5.40    0.80
  -1   4   5    3.90    1.10
  -1   4   5    5.00    0.80
  -1   4   5    3.80    1.00
  -1   4   5    4.90    1.30
  -1   4   5    5.90    0.90
  -1   4   5    6.10    0.90
   0  -4  -5   38.80    1.70
   0  -4  -5   40.10    1.70
   0  -4  -5   43.40    2.90
   0  -4  -5   42.00    1.70
   0  -4  -5   38.80    1.80
   0   4   5   35.80    1.70
   0   4   5   38.60    1.90
   0   4   5   36.00    1.70
   0   4   5   35.40    3.00
   0   4   5   34.30    2.80
   0   4   5   39.30    3.00
  -1  -4  -5   63.69    2.40
  -1  -4  -5   61.29    2.60
  -1  -4  -5   60.99    2.40
  -1  -4  -5   64.89    3.90
  -1  -4  -5   67.09    3.80
   1   4   5   63.29    2.50
   1   4   5   66.59    4.10
   1   4   5   62.69    2.60
   1   4   5   67.09    3.90
   1   4   5   58.29    2.70
  -2  -4  -5   62.49    2.80
  -2  -4  -5   64.69    2.90
  -2  -4  -5   65.79    4.30
  -2  -4  -5   62.39    2.60
   2   4   5   61.09    2.60
   2   4   5   62.89    4.30
   2   4   5   63.59    2.90
  -3  -4  -5    6.90    1.40
  -3  -4  -5    3.20    1.30
  -3  -4  -5    5.90    1.30
   3   4   5    6.70    1.90
   3   4   5    5.60    1.40
   3   4   5    5.40    1.30
  -4  -4  -5   99.59    5.10
  -4  -4  -5   93.29    3.90
  -4  -4  -5  105.09    4.40
  -4  -4  -5  105.49    6.60
   4   4   5   98.59    4.30
   4   4   5   95.89    3.90
   4   4   5  105.09    6.40
  -5  -4  -5   -0.40    1.50
  -5  -4  -5    0.10    1.50
  -5  -4  -5    0.50    1.20
  -5  -4  -5   -0.20    0.80
   5   4   5   -0.20    1.50
   5   4   5    0.80    1.40
   5   4   5   -1.40    1.80
  -6  -4  -5   19.40    3.60
  -6  -4  -5   18.90    2.30
  -6  -4  -5   21.10    2.80
   6   4   5   23.50    2.60
   6   4   5   20.60    2.70
  -7  -4  -5   -3.40    2.20
  -7  -4  -5    0.80    1.40
  -7  -4  -5    0.40    1.60
   7   4   5   -0.70    1.60
   7  -5  -5    1.50    2.70
  -7   5   5    2.40    1.80
   6  -5  -5    1.40    2.50
  -6   5   5    1.10    1.20
  -6   5   5    2.10    1.90
   5  -5  -5   -1.00    1.70
  -5   5   5    1.60    1.10
  -5   5   5    2.60    1.10
  -5   5   5    2.40    1.70
   4  -5  -5   16.40    2.00
   4  -5  -5   14.40    2.40
  -4   5   5   18.60    3.70
  -4   5   5   13.30    0.70
  -4   5   5   16.60    2.70
   3  -5  -5   25.20    0.90
   3  -5  -5   27.20    2.50
   3  -5  -5   28.20    2.10
  -3   5   5   28.90    2.70
  -3   5   5   26.80    3.60
  -3   5   5   25.60    3.70
  -3   5   5   28.20    1.40
   2  -5  -5  127.29    4.70
   2  -5  -5  132.29    3.20
   2  -5  -5  130.89    3.70
  -2   5   5  122.09    6.70
  -2   5   5  121.79    3.00
  -2   5   5  123.49    6.40
  -2   5   5  126.39    3.70
  -2   5   5  129.19    4.90
  -2   5   5  123.39    3.50
   1  -5  -5   10.40    1.10
   1  -5  -5   11.20    1.20
   1  -5  -5    8.90    1.40
   1  -5  -5   11.10    1.10
   1  -5  -5   11.10    1.00
  -1   5   5   10.90    1.10
  -1   5   5   11.10    1.10
  -1   5   5   11.80    1.10
  -1   5   5   10.80    2.20
  -1   5   5    9.80    2.30
  -1   5   5   11.00    1.20
   0  -5  -5    1.70    0.80
   0  -5  -5    2.40    0.70
   0  -5  -5    3.00    0.80
   0  -5  -5    2.10    0.90
   0   5   5    2.20    0.80
   0   5   5    2.10    0.90
   0   5   5    1.60    1.00
   0   5   5    2.20    0.90
   0   5   5    1.70    1.10
  -1  -5  -5    7.00    1.20
  -1  -5  -5    7.40    1.20
  -1  -5  -5    7.00    1.40
   1   5   5    5.50    1.30
   1   5   5    6.00    1.30
   1   5   5    7.30    1.20
   1   5   5    5.30    1.50
  -2  -5  -5    0.50    0.50
  -2  -5  -5    0.50    1.10
  -2  -5  -5    1.70    1.10
  -2  -5  -5    0.60    1.00
   2   5   5    0.70    1.40
   2   5   5    0.90    1.00
   2   5   5    2.00    1.10
  -3  -5  -5    3.50    0.80
  -3  -5  -5    7.20    1.60
  -3  -5  -5    5.40    1.50
  -3  -5  -5    6.10    1.70
   3   5   5    5.40    2.00
   3   5   5    6.20    1.70
   3   5   5    7.10    1.70
  -4  -5  -5    0.70    1.40
  -4  -5  -5    0.60    1.20
  -4  -5  -5   -0.20    0.60
  -4  -5  -5    0.10    1.40
   4   5   5   -0.40    1.40
   4   5   5   -0.80    1.40
   4   5   5   -1.40    1.90
  -5  -5  -5   34.10    3.70
  -5  -5  -5   32.30    4.90
  -5  -5  -5   41.30    3.30
   5   5   5   43.20    3.40
   5   5   5   42.80    3.30
   5   5   5   24.80    5.10
  -6  -5  -5   -1.80    1.80
  -6  -5  -5    1.30    1.70
  -6  -5  -5   -0.60    1.50
  -6  -5  -5    0.60    1.20
   6   5   5    0.60    1.70
   6   5   5    1.00    1.80
  -7  -5  -5    9.80    2.30
  -7  -5  -5    8.80    3.10
   6  -6  -5   -0.70    2.50
  -6   6   5    2.00    1.80
  -6   6   5    1.10    1.70
   5  -6  -5    0.90    2.00
   5  -6  -5   -0.40    2.10
  -5   6   5   -0.30    1.60
  -5   6   5    0.90    1.00
  -5   6   5    0.80    1.60
   4  -6  -5   20.50    2.80
   4  -6  -5   18.80    2.40
  -4   6   5   19.70    2.80
  -4   6   5   18.80    3.70
  -4   6   5   19.80    3.80
   3  -6  -5   11.50    1.70
   3  -6  -5   11.00    2.30
  -3   6   5   11.90    1.10
  -3   6   5   12.90    3.10
  -3   6   5   13.40    2.10
  -3   6   5   10.30    2.50
   2  -6  -5   24.20    2.30
   2  -6  -5   27.20    1.90
  -2   6   5   27.40    3.70
  -2   6   5   23.80    1.70
  -2   6   5   25.70    3.20
  -2   6   5   27.90    2.10
   1  -6  -5    8.80    1.30
   1  -6  -5    9.70    1.30
   1  -6  -5    8.90    1.10
   1  -6  -5    9.10    1.20
   1  -6  -5    9.90    1.70
  -1   6   5    6.80    1.10
  -1   6   5    7.70    1.40
  -1   6   5   10.40    1.10
  -1   6   5    6.60    1.90
  -1   6   5    8.70    1.30
   0  -6  -5    0.00    0.80
   0  -6  -5   -0.40    0.60
   0  -6  -5    0.30    0.80
   0  -6  -5    0.60    0.90
   0  -6  -5   -0.70    0.70
   0   6   5   -0.20    0.90
   0   6   5   -1.20    0.80
   0   6   5   -1.80    0.80
   0   6   5    0.40    1.00
   0   6   5    0.40    1.20
  -1  -6  -5   11.60    1.70
  -1  -6  -5   11.70    1.60
   1   6   5    9.60    2.20
   1   6   5   12.30    1.80
   1   6   5   12.10    2.90
   1   6   5   11.50    1.70
  -2  -6  -5   76.89    3.40
  -2  -6  -5   77.59    3.70
  -2  -6  -5   80.19    3.40
   2   6   5   78.69    3.80
   2   6   5   81.39    3.50
   2   6   5   85.29    6.00
  -3  -6  -5   64.29    3.70
  -3  -6  -5   64.69    5.40
  -3  -6  -5   65.89    3.40
  -3  -6  -5   71.79    3.90
   3   6   5   67.19    3.80
   3   6   5   72.99    6.10
   3   6   5   66.19    3.40
  -4  -6  -5   38.30    3.40
  -4  -6  -5   43.80    3.40
  -4  -6  -5   34.80    4.70
   4   6   5   33.90    5.90
   4   6   5   42.40    3.40
   4   6   5   39.60    3.00
  -5  -6  -5   -0.60    0.80
  -5  -6  -5   -0.40    1.70
  -5  -6  -5   -0.20    1.50
  -5  -6  -5   -0.30    1.70
   5   6   5    1.50    1.60
   5   6   5    0.80    1.70
   5   6   5   -3.50    2.50
  -6  -6  -5    7.10    2.30
  -6  -6  -5    5.00    2.00
  -6  -6  -5    1.40    2.30
   6   6   5    6.90    2.20
   6   6   5   11.40    2.70
   6  -7  -5    0.50    2.50
   6  -7  -5   -1.00    2.40
   5  -7  -5    1.80    2.20
   5  -7  -5    2.60    2.50
  -5   7   5    2.30    1.70
  -5   7   5    2.60    1.60
   4  -7  -5   21.40    3.00
   4  -7  -5   21.10    2.50
  -4   7   5   29.30    4.60
  -4   7   5   23.80    3.90
   3  -7  -5   -0.70    1.40
   3  -7  -5    0.10    1.40
  -3   7   5    0.10    1.00
  -3   7   5   -0.20    0.60
  -3   7   5   -0.70    1.40
   2  -7  -5   13.80    1.40
   2  -7  -5   15.60    2.20
   2  -7  -5   19.40    1.90
  -2   7   5   14.70    3.00
  -2   7   5   16.20    3.80
  -2   7   5   15.00    1.60
   1  -7  -5    9.10    1.70
   1  -7  -5    8.30    1.50
  -1   7   5    6.70    1.40
  -1   7   5    4.50    2.00
   0  -7  -5   10.30    1.30
   0  -7  -5   12.70    1.50
   0  -7  -5   11.60    1.60
   0   7   5   11.40    1.90
   0   7   5    8.40    2.30
   0   7   5   10.90    1.50
  -1  -7  -5   12.40    1.80
  -1  -7  -5   11.60    1.90
  -1  -7  -5    8.70    1.40
   1   7   5   11.70    1.80
   1   7   5   10.10    2.00
   1   7   5    7.90    2.60
  -2  -7  -5    1.10    1.30
  -2  -7  -5    3.40    1.60
   2   7   5    0.80    2.00
   2   7   5    1.20    1.30
   2   7   5    2.00    1.50
  -3  -7  -5    3.60    1.70
   3   7   5    0.90    2.40
   3   7   5    4.10    1.70
   3   7   5    4.40    2.00
  -4  -7  -5    8.70    2.20
  -4  -7  -5    8.30    2.10
   4   7   5   10.10    2.40
   4   7   5    9.60    2.20
  -5  -7  -5    3.40    2.20
  -5  -7  -5    7.10    2.50
  -5  -7  -5    7.60    2.30
   5   7   5    7.50    2.50
   5   7   5    6.80    2.20
  -6  -7  -5   24.60    3.30
  -6  -7  -5   32.70    4.20
   6   7   5   27.20    3.70
   6   7   5   28.90    3.50
   5  -8  -5   -2.20    2.20
   5  -8  -5    3.20    2.50
   4  -8  -5    0.90    2.10
   4  -8  -5   -1.00    1.70
  -4   8   5    1.50    1.70
   3  -8  -5    6.20    2.20
   3  -8  -5    8.50    2.10
  -3   8   5    5.50    2.30
   2  -8  -5    3.90    1.50
   2  -8  -5    3.30    1.80
   2  -8  -5    2.80    1.00
  -2   8   5    5.10    1.30
  -2   8   5    3.40    2.00
   1  -8  -5    4.70    1.40
   1  -8  -5    6.40    1.60
   1  -8  -5    6.30    1.70
  -1   8   5    2.80    2.10
  -1   8   5    5.60    1.60
   0  -8  -5    7.90    1.70
   0  -8  -5    7.60    1.20
   0  -8  -5    7.90    1.60
   0   8   5    5.20    2.50
   0   8   5    8.40    2.00
  -1  -8  -5    4.90    1.80
   1   8   5    5.80    1.80
   1   8   5    3.10    2.30
  -2  -8  -5    5.70    2.10
  -2  -8  -5    5.30    1.70
   2   8   5    6.80    2.10
   2   8   5    4.20    1.70
   2   8   5    1.10    2.60
  -3  -8  -5  116.59    5.50
  -3  -8  -5  102.89    4.80
   3   8   5  100.79    5.20
   3   8   5   85.99    8.60
   3   8   5  104.59    4.70
  -4  -8  -5    1.10    1.80
  -4  -8  -5    0.70    1.70
   4   8   5    2.80    2.00
   4   8   5   -0.80    1.70
  -5  -8  -5    0.10    1.90
  -5  -8  -5    3.60    2.30
   5   8   5    1.40    2.10
   5   8   5   -0.20    1.90
   6   8   5    2.20    2.30
   4  -9  -5    3.00    2.70
   3  -9  -5    2.90    2.10
   3  -9  -5   -0.10    2.10
  -3   9   5    0.70    2.00
   2  -9  -5    0.30    1.90
   2  -9  -5    1.00    1.60
  -2   9   5    2.30    1.20
  -2   9   5   -1.20    1.70
   1  -9  -5    0.70    1.30
   1  -9  -5    0.40    1.40
   1  -9  -5    1.30    1.40
  -1   9   5    1.80    1.40
  -1   9   5    1.30    2.20
   0  -9  -5   -0.10    1.40
   0   9   5    1.20    1.60
   0   9   5    0.00    2.20
  -1  -9  -5    2.50    1.60
   1   9   5   -0.60    2.50
   1   9   5    2.30    1.80
  -2  -9  -5    0.10    1.90
   2   9   5   -5.00    2.60
   2   9   5    0.30    2.10
  -3  -9  -5    2.90    2.00
   3   9   5    5.90    2.30
   3   9   5    8.50    2.70
  -4  -9  -5   10.90    2.70
  -4  -9  -5   12.20    2.80
   4   9   5   13.20    2.60
   4   9   5   10.20    2.80
  -5  -9  -5    7.40    2.60
   5   9   5    5.50    2.40
   3 -10  -5    1.60    2.50
   2 -10  -5   -2.20    1.80
   1 -10  -5    3.80    1.90
   1 -10  -5   -0.90    1.30
  -1  10   5   -0.30    2.20
  -1  10   5    2.70    1.40
   0 -10  -5   -2.40    1.50
   0 -10  -5    3.40    2.00
   0  10   5    1.40    1.70
  -1 -10  -5    3.80    2.10
   1  10   5    8.40    2.30
   1  10   5   -4.10    3.10
  -2 -10  -5    7.10    2.70
   1 -10   6    0.50    2.30
   2   9  -6   34.20    5.20
   1   9  -6    6.80    2.20
  -1  -9   6    4.50    2.40
   0   9  -6    5.00    1.90
   0   9  -6    3.10    1.90
   0  -9   6    1.80    2.00
  -1   9  -6    0.80    1.60
   1  -9   6    2.00    2.20
   1  -9   6    2.30    1.80
  -2   9  -6    2.80    1.60
   2  -9   6    1.60    2.20
   2  -9   6    0.50    1.40
   3  -9   6    1.30    2.20
   4   8  -6    7.40    2.40
  -4  -8   6    1.20    2.20
  -4  -8   6    5.70    2.60
   3   8  -6    4.20    2.00
   3   8  -6    5.20    2.60
  -3  -8   6    3.20    2.40
  -3  -8   6    2.40    2.40
   2   8  -6    0.50    1.90
   2   8  -6    1.90    1.70
   2   8  -6   -0.30    1.50
  -2  -8   6   -3.90    1.80
   1   8  -6    0.40    1.80
   1   8  -6   -0.80    1.60
  -1  -8   6    1.60    1.80
   0   8  -6    8.50    2.10
   0   8  -6    6.50    2.40
   0  -8   6    3.80    1.80
  -1   8  -6    2.70    1.80
  -1   8  -6    4.00    1.70
   1  -8   6    2.20    1.60
  -2   8  -6    0.50    1.40
  -2   8  -6    1.10    1.70
   2  -8   6    0.10    2.00
   2  -8   6   -0.70    1.30
  -3   8  -6    0.30    1.20
  -3   8  -6    0.70    1.60
   3  -8   6    2.10    2.10
   4  -8   6    2.30    2.20
   5   7  -6    5.60    2.60
   5   7  -6    5.70    2.30
  -5  -7   6    4.90    2.50
  -5  -7   6    4.60    2.60
   4   7  -6    5.20    2.40
   4   7  -6    1.30    1.90
  -4  -7   6    2.20    2.20
  -4  -7   6   -1.10    1.50
  -4  -7   6   -0.10    2.00
   3   7  -6    4.00    1.90
   3   7  -6    7.40    2.40
   3   7  -6    3.30    1.50
  -3  -7   6    5.30    2.30
  -3  -7   6    1.50    1.70
  -3  -7   6    9.30    2.60
   2   7  -6    0.50    1.70
   2   7  -6    1.30    1.50
   2   7  -6   -1.30    1.40
  -2  -7   6   -0.70    1.90
  -2  -7   6    0.40    1.80
   1   7  -6    0.50    1.50
   1   7  -6    0.20    1.50
   1   7  -6    2.90    1.50
  -1  -7   6    1.70    1.60
  -1  -7   6    1.60    1.50
   0   7  -6    2.40    2.20
   0   7  -6   11.80    2.30
   0   7  -6    5.80    2.00
   0  -7   6   12.00    2.20
  -1   7  -6   46.60    6.10
  -1   7  -6   41.50    3.00
   1  -7   6   44.20    2.90
  -2   7  -6    0.70    1.20
  -2   7  -6    0.30    1.50
   2  -7   6    0.40    1.70
   2  -7   6    0.70    1.20
  -3   7  -6    1.20    1.20
  -3   7  -6    2.60    1.80
   3  -7   6    1.30    1.10
   3  -7   6    3.70    1.90
  -4   7  -6    8.00    2.40
   4  -7   6   13.20    2.80
   5  -7   6   -1.40    2.00
  -6  -6   6   -0.30    2.10
   5   6  -6    9.70    2.40
   5   6  -6   10.70    2.70
  -5  -6   6   18.70    3.30
  -5  -6   6    8.90    2.50
   4   6  -6   -0.20    1.70
   4   6  -6   -0.10    1.80
  -4  -6   6    2.10    2.00
  -4  -6   6   -0.80    1.60
  -4  -6   6   -2.80    1.30
   3   6  -6   11.40    2.20
   3   6  -6   14.20    2.60
  -3  -6   6   13.10    2.60
  -3  -6   6   12.10    2.40
   2   6  -6    9.80    2.20
   2   6  -6    4.50    1.50
   2   6  -6    6.50    1.70
   2   6  -6    4.80    2.30
  -2  -6   6    7.10    2.00
  -2  -6   6    4.60    1.70
  -2  -6   6    9.70    2.20
   1   6  -6    5.20    1.40
   1   6  -6    4.70    1.70
   1   6  -6    2.20    1.90
   1   6  -6    3.10    1.50
  -1  -6   6    6.20    1.80
  -1  -6   6    6.40    1.70
   0   6  -6   11.80    2.00
   0   6  -6   11.10    1.80
   0  -6   6   11.80    1.90
   0  -6   6   13.90    2.10
  -1   6  -6    8.20    1.40
  -1   6  -6    3.50    1.50
  -1   6  -6    3.90    1.80
  -1   6  -6    8.60    1.70
   1  -6   6    5.70    1.60
  -2   6  -6    1.00    1.30
  -2   6  -6   -0.20    0.90
  -2   6  -6   -1.70    1.10
   2  -6   6    2.60    1.20
   2  -6   6    1.30    1.60
  -3   6  -6    1.70    1.10
  -3   6  -6    0.90    1.50
   3  -6   6    1.70    1.00
   3  -6   6    3.10    1.70
  -4   6  -6    4.40    2.10
  -4   6  -6    4.00    1.20
   4  -6   6    5.90    2.10
  -5   6  -6   19.70    3.80
   5  -6   6    9.40    2.60
  -6   6  -6    1.60    1.80
   6  -6   6    1.50    2.50
   6   5  -6    1.10    2.00
  -6  -5   6    5.50    2.60
  -6  -5   6   -0.50    1.90
  -6  -5   6    3.30    2.20
   5   5  -6    5.00    2.10
   5   5  -6    5.40    2.00
  -5  -5   6    8.50    2.30
  -5  -5   6    3.90    1.90
  -5  -5   6    9.20    2.60
   4   5  -6    0.10    1.40
   4   5  -6   -0.80    1.50
  -4  -5   6   -0.80    1.30
  -4  -5   6    1.50    1.00
  -4  -5   6   -0.80    1.70
  -4  -5   6    1.70    1.80
   3   5  -6   17.60    3.20
   3   5  -6   16.20    2.50
   3   5  -6   15.30    2.30
  -3  -5   6   17.20    2.40
  -3  -5   6   18.70    2.30
  -3  -5   6   25.10    2.80
   2   5  -6   11.00    2.10
   2   5  -6    9.50    1.80
   2   5  -6    5.40    1.40
  -2  -5   6   12.50    2.20
  -2  -5   6    5.20    1.50
  -2  -5   6    7.30    1.30
  -2  -5   6   13.50    2.10
   1   5  -6   24.80    2.20
   1   5  -6   25.60    2.40
   1   5  -6   26.30    3.80
   1   5  -6   27.50    4.20
  -1  -5   6   21.50    2.20
  -1  -5   6   26.20    2.60
   0   5  -6    0.50    1.00
   0   5  -6    1.80    1.40
   0   5  -6   -0.10    1.00
   0   5  -6   -0.50    1.10
   0  -5   6    1.00    1.20
   0  -5   6   -0.50    1.10
  -1   5  -6   93.99    3.70
  -1   5  -6  108.89    3.50
  -1   5  -6  105.69    4.00
  -1   5  -6  108.29    5.20
  -1   5  -6   95.29    3.60
  -1   5  -6  114.09    7.30
   1  -5   6  103.69    3.80
   1  -5   6  105.49    3.50
   1  -5   6  104.79    3.70
  -2   5  -6   26.20    2.60
  -2   5  -6   28.90    4.60
  -2   5  -6   25.10    1.70
  -2   5  -6   27.40    2.10
   2  -5   6   25.90    2.00
   2  -5   6   26.10    2.40
   2  -5   6   23.40    1.70
  -3   5  -6    6.10    1.80
  -3   5  -6    9.70    2.00
  -3   5  -6   10.30    1.50
   3  -5   6   10.30    1.40
   3  -5   6    8.60    2.00
  -4   5  -6   11.70    1.50
   4  -5   6   12.40    1.20
   4  -5   6   10.40    2.20
  -5   5  -6    0.50    1.60
  -5   5  -6    3.60    1.70
   5  -5   6    1.20    1.80
  -6   5  -6    3.10    1.70
  -6   5  -6   -1.50    1.50
   6  -5   6   -0.10    2.30
   7  -5   6    1.10    2.80
  -7  -4   6    1.50    2.10
   6   4  -6    3.30    1.90
  -6  -4   6    1.20    1.80
  -6  -4   6    2.70    2.20
  -6  -4   6    5.10    1.90
   5   4  -6   33.20    3.10
   5   4  -6   30.00    3.10
  -5  -4   6   33.40    3.60
  -5  -4   6   31.60    4.80
  -5  -4   6   30.00    2.90
  -5  -4   6   34.20    4.20
   4   4  -6   34.40    3.00
   4   4  -6   34.20    2.80
  -4  -4   6   29.30    2.70
  -4  -4   6   27.30    2.90
  -4  -4   6   33.60    4.40
  -4  -4   6   31.30    3.60
   3   4  -6    2.10    1.40
   3   4  -6    0.60    0.80
   3   4  -6    1.40    1.50
  -3  -4   6    0.60    1.20
  -3  -4   6    2.20    1.50
  -3  -4   6    1.80    1.00
  -3  -4   6    4.00    1.70
   2   4  -6    5.80    1.40
   2   4  -6    5.50    1.50
   2   4  -6    3.50    1.00
  -2  -4   6    7.40    1.60
  -2  -4   6    6.90    1.60
  -2  -4   6    3.00    1.20
  -2  -4   6    6.80    1.70
   1   4  -6   65.59    2.80
   1   4  -6   67.19    4.30
   1   4  -6   66.89    3.20
   1   4  -6   69.69    5.00
  -1  -4   6   63.69    2.90
  -1  -4   6   62.09    2.90
  -1  -4   6   64.99    4.40
  -1  -4   6   71.89    3.30
   0   4  -6    1.90    0.90
   0   4  -6    3.00    1.20
   0   4  -6    1.80    0.90
   0   4  -6    0.40    0.80
   0  -4   6    1.60    0.70
   0  -4   6    4.00    1.10
   0  -4   6    2.80    1.10
  -1   4  -6   11.20    1.50
  -1   4  -6   12.90    1.40
  -1   4  -6   14.60    2.10
  -1   4  -6   12.40    1.50
  -1   4  -6   12.50    1.40
   1  -4   6   11.50    1.30
   1  -4   6   13.40    1.60
   1  -4   6   12.40    1.50
   1  -4   6   12.30    1.40
  -2   4  -6    2.90    0.90
  -2   4  -6    1.20    0.70
  -2   4  -6    3.10    0.90
  -2   4  -6    2.40    0.90
   2  -4   6    2.70    0.90
   2  -4   6    3.10    0.90
   2  -4   6    1.90    1.30
   2  -4   6    3.70    1.10
  -3   4  -6    2.30    1.30
  -3   4  -6    3.90    0.90
  -3   4  -6    5.10    1.10
   3  -4   6    5.50    0.90
   3  -4   6    3.90    0.80
   3  -4   6    6.10    1.10
   3  -4   6    5.20    1.00
   3  -4   6    3.30    1.50
  -4   4  -6    5.90    1.80
  -4   4  -6    9.40    1.30
   4  -4   6    9.20    2.10
   4  -4   6   10.20    1.20
  -5   4  -6   45.70    5.30
  -5   4  -6   33.70    5.70
  -5   4  -6   38.80    2.00
   5  -4   6   37.70    1.60
   5  -4   6   37.20    3.40
  -6   4  -6    1.20    1.70
  -6   4  -6   -1.20    1.50
   6  -4   6    0.20    2.00
   7  -4   6    2.30    2.60
   7   3  -6    6.30    2.60
  -7  -3   6    3.30    2.60
   6   3  -6    0.10    1.50
  -6  -3   6    1.70    1.80
  -6  -3   6    1.10    1.80
  -6  -3   6   -1.00    1.40
   5   3  -6    5.70    1.70
   5   3  -6    5.30    1.70
  -5  -3   6    5.80    1.70
  -5  -3   6    5.40    1.90
  -5  -3   6    6.90    2.10
  -5  -3   6    2.70    1.50
   4   3  -6    3.00    1.40
   4   3  -6    3.90    1.60
  -4  -3   6    5.80    1.70
  -4  -3   6    4.50    1.50
  -4  -3   6    2.90    1.40
  -4  -3   6    5.70    1.80
   3   3  -6    6.80    1.60
   3   3  -6    2.90    0.80
   3   3  -6    6.40    1.50
  -3  -3   6    7.10    1.60
  -3  -3   6    4.10    1.40
  -3  -3   6    4.90    1.30
  -3  -3   6    7.20    1.80
   2   3  -6   17.90    1.90
   2   3  -6   16.10    1.70
   2   3  -6   16.60    2.60
  -2  -3   6   14.30    1.70
  -2  -3   6   22.70    3.20
  -2  -3   6   17.10    2.10
  -2  -3   6   19.30    2.00
  -2  -3   6   17.80    1.80
   1   3  -6  212.08    5.90
   1   3  -6  210.18    5.40
   1   3  -6  211.48    8.70
  -1  -3   6  211.18    5.60
  -1  -3   6  207.98    7.20
  -1  -3   6  205.48    5.50
  -1  -3   6  208.18    7.80
  -1  -3   6  212.58    6.00
  -1  -3   6  205.48    8.00
   0   3  -6  176.48    7.90
   0   3  -6  167.18    4.90
   0   3  -6  169.38    6.10
   0   3  -6  164.58    4.90
   0   3  -6  174.58    4.50
   0   3  -6  164.38    5.90
   0  -3   6  180.28    6.10
   0  -3   6  170.48    4.60
   0  -3   6  179.48    5.10
   0  -3   6  181.28    6.20
   0  -3   6  174.68    4.60
   0  -3   6  170.78    4.50
  -1   3  -6   63.09    4.50
  -1   3  -6   61.19    2.50
  -1   3  -6   61.19    3.10
  -1   3  -6   61.69    2.70
  -1   3  -6   60.89    2.20
  -1   3  -6   60.59    2.50
   1  -3   6   59.59    2.40
   1  -3   6   61.79    2.20
   1  -3   6   58.39    2.60
   1  -3   6   62.39    2.30
   1  -3   6   61.69    2.60
  -2   3  -6    3.20    0.70
  -2   3  -6    2.90    0.90
  -2   3  -6    3.60    0.90
  -2   3  -6    2.80    0.60
  -2   3  -6    1.40    1.00
  -2   3  -6    1.30    0.90
   2  -3   6    3.00    0.80
   2  -3   6    4.10    1.20
   2  -3   6    3.20    0.80
   2  -3   6    4.30    1.00
   2  -3   6    2.80    0.60
   2  -3   6    3.70    0.80
  -3   3  -6   56.79    2.40
  -3   3  -6   59.69    2.10
  -3   3  -6   66.59    5.20
  -3   3  -6   60.29    2.70
  -3   3  -6   61.59    2.40
   3  -3   6   57.89    2.20
   3  -3   6   56.39    1.50
   3  -3   6   63.29    2.30
   3  -3   6   61.89    2.20
   3  -3   6   57.09    3.00
  -4   3  -6    2.50    0.90
  -4   3  -6    1.30    1.20
  -4   3  -6    1.80    0.70
  -4   3  -6    0.00    1.00
   4  -3   6    1.20    0.80
   4  -3   6    1.40    1.40
  -5   3  -6    0.90    1.30
  -5   3  -6   -0.20    1.00
  -5   3  -6    1.50    0.80
   5  -3   6    0.30    0.80
   5  -3   6    0.40    1.70
  -6   3  -6    0.10    0.90
  -6   3  -6    0.80    1.50
  -6   3  -6   -1.30    1.10
   6  -3   6   -1.20    1.90
  -7   3  -6    3.30    2.30
   7  -3   6    3.70    2.60
   7   2  -6    4.20    2.00
  -7  -2   6    2.40    2.20
  -7  -2   6    2.40    2.40
  -7  -2   6    1.40    1.90
   6   2  -6    6.40    1.80
  -6  -2   6    9.40    2.40
  -6  -2   6    6.00    2.30
  -6  -2   6    3.10    1.80
   5   2  -6    6.70    1.50
   5   2  -6    7.30    1.70
   5   2  -6    9.60    1.80
  -5  -2   6    5.40    1.40
  -5  -2   6    7.90    2.00
  -5  -2   6    3.20    1.50
  -5  -2   6    8.40    1.80
  -5  -2   6    6.30    2.00
   4   2  -6   53.19    2.80
   4   2  -6   54.19    2.40
   4   2  -6   52.19    2.90
  -4  -2   6   57.79    4.80
  -4  -2   6   53.99    3.20
  -4  -2   6   50.09    4.50
  -4  -2   6   53.09    2.80
   3   2  -6   56.99    3.50
   3   2  -6   53.19    2.60
   3   2  -6   54.29    3.50
   3   2  -6   61.39    2.30
   3   2  -6   63.29    3.00
  -3  -2   6   57.19    3.00
  -3  -2   6   66.89    4.20
  -3  -2   6   59.79    3.10
  -3  -2   6   64.09    4.40
  -3  -2   6   63.39    2.80
  -3  -2   6   67.49    3.00
   2   2  -6   81.19    2.90
   2   2  -6   79.09    3.70
   2   2  -6   81.09    3.20
   2   2  -6   84.19    4.50
  -2  -2   6   78.89    4.00
  -2  -2   6   82.69    3.10
  -2  -2   6   81.19    3.00
  -2  -2   6   84.09    3.40
  -2  -2   6   81.79    4.30
  -2  -2   6   82.89    4.50
   1   2  -6   40.00    1.90
   1   2  -6   38.60    2.10
   1   2  -6   40.00    3.10
  -1  -2   6   38.10    2.80
  -1  -2   6   39.40    2.00
  -1  -2   6   42.60    2.20
  -1  -2   6   40.30    2.80
  -1  -2   6   42.90    2.00
  -1  -2   6   42.60    3.00
  -1  -2   6   37.40    2.50
   0   2  -6   39.10    3.10
   0   2  -6   36.10    1.90
   0   2  -6   36.70    1.90
   0   2  -6   37.70    1.80
   0   2  -6   37.40    2.30
   0  -2   6   37.00    2.00
   0  -2   6   35.10    1.80
   0  -2   6   35.70    1.70
   0  -2   6   37.90    2.40
   0  -2   6   37.30    2.20
   0  -2   6   37.00    1.80
  -1   2  -6    8.10    0.90
  -1   2  -6    8.30    1.50
  -1   2  -6    7.40    1.00
  -1   2  -6    8.00    1.00
   1  -2   6    8.80    1.10
   1  -2   6    9.30    1.00
   1  -2   6    9.90    1.20
  -2   2  -6    2.20    0.70
  -2   2  -6    0.50    0.90
  -2   2  -6    2.60    0.70
  -2   2  -6    2.70    0.70
   2  -2   6    1.80    0.90
   2  -2   6    2.00    0.70
   2  -2   6    2.00    0.70
   2  -2   6    1.60    0.60
   2  -2   6    2.30    0.70
  -3   2  -6   69.39    4.50
  -3   2  -6   70.29    4.90
  -3   2  -6   69.29    2.20
  -3   2  -6   70.09    2.60
  -3   2  -6   69.09    2.60
   3  -2   6   65.59    2.90
   3  -2   6   73.29    2.50
   3  -2   6   69.09    2.40
   3  -2   6   68.49    2.30
  -4   2  -6    9.60    1.10
  -4   2  -6   10.90    1.40
  -4   2  -6    6.00    1.60
  -4   2  -6   10.60    1.10
   4  -2   6   12.20    1.30
   4  -2   6   10.70    1.90
   4  -2   6   10.10    1.20
  -5   2  -6   33.60    4.20
  -5   2  -6   30.10    4.00
  -5   2  -6   31.90    2.00
   5  -2   6   29.10    2.80
   5  -2   6   34.30    1.90
  -6   2  -6    1.70    1.10
  -6   2  -6    1.30    1.80
   6  -2   6    4.20    2.10
   6  -2   6    1.50    1.00
  -7   2  -6    3.90    1.60
  -7   2  -6    5.20    1.40
  -7   2  -6    1.80    2.20
   7  -2   6    4.80    2.60
   7   1  -6    0.90    1.80
   7   1  -6   -0.10    1.40
  -7  -1   6   -1.00    1.60
  -7  -1   6    0.80    2.20
  -7  -1   6    1.10    1.70
   6   1  -6    3.30    1.40
   6   1  -6    6.10    1.80
  -6  -1   6    2.00    1.50
  -6  -1   6    4.80    1.80
  -6  -1   6    3.90    1.90
   5   1  -6   10.10    1.80
   5   1  -6   11.30    1.80
   5   1  -6   11.90    1.80
  -5  -1   6    9.20    2.30
  -5  -1   6   10.80    2.40
  -5  -1   6   12.50    2.00
  -5  -1   6   12.50    1.70
   4   1  -6   11.30    1.70
   4   1  -6   11.20    1.60
   4   1  -6   12.00    1.60
   4   1  -6    9.60    1.60
  -4  -1   6   10.40    1.70
  -4  -1   6    6.00    1.80
  -4  -1   6    9.90    1.00
  -4  -1   6   10.40    2.00
  -4  -1   6   11.80    1.80
   3   1  -6    0.40    0.50
   3   1  -6    0.50    0.80
   3   1  -6    0.50    0.80
   3   1  -6    1.30    0.80
   3   1  -6    1.10    0.90
  -3  -1   6    0.60    0.80
  -3  -1   6    0.20    0.30
  -3  -1   6    0.20    0.80
  -3  -1   6    0.90    0.80
  -3  -1   6    1.50    0.90
  -3  -1   6    0.40    0.80
   2   1  -6   21.30    1.40
   2   1  -6   21.60    2.30
   2   1  -6   23.70    1.60
   2   1  -6   22.00    1.50
   2   1  -6   21.70    1.70
  -2  -1   6   20.90    2.30
  -2  -1   6   23.40    1.50
  -2  -1   6   23.10    1.60
  -2  -1   6   21.40    1.90
  -2  -1   6   25.30    1.60
  -2  -1   6   24.20    1.70
  -2  -1   6   22.20    2.30
   1   1  -6  286.47    9.30
   1   1  -6  282.47    6.90
   1   1  -6  298.17    6.50
   1   1  -6  286.07    6.40
   1   1  -6  295.57    7.00
   1   1  -6  300.57   10.50
   1   1  -6  298.57    9.80
  -1  -1   6  297.37    6.50
  -1  -1   6  278.07    9.60
  -1  -1   6  278.77   10.20
  -1  -1   6  299.17    7.10
  -1  -1   6  275.07    6.90
  -1  -1   6  285.77    9.40
  -1  -1   6  276.27    6.70
  -1  -1   6  269.27    6.30
   0   1  -6  611.34   11.90
   0   1  -6  606.84   19.90
   0   1  -6  617.64   18.40
   0   1  -6  601.64   12.90
   0   1  -6  599.94   17.20
   0   1  -6  614.24   11.90
   0   1  -6  598.74   12.90
   0  -1   6  603.74   12.00
   0  -1   6  610.04   12.80
   0  -1   6  591.64   18.30
   0  -1   6  610.44   19.80
   0  -1   6  607.54   11.90
   0  -1   6  607.34   17.20
   0  -1   6  595.84   13.00
  -1   1  -6   14.80    1.20
  -1   1  -6   15.40    1.10
  -1   1  -6   13.00    1.70
  -1   1  -6   13.60    1.00
  -1   1  -6   15.90    1.20
  -1   1  -6   12.90    2.10
   1  -1   6   14.70    1.20
   1  -1   6   14.70    1.10
   1  -1   6   14.20    1.00
   1  -1   6   14.60    1.10
   1  -1   6   14.70    2.00
   1  -1   6   11.70    1.80
   1  -1   6   15.40    1.30
  -2   1  -6   91.19    4.50
  -2   1  -6   91.29    2.60
  -2   1  -6   86.89    4.50
  -2   1  -6   89.29    2.90
  -2   1  -6   89.59    5.00
  -2   1  -6   88.39    2.90
   2  -1   6   94.09    2.80
   2  -1   6   90.89    3.00
   2  -1   6   92.59    2.90
   2  -1   6   87.19    2.70
   2  -1   6   96.49    2.70
  -3   1  -6    3.20    0.70
  -3   1  -6    4.50    0.80
  -3   1  -6    5.70    1.00
  -3   1  -6    3.70    1.10
  -3   1  -6    5.60    0.90
  -3   1  -6    2.50    0.80
   3  -1   6    5.90    0.90
   3  -1   6    5.00    0.90
   3  -1   6    5.00    0.90
   3  -1   6    4.70    1.20
  -4   1  -6   10.20    1.20
  -4   1  -6   12.10    1.30
  -4   1  -6   10.40    1.10
  -4   1  -6   11.00    1.40
   4  -1   6   10.50    1.50
   4  -1   6   11.70    1.20
   4  -1   6   12.60    1.40
   4  -1   6   11.20    1.10
  -5   1  -6    4.90    1.20
  -5   1  -6    3.00    1.50
  -5   1  -6    3.40    1.10
   5  -1   6    3.90    1.70
   5  -1   6    4.10    1.10
  -6   1  -6    3.90    1.30
  -6   1  -6    4.40    1.30
  -6   1  -6    1.80    1.70
   6  -1   6    5.00    1.30
   6  -1   6    4.30    2.00
  -7   1  -6    1.30    2.00
  -7   1  -6    3.40    1.40
  -7   1  -6    4.00    1.70
   7  -1   6    3.60    1.20
  -8   1  -6    2.50    1.50
   8   0  -6    3.70    2.20
   7   0  -6   -0.40    1.90
   7   0  -6    1.70    1.30
  -7   0   6    0.60    1.60
  -7   0   6   -0.20    1.90
  -7   0   6   -1.00    1.50
   6   0  -6   39.30    3.10
   6   0  -6   39.90    2.60
  -6   0   6   35.80    2.90
  -6   0   6   47.00    5.90
  -6   0   6   36.10    5.20
   5   0  -6   10.00    1.90
   5   0  -6    8.90    1.50
  -5   0   6    8.10    1.70
  -5   0   6    5.30    1.30
  -5   0   6    5.30    1.60
  -5   0   6    6.90    2.00
   4   0  -6    0.50    0.90
   4   0  -6    0.10    1.00
   4   0  -6    1.10    0.90
   4   0  -6    0.30    0.80
  -4   0   6   -0.20    0.40
  -4   0   6    0.00    0.90
  -4   0   6   -0.30    0.70
  -4   0   6    1.00    0.80
  -4   0   6   -0.30    1.00
  -4   0   6    0.20    0.80
  -4   0   6   -1.40    1.10
  -4   0   6    0.10    0.90
   3   0  -6    0.70    0.80
   3   0  -6    1.40    0.70
   3   0  -6    0.20    0.80
   3   0  -6    0.90    0.30
   3   0  -6    1.50    0.80
  -3   0   6    0.50    0.90
  -3   0   6    1.30    0.90
  -3   0   6    0.60    0.50
  -3   0   6    0.30    0.80
  -3   0   6    1.60    0.70
  -3   0   6    0.60    0.70
  -3   0   6    1.20    0.80
  -3   0   6    0.40    0.50
   2   0  -6  275.47    6.60
   2   0  -6  269.37    7.80
   2   0  -6  272.17    9.60
   2   0  -6  273.07    6.10
   2   0  -6  266.47    6.10
  -2   0   6  266.07   10.00
  -2   0   6  272.07    6.60
  -2   0   6  275.37    9.70
  -2   0   6  273.07    6.10
  -2   0   6  273.97    6.60
  -2   0   6  259.97    9.10
  -2   0   6  267.67    6.70
   1   0  -6  198.98    4.60
   1   0  -6  196.48    5.00
   1   0  -6  197.48    5.10
   1   0  -6  199.18    7.50
   1   0  -6  198.98    7.70
   1   0  -6  199.68    6.80
   1   0  -6  202.88    4.70
  -1   0   6  190.88    7.40
  -1   0   6  200.08    4.70
  -1   0   6  197.88    4.60
  -1   0   6  202.68    5.00
  -1   0   6  202.98    5.20
  -1   0   6  201.78    7.60
  -1   0   6  201.38    6.80
   0   0  -6    0.00    0.50
   0   0  -6    0.50    0.50
   0   0  -6   -0.30    0.30
   0   0  -6    1.30    0.60
   0   0  -6    1.10    0.60
   0   0  -6    0.00    0.40
   0   0  -6    1.20    0.50
   0   0  -6    2.10    0.60
   0   0   6    0.90    0.60
   0   0   6    0.20    0.50
   0   0   6    0.60    0.50
   0   0   6    0.50    0.50
   0   0   6    0.20    0.50
   0   0   6    0.40    0.50
   0   0   6    0.00    0.40
  -1   0  -6    9.50    0.90
  -1   0  -6    8.90    1.50
  -1   0  -6    8.90    0.90
  -1   0  -6    9.50    0.90
  -1   0  -6   11.90    2.00
  -1   0  -6    8.40    0.90
  -1   0  -6    9.60    1.30
   1   0   6    9.30    0.80
   1   0   6    8.50    1.60
   1   0   6    9.60    0.90
   1   0   6   10.60    1.90
   1   0   6    9.40    0.90
   1   0   6    9.70    0.90
   1   0   6   10.20    1.10
   1   0   6    8.00    0.90
  -2   0  -6   77.09    4.00
  -2   0  -6   83.59    2.80
  -2   0  -6   76.49    2.70
  -2   0  -6   80.39    2.40
  -2   0  -6   79.39    4.60
  -2   0  -6   77.49    4.50
  -2   0  -6   79.69    2.80
  -2   0  -6   83.59    2.70
   2   0   6   84.49    2.80
   2   0   6   73.79    4.20
   2   0   6   81.69    2.50
   2   0   6   78.39    2.60
   2   0   6   78.29    2.50
   2   0   6   80.39    2.50
  -3   0  -6   37.80    1.70
  -3   0  -6   37.80    1.90
  -3   0  -6   36.80    2.10
  -3   0  -6   38.20    1.90
  -3   0  -6   38.50    3.40
  -3   0  -6   39.40    3.20
  -3   0  -6   35.20    1.80
   3   0   6   36.70    2.00
   3   0   6   38.30    2.00
   3   0   6   39.70    1.80
   3   0   6   38.50    1.80
  -4   0  -6   86.09    3.30
  -4   0  -6   89.29    2.90
  -4   0  -6   82.99    4.20
  -4   0  -6   88.39    5.30
  -4   0  -6   83.39    5.30
  -4   0  -6   86.49    3.20
  -4   0  -6   90.49    3.30
   4   0   6   85.49    3.00
   4   0   6   89.09    2.90
   4   0   6   87.99    3.20
   4   0   6   85.99    3.50
  -5   0  -6    0.40    1.00
  -5   0  -6    0.60    0.80
  -5   0  -6   -0.60    0.80
  -5   0  -6    0.20    1.30
  -5   0  -6    0.50    1.00
   5   0   6    1.90    1.00
   5   0   6    1.00    1.50
   5   0   6    1.30    1.10
  -6   0  -6   -0.40    1.60
  -6   0  -6   -0.10    1.00
  -6   0  -6    0.40    0.90
  -6   0  -6    0.20    1.10
   6   0   6   -0.50    1.10
  -7   0  -6    2.30    1.40
  -7   0  -6   -2.30    1.80
  -7   0  -6    2.80    1.50
  -7   0  -6    0.60    1.20
   7   0   6    1.80    1.40
  -8   0  -6    9.00    2.10
   8   0   6    9.20    1.70
   8  -1  -6   11.40    3.20
   7  -1  -6    7.50    2.70
   7  -1  -6    7.40    1.40
  -7   1   6    8.90    3.10
  -7   1   6    4.10    2.00
  -7   1   6    8.50    1.90
   6  -1  -6    1.60    1.00
   6  -1  -6    3.50    1.90
  -6   1   6    3.30    1.40
  -6   1   6    0.50    1.40
  -6   1   6    3.60    1.90
   5  -1  -6    4.90    1.20
   5  -1  -6    4.70    1.70
  -5   1   6    2.10    1.10
  -5   1   6    4.90    1.40
  -5   1   6    4.90    1.90
  -5   1   6    3.70    1.40
   4  -1  -6   17.20    1.90
   4  -1  -6   18.00    1.50
   4  -1  -6   16.50    1.30
   4  -1  -6   17.30    1.40
  -4   1   6   17.20    1.40
  -4   1   6   14.30    3.20
  -4   1   6   18.90    2.00
  -4   1   6   16.70    1.40
  -4   1   6   12.40    2.40
  -4   1   6   18.10    1.70
  -4   1   6   19.60    3.00
  -4   1   6   20.30    1.80
   3  -1  -6   -0.50    0.60
   3  -1  -6    0.50    0.60
   3  -1  -6    0.50    0.80
   3  -1  -6    0.20    0.60
  -3   1   6   -0.20    0.50
  -3   1   6    0.10    0.40
  -3   1   6    0.30    0.60
  -3   1   6    1.80    1.00
  -3   1   6    0.10    0.50
  -3   1   6    0.30    0.60
  -3   1   6    0.90    0.70
  -3   1   6    1.10    0.70
   2  -1  -6   80.99    2.60
   2  -1  -6   84.59    2.50
   2  -1  -6   84.09    3.80
   2  -1  -6   84.09    2.50
  -2   1   6   82.09    2.80
  -2   1   6   80.49    2.60
  -2   1   6   81.49    4.20
  -2   1   6   75.79    4.50
  -2   1   6   86.89    2.60
  -2   1   6   83.49    4.00
   1  -1  -6   40.60    1.70
   1  -1  -6   35.70    1.60
   1  -1  -6   39.90    2.30
   1  -1  -6   43.70    1.70
   1  -1  -6   40.50    3.00
   1  -1  -6   41.10    1.60
  -1   1   6   40.20    1.60
  -1   1   6   38.90    1.80
  -1   1   6   41.70    2.40
  -1   1   6   41.70    3.00
  -1   1   6   40.80    1.70
  -1   1   6   42.60    1.60
  -1   1   6   36.20    2.80
   0  -1  -6  301.17    6.30
   0  -1  -6  299.47   10.20
   0  -1  -6  297.07    8.80
   0  -1  -6  294.57    6.80
   0  -1  -6  295.77    6.30
   0  -1  -6  294.17    8.60
   0  -1  -6  293.97    6.80
   0  -1  -6  299.67   10.60
   0   1   6  298.87    6.20
   0   1   6  294.47    8.70
   0   1   6  291.07    6.70
   0   1   6  295.07   10.60
   0   1   6  300.77    8.70
   0   1   6  296.97    6.50
   0   1   6  297.27    6.30
   0   1   6  285.17   10.10
   0   1   6  289.77    6.90
   1   1   6   57.09    2.00
   1   1   6   47.60    2.00
   1   1   6   56.79    3.30
   1   1   6   47.40    2.60
   1   1   6   59.49    2.20
   1   1   6   55.39    2.00
   1   1   6   57.09    2.50
  -2  -1  -6  178.88    4.90
  -2  -1  -6  185.38    4.50
  -2  -1  -6  187.28    7.10
  -2  -1  -6  182.48    4.70
  -2  -1  -6  187.68    7.60
  -2  -1  -6  181.98    4.90
  -2  -1  -6  182.48    6.10
   2   1   6  187.78    4.50
   2   1   6  181.08    7.40
   2   1   6  171.58    4.50
   2   1   6  179.18    6.90
   2   1   6  184.28    4.40
   2   1   6  184.98    6.20
   2   1   6  179.08    4.90
  -3  -1  -6   40.20    3.30
  -3  -1  -6   39.70    2.00
  -3  -1  -6   38.80    2.10
  -3  -1  -6   41.00    3.40
  -3  -1  -6   40.50    1.90
  -3  -1  -6   41.10    2.50
  -3  -1  -6   40.40    2.00
   3   1   6   40.30    2.00
   3   1   6   40.50    3.10
   3   1   6   42.10    2.00
   3   1   6   42.00    2.90
   3   1   6   40.20    1.80
   3   1   6   41.10    2.20
  -4  -1  -6    4.70    1.10
  -4  -1  -6    2.90    1.00
  -4  -1  -6    2.20    1.20
  -4  -1  -6    2.20    0.80
  -4  -1  -6    5.70    1.30
  -4  -1  -6    5.20    1.10
   4   1   6    3.70    1.10
   4   1   6    3.90    1.10
   4   1   6    3.70    0.90
  -5  -1  -6    6.80    1.50
  -5  -1  -6    6.70    1.40
  -5  -1  -6    5.70    1.40
  -5  -1  -6    2.60    1.60
   5   1   6    4.80    1.50
   5   1   6    4.30    1.30
  -6  -1  -6   -0.10    1.70
  -6  -1  -6    1.00    1.20
  -6  -1  -6    2.20    1.30
  -6  -1  -6    1.30    1.10
   6   1   6    1.50    1.30
  -7  -1  -6    4.40    1.70
  -7  -1  -6    2.00    1.30
  -7  -1  -6   -2.40    2.10
  -7  -1  -6    4.20    1.60
   7   1   6    3.30    1.60
  -8  -1  -6   34.60    3.20
   8   1   6   37.80    3.10
   8  -2  -6    1.90    2.60
   7  -2  -6    8.30    2.70
  -7   2   6    7.30    2.80
  -7   2   6    7.00    1.80
  -7   2   6    3.60    1.80
   6  -2  -6   15.30    1.60
   6  -2  -6   15.00    2.70
  -6   2   6   13.40    1.80
  -6   2   6    8.80    2.10
  -6   2   6   20.70    4.60
   5  -2  -6   15.20    1.40
   5  -2  -6   12.50    2.20
  -5   2   6   14.80    1.70
  -5   2   6   15.70    1.70
  -5   2   6   13.60    3.10
  -5   2   6   12.50    2.40
  -5   2   6   15.40    3.90
   4  -2  -6   15.10    0.90
   4  -2  -6   15.00    1.30
   4  -2  -6   14.00    1.90
   4  -2  -6   14.50    1.20
  -4   2   6   15.60    1.60
  -4   2   6   14.90    3.30
  -4   2   6   14.10    1.90
  -4   2   6   13.70    1.10
  -4   2   6   15.20    1.30
  -4   2   6   13.40    2.50
  -4   2   6   16.00    1.50
   3  -2  -6  113.89    4.20
   3  -2  -6  114.29    3.10
   3  -2  -6  119.09    3.20
  -3   2   6  115.89    3.40
  -3   2   6  118.59    5.40
  -3   2   6  119.89    3.60
  -3   2   6  116.49    4.30
  -3   2   6  112.59    6.30
  -3   2   6  112.89    3.00
   2  -2  -6   -0.10    0.50
   2  -2  -6    0.30    0.40
   2  -2  -6   -0.30    0.40
   2  -2  -6    0.70    0.50
  -2   2   6    0.20    0.60
  -2   2   6    0.10    0.40
  -2   2   6    0.30    0.70
  -2   2   6    0.30    0.50
  -2   2   6    1.00    0.50
  -2   2   6    0.20    0.50
   1  -2  -6  260.17    5.90
   1  -2  -6  244.88    5.90
   1  -2  -6  256.47    5.50
   1  -2  -6  249.97    7.60
   1  -2  -6  259.57    5.50
  -1   2   6  255.27    7.50
  -1   2   6  259.57    5.50
  -1   2   6  247.38    9.30
  -1   2   6  254.87    6.10
  -1   2   6  259.57    9.60
  -1   2   6  264.97    7.80
  -1   2   6  260.27    6.00
  -1   2   6  247.88    5.50
   0  -2  -6  307.97    7.40
   0  -2  -6  327.37    9.80
   0  -2  -6  320.77    6.80
   0  -2  -6  326.57    9.00
   0  -2  -6  316.67    6.80
   0  -2  -6  357.26   11.50
   0  -2  -6  321.07    7.30
   0   2   6  320.77    7.50
   0   2   6  322.37    9.80
   0   2   6  323.67   10.50
   0   2   6  315.77    7.00
   0   2   6  322.17    6.80
   0   2   6  335.87   11.20
   0   2   6  321.57    7.30
   0   2   6  330.07    6.90
   0   2   6  320.87   11.50
  -1  -2  -6   25.80    2.20
  -1  -2  -6   28.80    2.40
  -1  -2  -6   26.20    1.40
  -1  -2  -6   19.70    1.30
  -1  -2  -6   20.70    1.40
  -2  -2  -6   83.29    2.80
  -2  -2  -6   76.99    4.30
  -2  -2  -6   79.29    2.60
  -2  -2  -6   84.49    3.00
  -2  -2  -6   77.09    4.20
  -2  -2  -6   81.99    2.90
  -2  -2  -6   83.89    3.80
   2   2   6   72.09    2.50
   2   2   6   75.69    3.00
   2   2   6   82.59    4.50
   2   2   6   88.19    2.80
   2   2   6   85.49    3.90
   2   2   6   75.29    4.30
  -3  -2  -6    8.10    1.20
  -3  -2  -6    9.90    1.20
  -3  -2  -6    8.30    1.70
  -3  -2  -6    9.50    1.30
  -3  -2  -6    9.10    2.10
   3   2   6    7.60    1.30
   3   2   6   12.60    2.50
   3   2   6    8.50    1.20
  -4  -2  -6   59.39    2.60
  -4  -2  -6   58.99    2.90
  -4  -2  -6   52.99    3.70
  -4  -2  -6   57.89    4.60
   4   2   6   58.99    2.70
   4   2   6   57.09    2.90
   4   2   6   48.10    3.60
  -5  -2  -6    8.50    1.70
  -5  -2  -6    5.70    1.40
  -5  -2  -6    4.00    1.10
  -5  -2  -6    5.40    1.90
   5   2   6    8.50    1.70
   5   2   6    8.50    1.60
  -6  -2  -6    3.00    2.10
  -6  -2  -6    3.60    1.40
  -6  -2  -6    6.80    1.80
  -6  -2  -6    8.10    1.70
   6   2   6    5.50    1.60
  -7  -2  -6    0.00    1.10
  -7  -2  -6    0.00    1.20
  -7  -2  -6    0.30    1.50
   7   2   6   -1.50    1.50
  -8  -2  -6    2.20    1.60
   8   2   6    4.50    2.00
   7  -3  -6    6.50    2.70
  -7   3   6    3.10    1.80
   6  -3  -6   16.90    3.10
  -6   3   6   23.20    4.70
  -6   3   6   10.50    2.30
  -6   3   6   14.70    1.50
   5  -3  -6    7.90    1.00
   5  -3  -6    6.00    2.10
  -5   3   6    5.40    1.20
  -5   3   6    8.50    1.40
  -5   3   6    7.30    1.20
  -5   3   6    7.30    2.40
  -5   3   6    5.00    1.50
   4  -3  -6    9.80    0.90
   4  -3  -6   12.70    1.00
   4  -3  -6   10.00    1.90
  -4   3   6   11.60    1.30
  -4   3   6    9.80    2.30
  -4   3   6   11.90    2.60
  -4   3   6   11.40    1.30
  -4   3   6   12.10    1.90
   3  -3  -6    2.80    0.50
   3  -3  -6    2.80    0.40
   3  -3  -6    0.90    0.50
   3  -3  -6    3.10    0.70
   3  -3  -6    3.60    1.30
  -3   3   6    2.90    0.70
  -3   3   6    1.80    1.20
  -3   3   6    2.20    0.60
  -3   3   6    1.00    0.70
  -3   3   6    1.90    0.70
  -3   3   6    2.10    0.60
   2  -3  -6   12.20    1.00
   2  -3  -6   11.20    1.00
   2  -3  -6    9.60    1.30
   2  -3  -6   10.80    1.00
  -2   3   6   11.90    1.10
  -2   3   6   12.00    0.90
  -2   3   6   10.80    0.90
  -2   3   6   11.00    0.90
  -2   3   6   10.10    2.20
  -2   3   6   11.20    1.50
   1  -3  -6   10.70    0.90
   1  -3  -6   10.50    0.90
   1  -3  -6    9.60    1.00
   1  -3  -6   10.20    0.90
  -1   3   6    9.30    0.90
  -1   3   6    8.70    0.80
  -1   3   6   10.60    1.10
  -1   3   6    9.30    1.80
  -1   3   6    9.70    1.00
  -1   3   6    9.20    0.90
  -1   3   6    8.60    1.30
  -1   3   6    7.90    1.80
   0  -3  -6   12.50    1.10
   0  -3  -6   13.80    1.00
   0  -3  -6   12.70    1.00
   0  -3  -6   14.10    1.00
   0   3   6   15.30    2.10
   0   3   6   13.60    1.10
   0   3   6   13.90    1.10
   0   3   6   14.50    1.30
   0   3   6   15.80    1.90
   0   3   6   12.70    1.60
  -1  -3  -6   89.69    4.60
  -1  -3  -6   91.69    4.30
  -1  -3  -6   90.59    3.10
  -1  -3  -6   89.09    2.80
  -1  -3  -6   89.89    2.80
  -1  -3  -6   90.99    3.00
   1   3   6   86.39    3.20
   1   3   6   86.09    3.00
   1   3   6   88.89    4.20
   1   3   6   90.99    4.80
   1   3   6   88.99    2.90
   1   3   6   89.39    4.50
  -2  -3  -6   41.70    2.20
  -2  -3  -6   39.90    2.10
  -2  -3  -6   38.90    1.90
  -2  -3  -6   42.20    3.20
  -2  -3  -6   40.60    2.00
   2   3   6   41.60    2.30
   2   3   6   40.10    2.00
   2   3   6   43.50    3.60
   2   3   6   40.90    3.10
  -3  -3  -6   30.90    2.40
  -3  -3  -6   33.50    2.00
  -3  -3  -6   35.90    3.50
  -3  -3  -6   35.10    2.20
   3   3   6   35.20    3.50
   3   3   6   31.60    2.00
   3   3   6   33.20    2.20
  -4  -3  -6   41.10    3.20
  -4  -3  -6   35.50    2.30
  -4  -3  -6   38.50    2.70
  -4  -3  -6   39.60    4.20
   4   3   6   34.80    2.40
   4   3   6   37.00    4.00
   4   3   6   39.90    2.60
  -5  -3  -6   50.49    4.10
  -5  -3  -6   37.70    4.70
  -5  -3  -6   44.10    3.00
  -5  -3  -6   42.20    2.80
   5   3   6   49.60    3.10
   5   3   6   48.30    3.10
  -6  -3  -6    6.70    1.90
  -6  -3  -6    8.00    1.70
   6   3   6    8.20    1.90
   6   3   6    9.30    2.00
  -7  -3  -6    1.20    1.30
  -7  -3  -6    4.00    1.90
  -7  -3  -6   -0.80    2.30
   7   3   6    2.90    1.70
   7  -4  -6   14.30    3.40
  -7   4   6    6.40    2.00
   6  -4  -6    0.10    2.20
  -6   4   6    0.50    1.30
  -6   4   6    0.70    1.70
   5  -4  -6   -1.10    1.70
  -5   4   6    0.10    0.90
  -5   4   6    0.20    0.60
  -5   4   6    0.50    1.60
   4  -4  -6    0.40    1.30
   4  -4  -6    1.30    1.30
   4  -4  -6    1.80    0.40
  -4   4   6    1.40    0.80
  -4   4   6    1.30    0.70
  -4   4   6    0.20    0.60
  -4   4   6    0.60    1.40
  -4   4   6    0.00    0.70
   3  -4  -6   98.39    2.60
   3  -4  -6  105.49    2.60
   3  -4  -6  109.19    3.40
   3  -4  -6  106.39    4.40
  -3   4   6   96.99    2.60
  -3   4   6  101.09    3.10
  -3   4   6  100.99    2.40
  -3   4   6  104.79    6.30
  -3   4   6  104.89    3.00
  -3   4   6  108.39    5.00
   2  -4  -6  124.69    3.30
   2  -4  -6  114.89    2.90
   2  -4  -6  118.29    3.10
   2  -4  -6  123.39    4.40
   2  -4  -6  117.69    3.10
  -2   4   6  119.49    3.40
  -2   4   6  111.59    6.10
  -2   4   6  123.09    4.70
  -2   4   6  124.19    3.60
  -2   4   6  119.09    3.00
   1  -4  -6    8.90    0.90
   1  -4  -6    8.80    1.00
   1  -4  -6    8.60    0.90
  -1   4   6    8.60    1.10
  -1   4   6    9.00    1.00
  -1   4   6    8.50    0.90
  -1   4   6    8.40    1.00
  -1   4   6    7.50    1.70
  -1   4   6    9.50    2.10
   0  -4  -6  117.89    3.30
   0  -4  -6  117.69    3.30
   0  -4  -6  119.19    3.40
   0  -4  -6  114.39    3.50
   0   4   6  117.29    5.70
   0   4   6  115.09    5.70
   0   4   6  114.89    5.00
   0   4   6  113.49    3.70
   0   4   6  116.89    3.60
   0   4   6  114.79    3.30
  -1  -4  -6    0.70    0.90
  -1  -4  -6    1.10    0.70
  -1  -4  -6    0.70    0.70
  -1  -4  -6    0.60    0.70
  -1  -4  -6   -0.30    0.70
   1   4   6    1.20    1.00
   1   4   6    0.80    0.90
   1   4   6    1.20    0.80
   1   4   6   -0.70    0.70
   1   4   6    0.20    0.70
  -2  -4  -6   18.50    2.70
  -2  -4  -6   15.50    1.30
  -2  -4  -6   16.20    1.60
  -2  -4  -6   15.50    1.60
   2   4   6   22.80    3.10
   2   4   6   17.70    1.80
   2   4   6   18.70    2.70
   2   4   6   16.90    1.60
  -3  -4  -6   25.10    2.10
  -3  -4  -6   21.90    1.90
  -3  -4  -6   27.40    3.50
  -3  -4  -6   25.40    2.10
   3   4   6   22.80    2.00
   3   4   6   28.70    3.60
   3   4   6   24.90    2.20
  -4  -4  -6    0.60    1.10
  -4  -4  -6    1.70    1.30
  -4  -4  -6    0.00    0.60
  -4  -4  -6    0.50    1.30
   4   4   6    0.70    1.30
   4   4   6   -0.30    1.70
   4   4   6   -0.30    1.20
  -5  -4  -6    1.30    1.70
  -5  -4  -6    3.50    1.40
  -5  -4  -6    1.30    1.00
  -5  -4  -6    4.20    1.80
   5   4   6    1.90    1.50
   5   4   6    1.30    1.70
   5   4   6    1.20    2.20
  -6  -4  -6    4.00    2.30
  -6  -4  -6   12.90    2.50
   6   4   6   10.50    2.10
   6   4   6    8.00    2.00
  -7  -4  -6    2.30    1.40
  -7  -4  -6    6.00    2.30
  -7  -4  -6   -1.40    2.30
   7   4   6    5.30    2.00
   7  -5  -6    1.10    2.90
   6  -5  -6    3.80    2.50
  -6   5   6    2.60    2.00
  -6   5   6    2.80    1.50
   5  -5  -6   24.80    3.20
  -5   5   6   28.10    4.90
  -5   5   6   31.50    3.80
   4  -5  -6   -0.80    1.30
   4  -5  -6    1.00    1.50
  -4   5   6    1.10    1.40
  -4   5   6    1.00    0.50
  -4   5   6   -0.10    0.80
   3  -5  -6    0.20    0.50
   3  -5  -6    0.30    1.00
   3  -5  -6    0.60    1.30
   3  -5  -6    0.40    0.50
  -3   5   6    0.80    0.70
  -3   5   6    0.90    1.40
  -3   5   6    1.10    1.20
  -3   5   6    1.10    0.70
   2  -5  -6    0.70    0.70
   2  -5  -6    1.30    1.20
   2  -5  -6    0.80    0.40
   2  -5  -6    0.70    0.80
   2  -5  -6    0.50    0.60
  -2   5   6    0.50    1.10
  -2   5   6   -0.30    0.70
  -2   5   6    1.00    0.60
  -2   5   6    0.30    0.50
  -2   5   6    1.00    0.60
  -2   5   6    0.90    1.00
   1  -5  -6   26.00    2.00
   1  -5  -6   24.70    1.50
   1  -5  -6   27.00    1.40
   1  -5  -6   26.20    1.60
   1  -5  -6   26.70    1.50
  -1   5   6   25.60    1.40
  -1   5   6   25.10    1.70
  -1   5   6   25.60    1.50
  -1   5   6   26.20    1.60
  -1   5   6   24.80    3.10
  -1   5   6   25.40    3.10
   0  -5  -6    1.10    0.70
   0  -5  -6    0.50    0.70
   0  -5  -6    0.40    0.80
   0  -5  -6    1.20    0.70
   0   5   6    0.30    0.70
   0   5   6    0.30    1.00
   0   5   6    0.20    0.80
   0   5   6    1.90    1.00
   0   5   6    0.70    1.00
  -1  -5  -6   88.89    3.40
  -1  -5  -6   83.59    3.10
  -1  -5  -6   81.39    3.00
   1   5   6   88.19    5.30
   1   5   6   79.79    3.40
   1   5   6   79.09    3.00
   1   5   6   84.79    5.00
  -2  -5  -6    2.80    0.60
  -2  -5  -6    4.70    1.50
  -2  -5  -6    4.30    1.30
  -2  -5  -6    3.70    1.40
   2   5   6    4.20    1.40
   2   5   6    3.40    1.50
   2   5   6    1.90    1.30
  -3  -5  -6    0.90    1.30
  -3  -5  -6    0.50    0.60
  -3  -5  -6    0.80    1.20
  -3  -5  -6    1.40    1.40
   3   5   6    2.50    1.80
   3   5   6   -0.40    1.20
   3   5   6    0.30    1.30
  -4  -5  -6    0.20    1.20
  -4  -5  -6   -0.10    0.60
  -4  -5  -6    0.20    1.40
  -4  -5  -6   -0.70    1.30
   4   5   6   -2.10    1.90
   4   5   6    0.20    1.40
   4   5   6    0.40    1.40
  -5  -5  -6   35.10    2.90
  -5  -5  -6   30.80    4.90
  -5  -5  -6   39.70    3.30
  -5  -5  -6   32.80    3.60
   5   5   6   29.10    5.20
   5   5   6   39.90    3.10
   5   5   6   38.50    3.30
  -6  -5  -6    8.90    1.90
  -6  -5  -6    7.60    2.70
  -6  -5  -6   20.30    3.20
   6   5   6   16.80    2.80
   6   5   6   12.10    2.50
  -7  -5  -6   27.30    3.40
  -7  -5  -6   19.60    4.40
   7   5   6   34.10    3.60
   6  -6  -6   -2.20    2.10
  -6   6   6    0.50    1.60
  -6   6   6    1.20    1.90
   5  -6  -6    3.20    2.30
   5  -6  -6    4.20    2.20
  -5   6   6    7.60    2.50
  -5   6   6    4.20    2.00
   4  -6  -6    7.90    2.30
   4  -6  -6    9.90    2.00
  -4   6   6   11.40    2.50
  -4   6   6    5.70    1.90
  -4   6   6    7.30    2.30
   3  -6  -6   10.50    1.70
   3  -6  -6    7.90    2.00
  -3   6   6    7.90    1.10
  -3   6   6    4.70    1.00
  -3   6   6    5.20    2.00
  -3   6   6    4.70    1.60
   2  -6  -6   50.49    2.30
   2  -6  -6   50.09    2.00
   2  -6  -6   49.20    3.10
  -2   6   6   50.59    4.70
  -2   6   6   50.29    2.70
  -2   6   6   45.90    4.30
  -2   6   6   49.99    2.40
   1  -6  -6   65.89    2.50
   1  -6  -6   69.29    2.50
   1  -6  -6   68.29    3.40
   1  -6  -6   66.79    2.60
   1  -6  -6   62.39    2.40
  -1   6   6   63.19    2.20
  -1   6   6   69.99    3.00
  -1   6   6   67.89    2.50
  -1   6   6   65.59    4.70
  -1   6   6   72.59    5.40
   0  -6  -6   -0.10    0.70
   0  -6  -6    1.30    1.00
   0  -6  -6    0.70    0.90
   0  -6  -6    0.00    0.80
   0  -6  -6   -0.30    0.80
   0   6   6   -0.40    0.90
   0   6   6    0.70    0.90
   0   6   6   -0.10    1.20
   0   6   6   -0.10    1.00
   0   6   6   -0.10    1.10
  -1  -6  -6    7.60    1.30
  -1  -6  -6    7.00    1.40
  -1  -6  -6    7.10    1.60
   1   6   6    4.60    1.50
   1   6   6    7.40    2.10
   1   6   6    6.60    1.60
   1   6   6    6.30    1.50
  -2  -6  -6   -2.10    1.00
  -2  -6  -6   -0.40    1.00
   2   6   6   -1.10    1.30
   2   6   6   -1.60    1.30
   2   6   6    0.00    1.50
  -3  -6  -6    2.20    1.50
  -3  -6  -6    2.00    1.60
  -3  -6  -6    0.40    0.60
  -3  -6  -6    1.10    1.50
   3   6   6    1.20    1.50
   3   6   6   -0.50    1.80
   3   6   6    2.50    1.60
  -4  -6  -6    0.40    1.60
  -4  -6  -6    3.00    1.80
  -4  -6  -6    1.00    0.80
  -4  -6  -6    3.10    1.50
   4   6   6   -1.40    2.30
   4   6   6    4.00    1.90
   4   6   6    3.40    1.60
  -5  -6  -6    1.20    2.10
  -5  -6  -6    6.10    2.20
  -5  -6  -6    0.90    1.00
   5   6   6   -1.60    2.40
   5   6   6    5.60    2.10
   5   6   6    5.60    2.00
  -6  -6  -6    6.60    2.20
  -6  -6  -6    3.50    2.40
  -6  -6  -6    8.60    2.50
   6   6   6    8.40    2.40
   6   6   6    8.90    2.40
   6  -7  -6    0.60    2.60
   5  -7  -6    9.90    2.70
   5  -7  -6    8.40    2.90
  -5   7   6    8.30    2.40
  -5   7   6    8.50    2.70
   4  -7  -6    1.00    2.00
   4  -7  -6   -1.20    1.50
  -4   7   6    1.40    1.70
  -4   7   6    0.80    1.40
   3  -7  -6   -1.00    1.40
   3  -7  -6   -0.90    1.20
  -3   7   6   -0.30    1.30
  -3   7   6   -0.20    1.10
  -3   7   6   -0.70    0.70
   2  -7  -6    2.20    1.10
   2  -7  -6    2.10    1.50
  -2   7   6    1.70    1.30
  -2   7   6    3.30    1.70
  -2   7   6    1.40    1.00
   1  -7  -6   22.60    2.20
   1  -7  -6   23.80    1.80
   1  -7  -6   22.30    2.00
  -1   7   6   27.10    4.30
  -1   7   6   19.90    3.40
  -1   7   6   24.10    2.10
   0  -7  -6   12.80    1.90
   0  -7  -6   13.00    1.60
   0  -7  -6   11.10    1.50
   0  -7  -6   12.30    1.80
   0   7   6   11.50    1.60
   0   7   6    8.20    2.40
   0   7   6   12.40    2.00
  -1  -7  -6    8.30    1.40
  -1  -7  -6    7.00    1.30
  -1  -7  -6    6.50    1.50
  -1  -7  -6    7.30    1.60
   1   7   6    6.50    2.40
   1   7   6    5.40    1.70
   1   7   6    5.80    1.40
  -2  -7  -6    6.30    1.70
  -2  -7  -6    5.70    1.90
   2   7   6    7.70    2.00
   2   7   6    5.60    1.60
   2   7   6    5.70    2.40
  -3  -7  -6   15.00    2.70
  -3  -7  -6   10.90    2.10
   3   7   6   10.50    2.40
   3   7   6    5.30    2.80
   3   7   6   14.30    2.30
  -4  -7  -6   17.80    4.20
  -4  -7  -6   20.90    2.90
   4   7   6   19.20    2.70
   4   7   6   20.30    3.00
  -5  -7  -6    0.70    1.80
  -5  -7  -6    0.00    1.80
  -5  -7  -6   -1.10    1.70
   5   7   6    3.70    2.30
   5   7   6    1.20    1.90
  -6  -7  -6   10.60    2.60
  -6  -7  -6    8.90    2.70
   6   7   6    9.80    2.50
   6   7   6    8.60    2.60
   5  -8  -6   -1.20    2.20
   4  -8  -6    6.90    2.70
  -4   8   6    6.00    2.50
   3  -8  -6    0.40    1.80
  -3   8   6    0.70    1.90
   2  -8  -6    0.40    0.90
   2  -8  -6   -0.50    1.40
   2  -8  -6    1.90    1.30
  -2   8   6    0.00    1.10
  -2   8   6    0.20    1.70
   1  -8  -6   17.30    2.40
   1  -8  -6   12.70    1.90
   1  -8  -6   17.50    1.80
  -1   8   6   13.60    2.10
  -1   8   6   11.20    2.90
   0  -8  -6    2.60    1.30
   0  -8  -6    1.80    1.00
   0   8   6    1.10    2.10
   0   8   6    0.70    1.40
  -1  -8  -6    9.70    1.60
   1   8   6    4.40    2.50
   1   8   6    7.80    2.10
  -2  -8  -6    1.30    1.50
   2   8   6    0.20    2.40
   2   8   6    0.90    1.70
   2   8   6    0.90    1.50
  -3  -8  -6    4.30    1.80
   3   8   6    2.80    1.90
   3   8   6   -2.50    2.80
   3   8   6    4.50    1.80
  -4  -8  -6    1.10    2.10
  -4  -8  -6    2.20    1.90
   4   8   6    1.90    2.00
   4   8   6    4.70    2.00
  -5  -8  -6   10.00    2.80
  -5  -8  -6    5.10    2.20
   5   8   6    9.80    2.40
   5   8   6   10.00    2.70
   4  -9  -6    0.10    2.20
   3  -9  -6    0.90    2.00
  -3   9   6   -0.20    1.80
   2  -9  -6    0.50    1.70
  -2   9   6    3.10    1.30
  -2   9   6    1.50    2.20
   1  -9  -6    4.20    1.70
   1  -9  -6    3.00    1.40
  -1   9   6    4.60    1.70
  -1   9   6    2.60    2.50
   0  -9  -6    7.00    1.80
   0   9   6    7.10    1.90
   0   9   6    1.10    2.40
  -1  -9  -6    0.40    1.60
   1   9   6   -2.50    2.40
   1   9   6    0.00    1.60
  -2  -9  -6   -0.50    1.80
   2   9   6   -0.30    2.00
   2   9   6   -4.50    2.50
  -3  -9  -6    1.70    1.90
   3   9   6    1.20    2.00
  -4  -9  -6    6.30    2.40
  -4  -9  -6   10.10    2.40
   4   9   6   10.10    2.60
   4   9   6    8.50    2.80
  -5  -9  -6   12.00    3.00
   3 -10  -6    0.50    2.50
   2 -10  -6    0.80    1.90
   1 -10  -6   -1.40    1.30
  -1  10   6    2.90    1.60
   0 -10  -6   -2.10    1.60
   0  10   6    1.90    1.80
   0  10   6   -5.10    2.60
  -1 -10  -6    0.90    2.00
   1  10   6   -5.30    3.00
   1  10   6    4.10    2.20
   1   9  -7    2.10    2.00
   0   9  -7    3.30    2.00
   1  -9   7    0.90    1.80
   1  -9   7    4.30    2.40
   2  -9   7    1.30    1.60
   2  -9   7   -1.10    1.90
   3  -9   7    0.60    2.30
   4   8  -7    8.40    2.40
  -4  -8   7    7.60    2.70
   3   8  -7    4.10    2.50
   3   8  -7    2.30    2.00
  -3  -8   7    0.50    2.20
  -3  -8   7    0.30    1.90
   2   8  -7    0.70    2.00
   2   8  -7    0.90    1.80
  -2  -8   7   -2.30    1.80
   1   8  -7    3.80    2.20
   1   8  -7    7.00    2.30
  -1  -8   7    6.30    2.20
   0   8  -7    4.20    2.30
   0   8  -7    5.40    2.00
   0  -8   7    5.50    2.00
  -1   8  -7    0.50    1.50
  -1   8  -7    0.70    1.80
   1  -8   7    1.30    1.70
   1  -8   7   -0.80    1.90
  -2   8  -7    1.80    1.50
  -2   8  -7    1.40    1.80
   2  -8   7    0.80    2.00
   2  -8   7   -1.50    1.40
  -3   8  -7    5.70    1.70
   3  -8   7    7.70    2.50
   4  -8   7    0.10    1.90
   5   7  -7    3.80    2.30
  -5  -7   7    3.60    2.50
   4   7  -7    1.80    2.20
   4   7  -7    1.80    1.90
  -4  -7   7    0.80    2.10
  -4  -7   7    1.60    2.00
  -4  -7   7   -2.10    1.60
   3   7  -7   14.80    2.90
   3   7  -7   10.80    2.30
  -3  -7   7    7.70    2.50
  -3  -7   7    4.10    2.00
  -3  -7   7   10.00    2.70
   2   7  -7    3.40    1.90
   2   7  -7   -1.70    1.50
   2   7  -7    1.10    1.50
  -2  -7   7   -0.90    1.60
  -2  -7   7    0.50    2.00
   1   7  -7    0.70    1.40
   1   7  -7   -0.10    1.80
   1   7  -7   -0.90    1.50
  -1  -7   7    0.60    1.50
  -1  -7   7    1.50    1.80
   0   7  -7    1.30    1.70
   0   7  -7    0.40    1.60
   0  -7   7    1.40    1.60
  -1   7  -7   15.40    2.40
   1  -7   7   13.10    2.20
  -2   7  -7    0.10    1.50
  -2   7  -7    2.70    1.50
   2  -7   7    2.50    1.50
   2  -7   7    0.60    1.70
  -3   7  -7   -1.40    1.40
  -3   7  -7    2.30    1.30
   3  -7   7    1.20    1.70
   3  -7   7   -1.40    1.10
  -4   7  -7    6.30    2.30
   4  -7   7   11.40    2.70
   5  -7   7    0.60    2.10
  -6  -6   7    1.00    2.30
   5   6  -7   10.80    2.70
   5   6  -7   12.40    2.80
  -5  -6   7   12.70    3.30
  -5  -6   7   11.20    2.80
   4   6  -7    4.40    2.10
   4   6  -7    7.60    2.40
  -4  -6   7    8.50    2.60
  -4  -6   7    7.00    2.20
   3   6  -7    3.00    1.90
   3   6  -7    1.30    1.60
   3   6  -7   -1.00    1.00
  -3  -6   7    0.90    1.70
  -3  -6   7    0.40    1.50
  -3  -6   7    2.10    1.90
   2   6  -7    6.20    2.10
   2   6  -7    6.30    1.90
  -2  -6   7    7.50    2.20
  -2  -6   7    7.20    2.00
   1   6  -7    1.10    1.30
   1   6  -7   -0.30    1.20
   1   6  -7   -2.10    1.70
   1   6  -7    1.60    1.40
  -1  -6   7    1.50    1.50
  -1  -6   7    2.60    1.60
   0   6  -7   29.90    2.80
   0   6  -7   32.20    5.40
   0   6  -7   26.90    2.30
   0   6  -7   17.90    3.80
   0  -6   7   26.30    2.60
   0  -6   7   26.10    2.40
  -1   6  -7   17.90    2.10
  -1   6  -7   17.40    4.60
   1  -6   7   16.90    2.20
  -2   6  -7   47.50    5.90
  -2   6  -7   46.20    2.80
   2  -6   7   38.60    2.50
   2  -6   7   37.00    3.00
  -3   6  -7   14.50    1.90
   3  -6   7   14.70    1.80
   3  -6   7   14.20    2.50
  -4   6  -7   -0.60    1.50
  -4   6  -7    0.60    1.00
   4  -6   7    0.80    1.00
   4  -6   7    0.80    1.70
  -5   6  -7    1.60    1.90
   5  -6   7    4.80    2.30
   6  -6   7   -3.20    2.10
  -6  -5   7   -2.30    1.70
  -6  -5   7   -2.00    2.10
   5   5  -7   28.80    3.30
   5   5  -7   21.80    3.00
  -5  -5   7   25.50    3.40
  -5  -5   7   24.30    3.20
   4   5  -7    2.80    1.80
   4   5  -7    2.80    1.70
  -4  -5   7    2.80    1.80
  -4  -5   7    4.20    2.10
  -4  -5   7   -0.10    1.60
   3   5  -7    2.30    1.70
   3   5  -7   -0.60    0.90
   3   5  -7    0.00    1.40
  -3  -5   7    2.00    1.60
  -3  -5   7    0.90    1.30
  -3  -5   7    3.10    1.80
   2   5  -7    3.30    1.60
   2   5  -7    1.70    1.40
   2   5  -7    1.10    1.10
  -2  -5   7    1.00    0.70
  -2  -5   7    0.40    1.20
  -2  -5   7    1.20    1.50
  -2  -5   7    1.50    1.50
   1   5  -7   22.80    2.40
   1   5  -7   28.10    4.00
   1   5  -7   18.10    2.00
  -1  -5   7   21.30    2.40
  -1  -5   7   19.30    2.30
   0   5  -7    9.00    1.70
   0   5  -7    4.80    1.50
   0   5  -7    4.60    1.60
   0   5  -7    8.90    1.60
   0  -5   7    6.90    1.60
   0  -5   7    7.50    1.80
  -1   5  -7   14.30    1.70
  -1   5  -7   16.60    4.00
  -1   5  -7   14.90    1.90
  -1   5  -7   12.40    2.70
   1  -5   7   13.60    2.00
   1  -5   7   15.00    1.90
  -2   5  -7    0.00    1.10
  -2   5  -7    1.40    1.10
   2  -5   7   -0.70    1.00
   2  -5   7    1.30    1.50
  -3   5  -7    8.20    1.40
  -3   5  -7    3.30    1.60
   3  -5   7    6.30    1.30
   3  -5   7    5.30    1.80
  -4   5  -7   40.50    2.30
  -4   5  -7   42.90    5.90
   4  -5   7   38.70    3.20
   4  -5   7   40.50    2.10
  -5   5  -7   11.80    1.60
  -5   5  -7   19.40    4.00
   5  -5   7   11.50    2.70
  -6   5  -7   -2.90    1.70
  -6   5  -7    4.60    1.90
   6  -5   7    0.00    2.20
   7  -5   7    3.30    2.80
   6   4  -7   21.10    3.00
  -6  -4   7   22.00    3.40
  -6  -4   7   31.60    4.70
   5   4  -7    9.20    2.30
   5   4  -7    8.10    2.10
  -5  -4   7    8.10    2.50
  -5  -4   7    8.10    2.10
  -5  -4   7   14.80    3.60
   4   4  -7   -0.30    1.40
   4   4  -7   -0.40    1.40
  -4  -4   7    0.10    1.40
  -4  -4   7    0.90    1.10
  -4  -4   7   -0.60    1.60
  -4  -4   7   -0.10    1.50
   3   4  -7    1.60    1.40
   3   4  -7   -1.00    0.70
   3   4  -7    0.40    1.30
  -3  -4   7    0.90    1.40
  -3  -4   7   -0.50    1.40
  -3  -4   7   -0.10    1.20
  -3  -4   7    0.30    0.80
   2   4  -7   23.80    2.30
   2   4  -7   20.80    2.30
   2   4  -7   25.50    3.60
  -2  -4   7   22.50    2.30
  -2  -4   7   25.70    2.40
  -2  -4   7   24.00    2.50
  -2  -4   7   25.90    3.70
   1   4  -7   45.60    2.50
   1   4  -7   45.50    4.20
   1   4  -7   45.10    2.70
  -1  -4   7   44.30    4.00
  -1  -4   7   44.70    2.80
  -1  -4   7   45.30    2.70
  -1  -4   7   43.20    2.60
   0   4  -7    2.20    1.10
   0   4  -7    2.30    1.00
   0   4  -7    1.70    1.00
   0  -4   7    1.90    1.00
   0  -4   7    4.00    1.30
   0  -4   7    1.90    1.10
   0  -4   7    2.00    0.80
  -1   4  -7   13.30    1.70
  -1   4  -7   14.00    1.60
  -1   4  -7   16.10    3.50
  -1   4  -7   16.80    2.20
  -1   4  -7   15.10    1.60
  -1   4  -7   13.40    1.60
   1  -4   7   14.30    1.60
   1  -4   7   14.00    1.40
   1  -4   7   13.70    1.70
   1  -4   7   15.20    1.80
   1  -4   7   14.70    1.50
  -2   4  -7  260.17    6.10
  -2   4  -7  258.37    6.80
  -2   4  -7  259.47    8.00
  -2   4  -7  285.87   12.30
  -2   4  -7  250.97    9.30
  -2   4  -7  250.27    6.80
   2  -4   7  249.28    6.10
   2  -4   7  248.18    7.00
   2  -4   7  264.07    6.40
   2  -4   7  246.38    6.50
  -3   4  -7    2.80    0.80
  -3   4  -7    4.60    1.10
  -3   4  -7    1.40    1.20
   3  -4   7    5.10    1.60
   3  -4   7    5.80    1.20
  -4   4  -7   -0.60    1.10
  -4   4  -7    1.30    1.20
  -4   4  -7    0.70    0.90
   4  -4   7    2.80    1.00
   4  -4   7    0.90    1.50
  -5   4  -7   -1.80    1.40
  -5   4  -7    1.20    1.50
  -5   4  -7    0.70    0.90
   5  -4   7    1.30    0.80
   5  -4   7    1.90    1.70
  -6   4  -7    3.40    1.90
   6  -4   7    3.00    2.40
   7  -4   7    0.60    2.60
  -7  -3   7    0.40    2.10
   6   3  -7    6.20    2.00
  -6  -3   7    5.40    2.30
  -6  -3   7    9.40    2.50
   5   3  -7   25.70    2.70
   5   3  -7   24.40    2.80
  -5  -3   7   22.10    4.70
  -5  -3   7   23.60    2.60
  -5  -3   7   28.50    4.30
  -5  -3   7   26.70    3.00
   4   3  -7   29.60    2.70
   4   3  -7   28.90    2.50
  -4  -3   7   27.70    2.50
  -4  -3   7   32.10    4.50
  -4  -3   7   30.10    2.90
  -4  -3   7   30.10    3.80
   3   3  -7   33.60    2.60
   3   3  -7   25.50    2.20
   3   3  -7   24.70    3.20
  -3  -3   7   28.10    4.00
  -3  -3   7   32.70    2.70
  -3  -3   7   33.60    3.40
  -3  -3   7   30.50    2.50
   2   3  -7   23.80    2.00
   2   3  -7   21.90    3.00
   2   3  -7   23.70    2.10
  -2  -3   7   22.90    3.20
  -2  -3   7   21.00    2.40
  -2  -3   7   20.10    2.00
  -2  -3   7   21.90    2.00
  -2  -3   7   22.30    2.20
   1   3  -7   18.50    1.70
   1   3  -7   18.00    1.80
   1   3  -7   18.60    3.10
  -1  -3   7   20.90    1.90
  -1  -3   7   17.70    2.00
  -1  -3   7   20.20    1.90
  -1  -3   7   20.90    2.80
  -1  -3   7   18.50    1.70
   0   3  -7   39.10    2.30
   0   3  -7   37.60    2.30
   0   3  -7   37.40    2.00
   0   3  -7   41.10    3.80
   0  -3   7   39.40    2.00
   0  -3   7   40.20    2.70
   0  -3   7   38.30    2.10
   0  -3   7   40.90    2.50
   0  -3   7   40.20    2.30
  -1   3  -7   26.50    1.80
  -1   3  -7   27.00    3.50
  -1   3  -7   25.30    1.70
  -1   3  -7   25.80    2.20
  -1   3  -7   29.50    1.70
   1  -3   7   27.10    1.80
   1  -3   7   25.90    1.70
   1  -3   7   25.80    1.50
   1  -3   7   29.20    1.80
   1  -3   7   27.70    1.60
  -2   3  -7   24.10    1.50
  -2   3  -7   24.50    3.50
  -2   3  -7   24.50    1.80
  -2   3  -7   23.50    1.70
  -2   3  -7   19.70    2.90
   2  -3   7   22.90    2.00
   2  -3   7   24.50    1.60
   2  -3   7   22.50    1.40
   2  -3   7   24.10    1.70
   2  -3   7   24.30    1.80
  -3   3  -7   64.19    5.50
  -3   3  -7   62.49    2.30
  -3   3  -7   63.09    2.70
  -3   3  -7   57.89    2.60
  -3   3  -7   58.19    2.30
   3  -3   7   61.99    2.40
   3  -3   7   56.69    3.10
   3  -3   7   58.69    1.80
   3  -3   7   66.99    2.60
   3  -3   7   58.39    2.40
  -4   3  -7   15.80    1.60
  -4   3  -7   13.70    3.10
   4  -3   7   16.90    1.50
   4  -3   7   11.60    1.80
  -5   3  -7   41.20    4.80
  -5   3  -7   42.20    2.40
  -5   3  -7   33.60    5.40
   5  -3   7   36.10    3.20
   5  -3   7   40.10    2.00
  -6   3  -7    5.70    2.20
  -6   3  -7    6.20    1.40
   6  -3   7    6.30    2.50
   6  -3   7    7.30    1.30
  -7   3  -7    4.00    2.40
   7  -3   7   -1.90    2.40
   7   2  -7    3.00    2.00
  -7  -2   7    2.50    2.30
  -7  -2   7    1.30    2.10
   6   2  -7   40.30    3.00
  -6  -2   7   38.60    5.40
  -6  -2   7   39.70    3.60
  -6  -2   7   44.20    5.70
   5   2  -7    3.20    1.60
   5   2  -7    4.10    1.50
  -5  -2   7    5.20    1.50
  -5  -2   7    2.30    1.40
  -5  -2   7    3.90    1.70
  -5  -2   7    5.20    1.90
   4   2  -7    3.70    1.30
   4   2  -7    2.40    1.00
   4   2  -7    1.50    1.30
  -4  -2   7    1.60    1.20
  -4  -2   7    1.50    1.20
  -4  -2   7    4.40    1.60
  -4  -2   7    2.40    1.40
   3   2  -7    5.10    1.10
   3   2  -7    2.50    0.90
   3   2  -7    4.50    1.40
   3   2  -7    3.60    1.20
  -3  -2   7    3.70    1.30
  -3  -2   7    4.40    1.30
  -3  -2   7    4.90    1.30
  -3  -2   7    6.30    1.20
  -3  -2   7    4.70    1.30
  -3  -2   7    2.70    1.40
   2   2  -7    9.80    1.50
   2   2  -7   11.80    2.50
   2   2  -7    9.40    1.40
   2   2  -7    8.40    1.70
  -2  -2   7   11.80    2.40
  -2  -2   7    8.40    1.50
  -2  -2   7   11.30    1.50
  -2  -2   7    7.10    1.40
  -2  -2   7    8.40    1.50
  -2  -2   7   12.80    2.10
   1   2  -7  215.88    5.50
   1   2  -7  218.28    7.90
   1   2  -7  220.18    6.00
   1   2  -7  213.68    8.80
  -1  -2   7  210.18    7.70
  -1  -2   7  218.78    8.00
  -1  -2   7  218.58    8.20
  -1  -2   7  219.38    5.60
  -1  -2   7  221.68    5.70
  -1  -2   7  225.28    6.10
   0   2  -7   68.39    2.80
   0   2  -7   73.49    3.60
   0   2  -7   74.99    4.50
   0   2  -7   72.79    2.50
   0   2  -7   62.89    2.70
   0  -2   7   65.59    2.60
   0  -2   7   71.09    2.90
   0  -2   7   70.29    3.20
   0  -2   7   68.09    3.60
   0  -2   7   68.49    2.50
   0  -2   7   72.09    2.50
  -1   2  -7  131.79    6.60
  -1   2  -7  130.69    4.00
  -1   2  -7  139.89    3.70
  -1   2  -7  129.49    4.00
   1  -2   7  125.49    3.80
   1  -2   7  133.69    4.10
   1  -2   7  131.29    3.80
   1  -2   7  130.59    3.60
  -2   2  -7  477.85    9.70
  -2   2  -7  472.55   10.70
  -2   2  -7  497.85   17.50
  -2   2  -7  471.35   10.60
   2  -2   7  473.95    9.90
   2  -2   7  466.45   10.30
   2  -2   7  469.45   10.60
   2  -2   7  473.15    9.80
  -3   2  -7   14.60    3.20
  -3   2  -7   12.90    2.40
  -3   2  -7   14.20    1.40
  -3   2  -7   15.10    1.40
  -3   2  -7   14.30    1.20
   3  -2   7   11.80    1.30
   3  -2   7   13.80    1.40
   3  -2   7   10.60    1.40
   3  -2   7   16.90    1.40
  -4   2  -7   -0.20    1.00
  -4   2  -7    0.10    0.80
  -4   2  -7   -0.20    1.00
  -4   2  -7    0.40    0.60
   4  -2   7    0.60    0.60
   4  -2   7    0.70    0.70
   4  -2   7   -2.20    1.20
   4  -2   7    0.20    0.90
  -5   2  -7    1.10    1.00
  -5   2  -7    1.60    1.40
   5  -2   7    1.80    1.70
   5  -2   7    2.50    1.00
  -6   2  -7   10.10    1.70
  -6   2  -7    8.10    2.50
   6  -2   7    9.00    2.60
   6  -2   7   10.40    1.60
  -7   2  -7   -1.20    1.80
  -7   2  -7   -0.50    1.10
   7  -2   7   -0.40    2.30
   7   1  -7    8.00    1.90
  -7  -1   7    5.70    2.20
  -7  -1   7    3.00    2.00
  -7  -1   7    5.00    2.70
   6   1  -7   19.60    2.40
   6   1  -7   19.70    2.40
  -6  -1   7   18.50    2.50
  -6  -1   7   22.40    5.00
   5   1  -7    0.60    1.00
   5   1  -7    0.10    1.20
   5   1  -7    1.50    1.30
  -5  -1   7    0.00    0.80
  -5  -1   7    0.90    1.50
  -5  -1   7   -0.10    1.10
  -5  -1   7    0.30    1.10
  -5  -1   7    0.50    1.50
  -4  -1   7    6.70    1.40
  -4  -1   7    5.70    1.50
  -4  -1   7    5.40    1.40
   3   1  -7   66.09    3.10
   3   1  -7   69.79    3.00
   3   1  -7   61.59    2.70
   3   1  -7   63.59    2.70
  -3  -1   7   60.89    3.40
  -3  -1   7   65.39    4.50
  -3  -1   7   71.09    2.90
  -3  -1   7   63.99    3.10
  -3  -1   7   65.19    3.00
  -3  -1   7   65.69    4.40
   2   1  -7  178.08    7.30
   2   1  -7  170.38    5.80
   2   1  -7  173.08    4.60
   2   1  -7  176.28    5.10
  -2  -1   7  183.38    4.80
  -2  -1   7  171.58    5.20
  -2  -1   7  173.18    7.00
  -2  -1   7  166.58    6.90
  -2  -1   7  168.48    4.90
  -2  -1   7  169.38    7.20
   1   1  -7   21.80    2.10
   1   1  -7   21.70    2.50
   1   1  -7   18.90    1.40
   1   1  -7   19.10    1.50
  -1  -1   7   20.00    2.20
  -1  -1   7   20.80    1.50
  -1  -1   7   21.60    1.50
  -1  -1   7   21.00    2.30
  -1  -1   7   17.80    2.10
   0   1  -7   34.20    3.00
   0   1  -7   32.20    1.80
   0   1  -7   34.40    2.50
   0   1  -7   35.30    1.70
   0   1  -7   30.30    1.70
   0  -1   7   33.60    1.60
   0  -1   7   32.20    1.70
   0  -1   7   33.60    1.90
   0  -1   7   32.80    2.60
   0  -1   7   33.20    3.00
  -1   1  -7  347.57    8.30
  -1   1  -7  350.46   11.90
  -1   1  -7  353.16   13.10
  -1   1  -7  350.66    8.30
  -1   1  -7  375.76    7.70
   1  -1   7  359.76    7.60
   1  -1   7  373.96    7.70
   1  -1   7  355.36    7.80
   1  -1   7  364.76   12.00
   1  -1   7  353.46    8.40
  -2   1  -7   37.00    3.50
  -2   1  -7   32.90    1.60
  -2   1  -7   35.40    1.80
  -2   1  -7   34.60    1.90
  -2   1  -7   33.70    2.80
   2  -1   7   37.10    1.80
   2  -1   7   37.00    1.70
   2  -1   7   42.90    2.00
   2  -1   7   38.20    1.80
  -3   1  -7  125.59    6.30
  -3   1  -7  127.49    4.00
  -3   1  -7  121.99    3.90
  -3   1  -7  130.89    6.80
  -3   1  -7  123.39    4.00
  -3   1  -7  133.39    3.60
   3  -1   7  127.99    3.60
   3  -1   7  127.59    4.00
   3  -1   7  128.79    3.70
   3  -1   7  135.29    4.00
  -4   1  -7    6.20    1.10
  -4   1  -7   11.40    1.20
  -4   1  -7    9.90    1.30
  -4   1  -7    6.90    1.70
  -4   1  -7    9.80    1.50
   4  -1   7   11.50    1.50
   4  -1   7   10.40    1.80
   4  -1   7    9.00    1.30
   4  -1   7   10.00    1.30
  -5   1  -7    2.00    1.00
  -5   1  -7    1.20    1.40
  -5   1  -7    1.60    1.00
  -5   1  -7   -0.20    0.90
   5  -1   7    2.00    1.10
   5  -1   7    0.40    1.60
  -6   1  -7    8.60    1.50
  -6   1  -7    6.50    2.30
  -6   1  -7    9.60    1.70
   6  -1   7    8.50    2.40
   6  -1   7   11.10    1.80
  -7   1  -7    7.00    2.60
  -7   1  -7   22.50    4.50
  -7   1  -7   14.30    2.10
   7  -1   7   11.90    1.90
  -8   1  -7    7.50    1.90
   8   0  -7    6.00    2.50
   7   0  -7   20.30    3.00
   7   0  -7   23.40    2.40
  -7   0   7   21.50    2.80
  -7   0   7   26.80    6.10
   6   0  -7    9.40    1.70
   6   0  -7   11.70    2.20
  -6   0   7    5.50    2.00
  -6   0   7    9.40    2.00
  -6   0   7    9.90    2.70
   5   0  -7   14.50    1.90
   5   0  -7   18.80    2.10
  -5   0   7   21.90    4.40
  -5   0   7   15.40    2.20
  -5   0   7   18.10    3.80
   4   0  -7   14.40    1.60
   4   0  -7   13.50    1.50
   4   0  -7   13.70    1.70
   4   0  -7   13.10    1.60
  -4   0   7   16.70    1.70
  -4   0   7   15.10    2.00
  -4   0   7   17.60    2.00
  -4   0   7   10.70    2.30
  -4   0   7   13.30    1.80
  -4   0   7   15.60    3.10
  -4   0   7   10.00    1.80
  -4   0   7   14.50    1.50
   3   0  -7   39.80    2.20
   3   0  -7   38.80    1.90
   3   0  -7   36.90    1.90
   3   0  -7   38.80    2.00
  -3   0   7   39.70    3.30
  -3   0   7   34.80    2.00
  -3   0   7   37.20    2.20
  -3   0   7   39.40    2.10
  -3   0   7   38.20    3.60
  -3   0   7   34.90    2.90
  -3   0   7   36.60    2.30
   2   0  -7   19.20    1.50
   2   0  -7   18.60    2.40
   2   0  -7   18.40    1.40
   2   0  -7   18.60    1.40
   2   0  -7   18.10    0.80
  -2   0   7   20.20    2.60
  -2   0   7   19.60    1.60
  -2   0   7   18.60    2.40
  -2   0   7   17.90    1.40
  -2   0   7   18.20    1.40
  -2   0   7   19.60    1.50
  -2   0   7   16.10    2.20
   1   0  -7  147.09    6.20
   1   0  -7  144.49    5.60
   1   0  -7  142.99    3.80
   1   0  -7  142.29    3.80
   1   0  -7  145.09    6.40
   1   0  -7  147.79    4.20
  -1   0   7  146.49    6.30
  -1   0   7  143.79    6.10
  -1   0   7  143.59    5.60
  -1   0   7  147.89    3.90
  -1   0   7  142.89    4.30
  -1   0   7  149.99    4.20
   0   0  -7   54.69    2.20
   0   0  -7   56.29    2.60
   0   0  -7   57.09    3.40
   0   0  -7   57.99    2.30
   0   0  -7   57.79    2.10
   0   0  -7   56.09    2.10
   0   0  -7   58.79    3.80
   0   0  -7   55.49    2.90
   0   0   7   57.39    3.00
   0   0   7   55.59    2.20
   0   0   7   53.29    2.00
   0   0   7   57.29    2.40
   0   0   7   56.89    3.60
   0   0   7   56.79    2.20
   0   0   7   56.99    3.40
  -1   0  -7 1112.69   33.20
  -1   0  -7 1160.78   32.00
  -1   0  -7 1129.89   35.50
  -1   0  -7 1152.08   21.20
  -1   0  -7 1118.99   21.20
  -1   0  -7 1140.79   22.90
  -1   0  -7 1113.09   22.90
   1   0   7 1151.18   23.00
   1   0   7 1156.78   21.20
   1   0   7 1132.49   22.10
   1   0   7 1122.99   22.80
   1   0   7 1068.29   30.10
   1   0   7 1119.89   35.30
   1   0   7 1128.19   33.20
   1   0   7 1106.99   21.20
  -2   0  -7   85.29    2.70
  -2   0  -7   84.89    3.00
  -2   0  -7   87.19    5.00
  -2   0  -7   86.29    2.90
  -2   0  -7   84.19    4.40
  -2   0  -7   89.09    3.00
   2   0   7   88.09    2.80
   2   0   7   88.39    2.70
   2   0   7   84.69    2.70
   2   0   7   89.39    3.10
  -3   0  -7   33.40    1.90
  -3   0  -7   31.80    1.90
  -3   0  -7   36.90    3.30
  -3   0  -7   32.60    1.90
  -3   0  -7   36.50    3.50
  -3   0  -7   33.30    1.90
  -3   0  -7   34.40    1.80
   3   0   7   34.10    2.00
   3   0   7   33.00    1.70
   3   0   7   33.20    1.90
   3   0   7   34.10    2.00
  -4   0  -7    0.90    0.90
  -4   0  -7    4.30    1.00
  -4   0  -7    0.80    1.00
  -4   0  -7    0.70    0.80
   4   0   7    1.80    1.00
   4   0   7    1.40    1.20
  -5   0  -7   -0.20    0.90
  -5   0  -7    1.60    1.10
  -5   0  -7    2.20    1.20
  -5   0  -7    1.10    1.40
  -5   0  -7    1.50    1.00
   5   0   7    2.10    1.00
   5   0   7    2.80    1.20
   5   0   7    1.60    1.60
  -6   0  -7    8.90    2.50
  -6   0  -7   16.30    2.10
  -6   0  -7   13.10    2.00
   6   0   7   15.80    2.00
  -7   0  -7   -0.40    2.00
  -7   0  -7    2.40    1.40
  -7   0  -7    1.90    1.30
  -7   0  -7    0.80    1.30
   7   0   7    1.50    1.30
  -8   0  -7    1.40    1.50
   8   0   7    3.40    1.50
   8  -1  -7    5.70    2.80
   7  -1  -7   10.60    2.90
   7  -1  -7   13.40    1.90
  -7   1   7    6.60    2.30
  -7   1   7   10.40    2.10
  -7   1   7   10.10    3.10
   6  -1  -7    5.40    1.30
   6  -1  -7    6.90    2.20
  -6   1   7    4.40    1.60
  -6   1   7    4.90    2.20
  -6   1   7    1.60    1.60
   5  -1  -7   20.50    2.60
   5  -1  -7   17.00    1.80
  -5   1   7   18.30    3.70
  -5   1   7   18.40    2.00
  -5   1   7   20.70    2.20
  -5   1   7   24.10    4.20
   4  -1  -7   26.50    1.70
   4  -1  -7   24.40    2.20
   4  -1  -7   25.00    1.60
   4  -1  -7   24.80    1.70
  -4   1   7   27.60    1.70
  -4   1   7   27.90    2.00
  -4   1   7   25.20    2.00
  -4   1   7   27.10    3.20
  -4   1   7   25.30    2.00
  -4   1   7   22.50    3.70
  -4   1   7   18.30    2.80
   3  -1  -7    2.50    0.90
   3  -1  -7    1.90    0.80
   3  -1  -7    2.30    0.80
  -3   1   7    0.30    0.60
  -3   1   7    3.10    0.90
  -3   1   7    2.60    0.80
  -3   1   7    1.30    0.80
  -3   1   7    1.50    0.40
  -3   1   7    2.90    1.20
   2  -1  -7  116.19    3.30
   2  -1  -7  119.29    3.30
   2  -1  -7  120.59    3.60
  -2   1   7  128.29    3.50
  -2   1   7  116.39    3.70
  -2   1   7  115.09    5.50
  -2   1   7  121.09    5.20
  -2   1   7  118.79    3.60
  -2   1   7  118.89    5.90
   1  -1  -7  146.59    6.50
   1  -1  -7  150.48    3.90
   1  -1  -7  147.19    3.90
   1  -1  -7  150.98    4.20
   1  -1  -7  155.28    5.50
  -1   1   7  159.28    5.60
  -1   1   7  155.98    4.20
  -1   1   7  164.18    4.00
  -1   1   7  138.49    6.40
  -1   1   7  153.88    6.50
  -1   1   7  156.28    4.40
   0  -1  -7  125.19    5.40
   0  -1  -7  107.29    3.90
   0  -1  -7  110.79    3.30
   0  -1  -7  109.39    5.30
   0  -1  -7  104.49    4.00
   0  -1  -7  111.19    3.10
   0  -1  -7  106.59    3.30
   0  -1  -7  109.19    3.00
   0   1   7  101.19    3.20
   0   1   7  102.79    3.00
   0   1   7  107.29    5.20
   0   1   7  108.79    3.10
   0   1   7  102.89    5.20
   0   1   7  100.59    3.40
  -1  -1  -7  866.31   16.60
  -1  -1  -7  874.41   16.60
  -1  -1  -7  893.51   18.00
  -1  -1  -7  845.42   17.90
  -1  -1  -7  855.71   27.60
  -1  -1  -7  881.61   26.30
  -1  -1  -7  874.31   24.90
   1   1   7  877.11   16.70
   1   1   7  887.51   17.90
   1   1   7  854.11   27.60
   1   1   7  860.81   16.50
   1   1   7  867.01   26.20
   1   1   7  870.21   24.80
   1   1   7  826.32   23.90
   1   1   7  859.71   18.00
   1   1   7  846.62   17.20
  -2  -1  -7   20.50    1.50
  -2  -1  -7   20.10    2.30
  -2  -1  -7   19.70    1.50
  -2  -1  -7   23.20    1.50
  -2  -1  -7   19.90    2.80
  -2  -1  -7   20.00    1.30
  -2  -1  -7   18.60    1.40
   2   1   7   19.70    1.50
   2   1   7   18.30    1.20
   2   1   7   22.30    2.70
   2   1   7   20.80    1.60
   2   1   7   19.80    1.30
   2   1   7   20.20    1.80
  -3  -1  -7   43.30    2.00
  -3  -1  -7   43.50    2.50
  -3  -1  -7   42.70    2.20
  -3  -1  -7   42.40    2.20
  -3  -1  -7   46.90    3.80
  -3  -1  -7   40.90    2.20
  -3  -1  -7   43.30    3.50
   3   1   7   41.90    2.10
   3   1   7   44.10    2.00
   3   1   7   43.80    2.10
   3   1   7   45.30    2.90
   3   1   7   43.30    2.30
  -4  -1  -7   15.80    3.10
  -4  -1  -7   11.90    1.50
  -4  -1  -7   10.00    1.70
  -4  -1  -7   16.60    3.10
  -4  -1  -7   11.70    1.40
   4   1   7   10.40    1.50
   4   1   7   10.60    1.60
   4   1   7   13.00    1.90
   4   1   7   11.60    1.30
  -5  -1  -7   23.50    1.90
  -5  -1  -7   23.10    3.30
  -5  -1  -7   26.50    2.20
  -5  -1  -7   25.00    2.30
  -5  -1  -7   26.30    4.00
   5   1   7   23.80    2.10
   5   1   7   25.80    2.10
  -6  -1  -7    8.20    1.70
  -6  -1  -7    7.80    1.80
  -6  -1  -7    4.20    1.40
  -6  -1  -7    4.40    2.20
   6   1   7    8.80    1.80
  -7  -1  -7   -0.30    2.20
  -7  -1  -7    3.70    1.60
  -7  -1  -7    5.00    1.70
  -7  -1  -7    5.30    1.70
   7   1   7    5.00    1.60
   8   1   7   29.80    3.00
   7  -2  -7   31.50    3.50
  -7   2   7   34.00    5.40
  -7   2   7   34.20    2.80
   6  -2  -7    1.50    1.90
   6  -2  -7    2.80    1.00
  -6   2   7    2.00    1.50
  -6   2   7    2.10    1.30
  -6   2   7    3.70    2.20
   5  -2  -7    1.50    1.60
   5  -2  -7   -0.90    0.80
  -5   2   7    1.30    1.60
  -5   2   7    0.30    0.90
  -5   2   7   -0.40    1.10
  -5   2   7    0.40    1.00
   4  -2  -7    2.10    0.90
   4  -2  -7    0.40    0.30
   4  -2  -7    2.30    1.50
  -4   2   7    1.70    1.60
  -4   2   7    3.40    1.00
  -4   2   7    1.50    1.00
  -4   2   7    2.50    0.80
  -4   2   7    1.20    0.70
  -4   2   7    2.80    1.00
   3  -2  -7   45.20    2.00
   3  -2  -7   47.10    2.00
   3  -2  -7   46.70    2.70
   3  -2  -7   43.00    1.80
  -3   2   7   45.40    3.40
  -3   2   7   46.60    2.10
  -3   2   7   45.10    4.30
  -3   2   7   44.90    1.90
  -3   2   7   44.80    2.10
  -3   2   7   45.30    2.20
   2  -2  -7   53.09    2.00
   2  -2  -7   54.69    3.00
   2  -2  -7   57.49    2.10
   2  -2  -7   55.09    2.10
  -2   2   7   50.09    1.80
  -2   2   7   54.89    2.00
  -2   2   7   47.90    1.80
  -2   2   7   61.49    4.20
  -2   2   7   53.79    3.10
  -2   2   7   56.49    2.20
  -2   2   7   55.59    2.30
   1  -2  -7   20.60    1.30
   1  -2  -7   22.40    1.30
   1  -2  -7   21.40    1.60
   1  -2  -7   21.30    1.30
  -1   2   7   21.10    1.50
  -1   2   7   19.90    1.30
  -1   2   7   19.40    1.20
  -1   2   7   20.60    1.10
  -1   2   7   21.70    1.80
  -1   2   7   18.50    2.50
   0  -2  -7   84.29    2.60
   0  -2  -7   87.29    3.20
   0  -2  -7   87.59    2.90
   0  -2  -7   84.39    2.60
   0  -2  -7   89.99    3.50
   0   2   7   87.89    2.90
   0   2   7   84.89    3.00
   0   2   7   83.29    4.60
   0   2   7   85.59    2.70
   0   2   7   85.79    3.40
   0   2   7   84.59    4.10
   0   2   7   86.09    2.70
  -1  -2  -7  551.64   12.10
  -1  -2  -7  556.04   11.70
  -1  -2  -7  547.05   18.60
  -1  -2  -7  547.15   11.20
  -1  -2  -7  554.24   16.40
  -1  -2  -7  547.55   11.20
  -1  -2  -7  560.14   16.70
   1   2   7  587.34   12.00
   1   2   7  560.04   12.10
   1   2   7  565.54   16.60
   1   2   7  540.25   16.30
   1   2   7  532.55   17.70
   1   2   7  550.94   12.30
   1   2   7  546.85   11.20
  -2  -2  -7   76.49    2.70
  -2  -2  -7   81.49    3.70
  -2  -2  -7   75.69    4.50
  -2  -2  -7   77.09    2.90
  -2  -2  -7   77.79    4.20
  -2  -2  -7   74.49    2.80
   2   2   7   79.29    2.80
   2   2   7   82.09    3.10
   2   2   7   81.29    3.90
   2   2   7   82.49    4.80
  -3  -2  -7    0.50    0.80
  -3  -2  -7    0.50    0.70
  -3  -2  -7    0.10    0.80
  -3  -2  -7    0.50    0.90
  -3  -2  -7    0.20    0.60
  -3  -2  -7    0.70    0.80
   3   2   7    0.20    1.00
   3   2   7    0.30    0.80
   3   2   7   -0.40    0.80
  -4  -2  -7   -0.20    1.10
  -4  -2  -7   -1.50    0.80
  -4  -2  -7   -1.60    0.90
  -4  -2  -7   -0.10    0.70
  -4  -2  -7   -0.70    0.90
   4   2   7   -1.50    1.10
   4   2   7   -1.30    0.90
   4   2   7   -0.20    1.40
  -5  -2  -7   19.80    2.80
  -5  -2  -7   16.80    2.00
  -5  -2  -7   17.60    2.10
  -5  -2  -7   17.90    2.10
  -5  -2  -7   19.20    3.00
  -5  -2  -7   18.60    3.90
   5   2   7   19.20    2.20
   5   2   7   19.00    2.10
  -6  -2  -7    1.20    1.20
  -6  -2  -7    1.50    1.50
  -6  -2  -7    0.40    1.90
  -6  -2  -7    1.50    1.10
   6   2   7    1.60    1.40
  -7  -2  -7   -1.30    1.10
  -7  -2  -7   -0.30    1.50
  -7  -2  -7    0.10    1.00
   7   2   7   -1.80    1.50
  -8  -2  -7    2.60    1.80
   7  -3  -7    9.10    2.90
  -7   3   7    5.60    2.20
   6  -3  -7    1.80    2.20
  -6   3   7   -0.10    0.90
  -6   3   7    1.50    1.90
  -6   3   7    0.60    1.40
   5  -3  -7    5.30    0.90
   5  -3  -7    3.50    1.90
  -5   3   7    3.40    1.80
  -5   3   7    3.10    1.30
  -5   3   7    5.10    1.20
  -5   3   7    4.40    1.10
   4  -3  -7   42.50    3.00
   4  -3  -7   43.60    1.80
  -4   3   7   41.80    2.20
  -4   3   7   43.90    2.30
  -4   3   7   47.40    3.90
  -4   3   7   44.40    5.00
  -4   3   7   44.40    2.80
   3  -3  -7   43.80    1.60
   3  -3  -7   40.60    1.80
   3  -3  -7   44.80    2.90
   3  -3  -7   45.10    1.90
  -3   3   7   44.40    2.40
  -3   3   7   49.30    3.50
  -3   3   7   43.80    4.20
  -3   3   7   43.80    1.70
  -3   3   7   42.80    1.90
  -3   3   7   46.60    2.10
   2  -3  -7    1.40    0.70
   2  -3  -7    1.80    0.60
   2  -3  -7    1.50    0.70
  -2   3   7    2.30    0.60
  -2   3   7    1.10    0.50
  -2   3   7    0.20    0.90
  -2   3   7    1.00    0.60
  -2   3   7    2.30    0.70
  -2   3   7    2.00    0.80
  -2   3   7    2.30    0.70
   1  -3  -7  200.78    5.00
   1  -3  -7  201.28    4.70
   1  -3  -7  197.28    4.70
  -1   3   7  199.08    8.10
  -1   3   7  202.68    6.60
  -1   3   7  196.28    5.30
  -1   3   7  207.68    6.30
  -1   3   7  209.48    5.20
  -1   3   7  189.08    8.20
  -1   3   7  199.78    4.70
  -1   3   7  201.08    4.80
   0  -3  -7  109.39    3.40
   0  -3  -7  113.49    3.30
   0  -3  -7  112.29    4.60
   0  -3  -7  110.69    3.50
   0  -3  -7  113.99    3.20
   0   3   7  112.49    4.50
   0   3   7  110.19    3.20
   0   3   7  119.09    5.80
   0   3   7  114.69    5.40
   0   3   7  109.49    3.60
   0   3   7  112.89    3.30
   0   3   7  116.19    3.50
  -1  -3  -7  247.88    7.00
  -1  -3  -7  245.18    6.10
  -1  -3  -7  251.67    5.90
  -1  -3  -7  244.88    5.90
  -1  -3  -7  254.57    8.80
  -1  -3  -7  248.08    6.40
   1   3   7  244.08    8.60
   1   3   7  245.88    5.90
   1   3   7  241.98    9.40
   1   3   7  254.57    6.40
   1   3   7  248.38    6.50
   1   3   7  248.38    8.90
  -2  -3  -7   83.69    4.60
  -2  -3  -7   80.89    3.00
  -2  -3  -7   84.29    3.00
  -2  -3  -7   84.79    3.30
   2   3   7   84.39    4.50
   2   3   7   85.59    3.40
   2   3   7   80.89    3.00
   2   3   7   84.39    4.90
  -3  -3  -7    2.20    1.30
  -3  -3  -7    1.90    0.60
  -3  -3  -7    1.90    1.00
  -3  -3  -7    3.70    1.10
  -3  -3  -7    2.60    1.10
   3   3   7    3.20    1.40
   3   3   7    3.10    1.20
   3   3   7    2.30    1.10
  -4  -3  -7    2.40    0.90
  -4  -3  -7    5.90    1.50
  -4  -3  -7    4.60    1.50
  -4  -3  -7    4.40    1.70
  -4  -3  -7    5.70    1.40
   4   3   7    4.30    1.40
   4   3   7    5.00    1.50
   4   3   7    2.70    1.70
  -5  -3  -7    4.40    2.00
  -5  -3  -7    7.60    1.70
  -5  -3  -7    6.00    1.50
  -5  -3  -7    7.40    1.70
  -5  -3  -7    4.60    1.20
   5   3   7    5.90    1.80
   5   3   7    6.80    1.80
  -6  -3  -7   30.30    3.70
  -6  -3  -7   22.50    4.90
  -6  -3  -7   29.90    2.70
  -6  -3  -7   29.80    2.60
  -6  -3  -7   32.80    3.20
   6   3   7   33.40    3.00
   6   3   7   35.50    3.10
  -7  -3  -7    7.50    2.00
  -7  -3  -7   12.80    2.40
  -7  -3  -7    2.40    2.80
  -7  -3  -7   12.40    2.50
   7   3   7   14.80    2.60
   7  -4  -7   11.00    3.20
  -7   4   7    5.00    1.90
   6  -4  -7    5.60    2.40
  -6   4   7    2.60    1.50
  -6   4   7    5.40    2.50
   5  -4  -7   17.90    3.10
  -5   4   7   15.30    1.40
  -5   4   7    9.90    2.70
  -5   4   7   17.70    3.40
   4  -4  -7   13.10    2.40
   4  -4  -7   12.40    1.00
  -4   4   7   12.50    1.30
  -4   4   7   10.40    1.40
  -4   4   7   11.20    2.50
  -4   4   7    7.30    2.10
  -4   4   7   13.70    1.90
   3  -4  -7    5.10    0.80
   3  -4  -7    5.90    1.20
   3  -4  -7    3.20    1.50
  -3   4   7    2.20    0.80
  -3   4   7    4.20    1.00
  -3   4   7    3.30    1.50
   2  -4  -7   10.90    1.10
   2  -4  -7    9.10    1.10
   2  -4  -7   11.90    1.10
   2  -4  -7   11.40    1.70
  -2   4   7    9.70    1.60
  -2   4   7   10.20    1.30
  -2   4   7    9.50    1.70
  -2   4   7   10.10    2.50
  -2   4   7    9.70    0.90
  -2   4   7   11.30    1.00
  -2   4   7    9.70    1.10
   1  -4  -7   10.60    1.10
   1  -4  -7    9.30    1.00
   1  -4  -7   11.40    1.20
  -1   4   7    9.90    2.50
  -1   4   7    8.60    1.70
  -1   4   7   11.00    2.50
  -1   4   7   11.70    1.20
  -1   4   7    9.60    1.20
  -1   4   7    9.60    1.10
  -1   4   7   11.20    1.10
   0  -4  -7  129.19    3.70
   0  -4  -7  129.99    3.70
   0  -4  -7  131.39    3.70
   0  -4  -7  131.29    4.00
   0   4   7  130.29    3.70
   0   4   7  126.79    4.10
   0   4   7  126.99    3.90
   0   4   7  131.49    6.40
   0   4   7  126.79    5.40
   0   4   7  125.49    6.20
  -2  -4  -7   33.30    2.00
  -2  -4  -7   32.00    1.80
  -2  -4  -7   31.80    2.20
  -2  -4  -7   29.70    2.00
  -2  -4  -7   33.90    3.40
   2   4   7   33.50    3.40
   2   4   7   30.40    2.20
   2   4   7   33.20    2.10
   2   4   7   33.40    3.50
  -3  -4  -7   33.50    2.30
  -3  -4  -7   32.40    2.40
  -3  -4  -7   31.50    2.20
  -3  -4  -7   29.40    2.30
  -3  -4  -7   26.80    3.90
   3   4   7   29.70    3.60
   3   4   7   28.80    2.20
   3   4   7   30.30    2.50
  -4  -4  -7   -1.20    1.20
  -4  -4  -7   -1.10    1.00
  -4  -4  -7   -0.10    0.60
  -4  -4  -7    0.00    1.40
   4   4   7   -2.10    1.10
   4   4   7    0.00    1.30
   4   4   7   -2.50    1.60
  -5  -4  -7   15.10    2.70
  -5  -4  -7    9.30    2.50
  -5  -4  -7   13.40    2.00
  -5  -4  -7   14.00    2.40
   5   4   7   16.40    2.40
   5   4   7   11.00    2.80
   5   4   7   14.50    2.30
  -6  -4  -7    2.80    1.50
  -6  -4  -7    3.40    1.90
  -6  -4  -7    2.70    1.30
  -6  -4  -7    0.60    2.00
   6   4   7    3.60    1.80
   6   4   7    5.50    1.90
  -7  -4  -7    3.50    1.80
  -7  -4  -7    1.00    1.20
  -7  -4  -7   -2.90    2.20
  -7  -4  -7    3.80    2.00
   7   4   7    3.70    2.10
   7  -5  -7    0.20    2.80
   6  -5  -7    7.60    2.70
  -6   5   7    3.30    2.30
  -6   5   7    2.80    1.40
   5  -5  -7    5.10    2.40
  -5   5   7    2.40    1.80
  -5   5   7    0.90    1.10
   4  -5  -7    1.40    1.70
   4  -5  -7    0.60    1.30
  -4   5   7    1.10    0.70
  -4   5   7    1.30    1.50
  -4   5   7    0.90    0.90
   3  -5  -7   31.70    2.70
   3  -5  -7   25.40    1.90
   3  -5  -7   30.50    1.40
  -3   5   7   31.30    3.80
  -3   5   7   28.80    2.70
  -3   5   7   30.40    4.30
  -3   5   7   29.80    1.80
   2  -5  -7  118.19    3.20
   2  -5  -7  117.79    3.30
   2  -5  -7  109.69    3.20
   2  -5  -7  111.29    2.90
   2  -5  -7  111.99    4.60
  -2   5   7  111.89    6.70
  -2   5   7  111.99    3.60
  -2   5   7  117.39    4.50
  -2   5   7  115.49    3.70
  -2   5   7  114.89    3.10
  -2   5   7  113.59    6.50
   1  -5  -7   61.09    2.30
   1  -5  -7   61.79    2.40
   1  -5  -7   63.89    2.40
  -1   5   7   59.19    2.70
  -1   5   7   63.39    4.70
  -1   5   7   64.39    4.70
  -1   5   7   61.19    2.30
  -1   5   7   58.09    2.10
  -1   5   7   59.59    2.50
   0  -5  -7   24.30    1.80
   0  -5  -7   25.50    1.60
   0  -5  -7   22.90    1.60
   0  -5  -7   22.20    1.60
   0   5   7   23.10    1.60
   0   5   7   25.80    3.20
   0   5   7   23.10    1.80
   0   5   7   26.90    3.30
   0   5   7   21.10    1.60
  -1  -5  -7    6.70    1.20
  -1  -5  -7    7.50    1.30
  -1  -5  -7    7.60    1.40
   1   5   7    4.50    1.50
   1   5   7    5.20    1.20
   1   5   7    6.10    1.40
   1   5   7    5.20    1.50
  -2  -5  -7    9.80    1.60
  -2  -5  -7    6.40    1.10
  -2  -5  -7   10.50    1.50
  -2  -5  -7    9.70    1.80
  -2  -5  -7    5.50    1.60
   2   5   7    6.60    1.60
   2   5   7    8.40    1.70
   2   5   7    7.60    1.90
   2   5   7    8.90    1.60
  -3  -5  -7    5.10    1.80
  -3  -5  -7    8.60    1.90
  -3  -5  -7    4.00    0.80
  -3  -5  -7    6.80    1.60
   3   5   7    8.70    1.90
   3   5   7    5.70    2.00
   3   5   7    6.00    1.60
  -4  -5  -7   23.90    2.30
  -4  -5  -7   24.00    2.60
  -4  -5  -7   24.60    2.60
  -4  -5  -7   22.10    4.10
   4   5   7   19.80    4.80
   4   5   7   24.40    2.50
   4   5   7   25.40    2.70
  -5  -5  -7   12.80    2.20
  -5  -5  -7   13.40    2.40
   5   5   7    6.00    2.90
   5   5   7   11.80    2.20
   5   5   7   14.50    2.60
  -6  -5  -7   -0.50    2.00
  -6  -5  -7    2.90    1.90
   6   5   7    3.70    2.00
   6   5   7    1.50    1.90
  -7  -5  -7   50.79    4.90
  -7  -5  -7   42.30    5.30
   7   5   7   46.30    3.80
   6  -6  -7   -0.70    2.30
   5  -6  -7    6.80    2.70
  -5   6   7    4.50    2.30
  -5   6   7    3.40    1.80
   4  -6  -7   15.40    2.70
   4  -6  -7   13.60    2.20
  -4   6   7   18.90    4.20
  -4   6   7    9.00    2.40
   3  -6  -7    0.30    0.60
   3  -6  -7    0.00    1.40
   3  -6  -7    0.30    1.10
  -3   6   7   -0.60    0.60
  -3   6   7   -0.20    1.60
  -3   6   7   -0.30    1.20
   2  -6  -7    8.60    1.40
   2  -6  -7    8.20    1.30
   2  -6  -7    8.40    2.00
  -2   6   7    7.80    1.60
  -2   6   7    9.40    1.50
  -2   6   7    4.30    1.50
  -2   6   7    6.00    2.00
   1  -6  -7   29.70    1.80
   1  -6  -7   30.10    2.60
   1  -6  -7   33.40    1.70
   1  -6  -7   33.50    2.00
  -1   6   7   30.40    3.80
  -1   6   7   33.60    4.10
  -1   6   7   31.50    1.80
  -1   6   7   33.00    2.20
   0  -6  -7    7.90    1.40
   0  -6  -7    6.90    1.20
   0  -6  -7    6.10    1.10
   0  -6  -7    5.80    1.20
   0   6   7    3.80    1.70
   0   6   7    6.60    1.50
   0   6   7    6.20    1.30
   0   6   7    5.80    1.20
   0   6   7    3.40    1.40
  -1  -6  -7   32.90    2.10
  -1  -6  -7   35.80    2.40
  -1  -6  -7   36.30    2.30
   1   6   7   34.40    4.10
   1   6   7   35.30    2.30
   1   6   7   36.80    4.40
   1   6   7   36.70    2.60
  -2  -6  -7    8.60    1.60
  -2  -6  -7    5.90    1.70
  -2  -6  -7    7.00    1.70
   2   6   7    5.60    2.00
   2   6   7    8.10    1.90
   2   6   7    5.90    1.60
  -3  -6  -7    2.10    1.40
  -3  -6  -7    1.10    1.60
  -3  -6  -7    0.30    1.40
  -3  -6  -7   -0.20    0.60
   3   6   7    0.10    1.50
   3   6   7    0.30    1.90
   3   6   7    0.80    1.60
  -4  -6  -7   -0.90    1.20
  -4  -6  -7   -1.20    1.50
  -4  -6  -7   -0.30    0.60
  -4  -6  -7    1.90    1.60
   4   6   7    0.70    1.50
   4   6   7   -1.80    1.40
   4   6   7   -3.40    2.10
  -5  -6  -7    6.80    2.20
  -5  -6  -7    0.00    1.80
  -5  -6  -7    4.10    1.80
   5   6   7    3.60    2.00
   5   6   7    3.50    1.90
  -6  -6  -7   -1.70    1.90
  -6  -6  -7    2.80    2.10
   6   6   7    2.30    2.00
   6   6   7    1.00    2.10
   6  -7  -7   -2.00    2.00
   5  -7  -7    2.60    2.60
  -5   7   7    3.60    1.80
  -5   7   7    5.40    2.40
   4  -7  -7    7.90    2.70
  -4   7   7    5.70    2.30
  -4   7   7    6.40    2.10
   3  -7  -7    0.70    1.50
  -3   7   7    0.00    0.80
  -3   7   7    1.30    1.80
  -3   7   7    0.40    1.30
   2  -7  -7   92.19    3.10
   2  -7  -7   88.59    4.40
  -2   7   7   94.79    3.60
  -2   7   7   93.99    6.90
  -2   7   7   87.99    6.30
   1  -7  -7    2.90    1.40
   1  -7  -7    1.90    1.10
   1  -7  -7    3.60    1.10
  -1   7   7    0.30    1.30
  -1   7   7    3.10    1.30
  -1   7   7    1.90    1.70
   0  -7  -7    1.00    1.00
   0  -7  -7    1.20    1.20
   0  -7  -7    1.10    0.90
   0  -7  -7    1.70    1.30
   0   7   7    0.70    1.30
   0   7   7    0.10    1.00
   0   7   7    2.40    1.90
   0   7   7   -1.10    1.20
  -1  -7  -7    2.80    1.10
  -1  -7  -7    3.20    1.30
  -1  -7  -7    4.00    1.40
   1   7   7    4.20    1.50
   1   7   7    0.80    1.50
   1   7   7    3.70    2.20
   1   7   7    3.30    1.50
  -2  -7  -7    2.40    1.30
  -2  -7  -7    4.80    1.70
  -2  -7  -7    4.10    1.60
   2   7   7    2.60    2.20
   2   7   7    2.90    1.70
   2   7   7    4.00    1.60
  -3  -7  -7    1.00    1.70
  -3  -7  -7    0.90    1.60
   3   7   7   -1.40    2.20
   3   7   7    0.40    1.60
   3   7   7    0.70    1.80
  -4  -7  -7   -0.70    1.50
  -4  -7  -7    0.20    1.40
  -4  -7  -7    2.20    2.00
   4   7   7    0.80    1.80
   4   7   7   -5.00    2.40
   4   7   7    0.50    1.60
  -5  -7  -7    7.30    2.50
  -5  -7  -7    3.00    2.40
   5   7   7    5.60    2.40
   5   7   7    6.60    2.50
  -6  -7  -7   24.70    3.40
  -6  -7  -7   33.50    4.20
   6   7   7   29.20    3.50
   6   7   7   33.90    3.80
   5  -8  -7    0.40    2.40
   4  -8  -7    0.40    2.50
  -4   8   7    3.70    2.20
   3  -8  -7    1.30    1.90
  -3   8   7    0.80    1.80
   2  -8  -7    2.90    1.80
   2  -8  -7    4.40    1.10
  -2   8   7    6.20    2.50
  -2   8   7    2.60    1.20
  -2   8   7    1.00    1.60
   1  -8  -7   24.60    2.70
  -1   8   7   25.20    4.60
  -1   8   7   14.80    3.80
  -1   8   7   25.60    2.50
   0  -8  -7   12.50    2.10
   0  -8  -7    9.20    1.50
   0  -8  -7   12.20    2.00
   0   8   7    7.40    2.60
   0   8   7   11.10    2.20
  -1  -8  -7    2.50    1.30
  -1  -8  -7    2.60    1.50
  -1  -8  -7    3.90    1.30
   1   8   7    1.90    2.30
   1   8   7    2.10    1.90
  -2  -8  -7    5.80    1.90
  -2  -8  -7    5.60    1.60
  -2  -8  -7    5.30    1.90
   2   8   7    0.40    2.40
   2   8   7    5.50    1.70
   2   8   7    4.90    2.10
  -3  -8  -7    3.90    1.80
   3   8   7    6.00    2.40
   3   8   7    3.90    1.80
   3   8   7   -0.90    3.00
  -4  -8  -7    3.10    2.10
   4   8   7    0.30    1.60
   4   8   7   -0.60    2.00
  -5  -8  -7    0.10    2.00
  -5  -8  -7    4.80    2.60
   5   8   7    4.50    2.20
   5   8   7    1.50    2.20
   4  -9  -7    2.60    2.60
   3  -9  -7   14.20    3.10
  -3   9   7    5.50    2.80
   2  -9  -7   18.30    2.70
  -2   9   7   17.90    2.10
  -2   9   7    9.50    3.00
   1  -9  -7    1.80    1.30
   1  -9  -7    3.70    1.70
  -1   9   7    1.10    2.20
  -1   9   7    1.40    1.50
   0  -9  -7    1.10    1.40
   0  -9  -7   -1.30    1.40
   0   9   7    3.10    1.80
   0   9   7    2.70    2.60
  -1  -9  -7   -2.10    1.40
   1   9   7   -3.00    1.40
   1   9   7   -2.10    2.40
  -2  -9  -7    1.60    1.20
  -2  -9  -7    2.20    1.90
   2   9   7   -1.50    3.10
   2   9   7    3.50    2.20
  -3  -9  -7    1.50    2.20
  -3  -9  -7    1.80    1.40
   3   9   7    3.50    2.30
  -4  -9  -7    2.80    2.70
  -4  -9  -7    5.50    2.50
   4   9   7    6.80    2.20
   4   9   7    4.10    2.50
  -5  -9  -7    7.50    2.60
   3 -10  -7    5.20    2.60
   2 -10  -7   -1.70    1.80
   1 -10  -7    1.00    1.40
   1 -10  -7    2.10    1.90
  -1  10   7    4.10    1.80
   0 -10  -7    7.50    2.10
   0  10   7    5.70    2.10
   0  10   7    5.60    4.00
  -1 -10  -7   -1.60    1.80
   1  10   7    2.00    2.20
  -3 -10  -7    4.20    1.60
   1   9  -8    1.20    2.10
   1  -9   8    1.80    2.40
   2  -9   8    0.10    2.10
  -4  -8   8    0.40    2.20
   3   8  -8    2.40    2.10
   2   8  -8   -1.80    1.50
   2   8  -8    0.00    1.90
  -2  -8   8    0.10    2.00
   1   8  -8    1.80    1.90
   1   8  -8   -1.00    2.10
  -1  -8   8    0.70    1.90
   0   8  -8    0.20    2.10
   0   8  -8   -0.10    1.60
   0  -8   8   -0.20    1.80
  -1   8  -8   -0.60    1.90
  -1   8  -8    0.30    1.50
   1  -8   8   -0.10    2.10
   1  -8   8    0.20    1.60
  -2   8  -8    2.60    2.10
  -2   8  -8    6.70    1.90
   2  -8   8    2.70    2.20
   2  -8   8    2.40    1.60
  -3   8  -8    0.50    1.30
   3  -8   8    1.30    2.10
   4  -8   8    3.40    2.20
   4   7  -8    0.80    2.10
   4   7  -8   -2.90    1.70
  -4  -7   8    0.60    2.30
  -4  -7   8   -0.40    2.10
   3   7  -8    2.00    1.90
   3   7  -8    0.20    1.80
  -3  -7   8   -2.60    1.40
  -3  -7   8    0.70    1.90
  -3  -7   8    0.10    2.00
   2   7  -8    0.20    1.50
   2   7  -8   -1.30    1.60
   2   7  -8    2.00    1.90
  -2  -7   8    2.70    2.00
  -2  -7   8    0.90    1.90
   1   7  -8    9.30    2.40
   1   7  -8    8.30    1.90
  -1  -7   8    8.70    2.20
   0   7  -8   17.70    2.90
   0   7  -8   11.90    2.80
   0  -7   8   15.40    2.50
  -1   7  -8    1.40    1.60
  -1   7  -8   -0.90    1.60
   1  -7   8    1.50    1.60
  -2   7  -8   -0.10    1.60
  -2   7  -8    1.30    1.40
   2  -7   8    2.30    1.50
   2  -7   8    2.40    1.90
  -3   7  -8   -0.70    1.70
  -3   7  -8   -1.00    1.20
   3  -7   8   -3.10    1.50
   3  -7   8   -0.50    1.20
   4  -7   8   23.90    3.20
   5  -7   8   -0.90    1.90
   5   6  -8   -0.50    2.00
   5   6  -8    0.50    1.90
  -5  -6   8   -1.10    2.10
  -5  -6   8   -0.50    1.90
  -5  -6   8   -2.10    1.80
   4   6  -8   -0.90    1.60
   4   6  -8   -0.30    1.70
  -4  -6   8   -0.80    2.00
  -4  -6   8    2.50    2.10
  -4  -6   8   -1.50    1.50
   3   6  -8   10.20    2.40
   3   6  -8    8.10    2.10
  -3  -6   8   10.80    2.50
  -3  -6   8   11.30    2.60
   2   6  -8    4.50    1.80
   2   6  -8   14.80    2.60
   2   6  -8   13.40    2.30
  -2  -6   8    6.80    1.90
  -2  -6   8   14.50    2.60
  -2  -6   8    9.20    2.20
   1   6  -8   -0.70    1.50
   1   6  -8   -1.30    1.40
   1   6  -8   -0.80    1.20
  -1  -6   8   -0.40    1.50
  -1  -6   8   -1.40    1.40
   0   6  -8    1.80    1.60
   0   6  -8    3.70    1.40
   0   6  -8    3.60    1.70
   0  -6   8    4.90    1.80
   0  -6   8    4.80    1.70
  -1   6  -8    1.70    1.30
  -1   6  -8    0.20    1.50
   1  -6   8    1.80    1.50
  -2   6  -8   12.80    2.20
   2  -6   8   14.50    2.50
   2  -6   8   14.10    2.10
  -3   6  -8    0.40    1.20
  -3   6  -8    1.20    1.70
   3  -6   8    0.60    1.20
   3  -6   8    1.70    1.80
  -4   6  -8   -0.30    1.70
  -4   6  -8    0.40    1.10
   4  -6   8    1.10    1.80
   4  -6   8    0.70    1.10
  -5   6  -8    2.90    1.70
   5  -6   8    1.70    2.10
   6  -6   8    3.40    2.70
   5   5  -8    4.30    2.10
   5   5  -8    1.90    1.90
  -5  -5   8    4.50    2.10
  -5  -5   8    4.20    2.30
  -5  -5   8    0.40    1.90
   4   5  -8   -0.10    1.60
   4   5  -8   -0.90    1.50
  -4  -5   8    0.30    1.90
  -4  -5   8    0.90    1.90
  -4  -5   8   -1.90    1.30
   3   5  -8    3.10    1.80
   3   5  -8    2.10    1.60
  -3  -5   8    1.70    1.70
  -3  -5   8   -0.50    1.30
  -3  -5   8    3.60    1.90
   2   5  -8   36.90    3.30
   2   5  -8   36.10    4.80
   2   5  -8   36.20    2.80
  -2  -5   8   39.00    3.40
  -2  -5   8   32.80    4.40
  -2  -5   8   36.00    3.00
   1   5  -8   -0.30    1.30
   1   5  -8    0.20    1.10
   1   5  -8   -0.50    1.10
  -1  -5   8    0.90    1.50
  -1  -5   8   -0.90    1.30
   0   5  -8   30.50    4.70
   0   5  -8   24.80    2.40
   0   5  -8   27.60    2.30
   0  -5   8   31.00    2.70
   0  -5   8   30.30    2.70
  -1   5  -8    6.20    1.70
  -1   5  -8    7.50    1.50
  -1   5  -8   13.00    1.70
  -1   5  -8   11.40    1.90
   1  -5   8   10.30    1.70
   1  -5   8   10.70    1.90
  -2   5  -8   36.30    5.20
  -2   5  -8   34.70    2.50
   2  -5   8   33.10    2.80
   2  -5   8   36.60    2.50
  -3   5  -8   47.50    2.80
  -3   5  -8   55.19    6.70
   3  -5   8   49.70    2.60
   3  -5   8   47.30    3.30
  -4   5  -8   40.10    6.00
  -4   5  -8   34.20    2.40
   4  -5   8   36.30    3.20
   4  -5   8   32.70    2.10
  -5   5  -8    0.20    2.00
  -5   5  -8    5.60    2.10
  -5   5  -8    2.20    1.10
   5  -5   8    1.40    2.10
  -6   5  -8   -2.30    1.90
   6  -5   8   -1.10    2.20
   6   4  -8   10.10    2.40
  -6  -4   8   14.40    3.20
   5   4  -8    3.20    2.00
   5   4  -8    4.70    1.90
  -5  -4   8    3.60    1.60
  -5  -4   8    1.50    1.80
  -5  -4   8    5.20    2.30
  -5  -4   8   -0.30    1.60
   4   4  -8    6.80    2.00
   4   4  -8    9.10    2.10
  -4  -4   8    5.90    1.60
  -4  -4   8    9.00    2.40
  -4  -4   8    8.50    2.10
  -4  -4   8    3.70    1.70
   3   4  -8   -0.30    1.30
   3   4  -8   -0.10    1.30
  -3  -4   8    0.30    1.40
  -3  -4   8   -0.80    1.10
  -3  -4   8    0.10    1.50
  -3  -4   8   -0.40    0.90
   2   4  -8   14.40    2.10
   2   4  -8   15.20    2.20
  -2  -4   8   15.30    2.30
  -2  -4   8   14.90    3.40
  -2  -4   8   14.00    2.20
  -2  -4   8   15.10    2.30
   1   4  -8    2.70    1.30
   1   4  -8    1.60    1.00
   1   4  -8    2.50    1.20
  -1  -4   8    1.90    1.30
  -1  -4   8    4.60    1.60
  -1  -4   8    2.10    1.10
  -1  -4   8    1.30    1.20
  -1  -4   8    1.80    0.90
   0   4  -8    8.60    1.50
   0   4  -8    9.60    1.30
   0   4  -8    8.00    1.60
   0  -4   8    9.50    1.60
   0  -4   8    9.40    1.70
   0  -4   8    9.40    1.40
   0  -4   8    8.00    1.70
  -1   4  -8   12.90    1.50
  -1   4  -8   11.70    1.60
  -1   4  -8   10.90    1.70
   1  -4   8   10.20    1.50
   1  -4   8   10.60    1.80
   1  -4   8   10.90    1.30
   1  -4   8   11.40    1.90
  -2   4  -8    0.50    1.10
  -2   4  -8    1.90    1.10
  -2   4  -8    0.70    0.90
   2  -4   8    1.10    1.40
   2  -4   8    1.70    1.10
   2  -4   8    2.80    1.30
   2  -4   8    2.30    1.10
   2  -4   8    1.10    0.80
  -3   4  -8    1.70    1.00
  -3   4  -8    0.50    1.20
   3  -4   8    0.50    1.40
   3  -4   8    0.90    1.10
  -4   4  -8    5.40    1.90
  -4   4  -8    2.60    1.60
  -4   4  -8    7.20    1.40
   4  -4   8    7.40    1.40
   4  -4   8    5.70    1.90
  -5   4  -8    0.90    1.50
  -5   4  -8   -1.20    1.40
  -5   4  -8    0.10    1.00
   5  -4   8    2.00    1.00
   5  -4   8    2.50    2.00
  -6   4  -8   31.70    5.20
   6  -4   8   23.20    3.50
   7  -4   8    1.50    2.70
  -7  -3   8    2.00    2.30
   6   3  -8    1.10    1.70
  -6  -3   8    0.70    2.00
  -6  -3   8    2.70    1.90
  -6  -3   8   -1.90    1.60
   5   3  -8    5.30    1.90
   5   3  -8    2.30    1.60
  -5  -3   8    5.20    1.80
  -5  -3   8    3.90    1.80
  -5  -3   8    2.00    1.60
  -5  -3   8    5.00    2.10
   4   3  -8   14.30    2.20
   4   3  -8   16.70    2.50
  -4  -3   8   16.30    3.40
  -4  -3   8   14.40    2.30
  -4  -3   8   13.80    2.50
   3   3  -8    0.60    0.90
   3   3  -8    6.10    1.70
   3   3  -8    3.90    1.40
  -3  -3   8    3.60    1.50
  -3  -3   8    3.10    1.80
  -3  -3   8    1.80    1.30
  -3  -3   8    3.00    1.40
  -3  -3   8    2.30    1.20
   2   3  -8   79.09    3.40
   2   3  -8   85.59    5.40
   2   3  -8   82.79    3.80
  -2  -3   8   84.59    3.90
  -2  -3   8   82.59    4.50
  -2  -3   8   83.19    3.60
  -2  -3   8   81.19    3.70
  -2  -3   8   83.89    5.60
   1   3  -8   33.20    2.20
   1   3  -8   37.20    3.80
   1   3  -8   36.00    2.40
  -1  -3   8   34.80    2.30
  -1  -3   8   33.90    2.30
  -1  -3   8   33.90    2.70
  -1  -3   8   33.30    3.50
  -1  -3   8   37.00    2.50
   0   3  -8    0.10    0.50
   0   3  -8    0.00    0.70
   0   3  -8    0.20    0.80
   0   3  -8   -0.20    0.80
   0  -3   8    0.40    0.90
   0  -3   8   -0.10    0.60
   0  -3   8    1.30    1.00
   0  -3   8    0.40    0.80
   0  -3   8    0.30    0.80
  -1   3  -8    1.30    0.90
  -1   3  -8   -0.10    0.60
  -1   3  -8    0.50    0.80
  -1   3  -8    0.30    0.80
   1  -3   8    0.40    0.90
   1  -3   8    0.20    0.90
   1  -3   8   -0.40    0.70
   1  -3   8    0.70    0.70
  -2   3  -8   28.80    1.70
  -2   3  -8   27.70    1.90
  -2   3  -8   29.10    4.40
  -2   3  -8   28.70    2.10
   2  -3   8   23.40    2.10
   2  -3   8   28.10    1.90
   2  -3   8   27.50    1.90
   2  -3   8   29.20    1.60
   2  -3   8   26.90    1.80
  -3   3  -8  236.58    6.30
  -3   3  -8  251.17   11.40
  -3   3  -8  227.78    5.60
   3  -3   8  224.68    5.20
   3  -3   8  224.18    6.60
   3  -3   8  221.38    6.00
   3  -3   8  223.98    5.70
   3  -3   8  239.58    5.90
  -4   3  -8    1.80    1.00
  -4   3  -8   -0.10    1.20
  -4   3  -8    0.90    1.20
   4  -3   8    4.00    1.10
   4  -3   8    1.80    1.50
  -5   3  -8    0.60    1.30
  -5   3  -8    3.40    1.20
  -5   3  -8    2.40    1.70
   5  -3   8    3.80    1.10
   5  -3   8    5.10    2.10
  -6   3  -8    2.80    1.90
  -6   3  -8    0.30    1.10
   6  -3   8    4.20    2.40
   6  -3   8    1.10    1.00
   7  -3   8   -1.90    2.50
  -7  -2   8    8.70    3.00
   6   2  -8    8.00    1.90
  -6  -2   8    2.50    1.90
  -6  -2   8    6.40    2.40
  -6  -2   8    7.10    2.30
   5   2  -8    1.70    1.50
   5   2  -8    1.00    1.30
  -5  -2   8   -0.70    1.40
  -5  -2   8    0.60    1.30
  -5  -2   8    2.50    1.80
  -5  -2   8    2.50    1.60
   4   2  -8   18.20    2.10
   4   2  -8   15.00    2.20
   4   2  -8   17.40    1.70
  -4  -2   8   16.00    2.30
  -4  -2   8   17.20    2.40
  -4  -2   8   16.20    3.60
  -4  -2   8   16.70    3.60
  -4  -2   8   16.30    2.30
   3   2  -8   57.29    3.50
   3   2  -8   62.69    3.20
   3   2  -8   61.59    4.30
   3   2  -8   62.79    3.00
  -3  -2   8   62.09    4.60
  -3  -2   8   56.79    3.00
  -3  -2   8   63.49    3.40
  -3  -2   8   63.69    3.30
  -3  -2   8   60.79    4.80
  -3  -2   8   60.89    3.60
   2   2  -8    2.80    1.00
   2   2  -8    1.80    0.80
   2   2  -8    6.20    1.30
   2   2  -8    3.90    1.20
  -2  -2   8    3.90    1.20
  -2  -2   8    4.00    1.20
  -2  -2   8    5.10    1.40
  -2  -2   8    4.80    1.30
  -2  -2   8    2.60    1.20
   1   2  -8    0.80    0.70
   1   2  -8    1.50    0.90
   1   2  -8    1.30    0.90
   1   2  -8    0.40    0.60
  -1  -2   8    0.80    0.80
  -1  -2   8    0.00    1.00
  -1  -2   8    2.30    1.00
  -1  -2   8    2.80    0.90
  -1  -2   8    2.10    1.10
  -1  -2   8    1.40    0.80
   0   2  -8    1.40    0.70
   0   2  -8    2.00    0.90
   0   2  -8    0.90    0.80
   0   2  -8    1.60    0.90
   0  -2   8    1.60    0.90
   0  -2   8    0.90    0.70
   0  -2   8    1.20    0.80
   0  -2   8    0.70    0.80
   0  -2   8    1.20    1.00
  -1   2  -8   34.30    1.80
  -1   2  -8   32.60    2.70
  -1   2  -8   32.90    2.00
  -1   2  -8   36.40    2.10
  -1   2  -8   35.10    3.60
   1  -2   8   38.70    3.10
   1  -2   8   33.80    2.00
   1  -2   8   33.90    1.80
   1  -2   8   38.10    2.20
  -2   2  -8    1.80    0.90
  -2   2  -8    0.70    0.80
  -2   2  -8    1.90    0.80
  -2   2  -8    2.00    0.80
   2  -2   8    2.20    0.90
   2  -2   8    2.90    1.00
   2  -2   8    2.30    1.10
   2  -2   8    2.70    0.90
  -3   2  -8   46.60    2.30
  -3   2  -8   47.60    2.10
  -3   2  -8   50.49    4.80
  -3   2  -8   42.50    4.00
  -3   2  -8   44.30    2.30
   3  -2   8   41.00    2.60
   3  -2   8   43.60    2.30
   3  -2   8   42.70    2.00
   3  -2   8   46.00    2.20
  -4   2  -8    4.80    1.70
  -4   2  -8    2.90    1.30
  -4   2  -8    5.80    1.00
  -4   2  -8    5.70    1.30
   4  -2   8    7.30    1.20
   4  -2   8    6.60    1.70
   4  -2   8    8.70    1.40
  -5   2  -8   -0.20    1.10
  -5   2  -8    1.20    1.40
  -5   2  -8    4.20    1.30
   5  -2   8    4.60    1.90
   5  -2   8    2.60    1.20
  -6   2  -8   23.10    5.50
  -6   2  -8   41.80    5.70
  -6   2  -8   36.80    2.50
   6  -2   8   37.70    2.30
   6  -2   8   37.20    3.60
  -7   2  -8    0.30    1.20
  -7   2  -8    0.50    2.00
   7  -2   8    1.00    2.50
   7   1  -8    1.80    1.60
  -7  -1   8   -0.30    1.70
  -7  -1   8    1.90    2.20
   6   1  -8    1.10    1.60
   6   1  -8    1.30    1.40
  -6  -1   8    1.80    1.70
  -6  -1   8    3.20    2.00
  -6  -1   8    0.60    1.60
   5   1  -8    6.90    1.60
   5   1  -8    7.80    1.70
  -5  -1   8    8.20    1.90
  -5  -1   8    6.20    2.10
  -5  -1   8    7.60    1.70
   4   1  -8   28.00    2.20
   4   1  -8   27.30    2.20
   4   1  -8   29.60    2.30
  -4  -1   8   30.30    4.00
  -4  -1   8   27.10    2.50
  -4  -1   8   31.70    2.80
  -4  -1   8   32.70    4.20
  -4  -1   8   27.10    2.20
   3   1  -8   68.39    2.90
   3   1  -8   72.69    4.30
   3   1  -8   69.99    3.20
   3   1  -8   73.09    3.20
  -3  -1   8   72.49    3.30
  -3  -1   8   72.69    3.40
  -3  -1   8   70.89    4.00
  -3  -1   8   69.09    3.00
  -3  -1   8   71.09    4.90
  -3  -1   8   64.39    4.70
   2   1  -8   14.40    1.50
   2   1  -8   15.80    1.60
   2   1  -8   16.50    1.60
   2   1  -8   15.50    2.80
  -2  -1   8   18.30    2.60
  -2  -1   8   16.00    1.70
  -2  -1   8   14.30    2.00
  -2  -1   8   17.60    1.70
  -2  -1   8   18.20    2.40
  -2  -1   8   16.60    1.60
   1   1  -8   42.20    2.10
   1   1  -8   44.30    3.80
   1   1  -8   42.80    2.20
  -1  -1   8   41.60    3.20
  -1  -1   8   40.70    3.10
  -1  -1   8   42.50    2.10
  -1  -1   8   42.30    2.30
   0   1  -8   64.29    2.70
   0   1  -8   65.29    2.50
   0   1  -8   68.29    3.90
   0   1  -8   64.49    4.40
   0  -1   8   65.39    2.50
   0  -1   8   70.79    4.00
   0  -1   8   68.19    2.90
  -1   1  -8   62.79    2.60
  -1   1  -8   58.69    3.60
  -1   1  -8   62.59    2.30
  -1   1  -8   65.09    2.60
  -1   1  -8   64.59    4.50
   1  -1   8   59.89    2.30
   1  -1   8   61.89    2.20
   1  -1   8   62.89    2.70
   1  -1   8   62.99    3.90
   1  -1   8   54.99    1.90
   1  -1   8   60.39    2.40
  -2   1  -8   14.60    1.30
  -2   1  -8   12.30    2.00
  -2   1  -8   14.20    2.80
  -2   1  -8   13.10    1.30
  -2   1  -8   14.00    1.20
   2  -1   8   14.70    1.40
   2  -1   8   17.10    1.30
   2  -1   8   14.70    1.40
   2  -1   8   13.10    1.30
  -3   1  -8  151.98    4.60
  -3   1  -8  156.58    8.00
  -3   1  -8  139.89    4.50
  -3   1  -8  150.78    4.10
  -3   1  -8  148.89    7.20
   3  -1   8  150.98    4.20
   3  -1   8  150.78    4.60
   3  -1   8  150.08    4.30
   3  -1   8  147.19    4.50
  -4   1  -8   24.80    3.80
  -4   1  -8   22.00    1.80
  -4   1  -8   24.00    4.40
  -4   1  -8   23.00    1.70
  -4   1  -8   25.30    1.90
   4  -1   8   23.90    2.30
   4  -1   8   23.10    1.80
   4  -1   8   25.10    2.00
   4  -1   8   22.20    1.70
  -5   1  -8    0.60    1.30
  -5   1  -8   -1.50    0.90
  -5   1  -8    0.50    1.00
   5  -1   8    1.30    1.20
   5  -1   8    1.20    1.50
  -6   1  -8   12.00    3.00
  -6   1  -8   16.70    2.10
   6  -1   8   15.00    2.80
   6  -1   8   17.90    2.00
  -7   1  -8   -0.90    2.00
  -7   1  -8    0.20    1.30
   7  -1   8    0.60    1.20
  -8   1  -8    1.20    1.60
   7   0  -8   12.90    2.80
   7   0  -8   12.40    2.00
  -7   0   8   14.00    2.60
  -7   0   8   24.10    6.00
   6   0  -8    0.10    1.10
   6   0  -8    0.20    1.60
  -6   0   8    1.90    1.90
  -6   0   8    0.10    1.50
  -6   0   8   -1.70    1.30
   5   0  -8   13.40    2.20
   5   0  -8    8.70    1.60
  -5   0   8   10.50    1.90
  -5   0   8   17.30    4.30
  -5   0   8   10.90    2.00
   4   0  -8    2.10    1.40
   4   0  -8    1.10    1.00
   4   0  -8    0.90    1.00
  -4   0   8    2.80    1.20
  -4   0   8    2.60    1.30
  -4   0   8    2.20    1.30
  -4   0   8    1.40    1.40
  -4   0   8    1.70    1.10
   3   0  -8   89.19    3.40
   3   0  -8   90.09    3.20
   3   0  -8   92.89    3.30
  -3   0   8   89.59    3.60
  -3   0   8   97.39    3.70
  -3   0   8   93.39    5.90
  -3   0   8   92.59    3.30
  -3   0   8   91.69    5.30
  -3   0   8   82.69    4.70
   2   0  -8   97.19    3.20
   2   0  -8   98.69    3.50
   2   0  -8   95.49    3.20
   2   0  -8  106.89    5.30
  -2   0   8  100.59    3.30
  -2   0   8   96.49    3.60
  -2   0   8   96.59    5.10
  -2   0   8   98.29    4.90
  -2   0   8   97.79    5.30
  -2   0   8   98.19    3.50
   1   0  -8   39.00    1.90
   1   0  -8   39.10    1.90
   1   0  -8   40.40    1.70
   1   0  -8   39.70    2.10
   1   0  -8   43.00    3.40
  -1   0   8   41.70    2.20
  -1   0   8   40.60    2.00
  -1   0   8   38.80    2.00
  -1   0   8   39.20    2.90
  -1   0   8   38.60    3.20
   0   0  -8   70.99    4.50
   0   0  -8   66.69    3.50
   0   0  -8   67.59    3.00
   0   0  -8   68.79    2.50
   0   0  -8   70.99    2.70
   0   0   8   67.89    4.10
   0   0   8   68.39    2.80
   0   0   8   70.49    2.60
  -1   0  -8   31.20    1.60
  -1   0  -8   27.10    1.70
  -1   0  -8   30.00    1.80
  -1   0  -8   29.80    3.20
  -1   0  -8   28.40    2.20
   1   0   8   31.20    1.90
   1   0   8   29.30    1.60
   1   0   8   32.20    1.40
   1   0   8   27.90    1.60
   1   0   8   32.60    2.90
   1   0   8   29.10    1.70
  -2   0  -8   13.20    1.30
  -2   0  -8   13.40    2.10
  -2   0  -8   13.50    1.30
  -2   0  -8   15.20    3.00
  -2   0  -8   13.30    1.20
   2   0   8   13.50    1.40
   2   0   8   13.00    1.20
   2   0   8   12.30    1.30
   2   0   8   12.90    1.30
  -3   0  -8   99.19    3.40
  -3   0  -8  101.99    6.00
  -3   0  -8   99.29    3.60
  -3   0  -8  100.69    3.30
  -3   0  -8   99.59    5.50
  -3   0  -8   95.59    3.60
  -3   0  -8   95.39    3.50
   3   0   8  100.99    3.40
   3   0   8  104.49    3.70
   3   0   8   98.09    3.10
   3   0   8   96.39    3.30
  -4   0  -8    0.70    0.90
  -4   0  -8    0.30    0.90
  -4   0  -8    0.50    1.10
  -4   0  -8    0.90    0.90
  -4   0  -8    1.30    0.80
  -4   0  -8   -0.20    0.60
  -4   0  -8    1.60    1.00
   4   0   8    0.10    0.80
   4   0   8    0.80    0.90
   4   0   8    1.50    1.40
   4   0   8    1.60    1.00
  -5   0  -8   18.40    4.00
  -5   0  -8   20.30    1.80
  -5   0  -8   21.60    2.00
  -5   0  -8   21.50    2.20
  -5   0  -8   22.60    4.30
   5   0   8   22.70    2.10
   5   0   8   22.70    2.50
   5   0   8   22.60    2.00
  -6   0  -8   11.70    2.00
  -6   0  -8   12.10    2.10
   6   0   8   13.90    2.10
  -7   0  -8   -0.40    1.20
  -7   0  -8   -2.00    2.10
  -7   0  -8    1.60    1.50
  -7   0  -8    1.80    1.30
   7   0   8    1.40    1.40
   8   0   8    1.40    1.40
   7  -1  -8   11.10    3.00
   7  -1  -8    9.30    1.70
  -7   1   8    9.20    2.10
  -7   1   8    4.10    2.10
   6  -1  -8    0.50    1.10
   6  -1  -8    1.00    1.80
  -6   1   8    1.00    1.90
  -6   1   8   -0.30    1.20
  -6   1   8    0.20    1.40
   5  -1  -8    2.20    1.60
   5  -1  -8    4.90    1.30
  -5   1   8    3.00    1.80
  -5   1   8    1.40    1.30
  -5   1   8    3.10    1.40
  -5   1   8    3.50    1.40
   4  -1  -8   15.70    1.70
   4  -1  -8   20.80    2.40
   4  -1  -8   17.20    1.50
  -4   1   8   18.90    1.50
  -4   1   8   22.80    2.10
  -4   1   8   20.00    2.00
  -4   1   8   20.80    1.70
  -4   1   8   23.60    4.20
  -4   1   8   19.30    3.40
   3  -1  -8  102.89    3.30
   3  -1  -8   99.79    3.40
   3  -1  -8  103.09    3.30
   3  -1  -8   99.09    3.90
  -3   1   8  104.69    5.40
  -3   1   8   99.29    3.60
  -3   1   8  100.29    6.10
  -3   1   8  101.89    3.60
  -3   1   8  107.09    3.40
  -3   1   8   99.59    3.70
   2  -1  -8   20.70    1.50
   2  -1  -8   18.80    1.50
   2  -1  -8   19.10    1.50
  -2   1   8   20.10    2.40
  -2   1   8   17.20    1.50
  -2   1   8   18.90    1.50
  -2   1   8   18.50    2.60
  -2   1   8   20.20    1.50
   1  -1  -8    9.70    2.10
   1  -1  -8    9.40    1.10
   1  -1  -8    8.60    1.20
   1  -1  -8    6.80    1.10
   1  -1  -8    8.90    1.50
  -1   1   8    7.70    1.00
  -1   1   8    9.20    1.30
  -1   1   8   10.00    1.20
  -1   1   8   10.50    2.10
  -1   1   8   11.60    1.80
   0  -1  -8   36.60    2.30
   0  -1  -8   36.00    1.70
   0  -1  -8   36.40    2.00
   0  -1  -8   39.70    2.00
   0  -1  -8   38.70    1.80
   0  -1  -8   40.00    3.30
   0   1   8   38.30    3.10
   0   1   8   35.40    2.00
   0   1   8   37.50    1.90
   0   1   8   39.90    1.90
  -1  -1  -8  102.39    3.10
  -1  -1  -8  104.29    5.60
  -1  -1  -8  103.49    4.20
  -1  -1  -8  103.49    4.50
  -1  -1  -8  109.49    3.50
   1   1   8  100.59    4.00
   1   1   8  103.89    5.30
   1   1   8  105.29    3.60
   1   1   8  102.69    3.20
   1   1   8  105.99    4.40
  -2  -1  -8   40.80    2.20
  -2  -1  -8   39.60    3.00
  -2  -1  -8   39.20    1.90
  -2  -1  -8   38.90    3.50
  -2  -1  -8   40.30    2.10
  -2  -1  -8   38.50    2.00
   2   1   8   40.10    1.80
   2   1   8   40.20    2.40
   2   1   8   44.60    2.30
   2   1   8   37.60    2.00
   2   1   8   42.20    3.80
  -3  -1  -8    1.20    0.80
  -3  -1  -8    1.50    0.60
  -3  -1  -8    2.80    1.00
  -3  -1  -8    1.90    1.10
  -3  -1  -8    2.40    0.90
  -3  -1  -8    2.60    0.90
   3   1   8    2.40    1.00
   3   1   8    2.70    1.10
   3   1   8    2.50    1.10
   3   1   8    2.50    1.00
  -4  -1  -8   11.10    1.50
  -4  -1  -8   13.70    1.70
  -4  -1  -8   13.80    3.40
  -4  -1  -8   15.10    3.10
  -4  -1  -8   11.60    1.90
  -4  -1  -8   11.90    1.70
   4   1   8   13.90    1.90
   4   1   8   11.80    1.70
   4   1   8   11.90    1.90
  -5  -1  -8    1.00    1.00
  -5  -1  -8    1.10    1.20
  -5  -1  -8    0.40    1.40
  -5  -1  -8   -0.40    0.80
  -5  -1  -8   -1.00    1.00
   5   1   8   -0.50    1.10
   5   1   8    0.20    1.20
  -6  -1  -8   14.90    2.30
  -6  -1  -8   11.20    1.90
  -6  -1  -8   13.00    3.00
  -6  -1  -8    7.50    2.50
   6   1   8   13.40    2.20
  -7  -1  -8   -0.40    2.30
  -7  -1  -8    6.20    1.90
  -7  -1  -8    5.10    1.70
  -7  -1  -8    5.60    1.80
   7   1   8    5.50    1.80
   7  -2  -8    4.70    2.50
  -7   2   8    2.00    1.40
  -7   2   8   -0.70    1.50
   6  -2  -8    2.90    1.10
   6  -2  -8    6.60    2.30
  -6   2   8    0.90    1.40
  -6   2   8    4.10    2.40
  -6   2   8    1.90    1.30
   5  -2  -8   15.60    2.50
   5  -2  -8   15.20    1.60
  -5   2   8   14.50    3.30
  -5   2   8   16.80    2.00
  -5   2   8   17.60    4.20
  -5   2   8   16.90    2.00
   4  -2  -8   57.09    2.40
   4  -2  -8   51.69    3.20
  -4   2   8   53.89    2.80
  -4   2   8   53.09    2.70
  -4   2   8   54.09    5.20
  -4   2   8   53.89    4.40
   3  -2  -8    1.00    0.70
   3  -2  -8    1.60    0.80
   3  -2  -8    1.30    0.80
   3  -2  -8    3.40    1.30
  -3   2   8    2.50    0.80
  -3   2   8    2.60    0.90
  -3   2   8    3.90    1.10
  -3   2   8    1.20    1.30
  -3   2   8    1.80    0.90
   2  -2  -8   35.20    1.80
   2  -2  -8   32.70    1.70
   2  -2  -8   38.00    1.80
  -2   2   8   34.60    1.80
  -2   2   8   34.40    2.00
  -2   2   8   31.70    3.30
  -2   2   8   34.50    1.80
  -2   2   8   36.00    2.70
   1  -2  -8   56.69    2.30
   1  -2  -8   56.29    2.20
   1  -2  -8   55.39    2.10
   1  -2  -8   58.79    2.90
  -1   2   8   57.79    2.30
  -1   2   8   58.89    3.00
  -1   2   8   53.79    2.00
  -1   2   8   56.29    2.30
  -1   2   8   59.99    2.60
  -1   2   8   56.99    3.90
   0  -2  -8  514.25   14.40
   0  -2  -8  475.95   13.60
   0  -2  -8  485.75   10.80
   0  -2  -8  488.25   10.10
   0  -2  -8  473.05   10.00
   0   2   8  503.05   10.20
   0   2   8  467.25   16.20
   0   2   8  494.55   15.20
   0   2   8  472.35   11.00
   0   2   8  495.85   14.30
   0   2   8  476.95   10.80
  -1  -2  -8    1.30    0.70
  -1  -2  -8    1.60    0.80
  -1  -2  -8    0.30    0.40
  -1  -2  -8    0.50    0.60
  -1  -2  -8    1.70    0.70
   1   2   8    0.90    0.70
   1   2   8    0.80    0.80
   1   2   8    0.30    0.50
   1   2   8    1.00    0.70
   1   2   8    1.20    1.00
  -2  -2  -8   69.19    4.10
  -2  -2  -8   68.39    2.80
  -2  -2  -8   64.09    3.30
  -2  -2  -8   62.89    4.30
  -2  -2  -8   64.99    2.60
  -2  -2  -8   65.99    2.70
   2   2   8   72.19    3.00
   2   2   8   62.49    2.60
   2   2   8   65.69    3.50
   2   2   8   68.99    4.50
  -3  -2  -8   14.50    1.60
  -3  -2  -8   14.40    1.50
  -3  -2  -8   15.20    1.60
  -3  -2  -8   18.00    3.10
  -3  -2  -8   16.30    2.80
  -3  -2  -8   14.30    1.80
   3   2   8   12.70    1.50
   3   2   8   15.80    2.50
   3   2   8   15.40    1.70
  -4  -2  -8   -0.80    1.10
  -4  -2  -8    0.90    1.30
  -4  -2  -8   -0.30    1.10
  -4  -2  -8    0.50    0.80
  -4  -2  -8   -0.40    1.10
   4   2   8    0.20    1.20
   4   2   8    0.70    1.20
   4   2   8    0.20    1.40
  -5  -2  -8   26.30    4.40
  -5  -2  -8   24.00    2.30
  -5  -2  -8   25.30    2.20
  -5  -2  -8   25.30    2.40
  -5  -2  -8   24.50    3.40
   5   2   8   26.80    2.50
   5   2   8   30.40    2.40
  -6  -2  -8   -2.70    1.60
  -6  -2  -8    0.40    1.40
  -6  -2  -8    0.50    0.90
  -6  -2  -8   -1.10    1.20
   6   2   8    0.00    1.30
  -7  -2  -8    0.20    1.00
  -7  -2  -8    0.60    1.50
  -7  -2  -8   -1.90    1.00
   7   2   8   -0.70    1.60
  -8  -2  -8    1.30    1.80
   7  -3  -8   14.30    3.30
  -7   3   8    7.10    2.30
   6  -3  -8   12.30    2.90
  -6   3   8    4.00    1.70
  -6   3   8    8.20    2.90
  -6   3   8    6.60    1.50
   5  -3  -8   -0.40    1.70
   5  -3  -8    0.10    0.70
  -5   3   8   -0.10    1.10
  -5   3   8    1.80    1.80
  -5   3   8   -0.70    0.90
  -5   3   8    1.60    1.00
   4  -3  -8    1.10    1.40
   4  -3  -8    2.40    0.80
  -4   3   8    0.60    0.90
  -4   3   8    0.80    1.60
  -4   3   8    1.90    1.00
  -4   3   8    2.60    1.00
   3  -3  -8   24.60    2.30
   3  -3  -8   22.70    1.50
   3  -3  -8   25.90    1.60
  -3   3   8   22.00    1.50
  -3   3   8   22.20    2.70
  -3   3   8   22.90    1.40
  -3   3   8   24.10    3.60
  -3   3   8   20.70    1.50
  -3   3   8   23.70    1.80
   2  -3  -8   15.10    1.30
   2  -3  -8   16.80    1.30
   2  -3  -8   16.60    1.40
  -2   3   8   15.10    1.20
  -2   3   8   15.00    1.20
  -2   3   8   16.20    2.00
  -2   3   8   17.30    1.50
  -2   3   8   13.00    1.30
  -2   3   8   14.50    1.30
  -2   3   8   14.70    2.70
   1  -3  -8   37.70    2.00
   1  -3  -8   40.20    1.90
   1  -3  -8   38.30    1.80
   1  -3  -8   39.00    1.80
  -1   3   8   38.80    1.80
  -1   3   8   37.90    3.50
  -1   3   8   40.40    2.20
  -1   3   8   37.10    2.10
  -1   3   8   39.10    1.90
  -1   3   8   36.90    2.10
  -1   3   8   37.60    1.80
   0  -3  -8   20.60    2.00
   0  -3  -8   19.70    1.60
   0  -3  -8   21.30    1.40
   0  -3  -8   19.40    1.50
   0  -3  -8   20.50    1.30
   0   3   8   22.20    2.40
   0   3   8   22.90    1.80
   0   3   8   21.20    1.50
   0   3   8   18.60    1.80
   0   3   8   19.40    1.50
   0   3   8   25.70    2.90
  -1  -3  -8   29.70    1.70
  -1  -3  -8   28.70    1.70
  -1  -3  -8   28.80    1.90
  -1  -3  -8   26.90    1.60
  -1  -3  -8   30.20    2.70
   1   3   8   28.60    2.00
   1   3   8   29.90    2.80
   1   3   8   31.00    3.50
   1   3   8   27.00    2.30
   1   3   8   28.80    1.80
  -2  -3  -8    3.70    1.00
  -2  -3  -8    2.60    1.10
  -2  -3  -8    4.40    1.20
  -2  -3  -8    2.50    1.00
   2   3   8    2.40    1.30
   2   3   8    3.00    1.10
   2   3   8    4.00    1.10
   2   3   8    2.50    1.00
  -3  -3  -8   67.69    3.00
  -3  -3  -8   67.69    3.20
  -3  -3  -8   64.69    2.90
  -3  -3  -8   64.59    4.70
   3   3   8   63.39    2.90
   3   3   8   66.19    3.30
   3   3   8   66.39    4.50
  -4  -3  -8    4.70    1.40
  -4  -3  -8    4.60    1.40
  -4  -3  -8    2.70    0.90
  -4  -3  -8    6.50    1.80
  -4  -3  -8    1.20    1.60
   4   3   8    4.80    1.60
   4   3   8    5.80    1.70
   4   3   8    2.90    1.80
  -5  -3  -8    3.60    2.00
  -5  -3  -8    7.20    1.70
  -5  -3  -8    7.00    1.70
  -5  -3  -8    6.40    1.80
   5   3   8    7.70    2.00
   5   3   8    4.70    1.60
  -6  -3  -8    0.40    1.40
  -6  -3  -8    0.70    1.40
  -6  -3  -8   -1.40    1.80
  -6  -3  -8    0.70    1.00
  -6  -3  -8   -0.80    1.10
   6   3   8    0.70    1.50
   6   3   8   -2.30    1.50
  -7  -3  -8    2.70    1.90
  -7  -3  -8    0.50    1.20
  -7  -3  -8   -0.80    1.30
   7   3   8   -0.40    1.80
   7  -4  -8    1.20    2.60
   6  -4  -8   18.20    3.20
  -6   4   8   23.80    5.10
  -6   4   8   19.90    4.50
   5  -4  -8    0.30    1.70
  -5   4   8    0.10    1.70
  -5   4   8   -1.00    1.00
  -5   4   8    0.90    0.80
   4  -4  -8   30.90    1.50
   4  -4  -8   27.60    2.80
  -4   4   8   30.00    2.00
  -4   4   8   29.20    1.90
  -4   4   8   26.60    4.40
  -4   4   8   28.70    3.30
   3  -4  -8   26.70    2.50
   3  -4  -8   28.30    1.60
  -3   4   8   26.90    4.00
  -3   4   8   27.30    1.80
  -3   4   8   26.00    2.80
   2  -4  -8   11.00    1.00
   2  -4  -8   11.00    1.90
   2  -4  -8   11.00    1.30
   2  -4  -8   10.30    1.10
  -2   4   8    8.60    1.70
  -2   4   8   11.20    1.40
  -2   4   8   11.70    1.10
  -2   4   8    9.80    1.10
  -2   4   8   10.60    1.10
  -2   4   8   10.00    1.80
  -2   4   8    6.80    1.80
   1  -4  -8   26.80    1.60
   1  -4  -8   28.70    1.70
   1  -4  -8   26.60    1.60
  -1   4   8   29.00    1.70
  -1   4   8   26.50    3.10
  -1   4   8   26.30    2.30
  -1   4   8   28.00    3.50
  -1   4   8   29.40    1.70
  -1   4   8   26.80    1.90
  -1   4   8   28.00    1.50
  -1   4   8   26.50    1.60
   0  -4  -8  339.17    7.60
   0  -4  -8  344.77    8.20
   0  -4  -8  333.37    7.60
   0   4   8  340.07   12.60
   0   4   8  327.27   11.00
   0   4   8  334.37    8.20
   0   4   8  321.17    8.30
   0   4   8  332.57    7.60
   0   4   8  345.57   12.30
  -1  -4  -8   34.50    2.10
  -1  -4  -8   31.50    1.90
  -1  -4  -8   34.80    3.20
  -1  -4  -8   34.40    2.00
   1   4   8   35.60    3.60
   1   4   8   36.00    3.20
   1   4   8   34.20    2.00
   1   4   8   34.50    2.30
  -2  -4  -8   31.20    2.20
  -2  -4  -8   31.50    2.20
  -2  -4  -8   28.10    1.70
  -2  -4  -8   31.40    2.10
  -2  -4  -8   29.80    3.30
   2   4   8   29.10    2.10
   2   4   8   30.50    3.40
   2   4   8   30.60    2.30
   2   4   8   31.30    3.90
  -3  -4  -8    6.00    1.40
  -3  -4  -8    4.50    1.70
  -3  -4  -8    7.30    1.60
  -3  -4  -8    3.90    0.80
  -3  -4  -8    5.70    1.50
   3   4   8    5.80    1.60
   3   4   8    8.40    1.80
   3   4   8    4.30    1.60
  -4  -4  -8    9.80    1.80
  -4  -4  -8   10.10    1.90
  -4  -4  -8    7.80    1.60
  -4  -4  -8    9.40    2.00
   4   4   8    9.40    2.00
   4   4   8    4.30    2.10
   4   4   8    9.20    1.90
  -5  -4  -8    5.10    1.60
  -5  -4  -8    2.20    1.00
  -5  -4  -8    4.50    1.80
  -5  -4  -8    3.30    1.50
  -5  -4  -8    1.60    2.00
   5   4   8    5.20    1.80
   5   4   8    3.20    1.60
   5   4   8   -0.10    2.00
  -6  -4  -8   -0.50    1.30
  -6  -4  -8   -3.00    1.80
  -6  -4  -8   -1.40    1.40
  -6  -4  -8    0.30    1.00
  -6  -4  -8   -1.00    1.40
   6   4   8    0.80    1.70
   6   4   8   -2.30    1.70
  -7  -4  -8    0.20    1.80
  -7  -4  -8   -0.30    1.10
  -7  -4  -8    0.10    1.50
   7   4   8   -0.30    1.80
   7  -5  -8    1.60    2.90
   6  -5  -8   10.30    3.00
  -6   5   8    6.30    2.70
   5  -5  -8    2.00    2.20
  -5   5   8    0.60    1.80
  -5   5   8    1.00    1.20
   4  -5  -8   12.50    0.90
   4  -5  -8   10.80    2.50
  -4   5   8    7.50    2.10
  -4   5   8   13.50    1.40
  -4   5   8   12.80    2.70
   3  -5  -8    0.00    0.70
   3  -5  -8   -0.40    1.00
   3  -5  -8   -0.50    1.30
  -3   5   8    0.30    1.60
  -3   5   8    1.00    1.40
  -3   5   8    0.10    0.70
  -3   5   8    0.20    0.80
   2  -5  -8    0.10    0.70
   2  -5  -8    0.10    0.40
   2  -5  -8   -0.10    1.10
  -2   5   8   -0.70    0.50
  -2   5   8   -1.10    1.00
  -2   5   8    0.10    1.40
  -2   5   8   -0.30    0.70
  -2   5   8    0.20    0.90
   1  -5  -8    0.30    0.70
   1  -5  -8    2.30    0.90
   1  -5  -8    1.60    0.80
  -1   5   8    2.30    1.40
  -1   5   8    1.30    0.80
  -1   5   8    2.60    1.10
  -1   5   8    2.60    0.90
  -1   5   8    1.90    1.30
   0  -5  -8   26.30    1.90
   0  -5  -8   23.20    1.60
   0  -5  -8   25.20    1.80
   0  -5  -8   21.30    1.60
   0   5   8   20.80    1.70
   0   5   8   23.00    1.80
   0   5   8   24.90    2.10
   0   5   8   23.30    3.50
   0   5   8   20.30    3.30
  -1  -5  -8    1.90    1.10
  -1  -5  -8    2.70    1.00
  -1  -5  -8    2.00    1.00
   1   5   8    0.40    1.20
   1   5   8    1.30    1.40
   1   5   8    2.90    1.20
   1   5   8    1.80    1.10
  -2  -5  -8   75.99    3.30
  -2  -5  -8   66.79    2.50
  -2  -5  -8   67.49    3.10
  -2  -5  -8   73.09    5.30
  -2  -5  -8   75.09    3.50
   2   5   8   75.59    5.50
   2   5   8   76.09    5.20
   2   5   8   72.39    3.60
   2   5   8   72.89    3.30
  -3  -5  -8    9.70    1.60
  -3  -5  -8    6.00    1.90
  -3  -5  -8   14.00    2.20
  -3  -5  -8   10.30    1.80
  -3  -5  -8   13.10    2.00
   3   5   8   13.60    2.20
   3   5   8    9.50    1.80
   3   5   8    7.00    2.10
  -4  -5  -8   12.70    2.00
  -4  -5  -8   11.50    2.00
  -4  -5  -8   13.60    2.40
  -4  -5  -8    9.70    2.00
   4   5   8   13.70    2.20
   4   5   8    8.80    2.10
  -5  -5  -8   11.40    2.20
  -5  -5  -8    5.70    2.40
  -5  -5  -8   13.60    2.60
  -5  -5  -8    9.50    2.00
   5   5   8   11.40    2.40
   5   5   8   11.00    2.30
  -6  -5  -8    1.90    1.70
  -6  -5  -8    3.00    2.00
  -6  -5  -8    6.20    2.00
  -6  -5  -8    0.20    2.10
  -6  -5  -8    1.80    1.20
   6   5   8    2.90    2.10
   6   5   8    3.00    2.00
  -7  -5  -8    2.20    1.40
   6  -6  -8   13.00    3.30
   5  -6  -8    8.40    2.90
  -5   6   8    6.40    2.50
  -5   6   8    6.20    2.40
   4  -6  -8   -3.00    1.50
  -4   6   8    0.70    1.50
  -4   6   8    1.60    1.70
   3  -6  -8    5.80    2.00
   3  -6  -8    6.00    0.90
  -3   6   8    5.80    2.30
  -3   6   8    6.30    1.20
   2  -6  -8   10.80    1.40
   2  -6  -8   13.30    2.20
  -2   6   8   10.20    2.50
  -2   6   8    7.00    1.90
  -2   6   8   13.20    1.70
   1  -6  -8  114.19    3.80
   1  -6  -8  118.59    4.80
   1  -6  -8  123.69    3.80
  -1   6   8  115.39    3.60
  -1   6   8  122.99    7.10
  -1   6   8  125.99    7.40
  -1   6   8  119.49    4.30
   0  -6  -8   25.90    2.10
   0  -6  -8   26.70    2.00
   0  -6  -8   24.90    1.80
   0  -6  -8   22.50    1.80
   0   6   8   22.80    3.90
   0   6   8   25.30    2.00
   0   6   8   23.00    2.10
   0   6   8   24.00    3.70
  -1  -6  -8   41.00    2.50
  -1  -6  -8   37.80    2.30
  -1  -6  -8   38.80    2.60
   1   6   8   39.80    2.40
   1   6   8   37.00    4.50
   1   6   8   42.00    2.90
   1   6   8   38.90    4.30
  -2  -6  -8    3.20    1.50
  -2  -6  -8    2.40    1.20
  -2  -6  -8   -0.10    1.30
  -2  -6  -8    1.50    1.40
   2   6   8    2.90    1.50
   2   6   8    1.30    1.50
   2   6   8    4.20    1.40
   2   6   8    1.10    1.70
  -3  -6  -8    0.20    1.30
  -3  -6  -8    1.70    1.60
  -3  -6  -8    3.40    1.40
  -3  -6  -8    0.20    1.50
   3   6   8    1.50    1.50
   3   6   8    2.90    1.70
   3   6   8    0.20    1.90
  -4  -6  -8   15.00    2.20
  -4  -6  -8   10.30    2.00
  -4  -6  -8   13.90    2.50
   4   6   8   13.40    2.40
   4   6   8   14.00    2.50
  -5  -6  -8   -0.90    1.40
  -5  -6  -8   -1.30    1.60
  -5  -6  -8   -0.80    1.80
   5   6   8    1.60    1.80
   5   6   8   -0.40    1.70
  -6  -6  -8   -1.00    1.80
  -6  -6  -8    0.40    1.60
  -6  -6  -8   -3.00    2.20
   6   6   8   -0.60    1.90
   6   6   8    0.80    1.90
   5  -7  -8   -0.20    2.10
   4  -7  -8    8.90    2.70
  -4   7   8    2.50    1.70
  -4   7   8    5.10    2.20
   3  -7  -8    2.30    1.90
  -3   7   8    2.10    1.00
  -3   7   8    2.20    1.90
  -3   7   8    1.40    1.60
   2  -7  -8    1.30    1.50
   2  -7  -8    0.80    0.90
  -2   7   8   -0.10    1.40
  -2   7   8   -0.30    0.90
  -2   7   8    1.40    1.90
   1  -7  -8   29.60    2.20
   1  -7  -8   29.00    2.60
  -1   7   8   28.00    4.20
  -1   7   8   31.10    4.80
  -1   7   8   33.90    2.60
   0  -7  -8   -0.50    1.20
   0  -7  -8    0.20    0.80
   0  -7  -8    1.40    1.30
   0   7   8   -0.90    1.10
   0   7   8   -1.30    1.40
   0   7   8   -1.20    1.60
  -1  -7  -8    8.00    1.50
  -1  -7  -8    7.30    1.60
  -1  -7  -8    8.60    1.80
   1   7   8   10.00    1.80
   1   7   8   11.90    2.20
   1   7   8    8.20    2.60
  -2  -7  -8   46.90    2.90
  -2  -7  -8   46.10    3.40
  -2  -7  -8   45.50    3.10
   2   7   8   47.40    3.10
   2   7   8   44.90    5.40
   2   7   8   48.40    3.50
  -3  -7  -8    3.70    1.70
  -3  -7  -8    4.40    1.90
  -3  -7  -8    5.30    1.60
   3   7   8    3.50    2.70
   3   7   8    5.20    2.00
   3   7   8    5.50    2.10
  -4  -7  -8   -1.90    1.50
  -4  -7  -8    0.30    1.50
  -4  -7  -8   -0.60    1.50
   4   7   8    0.00    1.70
   4   7   8   -0.50    1.60
  -5  -7  -8    1.40    2.00
  -5  -7  -8    0.50    1.70
  -5  -7  -8   -0.70    1.90
   5   7   8    2.60    2.00
   5   7   8    3.00    2.30
  -6  -7  -8    2.50    2.30
   6   7   8    4.90    2.50
   6   7   8    6.20    2.40
   5  -8  -8    3.10    2.60
   4  -8  -8    6.20    2.70
  -4   8   8    4.00    2.70
   3  -8  -8    0.10    1.90
  -3   8   8   -1.50    1.60
  -3   8   8    3.00    2.50
   2  -8  -8   -0.20    1.70
  -2   8   8    2.00    2.00
  -2   8   8    0.90    1.20
  -2   8   8   -0.70    1.50
   1  -8  -8   38.70    2.50
   1  -8  -8   37.40    3.20
  -1   8   8   26.30    4.60
  -1   8   8   42.50    3.00
  -1   8   8   40.50    5.60
   0  -8  -8    7.90    1.70
   0  -8  -8    9.40    2.00
   0  -8  -8    9.70    1.70
   0   8   8   10.80    2.20
   0   8   8    9.50    2.90
  -1  -8  -8   15.80    2.10
  -1  -8  -8   18.10    2.10
  -1  -8  -8   16.80    2.30
   1   8   8   20.70    2.90
   1   8   8   10.00    3.20
  -2  -8  -8    3.70    1.60
  -2  -8  -8    2.20    1.30
  -2  -8  -8    0.70    1.60
   2   8   8   -1.90    2.20
   2   8   8    1.40    1.90
   2   8   8    0.60    1.40
  -3  -8  -8    1.50    2.00
  -3  -8  -8    3.00    1.80
  -3  -8  -8    4.30    1.60
   3   8   8   -1.20    2.70
   3   8   8    1.90    1.70
   3   8   8    1.40    2.00
  -4  -8  -8    0.90    1.90
  -4  -8  -8    0.50    1.30
   4   8   8    2.10    2.20
   4   8   8    0.70    1.80
  -5  -8  -8   -1.10    1.80
   5   8   8    2.30    2.30
   5   8   8   -0.30    2.40
   4  -9  -8    2.40    2.60
   3  -9  -8    3.40    2.20
   2  -9  -8    3.20    2.10
  -2   9   8    2.50    2.40
  -2   9   8    1.80    1.40
   1  -9  -8   13.80    2.60
   1  -9  -8   10.90    1.90
  -1   9   8    9.00    3.00
  -1   9   8   14.40    2.30
   0  -9  -8    4.20    1.70
   0   9   8    2.30    2.80
   0   9   8    4.60    1.90
   1   9   8   11.50    3.80
   1   9   8   19.60    3.10
  -2  -9  -8    1.70    1.40
   2   9   8    1.20    2.00
  -3  -9  -8    2.80    1.50
   3   9   8    3.80    2.30
  -4  -9  -8    4.10    1.80
  -4  -9  -8    3.80    2.40
   4   9   8    4.00    2.10
  -5  -9  -8    3.20    2.30
   2 -10  -8    4.30    2.40
   1 -10  -8    1.70    2.00
   1 -10  -8   -0.10    1.40
  -1  10   8    0.70    1.60
   0 -10  -8   10.20    2.20
   0  10   8   12.00    2.50
  -1 -10  -8   -1.60    1.80
  -3 -10  -8    0.30    1.40
   1  -9   9   -1.40    1.90
   2  -9   9    2.20    2.20
   3   8  -9    1.70    2.00
   2   8  -9   -1.20    1.80
   1   8  -9    4.60    2.20
   1   8  -9    0.90    2.20
  -1  -8   9    2.20    2.30
   0   8  -9    2.40    1.90
   0   8  -9   -2.20    2.00
   0  -8   9   -0.20    2.00
  -1   8  -9   -2.30    1.50
   1  -8   9   -0.80    1.80
   1  -8   9   -2.60    1.90
  -2   8  -9    1.40    1.70
   2  -8   9    0.70    1.90
   2  -8   9   -1.10    1.60
  -3   8  -9   -0.40    1.40
   3  -8   9    1.60    2.10
   4  -8   9    3.30    2.20
   4   7  -9    1.70    2.00
   4   7  -9    0.40    2.00
  -4  -7   9    0.30    2.20
   3   7  -9   14.40    3.00
   3   7  -9   18.70    2.90
  -3  -7   9   13.20    2.90
  -3  -7   9   12.10    3.00
   2   7  -9    0.50    1.50
   2   7  -9    0.10    1.60
  -2  -7   9    0.20    1.90
  -2  -7   9   -1.10    1.90
   1   7  -9   -0.70    1.80
   1   7  -9    1.80    2.00
  -1  -7   9    4.20    2.00
   0   7  -9   -1.60    1.90
   0   7  -9   -1.60    1.60
   0  -7   9   -1.10    1.60
  -1   7  -9   -1.60    1.60
  -1   7  -9    0.70    1.60
   1  -7   9    0.30    1.60
  -2   7  -9    1.50    1.90
  -2   7  -9    2.50    1.60
   2  -7   9    6.40    2.40
   2  -7   9    2.20    1.60
  -3   7  -9    0.80    1.80
  -3   7  -9    2.60    1.50
   3  -7   9    3.80    1.50
   3  -7   9    4.20    2.20
  -4   7  -9    1.70    1.40
   4  -7   9    3.20    2.10
   5  -7   9    2.00    2.20
   5   6  -9   -1.80    1.90
  -5  -6   9   -2.30    2.20
   4   6  -9    1.60    1.90
   4   6  -9    2.30    1.90
  -4  -6   9   -0.90    1.70
  -4  -6   9    1.00    2.20
  -4  -6   9    2.60    2.20
   3   6  -9    3.00    1.90
   3   6  -9    0.90    1.70
  -3  -6   9   -1.60    1.40
  -3  -6   9    1.50    1.90
  -3  -6   9    1.80    2.00
   2   6  -9   12.20    2.50
   2   6  -9   10.90    2.10
  -2  -6   9   11.30    2.40
  -2  -6   9    9.70    2.40
   1   6  -9    1.30    1.70
   1   6  -9    4.80    1.90
   1   6  -9    4.80    1.60
  -1  -6   9    7.50    2.10
  -1  -6   9    4.30    1.90
   0   6  -9   14.00    2.50
   0   6  -9   15.20    2.00
   0  -6   9   14.30    2.30
   0  -6   9   11.00    2.20
  -1   6  -9    9.30    2.00
   1  -6   9    9.10    1.80
  -2   6  -9    1.20    1.40
  -2   6  -9   -0.60    1.40
   2  -6   9   -1.70    1.20
   2  -6   9    0.50    1.60
  -3   6  -9   -0.70    1.50
  -3   6  -9    0.70    1.20
   3  -6   9    0.90    1.80
   3  -6   9    2.10    1.30
  -4   6  -9    2.90    1.40
  -4   6  -9   -0.40    1.80
   4  -6   9    2.00    1.20
   4  -6   9    0.60    1.90
  -5   6  -9   -0.30    1.90
   5  -6   9    3.10    2.30
   6  -6   9    2.20    2.50
   5   5  -9    2.80    2.00
   5   5  -9    3.60    2.10
  -5  -5   9    3.20    2.40
  -5  -5   9   -0.60    1.80
  -5  -5   9    0.70    1.90
   4   5  -9    1.40    1.80
   4   5  -9    0.50    1.80
  -4  -5   9   -0.90    1.80
  -4  -5   9   -0.90    1.50
  -4  -5   9    0.60    2.00
   3   5  -9   45.50    3.50
   3   5  -9   24.80    4.60
   3   5  -9   37.50    3.10
  -3  -5   9   38.30    3.40
  -3  -5   9   38.20    3.30
  -3  -5   9   33.80    4.90
   2   5  -9    1.20    1.40
   2   5  -9    0.80    1.40
   2   5  -9   -1.60    1.20
  -2  -5   9    3.90    2.00
  -2  -5   9    0.30    1.30
  -2  -5   9   -0.20    1.50
   1   5  -9    6.40    1.90
   1   5  -9    4.70    1.60
  -1  -5   9    6.80    1.90
  -1  -5   9    8.70    2.20
   0   5  -9    8.40    1.70
   0   5  -9    5.90    1.70
   0   5  -9    3.40    1.60
   0  -5   9    6.20    1.70
   0  -5   9    9.00    1.90
  -1   5  -9   20.90    2.30
  -1   5  -9   21.20    2.10
   1  -5   9   20.50    2.40
   1  -5   9   18.50    2.10
  -2   5  -9    1.20    1.40
  -2   5  -9    3.00    1.40
   2  -5   9    2.50    1.60
   2  -5   9    2.40    1.40
  -3   5  -9    4.30    1.80
  -3   5  -9    7.50    1.60
   3  -5   9    8.60    1.60
   3  -5   9    8.00    2.10
  -4   5  -9    0.70    1.30
  -4   5  -9    2.30    1.50
  -4   5  -9   -0.80    1.60
   4  -5   9    2.80    1.90
   4  -5   9    1.30    1.20
  -5   5  -9   26.20    4.60
  -5   5  -9   22.10    2.20
   5  -5   9   23.90    3.30
   6  -5   9   23.30    3.70
   5   4  -9   -0.40    1.50
   5   4  -9   -1.20    1.70
  -5  -4   9   -0.70    1.70
  -5  -4   9   -3.50    1.80
  -5  -4   9   -2.30    1.70
  -5  -4   9    1.10    1.60
   4   4  -9   18.10    2.90
   4   4  -9   18.60    2.70
  -4  -4   9   14.40    3.20
  -4  -4   9   12.90    2.70
  -4  -4   9   14.10    2.50
   3   4  -9    3.90    1.70
   3   4  -9    4.00    1.60
  -3  -4   9    5.10    1.80
  -3  -4   9    5.10    1.90
  -3  -4   9    1.10    1.50
   2   4  -9   39.10    2.80
   2   4  -9   33.80    4.30
   2   4  -9   43.40    3.10
  -2  -4   9   39.70    2.90
  -2  -4   9   40.40    3.40
  -2  -4   9   37.60    3.10
  -2  -4   9   37.80    3.00
  -2  -4   9   41.10    4.80
   1   4  -9    6.30    1.50
   1   4  -9    5.10    1.60
   1   4  -9    2.40    1.20
  -1  -4   9    4.80    1.60
  -1  -4   9    3.60    1.10
  -1  -4   9    2.20    1.40
  -1  -4   9    5.60    1.70
   0   4  -9    2.60    1.20
   0   4  -9    0.60    1.10
   0   4  -9    3.80    1.40
   0  -4   9    1.50    0.80
   0  -4   9    3.70    1.40
   0  -4   9    2.20    1.50
   0  -4   9    2.00    1.10
  -1   4  -9   58.59    3.20
  -1   4  -9   57.59    2.90
  -1   4  -9   62.99    5.80
   1  -4   9   62.69    2.80
   1  -4   9   54.59    2.90
   1  -4   9   59.29    3.20
  -2   4  -9   19.80    1.80
  -2   4  -9   19.90    4.40
  -2   4  -9   17.10    2.10
   2  -4   9   21.60    2.20
   2  -4   9   20.60    2.10
   2  -4   9   19.90    1.60
   2  -4   9   18.80    2.20
  -3   4  -9    3.00    1.60
  -3   4  -9    6.40    1.50
   3  -4   9    6.80    1.90
   3  -4   9    7.80    1.50
  -4   4  -9    0.80    1.30
  -4   4  -9   -0.70    1.10
  -4   4  -9   -0.70    1.40
   4  -4   9   -0.40    1.60
   4  -4   9    0.00    1.10
  -5   4  -9   -1.40    1.60
  -5   4  -9    2.00    1.30
  -5   4  -9    2.30    1.80
   5  -4   9    1.80    2.00
   5  -4   9    1.50    1.20
  -6   4  -9    3.30    2.10
   6  -4   9    4.80    2.50
   7  -4   9    2.90    2.80
   6   3  -9   -0.90    1.60
  -6  -3   9    0.30    1.80
  -6  -3   9   -2.40    1.70
  -6  -3   9   -1.00    2.00
   5   3  -9    4.80    1.80
   5   3  -9    4.30    1.80
  -5  -3   9    5.20    2.20
  -5  -3   9    4.70    1.80
  -5  -3   9    1.10    1.70
  -5  -3   9    5.20    2.10
   4   3  -9   34.50    2.80
   4   3  -9   40.80    3.30
  -4  -3   9   41.70    4.60
  -4  -3   9   35.40    4.70
  -4  -3   9   36.20    3.20
  -4  -3   9   40.50    3.10
   3   3  -9   18.30    2.50
   3   3  -9   15.50    2.10
  -3  -3   9   20.30    2.50
  -3  -3   9   15.10    2.30
  -3  -3   9   18.30    3.10
  -3  -3   9   15.70    2.30
   2   3  -9    0.60    1.30
   2   3  -9    0.70    1.00
   2   3  -9    1.40    1.40
  -2  -3   9   -1.10    1.40
  -2  -3   9    2.20    1.40
  -2  -3   9    3.30    1.50
  -2  -3   9    1.50    1.20
  -2  -3   9    1.80    1.10
   1   3  -9    1.30    1.10
   1   3  -9    1.60    1.30
   1   3  -9    0.40    1.00
  -1  -3   9    0.50    1.20
  -1  -3   9   -0.20    1.10
  -1  -3   9   -0.40    1.00
  -1  -3   9    0.30    0.80
  -1  -3   9   -0.40    1.10
   0   3  -9    2.70    1.10
   0   3  -9    7.00    1.50
   0   3  -9    5.40    1.30
   0   3  -9    5.60    1.30
   0  -3   9    3.80    1.20
   0  -3   9    3.60    1.20
   0  -3   9    6.20    1.60
   0  -3   9    4.10    1.00
   0  -3   9    5.20    1.20
  -1   3  -9   90.79    4.60
  -1   3  -9  100.59    3.50
  -1   3  -9   96.29    3.80
  -1   3  -9  106.69    6.70
   1  -3   9   89.09    3.20
   1  -3   9   94.59    3.60
   1  -3   9  102.09    3.40
   1  -3   9   94.49    3.80
  -2   3  -9   15.60    1.60
  -2   3  -9   17.20    4.00
  -2   3  -9   16.80    1.90
   2  -3   9   17.60    1.90
   2  -3   9   13.30    1.90
   2  -3   9   16.90    2.00
   2  -3   9   15.30    1.70
   2  -3   9   16.40    1.50
  -3   3  -9   -1.40    1.10
  -3   3  -9    1.70    0.90
  -3   3  -9    1.20    1.20
  -3   3  -9    0.50    1.10
   3  -3   9    1.20    1.20
   3  -3   9    1.40    0.70
   3  -3   9    0.40    0.90
   3  -3   9    2.20    1.40
  -4   3  -9    7.20    1.90
  -4   3  -9    6.70    2.10
  -4   3  -9   12.40    1.90
   4  -3   9   12.40    1.70
   4  -3   9   12.00    2.20
  -5   3  -9  147.69    9.00
  -5   3  -9  145.29    5.00
  -5   3  -9  139.59    9.80
   5  -3   9  147.09    4.50
   5  -3   9  141.09    5.80
  -6   3  -9    4.30    1.40
  -6   3  -9    4.70    2.20
   6  -3   9    4.10    2.50
   6  -3   9    4.10    1.30
   7  -3   9   -2.70    2.40
   6   2  -9   -1.80    1.40
  -6  -2   9    2.20    1.90
  -6  -2   9   -1.50    1.70
  -6  -2   9   -2.90    1.50
   5   2  -9    1.10    1.30
   5   2  -9    1.80    1.50
  -5  -2   9    1.50    1.80
  -5  -2   9    0.40    1.30
  -5  -2   9   -0.70    1.50
  -5  -2   9    0.10    1.50
   4   2  -9   64.19    3.00
   4   2  -9   67.19    3.60
   4   2  -9   61.79    3.30
  -4  -2   9   65.29    3.80
  -4  -2   9   61.79    5.50
  -4  -2   9   64.49    3.40
  -4  -2   9   68.59    3.80
  -4  -2   9   75.79    5.70
   3   2  -9    0.30    0.80
   3   2  -9    3.00    1.30
   3   2  -9    1.00    1.10
  -3  -2   9    1.00    1.20
  -3  -2   9    2.30    1.40
  -3  -2   9    1.80    1.20
  -3  -2   9    0.80    1.20
  -3  -2   9    3.40    1.50
   2   2  -9   21.80    2.20
   2   2  -9   28.60    3.50
   2   2  -9   18.70    2.20
   2   2  -9   22.30    2.30
  -2  -2   9   22.90    3.30
  -2  -2   9   22.00    2.90
  -2  -2   9   25.30    2.30
  -2  -2   9   22.40    2.20
  -2  -2   9   18.80    2.30
   1   2  -9   31.40    2.00
   1   2  -9   34.00    3.80
   1   2  -9   31.90    2.20
  -1  -2   9   32.80    2.20
  -1  -2   9   30.00    2.10
  -1  -2   9   29.70    3.30
  -1  -2   9   32.60    2.40
  -1  -2   9   33.60    3.10
   0   2  -9   73.39    2.90
   0   2  -9   73.49    3.20
   0   2  -9   78.09    5.40
   0  -2   9   72.69    3.50
   0  -2   9   70.39    2.90
   0  -2   9   75.09    4.30
   0  -2   9   74.49    3.30
   0  -2   9   71.19    3.00
  -1   2  -9   16.80    1.50
  -1   2  -9   18.10    3.30
  -1   2  -9   15.10    1.60
   1  -2   9   16.40    1.70
   1  -2   9   16.50    1.70
   1  -2   9   19.10    2.80
  -2   2  -9   98.59    3.70
  -2   2  -9  104.79    6.60
  -2   2  -9  104.79    3.40
  -2   2  -9   98.19    3.70
  -2   2  -9  103.59    5.60
   2  -2   9   97.69    3.60
   2  -2   9  105.69    3.80
   2  -2   9   97.69    3.30
   2  -2   9   99.39    3.60
  -3   2  -9   53.69    5.30
  -3   2  -9   44.70    2.20
  -3   2  -9   44.90    2.40
  -3   2  -9   42.00    4.50
  -3   2  -9   47.30    2.60
   3  -2   9   45.70    2.30
   3  -2   9   51.59    2.60
   3  -2   9   48.80    2.50
   3  -2   9   43.90    2.70
  -4   2  -9   13.00    1.80
   4  -2   9   10.80    2.00
   4  -2   9   13.50    1.80
  -5   2  -9   31.40    5.00
  -5   2  -9   22.90    5.40
  -5   2  -9   32.30    2.50
   5  -2   9   33.30    2.40
   5  -2   9   25.90    3.00
  -6   2  -9    0.10    1.60
  -6   2  -9    1.30    1.30
   6  -2   9    1.90    1.20
   6  -2   9    1.00    2.20
  -7   2  -9   -0.80    1.20
   7  -2   9   -3.80    2.20
   6   1  -9    1.20    1.50
   6   1  -9    2.60    1.70
  -6  -1   9    1.40    2.10
  -6  -1   9   -0.10    1.80
  -6  -1   9   -0.50    1.60
   5   1  -9    2.20    1.50
   5   1  -9    2.70    1.40
  -5  -1   9    2.50    1.80
  -5  -1   9   -0.20    1.40
  -5  -1   9    1.00    1.50
   4   1  -9   53.79    2.90
   4   1  -9   56.99    3.00
   4   1  -9   55.59    3.00
  -4  -1   9   51.79    5.20
  -4  -1   9   53.69    3.30
  -4  -1   9   49.90    2.90
  -4  -1   9   49.20    3.20
  -4  -1   9   65.19    5.50
   3   1  -9    3.00    0.90
   3   1  -9    5.60    1.40
   3   1  -9    5.30    1.10
   3   1  -9    5.40    1.40
  -3  -1   9    7.70    1.50
  -3  -1   9    4.20    1.40
  -3  -1   9    5.30    1.70
  -3  -1   9    8.50    1.80
  -3  -1   9    7.00    1.60
   2   1  -9    2.40    1.00
   2   1  -9    2.70    1.10
   2   1  -9    2.20    1.10
   2   1  -9    1.70    0.60
  -2  -1   9    2.00    1.10
  -2  -1   9    3.00    1.10
  -2  -1   9    3.30    1.20
  -2  -1   9    3.30    1.30
  -2  -1   9    1.70    1.00
   1   1  -9   37.10    3.90
   1   1  -9   35.40    2.20
   1   1  -9   33.50    2.00
  -1  -1   9   33.80    3.10
  -1  -1   9   33.70    2.30
  -1  -1   9   35.20    3.20
  -1  -1   9   34.40    2.10
   0   1  -9   58.69    2.50
   0   1  -9   59.69    4.60
   0   1  -9   57.79    2.70
   0  -1   9   55.09    2.50
   0  -1   9   56.09    2.80
   0  -1   9   58.09    3.90
  -1   1  -9   60.99    3.60
  -1   1  -9   62.59    4.70
  -1   1  -9   60.69    2.70
  -1   1  -9   60.39    2.40
   1  -1   9   62.39    2.30
   1  -1   9   57.69    2.60
   1  -1   9   65.49    4.30
   1  -1   9   56.19    2.10
   1  -1   9   64.59    2.90
   1  -1   9   54.39    2.00
  -2   1  -9   23.20    1.90
  -2   1  -9   28.80    2.00
  -2   1  -9   29.60    3.80
  -2   1  -9   30.50    3.00
  -2   1  -9   30.00    1.80
   2  -1   9   29.00    2.10
   2  -1   9   30.40    2.00
   2  -1   9   26.90    1.70
   2  -1   9   29.30    1.80
  -3   1  -9   21.90    3.20
  -3   1  -9   31.40    4.30
  -3   1  -9   24.10    1.80
  -3   1  -9   26.80    1.80
  -3   1  -9   25.10    1.90
   3  -1   9   23.20    2.00
   3  -1   9   24.90    1.70
   3  -1   9   27.60    2.10
   3  -1   9   25.50    1.90
  -4   1  -9  243.98   11.50
  -4   1  -9  241.98   10.90
  -4   1  -9  248.28    6.90
  -4   1  -9  245.08    6.10
   4  -1   9  236.68    6.90
   4  -1   9  246.68    6.70
   4  -1   9  251.67    6.50
  -5   1  -9  137.99    8.70
  -5   1  -9  138.79    4.90
  -5   1  -9  139.89    8.30
   5  -1   9  150.38    4.70
   5  -1   9  131.69    5.30
  -6   1  -9    4.20    2.20
  -6   1  -9    9.40    1.80
   6  -1   9    8.30    1.70
   6  -1   9    7.30    2.50
  -7   1  -9   -2.50    2.00
  -7   1  -9   -2.00    1.10
   7  -1   9   -2.10    2.30
   7  -1   9   -0.80    1.20
   7   0  -9    1.20    1.50
   7   0  -9   -2.50    2.10
  -7   0   9    1.30    1.80
   6   0  -9    0.60    1.80
   6   0  -9    0.00    1.20
  -6   0   9   -1.00    1.50
  -6   0   9    0.60    1.80
  -6   0   9    0.60    1.50
   5   0  -9    0.10    1.40
   5   0  -9    1.40    1.20
  -5   0   9   -1.10    1.10
  -5   0   9   -0.60    1.30
  -5   0   9    1.80    1.40
  -5   0   9    1.80    1.70
   4   0  -9  104.09    4.00
   4   0  -9  104.39    4.30
   4   0  -9  103.19    3.80
  -4   0   9  106.49    3.90
  -4   0   9  107.09    4.30
  -4   0   9  108.39    6.50
  -4   0   9   97.39    4.20
  -4   0   9  112.49    7.20
   3   0  -9   29.30    2.00
   3   0  -9   29.80    2.20
  -3   0   9   29.70    3.80
  -3   0   9   29.40    2.30
  -3   0   9   30.30    2.10
  -3   0   9   29.10    2.30
  -3   0   9   33.80    3.60
   2   0  -9    6.60    1.30
   2   0  -9    5.60    1.10
  -2   0   9    5.10    1.40
  -2   0   9    7.10    1.30
  -2   0   9    7.10    1.40
  -2   0   9    4.60    1.20
   1   0  -9    2.90    1.00
   1   0  -9    1.30    0.40
   1   0  -9    0.90    0.80
   1   0  -9    2.40    0.90
  -1   0   9    2.10    1.00
  -1   0   9    1.60    1.00
  -1   0   9    1.60    0.80
  -1   0   9    2.10    1.00
   0   0  -9  223.88    7.50
   0   0  -9  227.68    6.10
   0   0  -9  226.38    5.60
   0   0  -9  229.68    9.60
   0   0   9  221.98    6.20
   0   0   9  224.28    5.70
   0   0   9  224.48    8.90
  -1   0  -9  137.09    3.90
  -1   0  -9  138.19    7.10
  -1   0  -9  141.09    5.70
  -1   0  -9  140.19    4.30
   1   0   9  134.59    4.60
   1   0   9  138.39    4.50
   1   0   9  138.89    4.10
   1   0   9  138.49    3.50
   1   0   9  139.79    6.50
  -2   0  -9   44.20    4.20
  -2   0  -9   45.50    3.30
  -2   0  -9   43.70    2.40
  -2   0  -9   42.60    2.10
   2   0   9   41.40    2.20
   2   0   9   44.40    2.40
   2   0   9   42.50    1.80
   2   0   9   48.40    4.20
   2   0   9   44.70    1.90
  -3   0  -9  186.78    5.50
  -3   0  -9  184.18    5.00
  -3   0  -9  181.78    8.90
  -3   0  -9  176.08    5.60
  -3   0  -9  185.48    8.30
   3   0   9  193.58    5.60
   3   0   9  184.78    5.10
   3   0   9  184.68    5.10
  -4   0  -9   82.69    6.00
  -4   0  -9   90.19    3.80
  -4   0  -9   86.29    3.30
  -4   0  -9   91.79    3.70
  -4   0  -9   86.59    6.30
   4   0   9   86.79    3.60
   4   0   9   80.69    3.60
   4   0   9   89.79    3.60
  -5   0  -9   31.10    2.50
  -5   0  -9   30.80    2.40
  -5   0  -9   26.30    4.70
  -5   0  -9   25.50    2.20
  -5   0  -9   32.20    4.90
   5   0   9   29.90    2.30
   5   0   9   28.60    2.80
  -6   0  -9    4.50    1.60
  -6   0  -9    1.90    2.10
  -6   0  -9    6.30    1.60
   6   0   9    4.50    2.20
   6   0   9    4.60    1.60
  -7   0  -9    7.70    2.00
  -7   0  -9    7.50    1.80
  -7   0  -9   16.10    3.70
   7   0   9   10.00    1.90
   7  -1  -9   -0.50    1.20
   7  -1  -9   -2.70    2.20
  -7   1   9   -0.40    1.40
   6  -1  -9   -0.10    1.10
   6  -1  -9    0.10    1.80
  -6   1   9    0.40    1.40
  -6   1   9    1.30    2.00
  -6   1   9   -0.50    1.50
   5  -1  -9   20.80    2.50
   5  -1  -9   20.40    2.00
  -5   1   9   20.80    2.60
  -5   1   9   21.50    3.80
  -5   1   9   27.40    4.60
  -5   1   9   20.60    2.40
   4  -1  -9    7.80    1.40
   4  -1  -9    9.80    1.50
   4  -1  -9   11.40    2.10
  -4   1   9   12.70    1.90
  -4   1   9   16.30    4.00
  -4   1   9    8.40    1.70
  -4   1   9    8.40    1.40
   3  -1  -9    3.70    1.10
   3  -1  -9    3.00    1.00
   3  -1  -9    2.50    1.00
  -3   1   9    0.50    1.30
  -3   1   9    2.60    1.20
  -3   1   9    2.30    0.90
  -3   1   9    3.30    1.20
  -3   1   9    2.50    1.00
  -3   1   9    2.20    1.10
   2  -1  -9   13.30    1.40
   2  -1  -9   14.80    1.40
   2  -1  -9   13.70    1.40
  -2   1   9   13.30    1.60
  -2   1   9   15.30    2.50
  -2   1   9   12.90    1.40
  -2   1   9   14.80    2.80
  -2   1   9   12.80    1.40
   1  -1  -9   34.60    1.90
   1  -1  -9   36.80    1.90
   1  -1  -9   40.10    3.80
   1  -1  -9   37.40    2.10
  -1   1   9   38.40    2.00
  -1   1   9   40.00    2.20
  -1   1   9   40.80    3.50
  -1   1   9   40.70    2.90
  -1   1   9   38.60    2.00
   0  -1  -9  189.08    6.40
   0  -1  -9  193.98    8.50
   0  -1  -9  184.78    4.80
   0  -1  -9  189.08    6.70
   0  -1  -9  198.38    5.40
   0   1   9  187.48    8.00
   0   1   9  190.48    5.00
   0   1   9  194.38    5.50
  -1  -1  -9   20.60    1.50
  -1  -1  -9   21.80    3.10
  -1  -1  -9   22.10    1.70
  -1  -1  -9   20.40    2.10
  -1  -1  -9   20.80    2.10
   1   1   9   22.20    1.60
   1   1   9   21.60    1.80
   1   1   9   23.10    1.80
   1   1   9   24.60    3.20
  -2  -1  -9    8.00    1.30
  -2  -1  -9    9.40    1.20
  -2  -1  -9    5.20    1.20
   2   1   9    7.80    1.10
   2   1   9    8.60    1.50
   2   1   9    8.50    1.30
   2   1   9    7.90    1.40
   2   1   9    6.30    1.60
  -3  -1  -9    5.50    1.20
  -3  -1  -9    5.10    1.20
  -3  -1  -9    5.20    1.20
  -3  -1  -9    5.10    1.10
  -3  -1  -9    2.20    1.10
  -3  -1  -9    2.40    1.20
   3   1   9    5.10    1.20
   3   1   9    3.60    1.10
   3   1   9    6.50    1.30
   3   1   9    4.50    1.10
  -4  -1  -9  441.16   14.10
  -4  -1  -9  473.25   11.00
  -4  -1  -9  450.85   17.00
  -4  -1  -9  474.95   16.80
  -4  -1  -9  447.66   10.20
  -4  -1  -9  458.25   11.20
   4   1   9  486.65   10.60
   4   1   9  440.56   10.40
   4   1   9  462.35   11.30
  -5  -1  -9    1.50    1.10
  -5  -1  -9    0.50    1.60
  -5  -1  -9    4.20    1.50
  -5  -1  -9    2.70    1.10
  -5  -1  -9    2.60    1.40
   5   1   9    5.70    1.50
   5   1   9    4.40    1.50
  -6  -1  -9    9.10    2.90
  -6  -1  -9   13.30    2.30
  -6  -1  -9   16.70    2.20
   6   1   9   20.60    2.50
  -7  -1  -9    1.10    1.20
  -7  -1  -9    0.20    1.60
  -7  -1  -9   -1.00    1.30
  -7  -1  -9   -4.30    2.20
   7   1   9   -0.80    1.40
   7  -2  -9    1.10    2.30
  -7   2   9    1.50    1.50
   6  -2  -9    2.10    1.20
   6  -2  -9    3.80    2.30
  -6   2   9    1.30    1.60
  -6   2   9    1.70    1.40
  -6   2   9    1.90    1.80
   5  -2  -9   16.50    1.80
   5  -2  -9   12.60    2.50
  -5   2   9   17.70    2.20
  -5   2   9   14.60    2.10
  -5   2   9   20.10    4.70
   4  -2  -9   39.90    3.00
   4  -2  -9   39.90    2.20
  -4   2   9   44.20    2.70
  -4   2   9   42.40    4.10
  -4   2   9   39.00    2.50
  -4   2   9   35.90    4.60
   3  -2  -9   32.50    1.90
   3  -2  -9   34.00    1.90
   3  -2  -9   33.80    2.50
   3  -2  -9   34.50    2.10
  -3   2   9   35.10    2.00
  -3   2   9   32.50    2.00
  -3   2   9   35.10    2.30
  -3   2   9   35.70    3.40
  -3   2   9   33.20    4.00
   2  -2  -9   43.60    2.10
   2  -2  -9   46.30    2.20
   2  -2  -9   45.50    2.10
  -2   2   9   48.30    2.50
  -2   2   9   46.20    2.10
  -2   2   9   44.40    2.20
  -2   2   9   44.90    4.00
  -2   2   9   50.19    3.30
   1  -2  -9  137.39    4.20
   1  -2  -9  136.19    3.90
   1  -2  -9  140.79    5.30
   1  -2  -9  135.49    3.90
  -1   2   9  130.89    6.70
  -1   2   9  134.79    3.90
  -1   2   9  132.99    4.30
  -1   2   9  139.39    5.30
  -1   2   9  137.39    4.20
   0  -2  -9    5.40    1.00
   0  -2  -9    6.70    1.20
   0  -2  -9    2.70    0.60
   0  -2  -9    3.80    0.80
   0  -2  -9    5.00    1.00
   0   2   9    5.30    1.00
   0   2   9    5.80    1.10
   0   2   9    5.80    1.20
   0   2   9    4.10    1.10
   0   2   9    3.50    1.20
  -1  -2  -9  267.77    9.10
  -1  -2  -9  261.87   10.60
  -1  -2  -9  255.27    8.10
  -1  -2  -9  262.77    6.80
  -1  -2  -9  251.27    6.20
   1   2   9  256.67    8.90
   1   2   9  254.77    8.80
   1   2   9  265.67    7.00
   1   2   9  257.77   10.30
   1   2   9  261.97    6.40
  -2  -2  -9   82.09    5.20
  -2  -2  -9   79.39    3.90
  -2  -2  -9   81.29    3.00
  -2  -2  -9   82.59    4.60
  -2  -2  -9   81.69    3.30
  -2  -2  -9   75.79    3.10
   2   2   9   81.89    5.20
   2   2   9   87.49    3.60
   2   2   9   82.79    3.10
   2   2   9   84.29    4.10
  -3  -2  -9  332.77   13.00
  -3  -2  -9  324.97    8.50
  -3  -2  -9  338.87   12.40
  -3  -2  -9  326.47   11.00
  -3  -2  -9  336.17    8.40
  -3  -2  -9  323.57    7.80
   3   2   9  318.17    7.90
   3   2   9  337.17    8.80
   3   2   9  333.67   11.10
  -4  -2  -9  123.19    4.70
  -4  -2  -9  128.89    4.70
  -4  -2  -9  119.39    4.20
  -4  -2  -9  121.59    7.30
  -4  -2  -9  121.79    7.00
   4   2   9  124.09    4.70
   4   2   9  128.79    4.50
   4   2   9  123.99    6.10
  -5  -2  -9    0.20    1.00
  -5  -2  -9    0.10    0.80
  -5  -2  -9    0.70    1.40
  -5  -2  -9    0.70    1.30
  -5  -2  -9   -0.20    1.60
   5   2   9   -0.90    1.30
   5   2   9    0.00    1.30
  -6  -2  -9   -0.20    1.40
  -6  -2  -9   -2.00    1.70
  -6  -2  -9    0.30    1.00
  -6  -2  -9    0.90    1.40
   6   2   9    0.00    1.50
  -7  -2  -9    7.90    2.10
  -7  -2  -9    4.80    1.60
  -7  -2  -9    5.30    1.90
  -7  -2  -9   -0.50    2.50
   7   2   9    7.30    2.00
   7  -3  -9    2.00    2.40
   6  -3  -9    4.00    2.40
  -6   3   9    0.20    1.40
  -6   3   9    3.70    1.40
  -6   3   9    3.90    2.30
   5  -3  -9   16.70    3.10
   5  -3  -9   15.50    1.60
  -5   3   9   16.50    2.00
  -5   3   9   14.10    2.00
  -5   3   9   16.20    3.30
  -5   3   9   19.00    4.40
   4  -3  -9   14.90    1.50
   4  -3  -9   13.00    2.30
  -4   3   9   12.40    2.90
  -4   3   9   14.20    1.80
  -4   3   9    9.00    2.30
  -4   3   9   13.00    1.80
   3  -3  -9   22.20    2.30
   3  -3  -9   20.00    1.40
   3  -3  -9   21.70    1.60
  -3   3   9   21.00    1.80
  -3   3   9   17.70    1.20
  -3   3   9   18.10    1.50
  -3   3   9   22.10    2.80
  -3   3   9   20.30    3.60
   2  -3  -9    1.20    0.70
   2  -3  -9    1.10    0.80
   2  -3  -9    0.40    0.80
  -2   3   9    0.50    0.30
  -2   3   9    1.00    1.00
  -2   3   9    0.90    0.70
  -2   3   9    0.30    0.70
  -2   3   9    2.00    1.20
  -2   3   9    1.50    0.80
   1  -3  -9    6.10    1.10
   1  -3  -9    5.40    1.00
   1  -3  -9    5.00    1.00
   1  -3  -9    5.70    1.10
  -1   3   9    3.40    1.40
  -1   3   9    4.60    1.00
  -1   3   9    4.70    1.10
  -1   3   9    6.60    1.50
  -1   3   9    5.10    1.00
   0  -3  -9   51.89    2.40
   0  -3  -9   51.19    2.20
   0  -3  -9   50.99    2.90
   0  -3  -9   50.69    2.40
   0  -3  -9   50.29    2.20
   0   3   9   54.69    3.80
   0   3   9   50.99    2.80
   0   3   9   50.79    2.30
   0   3   9   48.30    2.50
   0   3   9   51.19    2.40
   0   3   9   52.19    4.20
  -1  -3  -9   60.19    3.70
  -1  -3  -9   59.19    2.70
  -1  -3  -9   55.89    2.50
  -1  -3  -9   58.69    2.50
  -1  -3  -9   60.69    2.80
   1   3   9   60.09    4.70
   1   3   9   59.39    2.60
   1   3   9   58.79    3.80
   1   3   9   56.79    3.80
   1   3   9   61.29    2.90
  -2  -3  -9  141.79    4.70
  -2  -3  -9  135.19    4.20
  -2  -3  -9  142.59    6.60
  -2  -3  -9  138.39    4.40
   2   3   9  136.19    4.30
   2   3   9  137.09    7.10
   2   3   9  142.39    6.20
   2   3   9  139.19    4.80
  -3  -3  -9   69.99    3.10
  -3  -3  -9   66.99    5.00
  -3  -3  -9   74.19    3.40
  -3  -3  -9   72.09    3.30
   3   3   9   73.69    3.30
   3   3   9   75.89    4.90
   3   3   9   75.99    3.60
  -4  -3  -9  157.78    5.40
  -4  -3  -9  156.28    5.10
  -4  -3  -9  162.08    5.70
  -4  -3  -9  159.68    8.70
   4   3   9  156.48    7.50
   4   3   9  163.68    5.80
   4   3   9  154.18    5.20
  -5  -3  -9   24.20    2.30
  -5  -3  -9   20.60    4.50
  -5  -3  -9   26.90    3.20
  -5  -3  -9   27.70    2.50
  -5  -3  -9   29.30    2.90
   5   3   9   25.10    2.60
   5   3   9   28.50    2.70
  -6  -3  -9    2.50    1.30
  -6  -3  -9    1.50    1.60
  -6  -3  -9   -2.30    1.70
  -6  -3  -9    1.70    1.10
  -6  -3  -9    1.80    1.60
   6   3   9    3.20    1.70
  -7  -3  -9   -0.50    1.50
  -7  -3  -9   -1.60    1.40
  -7  -3  -9    0.80    1.20
   7   3   9   -1.30    1.70
   7  -4  -9    1.20    2.50
   6  -4  -9    3.90    2.40
  -6   4   9   -0.30    1.30
  -6   4   9    3.10    2.30
   5  -4  -9   21.10    1.40
   5  -4  -9   17.90    2.90
  -5   4   9   18.90    3.80
  -5   4   9   24.50    4.80
  -5   4   9   24.30    2.00
   4  -4  -9    0.30    0.80
   4  -4  -9    1.10    1.70
  -4   4   9   -0.40    1.60
  -4   4   9    1.30    1.00
  -4   4   9   -1.00    0.80
   3  -4  -9   -0.20    1.30
   3  -4  -9    0.10    0.70
  -3   4   9   -0.10    0.90
  -3   4   9   -0.10    0.70
  -3   4   9    0.30    1.30
   2  -4  -9   23.10    1.50
   2  -4  -9   28.40    1.70
   2  -4  -9   27.90    1.70
  -2   4   9   28.40    2.40
  -2   4   9   28.30    2.00
  -2   4   9   20.80    2.00
  -2   4   9   29.20    3.70
  -2   4   9   22.50    1.70
  -2   4   9   25.90    1.60
   1  -4  -9  101.19    3.30
   1  -4  -9  102.49    3.40
   1  -4  -9   99.29    3.30
  -1   4   9  103.79    3.80
  -1   4   9   96.49    3.40
  -1   4   9  102.19    3.70
  -1   4   9   94.89    4.30
  -1   4   9  101.99    6.20
  -1   4   9  103.69    3.30
  -1   4   9  103.19    5.90
   0  -4  -9   65.39    2.70
   0  -4  -9   62.39    2.50
   0  -4  -9   62.99    2.70
   0   4   9   65.09    4.50
   0   4   9   64.19    4.90
   0   4   9   61.29    2.90
   0   4   9   60.69    3.50
   0   4   9   64.29    2.60
  -1  -4  -9   -0.40    0.80
  -1  -4  -9    1.10    1.00
  -1  -4  -9    1.40    0.90
  -1  -4  -9    0.70    0.90
   1   4   9    2.70    1.10
   1   4   9    3.20    1.40
   1   4   9    1.60    1.00
   1   4   9    1.00    1.10
  -2  -4  -9  270.47    6.90
  -2  -4  -9  266.87   10.50
  -2  -4  -9  268.17    8.20
  -2  -4  -9  273.57    7.30
  -2  -4  -9  281.97    7.60
   2   4   9  273.57    7.80
   2   4   9  270.37   11.10
   2   4   9  273.77    7.10
   2   4   9  280.77   10.50
  -3  -4  -9  207.78    7.40
  -3  -4  -9  212.18    6.10
  -3  -4  -9  223.38    6.80
  -3  -4  -9  213.38    6.40
  -3  -4  -9  213.08    9.60
   3   4   9  215.48    6.30
   3   4   9  215.28    9.20
   3   4   9  222.58    7.00
  -4  -4  -9   23.70    2.50
  -4  -4  -9   23.60    2.20
  -4  -4  -9   24.80    2.40
  -4  -4  -9   17.40    4.40
  -4  -4  -9   21.30    2.50
   4   4   9   27.90    2.70
   4   4   9   24.10    2.40
   4   4   9   18.80    4.20
  -5  -4  -9    9.70    2.20
  -5  -4  -9    2.50    2.00
  -5  -4  -9    4.70    1.30
  -5  -4  -9    7.90    1.90
  -5  -4  -9    6.40    1.70
   5   4   9    2.90    2.40
   5   4   9    8.30    2.00
   5   4   9   10.50    2.30
  -6  -4  -9    2.20    1.20
  -6  -4  -9    4.40    1.70
  -6  -4  -9    3.40    1.70
  -6  -4  -9    0.70    2.20
  -6  -4  -9    3.00    2.00
   6   4   9    3.50    2.00
   6   4   9    2.30    1.70
  -7  -4  -9    0.00    1.10
  -7  -4  -9   -0.90    1.60
  -7  -4  -9   -0.40    1.70
   7   4   9   -1.70    2.00
   6  -5  -9   11.60    3.20
   5  -5  -9    3.30    2.20
  -5   5   9    3.20    2.10
   4  -5  -9    4.40    0.80
   4  -5  -9    4.50    2.00
  -4   5   9    4.40    1.20
  -4   5   9    1.80    1.70
   3  -5  -9   24.50    1.60
   3  -5  -9   19.40    2.60
  -3   5   9   22.70    3.80
  -3   5   9   23.50    1.90
  -3   5   9   24.20    4.40
  -3   5   9   21.10    2.60
   2  -5  -9    9.10    1.40
   2  -5  -9    6.70    1.80
  -2   5   9    3.80    0.80
  -2   5   9    8.10    1.50
  -2   5   9    6.60    2.20
  -2   5   9    4.60    1.70
   1  -5  -9    4.80    1.00
   1  -5  -9    6.20    1.20
   1  -5  -9    5.70    1.10
  -1   5   9    6.70    1.90
  -1   5   9    4.80    1.10
  -1   5   9    7.40    2.00
  -1   5   9    8.30    1.50
  -1   5   9    6.40    1.20
   0  -5  -9    0.70    1.00
   0  -5  -9    1.80    1.00
   0  -5  -9    1.10    0.80
   0   5   9    1.70    0.90
   0   5   9    0.50    1.20
   0   5   9    0.50    1.00
   0   5   9    0.20    1.20
  -1  -5  -9    0.00    1.00
  -1  -5  -9   -0.50    0.90
  -1  -5  -9   -0.20    0.90
  -1  -5  -9    0.40    1.00
   1   5   9    0.90    1.10
   1   5   9    1.60    1.50
   1   5   9   -0.80    0.90
   1   5   9   -0.30    1.20
  -2  -5  -9  101.79    3.30
  -2  -5  -9  106.29    4.00
  -2  -5  -9  109.39    6.30
  -2  -5  -9  109.29    4.10
  -2  -5  -9  111.39    4.40
   2   5   9  108.39    4.10
   2   5   9  110.69    4.60
   2   5   9  110.59    6.80
   2   5   9  106.89    6.50
  -3  -5  -9   93.79    3.90
  -3  -5  -9   96.39    4.30
  -3  -5  -9   83.99    3.90
  -3  -5  -9   89.79    6.20
  -3  -5  -9   93.59    4.00
   3   5   9   92.59    4.00
   3   5   9   97.19    6.40
   3   5   9   95.09    4.50
  -4  -5  -9    0.00    1.60
  -4  -5  -9   -1.10    1.30
  -4  -5  -9    0.40    1.30
  -4  -5  -9   -0.30    1.00
  -4  -5  -9    0.10    0.60
   4   5   9   -2.00    1.80
   4   5   9    0.10    1.50
   4   5   9   -0.30    1.40
  -5  -5  -9   11.90    2.50
  -5  -5  -9    8.50    2.00
  -5  -5  -9    5.10    1.30
  -5  -5  -9    3.90    2.20
  -5  -5  -9    4.60    1.80
   5   5   9    7.20    2.10
   5   5   9   12.10    2.50
   5   5   9    0.30    2.60
  -6  -5  -9   -2.30    2.00
  -6  -5  -9   -0.40    0.90
  -6  -5  -9   -2.60    1.50
  -6  -5  -9    0.40    1.60
  -6  -5  -9   -2.00    1.50
   6   5   9    0.10    1.90
   6   5   9   -2.40    1.70
   6  -6  -9    1.80    2.40
   5  -6  -9    3.60    2.40
  -5   6   9    4.80    2.50
  -5   6   9    3.80    2.10
   4  -6  -9    4.00    2.20
  -4   6   9    4.90    2.20
  -4   6   9    3.20    2.20
  -4   6   9    5.90    1.20
   3  -6  -9   10.20    1.30
   3  -6  -9   13.30    2.60
  -3   6   9   11.80    1.60
  -3   6   9    8.10    2.50
  -3   6   9    6.50    2.00
   2  -6  -9    2.80    1.00
   2  -6  -9    3.20    1.80
  -2   6   9    2.40    1.70
  -2   6   9    0.70    1.40
  -2   6   9    1.80    1.20
   1  -6  -9    5.60    1.30
  -1   6   9    6.00    1.40
  -1   6   9    3.00    1.70
  -1   6   9    4.40    1.80
   0  -6  -9   14.80    1.60
   0  -6  -9   17.20    1.80
   0   6   9   15.60    2.00
   0   6   9   15.10    1.60
   0   6   9   11.00    2.50
  -1  -6  -9  112.89    4.40
  -1  -6  -9  111.79    4.10
  -1  -6  -9  110.99    4.10
   1   6   9  119.09    7.00
   1   6   9  105.59    4.00
   1   6   9  101.89    6.80
   1   6   9  111.29    4.60
  -2  -6  -9  127.49    7.40
  -2  -6  -9  122.89    4.90
  -2  -6  -9  118.29    4.50
  -2  -6  -9  125.49    4.70
   2   6   9  127.99    4.80
   2   6   9  119.59    7.30
   2   6   9  126.89    5.20
   2   6   9  121.89    7.40
  -3  -6  -9   41.80    4.90
  -3  -6  -9   43.40    3.10
  -3  -6  -9   49.30    3.10
  -3  -6  -9   55.79    3.80
   3   6   9   45.20    3.50
   3   6   9   51.19    3.40
   3   6   9   39.10    5.40
  -4  -6  -9    1.50    1.70
  -4  -6  -9    0.40    1.30
  -4  -6  -9    0.30    1.40
  -4  -6  -9   -1.30    1.50
   4   6   9    0.30    1.70
   4   6   9    1.30    1.60
   4   6   9   -3.90    2.20
  -5  -6  -9    0.30    1.80
  -5  -6  -9   -0.10    1.40
  -5  -6  -9   -1.20    1.40
  -5  -6  -9   -2.00    1.90
   5   6   9   -1.40    1.70
   5   6   9    0.20    1.80
  -6  -6  -9    4.30    2.00
  -6  -6  -9   -1.30    2.20
  -6  -6  -9    3.60    2.10
  -6  -6  -9    4.70    2.30
   6   6   9    3.10    2.40
   6   6   9    5.20    2.30
   5  -7  -9    9.80    3.10
  -5   7   9    4.30    2.10
   4  -7  -9    4.60    2.30
  -4   7   9    1.10    1.70
  -4   7   9    4.00    2.30
   3  -7  -9    0.40    0.80
   3  -7  -9    2.00    1.90
  -3   7   9    0.60    1.60
  -3   7   9    0.50    1.80
  -3   7   9    0.90    1.00
   2  -7  -9   10.60    1.50
   2  -7  -9   12.80    2.50
  -2   7   9   11.00    1.90
  -2   7   9    5.60    2.10
  -2   7   9   10.80    3.00
   1  -7  -9    3.30    1.60
   1  -7  -9    2.50    1.20
  -1   7   9    1.40    1.80
  -1   7   9    2.10    1.30
  -1   7   9    0.90    1.60
   0  -7  -9    4.50    1.50
   0   7   9    2.70    1.90
   0   7   9    1.40    1.80
   0   7   9    3.80    1.50
  -1  -7  -9   35.00    2.70
  -1  -7  -9   36.00    2.50
  -1  -7  -9   37.10    2.70
   1   7   9   35.80    2.90
   1   7   9   25.10    4.60
   1   7   9   37.10    2.70
   1   7   9   34.30    4.80
  -2  -7  -9   15.70    2.20
  -2  -7  -9   17.00    2.60
  -2  -7  -9   15.30    2.60
   2   7   9    9.70    2.70
   2   7   9   18.40    2.60
   2   7   9   20.80    2.60
  -3  -7  -9   18.30    4.10
  -3  -7  -9   16.10    2.60
  -3  -7  -9   16.10    2.30
  -3  -7  -9   14.80    2.40
   3   7   9    9.60    3.20
   3   7   9   15.00    2.90
   3   7   9   18.00    2.60
  -4  -7  -9    9.60    2.50
  -4  -7  -9    3.70    2.20
  -4  -7  -9    8.80    2.20
  -4  -7  -9   11.60    2.20
   4   7   9    9.00    2.50
   4   7   9    6.50    2.10
  -5  -7  -9    0.50    2.10
  -5  -7  -9    0.40    1.90
  -5  -7  -9    0.90    1.70
  -5  -7  -9    1.30    1.60
   5   7   9    0.70    2.00
   5   7   9   -0.10    2.00
  -6  -7  -9    0.60    2.30
   6   7   9    2.30    2.40
   5  -8  -9    2.20    2.60
   4  -8  -9   -0.30    2.30
   3  -8  -9    2.20    2.00
  -3   8   9    0.80    1.80
  -3   8   9    4.30    2.50
   2  -8  -9    8.70    2.30
   2  -8  -9    7.90    1.50
  -2   8   9    3.70    2.50
  -2   8   9    9.60    1.80
   1  -8  -9    5.30    1.90
   1  -8  -9    3.90    1.40
  -1   8   9    2.50    2.20
  -1   8   9    4.20    1.70
   0  -8  -9   10.50    1.90
   0  -8  -9   14.20    2.20
   0   8   9   15.40    2.60
   0   8   9   10.70    3.10
  -1  -8  -9   64.79    3.40
  -1  -8  -9   68.39    3.80
   1   8   9   63.19    6.60
   1   8   9   67.49    4.10
  -2  -8  -9   14.30    2.40
  -2  -8  -9   16.00    2.30
  -2  -8  -9   11.20    2.10
   2   8   9   11.30    2.60
   2   8   9    4.90    3.10
   2   8   9    9.50    2.00
  -3  -8  -9    1.60    1.50
  -3  -8  -9    0.70    1.70
  -3  -8  -9    0.90    1.60
   3   8   9    0.20    1.60
   3   8   9    1.40    2.00
   3   8   9   -2.90    2.80
  -4  -8  -9    3.20    1.90
  -4  -8  -9   -1.00    1.90
  -4  -8  -9    2.10    1.50
   4   8   9    3.00    2.20
   4   8   9   -0.40    2.00
  -5  -8  -9   -2.20    1.90
   5   8   9   -1.60    1.90
   5   8   9   -0.50    2.20
   4  -9  -9    5.70    2.70
   3  -9  -9    4.30    2.60
   2  -9  -9    1.90    2.00
  -2   9   9    1.30    2.50
  -2   9   9    2.00    1.40
   1  -9  -9    7.20    2.30
  -1   9   9    7.20    3.20
  -1   9   9    8.40    2.00
   0  -9  -9   23.20    2.60
   0  -9  -9   23.90    2.80
   0   9   9   13.00    3.50
   0   9   9   22.40    2.70
  -1  -9  -9   19.00    2.80
   1   9   9   20.60    3.20
  -2  -9  -9    1.00    1.30
  -2  -9  -9   -0.60    1.70
   2   9   9    3.80    2.20
   2   9   9   -5.00    2.50
  -3  -9  -9    1.50    1.40
   3   9   9   -0.60    2.00
  -4  -9  -9    2.70    1.90
   4   9   9    1.10    1.90
   2 -10  -9    0.00    2.20
   1 -10  -9    5.40    2.20
   1 -10  -9    1.40    1.50
  -1  10   9    3.10    1.80
   0 -10  -9   23.20    2.90
   0  10   9   23.50    3.40
  -3 -10  -9   -1.60    1.30
   1  -9  10   -1.20    2.10
   1   8 -10    0.80    2.60
   0   8 -10   -2.00    2.20
   1  -8  10    0.00    1.90
   1  -8  10    2.70    2.30
   2  -8  10    1.20    2.20
   2  -8  10   -1.50    1.70
   3  -8  10   -0.30    2.20
  -4  -7  10    1.50    2.50
   3   7 -10    2.60    2.50
   3   7 -10    0.10    1.80
  -3  -7  10   -0.30    1.90
  -3  -7  10    0.70    2.20
   2   7 -10    3.10    2.20
   2   7 -10    1.30    1.80
  -2  -7  10    3.10    2.10
  -2  -7  10   -0.40    1.90
   1   7 -10   -0.40    1.60
  -1  -7  10    0.30    1.90
   0   7 -10   -1.10    2.10
   0   7 -10    3.20    2.00
   0  -7  10    1.50    2.00
  -1   7 -10    2.40    2.10
  -1   7 -10    6.50    2.10
   1  -7  10    4.10    2.00
   1  -7  10    4.80    2.30
  -2   7 -10    5.80    1.90
  -2   7 -10    2.40    2.20
   2  -7  10    5.30    2.30
   2  -7  10    5.50    1.90
  -3   7 -10    1.30    1.40
   3  -7  10    3.00    1.50
   3  -7  10    0.10    1.90
  -4   7 -10    1.30    1.40
   4  -7  10    1.50    2.10
   5   6 -10   -0.80    1.80
   4   6 -10    0.70    1.90
   4   6 -10    0.20    2.00
  -4  -6  10   -0.70    2.00
  -4  -6  10   -2.70    1.70
  -4  -6  10   -0.10    2.10
   3   6 -10    3.40    1.90
   3   6 -10    5.10    2.40
  -3  -6  10    2.30    1.90
  -3  -6  10    5.10    2.20
  -3  -6  10    4.30    2.20
   2   6 -10   39.40    3.20
   2   6 -10   43.60    3.70
   2   6 -10   27.30    6.40
  -2  -6  10   34.80    3.50
  -2  -6  10   36.80    3.40
   1   6 -10   18.60    3.00
   1   6 -10   17.20    2.60
  -1  -6  10   15.40    2.60
  -1  -6  10   19.90    3.00
   0   6 -10    4.00    2.00
   0   6 -10    3.30    1.50
   0   6 -10    0.20    1.70
   0  -6  10    3.90    2.00
  -1   6 -10   -0.90    1.60
  -1   6 -10    1.70    1.60
   1  -6  10    1.60    1.70
  -2   6 -10    3.60    1.60
  -2   6 -10   -0.50    1.60
   2  -6  10    3.90    2.10
   2  -6  10    2.70    1.60
  -3   6 -10    6.20    1.80
  -3   6 -10    0.80    1.80
   3  -6  10    3.00    1.50
   3  -6  10    6.70    2.30
  -4   6 -10   -2.20    1.70
  -4   6 -10    0.30    1.40
   4  -6  10    1.80    2.10
   4  -6  10   -0.50    1.20
   5  -6  10    0.30    2.10
   5   5 -10    0.70    1.90
   5   5 -10   -1.00    1.80
  -5  -5  10   -4.00    1.90
  -5  -5  10   -1.40    2.30
  -5  -5  10   -2.90    2.10
   4   5 -10   -0.40    1.70
   4   5 -10   -1.20    1.70
  -4  -5  10   -2.70    1.60
  -4  -5  10   -2.60    1.70
  -4  -5  10    1.30    2.10
   3   5 -10    0.70    1.70
   3   5 -10    2.90    1.70
  -3  -5  10    1.50    1.90
  -3  -5  10    1.80    1.80
  -3  -5  10   -1.10    1.40
   2   5 -10   21.20    2.80
   2   5 -10   23.70    2.60
  -2  -5  10   18.20    4.20
  -2  -5  10   21.30    2.80
  -2  -5  10   23.70    2.80
   1   5 -10    2.30    1.60
   1   5 -10    3.80    1.80
   1   5 -10    5.60    1.60
  -1  -5  10    4.50    1.80
  -1  -5  10    5.10    1.90
   0   5 -10    0.50    1.50
   0   5 -10    1.10    1.40
   0   5 -10   -0.50    1.10
   0  -5  10    0.20    1.50
   0  -5  10    1.20    1.60
  -1   5 -10   55.59    6.40
  -1   5 -10   50.09    2.80
  -1   5 -10   54.49    3.40
   1  -5  10   52.09    3.20
   1  -5  10   49.40    3.20
  -2   5 -10   -0.50    1.40
  -2   5 -10    1.00    1.30
   2  -5  10    0.10    1.40
   2  -5  10    0.60    1.60
  -3   5 -10   -0.60    1.40
  -3   5 -10    1.70    1.30
   3  -5  10    1.30    1.70
   3  -5  10    1.00    1.30
  -4   5 -10    1.70    1.50
  -4   5 -10   -0.20    1.20
  -4   5 -10   -2.40    1.50
   4  -5  10    0.10    1.90
   4  -5  10   -0.70    1.20
  -5   5 -10   20.20    2.30
   5  -5  10   23.00    3.40
   6  -5  10    5.20    2.70
   5   4 -10    0.30    1.80
   5   4 -10   -0.20    1.60
  -5  -4  10   -2.70    1.60
  -5  -4  10   -0.50    2.30
  -5  -4  10   -0.20    1.80
   4   4 -10    1.80    1.70
   4   4 -10    1.60    1.70
  -4  -4  10    0.10    1.90
  -4  -4  10    1.70    1.30
  -4  -4  10    0.00    1.60
  -4  -4  10   -1.00    1.40
   3   4 -10    1.70    1.50
   3   4 -10    0.20    1.50
  -3  -4  10    0.00    1.00
  -3  -4  10    0.50    1.70
  -3  -4  10   -1.30    1.40
  -3  -4  10    0.20    1.50
   2   4 -10  106.09    4.80
   2   4 -10  101.39    7.10
   2   4 -10  108.29    4.40
  -2  -4  10  105.69    4.50
  -2  -4  10   97.79    5.30
  -2  -4  10  102.89    6.90
  -2  -4  10  109.39    5.00
  -2  -4  10  113.89    4.70
   1   4 -10    4.90    1.50
   1   4 -10    2.80    1.50
   1   4 -10    1.60    1.40
  -1  -4  10    3.20    1.60
  -1  -4  10    4.30    1.60
  -1  -4  10    1.60    1.10
  -1  -4  10    6.20    1.90
   0   4 -10    2.20    1.30
   0   4 -10    1.30    1.40
   0   4 -10    0.30    1.20
   0  -4  10    3.50    1.60
   0  -4  10    1.40    1.30
   0  -4  10    4.90    1.60
  -1   4 -10   40.30    2.50
  -1   4 -10   43.10    2.90
  -1   4 -10   42.30    5.40
   1  -4  10   40.50    2.70
   1  -4  10   44.80    2.60
   1  -4  10   41.70    2.90
  -2   4 -10    3.50    1.30
  -2   4 -10    3.70    1.10
   2  -4  10    5.80    1.70
   2  -4  10    5.60    1.70
   2  -4  10    4.80    1.10
   2  -4  10    6.00    1.50
  -3   4 -10    6.60    1.60
  -3   4 -10    4.70    1.80
   3  -4  10    8.70    1.70
   3  -4  10    6.70    2.00
  -4   4 -10    0.40    1.10
  -4   4 -10   -1.80    1.40
  -4   4 -10    2.70    1.60
   4  -4  10    1.80    1.80
   4  -4  10   -0.60    1.20
  -5   4 -10    1.80    1.80
  -5   4 -10    1.10    1.30
   5  -4  10    1.50    1.30
   5  -4  10    3.40    2.20
   6  -4  10   30.20    3.90
   7  -4  10    5.70    3.10
  -6  -3  10    1.20    1.80
   5   3 -10    0.00    1.50
   5   3 -10   -0.80    1.30
  -5  -3  10   -3.00    1.50
  -5  -3  10    0.60    1.40
  -5  -3  10   -0.50    1.80
  -5  -3  10   -0.10    1.50
   4   3 -10    0.90    1.50
   4   3 -10    1.30    1.60
  -4  -3  10    0.90    1.40
  -4  -3  10    1.10    1.80
  -4  -3  10    0.10    1.50
  -4  -3  10    0.00    1.50
   3   3 -10   21.90    2.40
   3   3 -10   21.70    2.70
  -3  -3  10   24.30    3.30
  -3  -3  10   18.50    4.00
  -3  -3  10   21.80    2.60
  -3  -3  10   18.00    2.60
  -3  -3  10   23.50    2.80
   2   3 -10   45.10    3.10
   2   3 -10   36.60    2.60
   2   3 -10   32.30    4.80
  -2  -3  10   39.00    3.70
  -2  -3  10   35.30    4.30
  -2  -3  10   38.80    2.90
  -2  -3  10   37.40    2.90
  -2  -3  10   40.80    3.20
   1   3 -10   54.59    3.20
   1   3 -10   52.09    5.40
   1   3 -10   54.19    3.10
  -1  -3  10   51.19    4.50
  -1  -3  10   49.99    3.00
  -1  -3  10   50.69    3.10
  -1  -3  10   54.69    3.40
  -1  -3  10   51.99    4.00
   0   3 -10   11.40    1.70
   0   3 -10   11.30    1.80
   0  -3  10   10.70    1.80
   0  -3  10   12.50    2.00
   0  -3  10   11.50    2.80
   0  -3  10   12.60    1.90
   0  -3  10   12.50    2.00
  -1   3 -10   38.80    2.50
  -1   3 -10   38.60    2.70
  -1   3 -10   41.40    5.00
   1  -3  10   40.60    2.40
   1  -3  10   37.00    2.60
   1  -3  10   37.80    2.70
  -2   3 -10   28.00    2.40
  -2   3 -10   26.40    1.90
  -2   3 -10   27.40    4.70
   2  -3  10   28.30    2.00
   2  -3  10   28.00    2.40
   2  -3  10   30.60    2.40
   2  -3  10   23.00    2.20
  -3   3 -10   16.80    3.30
  -3   3 -10   13.20    2.00
  -3   3 -10   12.40    1.60
   3  -3  10   13.50    2.00
   3  -3  10   13.70    1.80
   3  -3  10   13.80    1.50
   3  -3  10   15.60    2.00
  -4   3 -10   32.80    2.50
  -4   3 -10   28.10    5.40
  -4   3 -10   34.80    4.50
   4  -3  10   30.90    2.30
   4  -3  10   26.50    2.80
  -5   3 -10   24.10    2.40
  -5   3 -10   22.40    4.50
   5  -3  10   21.80    3.00
   5  -3  10   28.70    2.40
  -6   3 -10    4.10    2.30
  -6   3 -10    3.80    1.50
   6  -3  10    3.30    1.30
   6  -3  10    3.70    2.40
   7  -3  10    2.00    2.70
   6   2 -10   -1.90    1.50
  -6  -2  10   -0.60    1.80
  -6  -2  10   -0.90    1.70
  -6  -2  10   -0.80    1.90
   5   2 -10    1.60    1.70
  -5  -2  10    0.60    1.50
  -5  -2  10    0.40    1.60
  -5  -2  10    0.70    1.70
   4   2 -10   14.70    1.80
   4   2 -10   13.00    2.10
   4   2 -10   15.00    2.20
  -4  -2  10   13.00    2.40
  -4  -2  10   11.50    2.10
  -4  -2  10   14.00    2.30
  -4  -2  10   16.10    3.80
   3   2 -10   18.40    2.20
   3   2 -10   15.30    2.00
  -3  -2  10   19.70    2.50
  -3  -2  10   20.30    2.30
  -3  -2  10   18.00    3.40
  -3  -2  10   20.10    2.40
   2   2 -10   59.49    3.30
   2   2 -10   52.69    3.30
   2   2 -10   56.49    3.10
   2   2 -10   60.99    5.20
  -2  -2  10   58.19    3.10
  -2  -2  10   59.89    4.50
  -2  -2  10   56.29    3.40
  -2  -2  10   58.39    4.70
  -2  -2  10   55.69    3.10
   1   2 -10    1.00    1.00
   1   2 -10    1.20    1.10
   1   2 -10    1.60    1.10
  -1  -2  10    3.10    1.30
  -1  -2  10    2.60    1.10
  -1  -2  10    3.40    1.30
  -1  -2  10    3.80    1.20
  -1  -2  10    3.80    1.40
   0   2 -10    1.80    1.10
   0   2 -10    2.30    1.10
   0   2 -10    1.80    1.00
   0  -2  10    2.30    1.20
   0  -2  10    2.80    1.20
   0  -2  10    2.30    1.10
   0  -2  10    3.30    1.00
   0  -2  10    0.40    0.90
  -1   2 -10   47.20    2.70
  -1   2 -10   53.79    5.30
  -1   2 -10   48.10    2.40
   1  -2  10   47.60    4.00
   1  -2  10   46.60    2.70
   1  -2  10   45.40    2.60
   1  -2  10   46.60    2.40
  -2   2 -10   50.89    4.00
  -2   2 -10   54.49    5.30
  -2   2 -10   51.39    2.80
  -2   2 -10   54.79    2.60
   2  -2  10   50.79    2.70
   2  -2  10   53.99    2.90
   2  -2  10   50.49    2.60
  -3   2 -10    1.90    1.20
  -3   2 -10    1.20    1.20
  -3   2 -10    1.90    1.30
  -3   2 -10    3.80    1.10
   3  -2  10    4.30    1.50
   3  -2  10    2.20    1.30
   3  -2  10    2.30    1.10
   3  -2  10    2.30    1.20
  -4   2 -10    0.50    1.30
  -4   2 -10    0.90    1.20
  -4   2 -10   -0.60    1.30
   4  -2  10    0.80    1.30
   4  -2  10    0.50    1.40
  -5   2 -10   15.70    2.10
  -5   2 -10   18.00    4.10
   5  -2  10   11.60    2.40
   5  -2  10   13.70    2.00
  -6   2 -10   52.39    6.20
  -6   2 -10   53.19    3.30
   6  -2  10   47.10    4.10
   6  -2  10   54.29    3.00
  -7   2 -10    0.30    1.40
   7  -2  10    0.80    2.40
   6   1 -10    0.60    1.50
  -6  -1  10    0.20    1.80
  -6  -1  10   -1.00    1.90
  -6  -1  10   -0.20    1.70
   5   1 -10    9.10    2.00
   5   1 -10    9.60    2.00
  -5  -1  10    6.70    2.10
  -5  -1  10    7.60    2.10
  -5  -1  10    8.00    2.00
   4   1 -10   -0.60    0.90
   4   1 -10    0.50    1.20
   4   1 -10    0.60    1.20
  -4  -1  10    0.90    1.40
  -4  -1  10    0.60    1.20
  -4  -1  10    0.40    1.40
  -4  -1  10   -0.10    1.30
  -4  -1  10    1.80    1.50
   3   1 -10   99.49    5.80
   3   1 -10   99.59    4.10
   3   1 -10   89.59    3.70
  -3  -1  10   96.39    4.40
  -3  -1  10   97.19    3.90
  -3  -1  10   98.19    6.10
  -3  -1  10   99.99    6.20
  -3  -1  10   98.69    4.20
   2   1 -10   -0.80    0.50
   2   1 -10    0.30    0.80
   2   1 -10   -2.30    1.00
  -2  -1  10   -0.40    1.00
  -2  -1  10   -2.60    1.10
  -2  -1  10    0.20    1.00
  -2  -1  10    0.10    0.80
   1   1 -10   90.39    3.70
   1   1 -10   96.29    6.00
   1   1 -10   88.19    3.30
  -1  -1  10   93.49    3.50
  -1  -1  10   91.39    5.10
  -1  -1  10   92.29    3.90
  -1  -1  10   92.09    5.30
   0   1 -10   88.19    5.80
   0   1 -10   85.49    3.50
   0   1 -10   84.49    3.20
   0  -1  10   89.09    5.10
   0  -1  10   82.79    3.30
   0  -1  10   89.09    3.70
  -1   1 -10    0.30    0.80
  -1   1 -10    0.90    0.90
  -1   1 -10    0.00    0.60
  -1   1 -10    0.30    0.80
   1  -1  10    0.20    1.00
   1  -1  10    0.50    1.00
   1  -1  10   -0.60    1.00
   1  -1  10   -0.60    0.40
   1  -1  10   -0.50    0.80
   1  -1  10    0.20    0.30
  -2   1 -10    0.70    0.90
  -2   1 -10    1.20    0.90
  -2   1 -10    1.20    1.00
   2  -1  10    3.20    1.20
   2  -1  10    3.40    1.20
   2  -1  10    3.10    1.00
  -3   1 -10    7.90    1.30
  -3   1 -10    5.90    1.60
  -3   1 -10    7.00    1.80
  -3   1 -10   10.70    1.80
   3  -1  10    7.10    1.50
   3  -1  10    9.00    1.60
   3  -1  10    9.30    1.70
  -4   1 -10  161.28    8.50
  -4   1 -10  155.38    4.70
  -4   1 -10  158.88    5.30
  -4   1 -10  160.38    9.20
   4  -1  10  166.28    5.10
   4  -1  10  152.28    5.30
   4  -1  10  162.38    5.20
  -5   1 -10   15.90    4.00
  -5   1 -10   16.10    2.20
   5  -1  10   16.10    2.20
   5  -1  10   15.20    2.50
  -6   1 -10    3.20    1.50
  -6   1 -10    0.00    1.80
   6  -1  10    1.50    1.40
   6  -1  10    1.50    2.20
  -7   1 -10   -2.80    2.10
  -7   1 -10   -0.90    1.30
   7  -1  10   -0.30    2.50
   7  -1  10   -0.50    1.30
   7   0 -10   -3.20    1.90
   6   0 -10    5.30    2.20
   6   0 -10    4.20    1.70
  -6   0  10    0.80    1.80
  -6   0  10    5.90    2.10
  -6   0  10    4.50    2.40
   5   0 -10    1.00    1.40
   5   0 -10    3.50    1.50
  -5   0  10    2.40    1.60
  -5   0  10    0.20    1.40
  -5   0  10    1.10    1.60
  -5   0  10    3.50    1.90
   4   0 -10    1.30    1.20
   4   0 -10    1.70    1.10
   4   0 -10    2.40    1.40
  -4   0  10    2.20    1.70
  -4   0  10    2.30    1.50
  -4   0  10    0.50    1.30
  -4   0  10    2.90    1.50
  -4   0  10    1.60    1.30
   3   0 -10   21.40    2.00
   3   0 -10   21.20    2.00
  -3   0  10   19.20    2.20
  -3   0  10   22.40    3.80
  -3   0  10   23.50    3.60
  -3   0  10   18.20    2.10
  -3   0  10   22.20    2.20
   2   0 -10    1.00    1.10
   2   0 -10    0.30    0.80
   2   0 -10    0.20    1.00
  -2   0  10    0.20    1.10
  -2   0  10    0.70    0.90
  -2   0  10    0.10    1.00
  -2   0  10    1.30    1.10
   1   0 -10    3.30    1.00
   1   0 -10    7.40    1.40
   1   0 -10    7.60    1.30
   1   0 -10    5.80    0.90
  -1   0  10    6.00    1.30
  -1   0  10    4.10    1.10
  -1   0  10    8.40    1.50
  -1   0  10    5.00    1.40
   0   0 -10   13.90    1.50
   0   0 -10   16.00    3.20
   0   0 -10   16.50    1.60
   0   0 -10   13.80    1.50
   0   0  10   14.80    1.60
   0   0  10   16.70    1.80
   0   0  10   18.50    3.00
  -1   0 -10    0.20    0.60
  -1   0 -10    1.00    0.90
  -1   0 -10    0.30    0.80
  -1   0 -10    0.50    0.80
   1   0  10    0.50    0.90
   1   0  10    0.60    0.90
   1   0  10    0.70    0.70
   1   0  10    0.10    0.40
   1   0  10    1.50    1.20
  -2   0 -10   28.40    1.90
  -2   0 -10   31.40    3.00
  -2   0 -10   31.10    2.10
  -2   0 -10   30.60    4.00
   2   0  10   29.50    1.70
   2   0  10   28.10    1.40
   2   0  10   28.90    2.20
   2   0  10   26.70    2.10
   2   0  10   32.70    3.70
  -3   0 -10   64.49    5.50
  -3   0 -10   59.69    2.70
  -3   0 -10   59.19    4.50
  -3   0 -10   60.19    3.00
   3   0  10   63.49    3.20
   3   0  10   56.69    2.70
   3   0  10   59.89    2.90
  -4   0 -10   17.70    2.30
  -4   0 -10   15.30    4.10
  -4   0 -10   15.30    1.80
   4   0  10   18.70    2.20
   4   0  10   15.90    2.00
   4   0  10   15.90    2.40
  -5   0 -10   41.70    2.80
  -5   0 -10   41.00    5.10
  -5   0 -10   29.80    5.20
   5   0  10   41.10    3.10
   5   0  10   46.70    2.90
  -6   0 -10    8.50    1.90
  -6   0 -10   10.30    1.90
   6   0  10    9.40    1.90
   6   0  10    6.20    2.30
  -7   0 -10   12.40    2.30
  -7   0 -10   15.90    2.30
   7   0  10   11.10    2.10
   7  -1 -10   -0.60    1.30
   7  -1 -10   -0.90    2.20
   6  -1 -10    0.40    1.30
   6  -1 -10   -0.50    1.70
  -6   1  10    0.60    1.50
  -6   1  10   -1.10    1.60
  -6   1  10   -0.10    2.00
   5  -1 -10   19.50    2.10
   5  -1 -10   23.30    2.60
  -5   1  10   21.40    2.50
  -5   1  10   25.10    4.60
  -5   1  10   25.00    2.70
  -5   1  10   20.90    4.00
   4  -1 -10    4.60    1.40
   4  -1 -10    4.80    1.70
  -4   1  10    8.00    1.70
  -4   1  10    3.80    1.50
  -4   1  10    4.80    2.00
  -4   1  10    6.90    1.80
  -4   1  10    4.10    1.30
   3  -1 -10   81.79    3.40
   3  -1 -10   84.69    3.50
  -3   1  10   84.79    3.30
  -3   1  10   88.59    5.40
  -3   1  10   88.39    3.90
  -3   1  10   85.49    3.70
  -3   1  10   85.49    6.00
   2  -1 -10  114.49    3.70
   2  -1 -10  118.89    4.00
  -2   1  10  116.39    3.80
  -2   1  10  112.39    6.50
  -2   1  10  109.89    4.20
  -2   1  10  110.69    5.50
   1  -1 -10    0.70    0.90
   1  -1 -10    0.30    0.80
   1  -1 -10    0.20    0.80
  -1   1  10    0.70    0.80
  -1   1  10   -0.10    1.00
  -1   1  10    2.00    1.00
  -1   1  10    1.10    1.10
   0  -1 -10   62.09    2.80
   0  -1 -10   58.19    2.50
   0  -1 -10   59.19    2.90
   0  -1 -10   60.59    4.60
   0   1  10   61.89    2.90
   0   1  10   59.39    2.60
   0   1  10   61.79    4.40
  -1  -1 -10   12.00    1.40
  -1  -1 -10   14.50    1.60
  -1  -1 -10   13.60    1.90
  -1  -1 -10   16.40    3.10
   1   1  10   14.40    1.70
   1   1  10   12.70    1.50
   1   1  10   19.50    3.30
   1   1  10   14.10    1.70
  -2  -1 -10   24.80    2.00
  -2  -1 -10   26.70    2.90
  -2  -1 -10   24.20    1.80
  -2  -1 -10   31.10    4.10
   2   1  10   27.00    2.10
   2   1  10   27.30    3.60
   2   1  10   25.80    1.60
   2   1  10   23.30    2.00
   2   1  10   25.30    1.90
  -3  -1 -10   48.30    2.80
  -3  -1 -10   49.60    4.80
  -3  -1 -10   47.10    2.70
  -3  -1 -10   54.29    4.30
  -3  -1 -10   50.39    2.50
  -3  -1 -10   49.00    2.60
   3   1  10   50.59    3.10
   3   1  10   49.70    2.80
   3   1  10   48.50    2.90
   3   1  10   47.30    2.40
  -4  -1 -10  207.78   10.20
  -4  -1 -10  208.48    6.40
  -4  -1 -10  209.68    6.50
  -4  -1 -10  207.98    5.90
  -4  -1 -10  212.28   10.00
   4   1  10  208.98    6.10
   4   1  10  229.88    6.80
   4   1  10  216.48    6.20
  -5  -1 -10    9.80    1.90
  -5  -1 -10   11.60    2.00
  -5  -1 -10    8.30    1.50
   5   1  10    9.40    1.80
   5   1  10    8.90    1.90
  -6  -1 -10    4.50    1.60
  -6  -1 -10    5.90    1.70
  -6  -1 -10    0.50    2.30
   6   1  10    6.10    1.70
  -7  -1 -10    4.90    1.80
  -7  -1 -10    5.10    1.90
  -7  -1 -10    5.10    1.70
   7   1  10    4.30    1.90
   7  -2 -10   -1.60    2.00
  -7   2  10   -0.60    1.50
   6  -2 -10    1.50    1.20
   6  -2 -10    0.10    2.10
  -6   2  10   -0.60    1.30
  -6   2  10    0.30    1.80
  -6   2  10   -1.60    1.40
  -6   2  10    1.90    1.40
   5  -2 -10   13.60    1.90
   5  -2 -10   13.80    2.60
  -5   2  10   14.20    2.10
  -5   2  10   12.70    2.10
  -5   2  10   18.60    4.80
   4  -2 -10    5.50    1.80
   4  -2 -10    7.00    1.40
  -4   2  10    5.20    2.00
  -4   2  10    5.10    1.50
  -4   2  10    2.90    1.20
  -4   2  10    7.70    1.50
   3  -2 -10    5.50    1.20
   3  -2 -10    4.40    1.20
  -3   2  10    3.10    1.70
  -3   2  10    3.00    1.20
  -3   2  10    4.60    1.50
  -3   2  10    5.20    1.20
   2  -2 -10   12.00    1.50
   2  -2 -10   12.40    1.60
   2  -2 -10   11.30    1.40
  -2   2  10   11.10    1.40
  -2   2  10   12.80    1.80
  -2   2  10   15.60    1.70
  -2   2  10   15.80    2.50
  -2   2  10   14.50    3.10
   1  -2 -10   53.19    2.50
   1  -2 -10   50.09    2.30
   1  -2 -10   48.10    2.30
  -1   2  10   51.49    4.30
  -1   2  10   54.29    2.50
  -1   2  10   49.60    2.60
  -1   2  10   51.89    3.20
   0  -2 -10   10.80    1.70
   0  -2 -10   14.30    1.70
   0  -2 -10   14.60    2.90
   0  -2 -10   12.40    1.50
   0  -2 -10   14.10    1.50
   0   2  10   14.70    2.20
   0   2  10   13.90    1.50
   0   2  10   16.00    1.70
   0   2  10   14.30    1.30
   0   2  10   17.00    3.10
  -1  -2 -10   35.00    2.20
  -1  -2 -10   33.10    2.00
  -1  -2 -10   32.80    3.70
  -1  -2 -10   33.40    2.40
  -1  -2 -10   36.00    2.80
   1   2  10   34.40    2.10
   1   2  10   37.40    4.10
   1   2  10   34.60    2.40
   1   2  10   31.90    2.20
   1   2  10   32.30    2.60
  -2  -2 -10   16.30    1.80
  -2  -2 -10   17.90    1.70
  -2  -2 -10   17.50    1.70
  -2  -2 -10   18.70    2.60
  -2  -2 -10   18.00    3.20
   2   2  10   17.90    2.20
   2   2  10   15.60    1.70
   2   2  10   18.50    2.00
   2   2  10   22.00    3.70
  -3  -2 -10   24.20    2.20
  -3  -2 -10   21.30    2.10
  -3  -2 -10   22.60    2.40
  -3  -2 -10   24.10    2.00
  -3  -2 -10   23.00    3.30
  -3  -2 -10   22.30    3.70
   3   2  10   24.80    2.10
   3   2  10   27.60    3.10
   3   2  10   26.90    2.40
  -4  -2 -10   23.50    4.20
  -4  -2 -10   27.00    2.40
  -4  -2 -10   26.40    4.20
  -4  -2 -10   26.00    2.10
  -4  -2 -10   26.80    2.40
   4   2  10   26.30    2.40
   4   2  10   29.90    2.60
   4   2  10   22.80    3.30
  -5  -2 -10   27.10    4.00
  -5  -2 -10   26.90    4.70
  -5  -2 -10   28.10    2.60
  -5  -2 -10   27.40    2.30
  -5  -2 -10   28.80    2.70
   5   2  10   29.60    2.60
   5   2  10   30.90    2.60
  -6  -2 -10    4.00    1.40
  -6  -2 -10    6.50    2.00
  -6  -2 -10    2.30    2.30
  -6  -2 -10    8.60    2.10
   6   2  10    8.80    2.10
  -7  -2 -10    1.90    1.10
  -7  -2 -10    0.20    1.80
  -7  -2 -10    1.00    1.50
   7   2  10    1.40    2.00
   7  -3 -10   -0.70    2.20
   6  -3 -10   13.20    3.10
  -6   3  10    9.30    2.90
  -6   3  10   12.20    2.10
   5  -3 -10   15.70    3.10
   5  -3 -10   13.70    1.70
  -5   3  10   21.50    5.10
  -5   3  10   15.50    2.10
  -5   3  10   15.60    2.20
   4  -3 -10    9.50    2.20
   4  -3 -10    7.50    1.30
  -4   3  10    5.50    1.50
  -4   3  10    7.10    1.50
  -4   3  10    7.20    1.60
  -4   3  10    5.90    2.10
   3  -3 -10    1.50    0.80
   3  -3 -10    2.10    1.00
   3  -3 -10    1.90    1.50
  -3   3  10    1.90    0.90
  -3   3  10    0.60    0.90
  -3   3  10   -0.30    1.50
  -3   3  10    2.60    1.20
   2  -3 -10  114.39    3.60
   2  -3 -10  106.09    3.50
   2  -3 -10  112.69    3.70
  -2   3  10  115.29    5.10
  -2   3  10  117.49    4.20
  -2   3  10  113.69    3.60
  -2   3  10  111.69    6.80
  -2   3  10  105.69    3.80
   1  -3 -10   88.59    3.20
   1  -3 -10   87.99    3.10
   1  -3 -10   89.59    3.30
   1  -3 -10   88.59    3.80
  -1   3  10   92.19    5.80
  -1   3  10   89.99    3.60
  -1   3  10   91.49    4.00
  -1   3  10   92.29    5.40
  -1   3  10   85.19    3.30
  -1   3  10   89.69    3.10
  -1   3  10   85.49    3.30
   0  -3 -10    2.50    1.00
   0  -3 -10    1.10    0.70
   0  -3 -10    2.70    1.00
   0  -3 -10    0.80    0.40
   0   3  10    0.80    1.20
   0   3  10    0.90    1.10
   0   3  10    2.20    1.00
   0   3  10    2.10    1.10
   0   3  10    1.30    0.60
  -1  -3 -10    0.30    0.80
  -1  -3 -10   -0.60    0.80
  -1  -3 -10    0.10    0.90
  -1  -3 -10   -0.20    0.50
   1   3  10   -0.30    0.80
   1   3  10   -0.90    0.90
   1   3  10   -0.20    0.90
   1   3  10    1.20    1.30
  -2  -3 -10    0.20    1.00
  -2  -3 -10    0.20    1.00
  -2  -3 -10    1.10    1.00
  -2  -3 -10    1.90    1.20
   2   3  10    1.70    1.10
   2   3  10    0.90    1.00
   2   3  10    1.50    1.10
   2   3  10    1.70    1.40
  -3  -3 -10  221.68    6.60
  -3  -3 -10  218.98    9.60
  -3  -3 -10  218.98    6.20
  -3  -3 -10  222.98    6.80
   3   3  10  217.68    6.30
   3   3  10  223.08    8.80
   3   3  10  224.48    7.00
  -4  -3 -10   75.59    3.80
  -4  -3 -10   75.39    3.80
  -4  -3 -10   71.29    5.80
  -4  -3 -10   69.09    3.40
   4   3  10   70.59    5.20
   4   3  10   72.79    3.60
   4   3  10   77.29    4.00
  -5  -3 -10    6.70    1.90
  -5  -3 -10    3.90    2.10
  -5  -3 -10    6.50    1.60
  -5  -3 -10    3.90    1.20
  -5  -3 -10    7.10    1.90
   5   3  10    6.50    1.90
   5   3  10    6.70    1.80
  -6  -3 -10    1.50    1.00
  -6  -3 -10   -0.80    1.40
  -6  -3 -10   -0.20    1.50
  -6  -3 -10   -2.60    1.90
   6   3  10    0.80    1.70
  -7  -3 -10    2.40    1.90
  -7  -3 -10   -1.50    2.50
  -7  -3 -10    4.90    2.20
  -7  -3 -10    3.70    1.40
   7   3  10    4.50    2.30
   7  -4 -10    2.40    2.40
   6  -4 -10    7.90    2.70
  -6   4  10    3.60    1.80
   5  -4 -10    1.40    2.00
   5  -4 -10    0.70    0.80
  -5   4  10    1.80    1.20
  -5   4  10    0.40    1.20
  -5   4  10    1.10    1.90
   4  -4 -10    4.40    2.00
   4  -4 -10    6.20    1.20
  -4   4  10    2.80    1.30
  -4   4  10    1.90    1.90
  -4   4  10    2.80    1.20
   3  -4 -10   47.30    3.40
   3  -4 -10   52.49    2.40
  -3   4  10   52.49    2.80
  -3   4  10   46.00    5.10
  -3   4  10   50.49    3.70
   2  -4 -10    9.00    1.30
   2  -4 -10    9.70    1.50
  -2   4  10    5.90    1.90
  -2   4  10    8.00    1.50
  -2   4  10    8.40    1.30
   1  -4 -10   22.00    1.60
   1  -4 -10   24.40    1.70
   1  -4 -10   22.40    1.70
  -1   4  10   24.90    1.70
  -1   4  10   20.90    3.20
  -1   4  10   20.60    2.10
  -1   4  10   27.60    3.80
  -1   4  10   21.80    1.90
  -1   4  10   22.80    2.10
  -1   4  10   20.40    1.60
   0  -4 -10   11.80    1.50
   0  -4 -10   10.10    1.40
   0  -4 -10   10.60    0.80
   0   4  10    7.40    1.80
   0   4  10   10.40    1.60
   0   4  10    9.20    1.80
   0   4  10   12.20    1.70
   0   4  10    8.10    2.00
  -1  -4 -10   26.00    1.90
  -1  -4 -10   25.50    2.10
  -1  -4 -10   24.80    1.40
  -1  -4 -10   28.80    3.10
  -1  -4 -10   25.60    2.10
   1   4  10   25.50    2.20
   1   4  10   30.70    4.30
   1   4  10   25.20    3.10
   1   4  10   24.70    2.00
  -2  -4 -10   51.39    4.40
  -2  -4 -10   48.70    2.90
  -2  -4 -10   47.10    2.70
  -2  -4 -10   46.80    2.70
   2   4  10   45.80    4.80
   2   4  10   48.40    4.20
   2   4  10   46.20    3.00
   2   4  10   40.90    2.60
  -3  -4 -10   25.00    2.40
  -3  -4 -10   18.10    2.00
  -3  -4 -10   20.90    2.10
  -3  -4 -10   18.30    3.60
  -3  -4 -10   19.50    2.30
   3   4  10   21.90    2.50
   3   4  10   18.50    3.60
   3   4  10   22.10    2.30
  -4  -4 -10   11.70    2.00
  -4  -4 -10   11.20    2.10
  -4  -4 -10   12.60    2.00
  -4  -4 -10   12.20    2.10
   4   4  10    9.50    1.90
   4   4  10    5.90    2.20
   4   4  10   12.70    2.30
  -5  -4 -10   -0.70    1.80
  -5  -4 -10    2.60    1.70
  -5  -4 -10    1.20    0.90
  -5  -4 -10   -0.50    1.40
  -5  -4 -10    0.00    1.30
   5   4  10    1.30    1.70
   5   4  10    0.40    1.60
  -6  -4 -10    6.10    1.60
  -6  -4 -10    1.40    2.40
  -6  -4 -10    7.50    2.00
  -6  -4 -10    6.10    2.00
  -6  -4 -10    9.30    2.30
   6   4  10    9.20    2.40
   6   4  10    7.80    2.30
  -7  -4 -10   -1.20    1.70
  -7  -4 -10    0.80    1.30
   6  -5 -10   16.60    3.60
   5  -5 -10    1.60    2.00
  -5   5  10    2.40    1.90
   4  -5 -10    0.80    0.80
   4  -5 -10   -0.60    1.60
  -4   5  10    0.50    1.00
  -4   5  10   -0.10    1.50
   3  -5 -10   19.00    2.70
   3  -5 -10   22.10    1.80
  -3   5  10   20.50    4.30
  -3   5  10   15.80    2.50
  -3   5  10   23.60    4.50
  -3   5  10   19.10    2.00
   2  -5 -10    2.10    1.10
   2  -5 -10    2.20    1.50
  -2   5  10    0.90    1.60
  -2   5  10    1.90    1.60
  -2   5  10    0.20    1.10
   1  -5 -10   61.89    2.70
   1  -5 -10   54.79    2.60
  -1   5  10   59.29    2.60
  -1   5  10   61.59    5.20
  -1   5  10   55.39    3.00
  -1   5  10   61.39    5.50
   0  -5 -10   30.30    2.20
   0  -5 -10   29.20    2.00
   0   5  10   27.70    3.90
   0   5  10   31.90    4.50
   0   5  10   27.60    2.30
   0   5  10   28.00    2.10
  -1  -5 -10    9.00    1.50
  -1  -5 -10    5.60    1.50
  -1  -5 -10    9.40    1.80
  -1  -5 -10    8.80    1.60
   1   5  10    7.80    1.50
   1   5  10    6.20    2.10
   1   5  10    5.30    1.80
   1   5  10    7.10    1.60
  -2  -5 -10   85.99    5.70
  -2  -5 -10   77.19    3.50
  -2  -5 -10   81.59    3.60
  -2  -5 -10   77.29    2.60
  -2  -5 -10   83.59    3.90
   2   5  10   81.29    3.60
   2   5  10   79.79    6.20
   2   5  10   85.69    4.20
   2   5  10   84.59    5.80
  -3  -5 -10   90.49    4.00
  -3  -5 -10   94.39    4.10
  -3  -5 -10   98.79    6.60
  -3  -5 -10  104.09    4.30
  -3  -5 -10  108.19    4.70
   3   5  10   98.99    6.50
   3   5  10  106.29    4.80
   3   5  10   98.39    4.20
  -4  -5 -10    0.40    1.70
  -4  -5 -10    2.70    1.50
  -4  -5 -10    2.50    1.60
  -4  -5 -10    1.00    0.60
  -4  -5 -10    1.60    1.40
   4   5  10    2.00    1.70
   4   5  10   -1.30    2.00
   4   5  10    2.20    1.60
  -5  -5 -10    3.40    1.60
  -5  -5 -10    1.50    0.90
  -5  -5 -10    1.90    1.50
  -5  -5 -10    3.60    1.90
  -5  -5 -10    0.60    2.00
   5   5  10    3.60    1.90
   5   5  10    5.40    2.00
  -6  -5 -10   -2.40    2.10
  -6  -5 -10    2.30    2.10
  -6  -5 -10    3.10    1.80
  -6  -5 -10    4.50    2.00
   6   5  10    2.70    2.30
   6   5  10    2.80    1.90
   6  -6 -10   17.20    3.70
   5  -6 -10    6.10    2.50
  -5   6  10    5.00    2.30
  -5   6  10    3.60    2.50
   4  -6 -10    2.10    2.10
  -4   6  10    1.30    2.00
  -4   6  10    2.70    1.10
  -4   6  10    1.10    1.80
   3  -6 -10   21.50    1.70
   3  -6 -10   18.80    2.80
  -3   6  10   21.00    4.40
  -3   6  10   20.00    2.00
   2  -6 -10   29.40    2.10
   2  -6 -10   28.00    2.80
  -2   6  10   30.50    2.50
  -2   6  10   29.20    4.60
  -2   6  10   29.10    4.30
   1  -6 -10    2.20    1.10
  -1   6  10    0.70    1.60
  -1   6  10    1.80    1.90
  -1   6  10    1.90    1.20
   0  -6 -10   -0.10    0.90
   0  -6 -10    1.00    1.10
   0   6  10    0.30    1.00
   0   6  10   -2.20    1.30
   0   6  10   -0.90    1.40
   0   6  10    0.60    1.30
  -1  -6 -10   17.70    1.90
  -1  -6 -10   20.20    2.10
  -1  -6 -10   21.30    2.20
   1   6  10   16.30    4.00
   1   6  10   18.00    4.10
   1   6  10   17.50    2.30
   1   6  10   18.10    2.00
  -2  -6 -10    1.90    1.50
  -2  -6 -10    5.10    1.60
  -2  -6 -10    3.30    1.40
  -2  -6 -10    5.20    1.50
   2   6  10    2.80    2.00
   2   6  10   -0.10    1.70
   2   6  10    7.00    1.70
   2   6  10    3.00    1.60
  -3  -6 -10   34.30    5.00
  -3  -6 -10   35.80    2.90
  -3  -6 -10   39.90    3.20
  -3  -6 -10   35.40    2.80
   3   6  10   40.00    3.10
   3   6  10   40.60    3.40
   3   6  10   32.10    5.20
  -4  -6 -10    0.00    1.60
  -4  -6 -10    3.10    1.60
  -4  -6 -10    0.80    1.80
  -4  -6 -10    0.30    1.30
   4   6  10    2.00    1.80
   4   6  10    3.20    1.80
   4   6  10   -3.60    2.10
  -5  -6 -10    2.90    2.10
  -5  -6 -10    1.60    1.70
  -5  -6 -10    2.00    1.60
  -5  -6 -10   -1.40    1.90
   5   6  10    3.40    2.10
   5   6  10    1.10    1.90
  -6  -6 -10   -2.90    2.30
  -6  -6 -10   -0.60    2.00
  -6  -6 -10    0.80    1.70
  -6  -6 -10   -0.90    1.60
   6   6  10   -1.00    2.20
   6   6  10    1.20    1.90
   5  -7 -10    1.80    2.30
   4  -7 -10    0.90    2.20
  -4   7  10    1.10    1.80
  -4   7  10    3.90    2.50
   3  -7 -10    9.20    2.50
   3  -7 -10    5.50    1.10
  -3   7  10    7.00    1.50
  -3   7  10    2.60    1.90
  -3   7  10    4.60    2.60
   2  -7 -10   16.40    2.60
   2  -7 -10   14.50    1.80
  -2   7  10   18.10    4.20
  -2   7  10    8.90    2.60
  -2   7  10   14.60    2.10
   1  -7 -10    1.90    1.70
   1  -7 -10    0.40    1.10
  -1   7  10    0.30    1.90
  -1   7  10   -2.20    1.60
  -1   7  10    0.30    1.30
   0  -7 -10    7.50    1.70
   0   7  10    4.30    2.30
   0   7  10    9.20    2.00
   0   7  10    2.80    2.10
  -1  -7 -10    0.60    1.20
  -1  -7 -10   -0.10    1.10
  -1  -7 -10    1.30    1.50
   1   7  10    2.50    1.60
   1   7  10   -1.60    1.70
   1   7  10    0.90    1.30
   1   7  10    0.10    2.00
  -2  -7 -10   97.99    4.40
  -2  -7 -10   97.49    4.40
  -2  -7 -10   98.69    4.70
   2   7  10  106.99    5.20
   2   7  10   87.29    7.00
   2   7  10   97.09    7.60
   2   7  10   98.29    4.30
  -3  -7 -10    0.90    1.30
  -3  -7 -10   -0.70    1.40
  -3  -7 -10   -1.40    1.40
  -3  -7 -10   -0.70    1.30
   3   7  10    0.80    1.60
   3   7  10   -1.70    2.10
   3   7  10   -1.70    1.60
  -4  -7 -10    1.00    1.40
  -4  -7 -10   -1.20    1.60
  -4  -7 -10    0.90    1.50
  -4  -7 -10    0.90    1.80
   4   7  10    1.70    1.80
   4   7  10    3.40    2.00
  -5  -7 -10    1.30    1.70
  -5  -7 -10    0.30    1.70
  -5  -7 -10   -1.30    1.70
  -5  -7 -10   -2.00    2.00
   5   7  10   -1.20    1.80
   5   7  10    0.50    1.90
  -6  -7 -10   -0.70    1.80
   6   7  10   -0.50    2.20
   4  -8 -10   13.50    3.20
   3  -8 -10   -2.10    1.80
  -3   8  10   -2.70    1.60
  -3   8  10    0.80    2.20
   2  -8 -10    1.10    1.80
   2  -8 -10    0.90    1.20
  -2   8  10    0.00    2.00
  -2   8  10    3.30    2.60
  -2   8  10    3.10    1.50
   1  -8 -10    4.10    1.90
   1  -8 -10    4.60    1.50
  -1   8  10    5.80    1.80
  -1   8  10    1.70    2.50
   0  -8 -10   17.00    2.40
   0  -8 -10   14.80    2.60
   0   8  10    6.80    2.80
   0   8  10   11.80    2.30
  -1  -8 -10   24.00    2.80
  -1  -8 -10   24.00    2.30
   1   8  10   22.60    2.90
   1   8  10   15.30    3.60
  -2  -8 -10    5.80    2.00
  -2  -8 -10    4.40    1.60
   2   8  10    3.40    2.00
   2   8  10    5.20    1.90
   2   8  10    0.00    2.40
  -3  -8 -10    6.70    2.00
  -3  -8 -10    5.00    2.20
  -3  -8 -10    8.60    2.00
   3   8  10   11.20    2.40
   3   8  10   -0.20    2.90
   3   8  10    8.80    2.50
  -4  -8 -10    1.00    1.50
  -4  -8 -10    0.00    1.60
  -4  -8 -10    2.20    2.00
   4   8  10    2.00    1.90
   4   8  10    2.00    2.10
  -5  -8 -10   -0.60    2.30
  -5  -8 -10    0.00    1.80
   5   8  10    2.20    2.40
   5   8  10    2.30    2.20
   3  -9 -10    1.30    2.30
   2  -9 -10    4.20    2.20
  -2   9  10    4.90    1.60
   1  -9 -10    5.20    1.60
   1  -9 -10    6.80    2.20
  -1   9  10    3.20    2.80
  -1   9  10    5.50    2.00
   0  -9 -10    1.00    1.80
   0  -9 -10    2.90    1.60
   0   9  10    3.60    1.90
   0   9  10    1.40    2.70
  -1  -9 -10   14.80    2.40
  -1  -9 -10   11.10    2.30
   1   9  10    8.50    3.40
   1   9  10    9.70    2.40
  -2  -9 -10   10.60    2.30
  -2  -9 -10   12.90    2.30
   2   9  10   10.80    2.60
   2   9  10    4.00    3.70
  -3  -9 -10    8.20    2.00
  -3  -9 -10    8.30    2.30
   3   9  10   10.90    2.80
  -4  -9 -10    0.40    1.80
   4   9  10    1.70    2.00
   2 -10 -10   -0.40    2.00
   1 -10 -10    1.60    2.00
   1 -10 -10   -0.90    1.50
   0 -10 -10   18.80    2.90
  -3 -10 -10   -1.00    1.50
   1  -8  11    7.20    2.70
   2  -8  11    8.00    2.60
   3  -8  11    3.10    2.50
   3   7 -11   -2.10    1.60
  -3  -7  11   -0.30    2.00
   2   7 -11   -0.50    1.90
   2   7 -11   -1.00    1.50
  -2  -7  11    1.90    2.20
   1   7 -11    3.40    2.10
  -1  -7  11    4.70    2.40
   0   7 -11   -1.40    2.40
   0   7 -11    5.30    2.10
   0  -7  11    3.70    2.30
  -1   7 -11   -1.10    2.20
  -1   7 -11    2.30    1.80
   1  -7  11    4.00    2.30
   1  -7  11    4.60    2.10
  -2   7 -11   -0.10    2.00
  -2   7 -11    3.50    1.80
   2  -7  11    4.20    2.30
   2  -7  11    2.80    1.80
  -3   7 -11   -0.10    1.40
   3  -7  11    0.90    1.50
   3  -7  11   -2.40    1.90
   4  -7  11    1.30    2.40
   4   6 -11    1.50    2.10
   4   6 -11    1.40    2.00
  -4  -6  11   -0.50    2.00
  -4  -6  11   -1.10    2.20
   3   6 -11    0.10    1.80
   3   6 -11   -1.60    1.80
  -3  -6  11   -1.80    2.10
  -3  -6  11   -1.70    1.90
  -3  -6  11   -2.30    1.50
   2   6 -11    1.10    1.70
   2   6 -11    3.30    2.00
  -2  -6  11    0.80    2.10
  -2  -6  11    0.90    1.90
   1   6 -11    4.60    2.00
   1   6 -11    4.60    1.70
  -1  -6  11    2.80    1.80
  -1  -6  11    4.20    2.20
   0   6 -11   17.50    3.00
   0  -6  11   14.40    2.60
  -1   6 -11   20.70    3.00
   1  -6  11   22.90    2.90
   1  -6  11   16.20    2.80
  -2   6 -11   14.90    2.60
   2  -6  11   12.30    2.60
   2  -6  11   15.60    2.60
  -3   6 -11    0.40    1.40
  -3   6 -11   -2.80    1.70
   3  -6  11    1.60    1.50
   3  -6  11    0.30    2.00
  -4   6 -11    0.50    1.40
   4  -6  11   -0.70    1.90
   4  -6  11   -0.10    1.30
   5  -6  11    2.80    2.50
   5   5 -11    1.20    1.90
  -5  -5  11   -1.40    1.90
   4   5 -11   -0.70    1.70
   4   5 -11    1.10    1.80
  -4  -5  11   -1.30    2.00
  -4  -5  11    0.70    2.00
  -4  -5  11    0.90    2.20
   3   5 -11    1.30    1.70
   3   5 -11    0.50    1.70
  -3  -5  11   -1.30    1.60
  -3  -5  11   -1.50    1.60
  -3  -5  11    0.10    1.90
   2   5 -11    3.00    1.80
   2   5 -11    0.80    1.50
  -2  -5  11    1.00    1.80
  -2  -5  11   -0.90    1.30
  -2  -5  11    1.20    1.70
   1   5 -11   11.30    2.40
   1   5 -11   13.40    2.30
  -1  -5  11   10.60    2.30
  -1  -5  11   14.70    2.70
   0   5 -11    9.60    1.80
   0   5 -11    9.80    2.20
   0  -5  11    6.70    2.00
   0  -5  11    9.30    2.10
  -1   5 -11    3.80    1.40
  -1   5 -11    5.60    1.80
   1  -5  11    5.30    1.70
  -2   5 -11   -1.60    1.40
  -2   5 -11    1.50    1.50
   2  -5  11   -0.30    1.60
   2  -5  11    0.50    1.30
  -3   5 -11    9.50    1.90
  -3   5 -11    2.80    2.00
   3  -5  11    7.50    1.80
   3  -5  11    5.80    2.10
  -4   5 -11    6.00    2.10
  -4   5 -11    4.80    1.70
   4  -5  11    6.30    2.30
   4  -5  11    5.20    1.70
  -5   5 -11    1.80    1.40
   5  -5  11    0.10    2.10
   6  -5  11    4.20    2.80
   5   4 -11    0.00    1.80
   5   4 -11    0.50    1.90
  -5  -4  11    1.10    1.90
  -5  -4  11   -0.10    2.10
   4   4 -11    3.20    1.90
   4   4 -11    2.10    1.80
  -4  -4  11    1.10    1.70
  -4  -4  11    1.50    2.10
  -4  -4  11    4.50    2.10
   3   4 -11    3.10    1.70
   3   4 -11    3.30    1.80
  -3  -4  11    0.10    1.50
  -3  -4  11    3.90    1.90
  -3  -4  11    1.80    1.90
  -3  -4  11    0.40    1.20
   2   4 -11    0.80    1.40
   2   4 -11    2.80    1.70
  -2  -4  11   -0.10    1.00
  -2  -4  11    1.60    1.60
  -2  -4  11    1.90    1.70
  -2  -4  11    2.40    1.60
  -2  -4  11    0.50    1.40
   1   4 -11   54.39    6.40
   1   4 -11   56.89    3.60
   1   4 -11   63.19    3.40
  -1  -4  11   49.99    4.20
  -1  -4  11   58.29    3.50
  -1  -4  11   53.09    3.40
  -1  -4  11   57.09    3.70
   0   4 -11   75.09    3.60
   0   4 -11   76.19    6.90
   0   4 -11   74.19    3.90
   0  -4  11   78.69    3.80
   0  -4  11   77.99    4.20
   0  -4  11   70.49    3.70
  -1   4 -11   15.90    2.20
  -1   4 -11   12.00    1.80
   1  -4  11   16.80    2.20
   1  -4  11   13.30    2.10
   1  -4  11   16.00    2.20
  -2   4 -11    1.10    1.50
  -2   4 -11    3.90    1.50
  -2   4 -11    2.80    1.10
   2  -4  11    2.70    1.60
   2  -4  11    3.60    1.70
   2  -4  11    3.70    1.10
   2  -4  11    3.90    1.40
  -3   4 -11    3.50    1.50
  -3   4 -11    4.80    1.50
  -3   4 -11    1.40    1.60
   3  -4  11    6.00    1.60
   3  -4  11    3.70    1.80
  -4   4 -11    1.30    1.30
  -4   4 -11   -0.90    1.50
  -4   4 -11    3.10    1.70
   4  -4  11    0.50    1.80
   4  -4  11    1.40    1.30
  -5   4 -11    4.30    2.10
  -5   4 -11    3.30    1.50
   5  -4  11    2.80    1.50
   5  -4  11    1.90    2.20
  -6   4 -11    4.40    1.50
   6  -4  11    5.40    2.80
  -6  -3  11    0.60    2.10
   5   3 -11    2.70    1.80
  -5  -3  11    3.80    1.90
  -5  -3  11    0.70    1.80
  -5  -3  11   -0.80    1.80
  -5  -3  11    5.20    2.30
   4   3 -11   -1.90    1.30
   4   3 -11   -0.50    1.50
  -4  -3  11   -1.40    1.40
  -4  -3  11   -0.10    1.30
  -4  -3  11    1.00    1.60
  -4  -3  11   -0.40    1.70
   3   3 -11    5.90    1.80
   3   3 -11    3.70    1.60
  -3  -3  11    2.60    1.70
  -3  -3  11    7.70    2.00
  -3  -3  11    4.80    1.80
  -3  -3  11    3.40    1.60
  -3  -3  11    8.60    2.20
   2   3 -11    2.10    1.40
   2   3 -11   -1.60    1.20
   2   3 -11    1.20    1.40
  -2  -3  11    0.20    1.40
  -2  -3  11    2.40    1.50
  -2  -3  11    0.70    1.20
  -2  -3  11    0.90    1.40
  -2  -3  11    0.80    1.60
   1   3 -11    3.60    1.50
   1   3 -11    4.40    1.40
  -1  -3  11    2.10    1.20
  -1  -3  11    4.60    1.60
  -1  -3  11    2.00    1.30
  -1  -3  11    4.20    1.50
  -1  -3  11    5.30    1.80
   0   3 -11   89.99    6.90
   0   3 -11   90.99    3.70
   0   3 -11   86.49    4.00
   0  -3  11   86.59    5.40
   0  -3  11   81.09    3.80
   0  -3  11   88.29    3.80
   0  -3  11   95.69    4.40
  -1   3 -11    3.20    1.30
  -1   3 -11    0.70    1.30
  -1   3 -11    3.90    1.40
   1  -3  11    3.60    1.20
   1  -3  11    1.50    1.30
   1  -3  11    1.90    1.40
  -2   3 -11   28.20    5.10
  -2   3 -11   28.70    2.20
  -2   3 -11   29.30    2.50
   2  -3  11   27.70    2.40
   2  -3  11   29.70    2.40
   2  -3  11   28.40    2.30
   2  -3  11   29.90    2.10
  -3   3 -11   -1.30    0.90
  -3   3 -11    1.10    1.10
  -3   3 -11   -1.50    1.30
   3  -3  11   -0.40    1.30
   3  -3  11   -0.50    0.70
   3  -3  11   -0.40    1.30
  -4   3 -11   25.20    4.40
  -4   3 -11   22.00    2.40
   4  -3  11   20.90    2.40
   4  -3  11   21.60    2.70
  -5   3 -11    8.60    1.90
  -5   3 -11    8.20    2.50
   5  -3  11    9.40    1.80
   5  -3  11    9.40    2.50
  -6   3 -11    2.20    2.10
  -6   3 -11    1.40    1.30
   6  -3  11    0.90    2.30
   6  -3  11    2.40    1.30
   7  -3  11    0.60    2.90
   6   2 -11    0.80    1.90
  -6  -2  11   -2.30    2.10
   5   2 -11    0.10    1.60
  -5  -2  11   -1.60    1.50
  -5  -2  11    0.90    2.00
  -5  -2  11    2.00    1.70
   4   2 -11    0.70    1.50
   4   2 -11   -0.40    1.40
  -4  -2  11   -0.70    1.40
  -4  -2  11   -1.30    1.40
  -4  -2  11    0.30    1.30
  -4  -2  11   -0.30    1.50
  -4  -2  11    0.40    1.60
   3   2 -11    0.60    1.40
   3   2 -11   -1.50    0.90
   3   2 -11   -0.20    1.30
  -3  -2  11   -1.20    1.30
  -3  -2  11    1.50    1.40
  -3  -2  11    0.40    1.30
  -3  -2  11   -0.50    1.30
  -3  -2  11    0.10    1.30
   2   2 -11    0.40    1.20
   2   2 -11   -0.10    1.10
   2   2 -11   -0.60    1.00
  -2  -2  11   -0.80    1.30
  -2  -2  11   -1.80    1.10
  -2  -2  11    0.10    1.20
  -2  -2  11   -0.20    1.10
  -2  -2  11   -0.30    1.10
   1   2 -11  266.87    7.70
   1   2 -11  253.27    6.90
   1   2 -11  261.67   11.70
  -1  -2  11  256.87    7.20
  -1  -2  11  258.47   10.40
  -1  -2  11  261.47    7.80
  -1  -2  11  265.87   10.50
  -1  -2  11  254.07    7.30
   0   2 -11   39.70    2.50
   0   2 -11   40.40    2.70
   0   2 -11   41.20    5.10
   0  -2  11   38.30    2.60
   0  -2  11   39.10    2.80
   0  -2  11   44.90    4.10
   0  -2  11   36.90    2.50
  -1   2 -11   11.80    1.80
  -1   2 -11   12.60    1.70
   1  -2  11   16.20    2.00
   1  -2  11   13.30    1.80
   1  -2  11   18.40    2.20
   1  -2  11   18.40    3.60
  -2   2 -11    2.20    1.10
  -2   2 -11    1.00    1.20
  -2   2 -11    2.30    1.40
  -2   2 -11    1.70    1.10
   2  -2  11    3.20    1.30
   2  -2  11    2.00    1.40
   2  -2  11    0.40    1.20
  -3   2 -11    6.20    1.80
  -3   2 -11    9.00    1.50
  -3   2 -11    8.20    1.70
   3  -2  11    6.40    1.60
   3  -2  11    9.20    1.70
   3  -2  11    7.80    1.60
  -4   2 -11   27.10    4.00
  -4   2 -11   24.70    2.40
   4  -2  11   26.40    2.20
   4  -2  11   24.60    2.60
  -5   2 -11    1.90    1.40
  -5   2 -11    2.80    1.80
   5  -2  11    1.30    1.80
   5  -2  11    3.10    1.40
  -6   2 -11    2.30    1.40
  -6   2 -11    1.30    1.90
   6  -2  11    1.50    2.30
   6  -2  11    1.00    1.40
  -7   2 -11   -0.80    1.40
   7  -2  11    0.90    2.50
   6   1 -11    0.00    1.60
  -6  -1  11   -1.30    1.80
  -6  -1  11   -1.00    2.00
  -6  -1  11   -2.80    1.50
   5   1 -11    5.80    1.80
   5   1 -11    3.70    1.70
  -5  -1  11    0.10    1.60
  -5  -1  11    2.60    1.80
  -5  -1  11    4.70    2.00
  -5  -1  11    2.60    2.00
   4   1 -11    3.50    1.50
   4   1 -11    5.20    1.60
   4   1 -11    6.80    1.70
  -4  -1  11    3.30    1.70
  -4  -1  11    1.10    1.60
  -4  -1  11    4.90    1.70
  -4  -1  11    2.90    1.40
  -4  -1  11    4.40    1.80
   3   1 -11    3.30    1.40
   3   1 -11    1.80    1.30
   3   1 -11    1.00    0.90
  -3  -1  11    1.10    1.30
  -3  -1  11    4.10    1.60
  -3  -1  11    2.50    1.40
  -3  -1  11    2.10    1.50
  -3  -1  11    3.70    1.40
   2   1 -11   21.50    1.80
   2   1 -11   22.40    4.10
   2   1 -11   23.00    2.20
   2   1 -11   25.80    2.20
  -2  -1  11   23.70    2.30
  -2  -1  11   26.00    2.50
  -2  -1  11   24.80    3.80
  -2  -1  11   22.40    3.60
  -2  -1  11   23.30    2.30
   1   1 -11  141.09    5.00
   1   1 -11  133.79    4.50
   1   1 -11  137.29    7.70
  -1  -1  11  133.19    6.60
  -1  -1  11  135.09    4.60
  -1  -1  11  138.89    7.10
  -1  -1  11  135.39    5.10
   0   1 -11   35.80    2.70
   0   1 -11   42.10    2.60
   0   1 -11   41.90    4.90
   0   1 -11   37.40    2.30
   0  -1  11   41.50    2.70
   0  -1  11   42.30    4.10
   0  -1  11   39.00    2.50
  -1   1 -11   12.00    2.10
  -1   1 -11   12.00    1.60
  -1   1 -11    7.30    1.50
  -1   1 -11   13.80    3.70
   1  -1  11    6.40    1.30
   1  -1  11   11.90    1.00
  -2   1 -11   89.99    5.40
  -2   1 -11   87.89    3.40
  -2   1 -11   85.09    3.70
  -2   1 -11   92.29    6.80
   2  -1  11   82.79    3.20
   2  -1  11   87.89    3.60
   2  -1  11   93.89    3.90
  -3   1 -11   51.89    2.70
  -3   1 -11   54.89    3.20
  -3   1 -11   61.09    4.80
  -3   1 -11   56.79    6.00
   3  -1  11   52.29    2.80
   3  -1  11   54.79    2.90
   3  -1  11   52.99    3.20
  -4   1 -11    1.20    1.00
  -4   1 -11    2.10    1.30
  -4   1 -11    0.70    1.30
  -4   1 -11   -0.40    1.30
   4  -1  11    2.30    1.40
   4  -1  11    0.10    1.10
   4  -1  11    0.50    1.40
  -5   1 -11   16.80    2.30
  -5   1 -11   16.40    4.00
   5  -1  11   18.70    2.90
   5  -1  11   18.80    2.30
  -6   1 -11    3.00    1.60
  -6   1 -11    2.20    2.10
   6  -1  11    4.10    1.70
   6  -1  11    3.00    2.30
  -7   1 -11   -0.10    1.50
   7  -1  11   -2.20    2.20
   7  -1  11    0.10    1.50
   7   0 -11   -1.00    2.00
   6   0 -11    0.60    1.90
   6   0 -11    0.30    1.50
  -6   0  11   -1.20    1.70
  -6   0  11    0.30    2.00
  -6   0  11   -2.90    1.40
   5   0 -11    2.30    1.50
   5   0 -11    2.20    1.60
  -5   0  11    1.80    1.60
  -5   0  11    2.40    1.70
  -5   0  11    2.00    1.90
  -5   0  11    0.00    1.40
   4   0 -11   18.50    2.20
   4   0 -11   17.30    2.10
   4   0 -11   17.60    2.20
  -4   0  11   18.10    4.10
  -4   0  11   17.60    2.00
  -4   0  11   18.30    4.30
  -4   0  11   20.60    2.70
  -4   0  11   12.90    2.20
   3   0 -11   12.90    1.80
   3   0 -11   17.20    2.10
  -3   0  11   15.20    1.90
  -3   0  11   17.00    2.20
  -3   0  11   13.50    2.10
  -3   0  11   11.10    2.40
  -3   0  11   15.90    3.50
   2   0 -11   21.90    2.10
   2   0 -11   25.30    2.20
   2   0 -11   30.30    4.10
  -2   0  11   26.00    2.40
  -2   0  11   26.40    3.40
  -2   0  11   24.60    3.90
  -2   0  11   25.80    2.30
   1   0 -11  239.58    7.70
   1   0 -11  261.07    7.20
   1   0 -11  263.17   11.20
   1   0 -11  248.38    6.60
  -1   0  11  258.27    6.70
  -1   0  11  267.37    7.60
  -1   0  11  264.57   10.80
  -1   0  11  247.78    9.40
   0   0 -11    7.40    1.40
   0   0 -11    5.20    1.30
   0   0 -11    3.50    1.20
   0   0 -11    7.20    1.40
   0   0  11    4.80    1.50
   0   0  11    6.70    1.40
   0   0  11    7.20    1.50
  -1   0 -11    1.30    0.70
  -1   0 -11    0.70    0.90
  -1   0 -11    0.80    0.90
  -1   0 -11    0.20    1.00
   1   0  11    1.40    0.60
   1   0  11    2.30    1.40
   1   0  11    1.60    1.10
   1   0  11    1.20    0.70
   1   0  11    0.60    1.00
  -2   0 -11   19.40    3.90
  -2   0 -11   17.00    1.90
  -2   0 -11   17.70    2.50
  -2   0 -11   16.30    1.70
   2   0  11   15.80    1.50
   2   0  11   14.50    2.00
   2   0  11   17.20    1.90
   2   0  11   19.10    4.00
  -3   0 -11    0.10    1.10
  -3   0 -11    0.10    1.10
  -3   0 -11    1.30    1.20
  -3   0 -11   -1.00    1.00
   3   0  11   -0.10    1.10
   3   0  11    0.50    1.40
   3   0  11    0.10    1.20
  -4   0 -11   14.20    2.20
  -4   0 -11   16.60    1.90
   4   0  11   18.20    2.20
   4   0  11   18.70    2.10
  -5   0 -11    2.00    1.90
  -5   0 -11    5.30    1.60
   5   0  11    5.80    1.90
   5   0  11    5.30    1.60
  -6   0 -11    3.20    1.70
  -6   0 -11    0.10    2.00
   6   0  11    2.60    2.20
   6   0  11    0.80    1.50
  -7   0 -11    7.80    2.10
   7   0  11    8.00    2.00
   7  -1 -11   -0.30    2.20
   6  -1 -11    6.40    2.30
   6  -1 -11    6.40    1.70
  -6   1  11    2.70    2.30
  -6   1  11    7.10    2.10
  -6   1  11    6.70    2.00
   5  -1 -11   -1.30    1.50
   5  -1 -11   -0.30    1.20
  -5   1  11   -0.90    1.40
  -5   1  11    0.00    1.40
  -5   1  11    0.10    1.30
  -5   1  11    0.60    1.60
   4  -1 -11   -0.10    1.10
   4  -1 -11   -0.90    1.30
  -4   1  11   -0.80    1.00
  -4   1  11   -0.10    1.30
  -4   1  11    1.40    1.30
  -4   1  11    2.00    1.80
   3  -1 -11    1.00    1.10
   3  -1 -11    2.60    1.30
  -3   1  11    1.40    1.30
  -3   1  11    3.10    1.40
  -3   1  11    1.80    1.50
  -3   1  11    2.60    1.30
  -3   1  11    1.00    1.10
   2  -1 -11  138.39    4.50
   2  -1 -11  137.39    4.70
  -2   1  11  145.79    7.90
  -2   1  11  134.29    5.00
  -2   1  11  134.99    4.50
  -2   1  11  143.99    6.70
   1  -1 -11  180.38    8.70
   1  -1 -11  177.78    5.40
   1  -1 -11  162.18    4.80
  -1   1  11  171.58    5.00
  -1   1  11  166.98    7.00
  -1   1  11  174.58    8.30
  -1   1  11  165.68    5.50
   0  -1 -11   29.30    2.10
   0  -1 -11   27.00    1.90
   0  -1 -11   26.90    2.10
   0  -1 -11   33.00    3.90
   0   1  11   30.70    2.30
   0   1  11   30.60    3.60
   0   1  11   29.60    2.10
  -1  -1 -11   19.00    3.50
  -1  -1 -11   16.70    1.70
  -1  -1 -11   16.80    1.80
  -1  -1 -11   16.80    2.10
   1   1  11   25.30    3.80
   1   1  11   18.80    2.00
   1   1  11   19.30    2.00
   1   1  11   18.60    1.80
  -2  -1 -11   20.90    2.70
  -2  -1 -11   20.20    1.80
  -2  -1 -11   20.90    2.00
  -2  -1 -11   23.30    3.90
   2   1  11   19.50    4.10
   2   1  11   21.40    2.00
   2   1  11   19.60    2.10
   2   1  11   17.50    1.90
   2   1  11   20.30    1.50
  -3  -1 -11   77.99    6.30
  -3  -1 -11   78.99    3.30
  -3  -1 -11   82.89    3.70
  -3  -1 -11   81.49    5.40
   3   1  11   74.59    3.70
   3   1  11   77.39    3.50
   3   1  11   81.69    3.80
   3   1  11   78.69    3.10
  -4  -1 -11   84.79    6.60
  -4  -1 -11   86.19    6.10
  -4  -1 -11   87.99    4.00
  -4  -1 -11   84.49    3.90
  -4  -1 -11   79.89    3.40
   4   1  11   87.99    3.80
   4   1  11   90.09    4.20
   4   1  11   80.99    3.50
  -5  -1 -11    2.40    1.30
  -5  -1 -11    1.30    1.10
  -5  -1 -11   -0.70    1.60
  -5  -1 -11    1.70    1.30
   5   1  11    3.20    1.50
   5   1  11    3.80    1.80
   5   1  11    2.70    1.30
  -6  -1 -11   14.30    2.50
  -6  -1 -11   14.70    2.20
   6   1  11   18.30    2.60
  -7  -1 -11    3.20    1.40
  -7  -1 -11   -4.30    2.40
  -7  -1 -11    1.90    1.70
  -7  -1 -11    1.00    1.50
   7   1  11    0.00    1.60
   7  -2 -11    2.30    2.60
   6  -2 -11    0.10    1.10
   6  -2 -11   -0.50    1.80
  -6   2  11   -0.10    1.30
  -6   2  11    1.40    2.20
  -6   2  11   -2.20    1.50
  -6   2  11   -0.40    1.50
   5  -2 -11    2.90    1.30
   5  -2 -11    0.50    1.80
  -5   2  11    4.50    2.20
  -5   2  11    0.90    1.40
  -5   2  11    0.20    1.20
  -5   2  11    3.00    1.50
   4  -2 -11   10.70    2.30
   4  -2 -11   10.20    1.70
  -4   2  11    6.00    2.10
  -4   2  11   11.80    2.00
  -4   2  11   11.10    2.10
  -4   2  11    5.80    1.60
   3  -2 -11   60.69    2.90
   3  -2 -11   60.09    2.90
  -3   2  11   70.09    6.00
  -3   2  11   65.29    2.90
  -3   2  11   64.19    4.60
  -3   2  11   61.19    3.40
   2  -2 -11   77.69    3.20
   2  -2 -11   74.19    3.00
  -2   2  11   80.79    3.70
  -2   2  11   74.09    3.20
  -2   2  11   74.49    4.60
  -2   2  11   76.89    6.00
   1  -2 -11   18.40    1.80
   1  -2 -11   19.70    1.70
  -1   2  11   19.80    2.60
  -1   2  11   20.40    2.10
  -1   2  11   20.10    2.00
  -1   2  11   22.90    3.50
   0  -2 -11    9.10    1.40
   0  -2 -11   10.60    1.70
   0  -2 -11   11.80    3.10
   0  -2 -11    9.90    1.70
   0   2  11    7.10    1.80
   0   2  11   10.50    1.60
   0   2  11    9.90    1.50
   0   2  11   11.50    2.30
  -1  -2 -11    1.10    1.00
  -1  -2 -11    1.30    0.90
  -1  -2 -11    1.40    1.00
  -1  -2 -11    0.30    0.90
   1   2  11    2.40    1.40
   1   2  11    1.20    0.60
   1   2  11    1.10    1.00
   1   2  11    1.60    1.00
   1   2  11    1.00    0.80
  -2  -2 -11   19.30    1.80
  -2  -2 -11   23.30    3.70
  -2  -2 -11   21.10    2.00
  -2  -2 -11   21.10    2.80
   2   2  11   21.50    2.20
   2   2  11   26.90    3.90
   2   2  11   21.30    2.20
   2   2  11   23.10    2.50
  -3  -2 -11    1.30    1.10
  -3  -2 -11    0.80    1.10
  -3  -2 -11    0.90    1.20
  -3  -2 -11    0.80    1.00
  -3  -2 -11    1.70    1.20
   3   2  11    2.10    1.40
   3   2  11    1.00    1.30
   3   2  11    0.40    1.10
  -4  -2 -11    4.70    1.60
  -4  -2 -11    2.80    1.20
  -4  -2 -11    2.20    1.60
  -4  -2 -11    4.60    1.50
   4   2  11    0.70    1.30
   4   2  11    2.40    1.40
   4   2  11    3.10    1.50
  -5  -2 -11    2.00    1.90
  -5  -2 -11    4.80    1.60
  -5  -2 -11    2.60    1.30
  -5  -2 -11    1.40    1.10
  -5  -2 -11    4.20    1.60
   5   2  11    2.80    1.60
   5   2  11    1.70    1.60
  -6  -2 -11   -0.50    2.10
  -6  -2 -11    4.90    1.90
  -6  -2 -11    2.70    1.70
   6   2  11    3.00    1.90
  -7  -2 -11   25.30    4.00
  -7  -2 -11   18.60    3.10
  -7  -2 -11   18.60    2.80
   7   2  11   21.80    2.80
   7  -3 -11   -2.40    2.00
   6  -3 -11    3.10    2.30
  -6   3  11    3.70    1.60
   5  -3 -11   -0.10    1.00
   5  -3 -11    1.90    2.10
  -5   3  11    0.80    1.70
  -5   3  11    0.50    1.20
  -5   3  11   -0.10    1.10
  -5   3  11   -0.90    1.10
   4  -3 -11   10.50    2.40
   4  -3 -11   10.40    1.60
  -4   3  11   11.30    2.00
  -4   3  11    6.80    2.40
  -4   3  11    8.60    1.70
   3  -3 -11   13.90    2.30
   3  -3 -11   12.20    1.70
  -3   3  11   12.90    2.10
  -3   3  11   14.10    3.60
   2  -3 -11  192.18    5.50
   2  -3 -11  181.68    5.20
   2  -3 -11  188.58    5.20
  -2   3  11  187.58    5.20
  -2   3  11  188.38    7.30
  -2   3  11  191.18    9.50
  -2   3  11  187.78    5.90
   1  -3 -11   12.30    1.50
   1  -3 -11   10.90    1.60
   1  -3 -11   13.00    1.70
  -1   3  11    9.90    0.90
  -1   3  11   15.40    3.60
  -1   3  11    9.10    1.90
  -1   3  11    6.00    1.70
  -1   3  11    9.90    1.50
  -1   3  11   11.10    1.90
   0  -3 -11   44.80    2.80
   0  -3 -11   45.90    2.60
   0  -3 -11   45.30    2.50
   0  -3 -11   44.90    2.60
   0   3  11   45.10    2.60
   0   3  11   45.00    2.50
   0   3  11   47.20    4.80
   0   3  11   46.50    3.80
   0   3  11   46.00    2.70
  -1  -3 -11   74.29    3.60
  -1  -3 -11   78.59    3.40
  -1  -3 -11   72.59    3.10
  -1  -3 -11   82.59    4.50
   1   3  11   79.39    5.90
   1   3  11   78.59    4.60
   1   3  11   74.29    3.20
   1   3  11   75.69    3.60
  -2  -3 -11   18.30    1.90
  -2  -3 -11   21.10    3.00
  -2  -3 -11   18.30    2.00
  -2  -3 -11   18.80    2.00
   2   3  11   19.00    4.20
   2   3  11   22.90    2.30
   2   3  11   19.00    2.70
   2   3  11   19.10    2.00
  -3  -3 -11   -0.30    1.30
  -3  -3 -11    0.40    1.10
  -3  -3 -11   -1.60    1.10
  -3  -3 -11    0.30    1.10
   3   3  11    0.70    1.40
   3   3  11   -0.70    1.20
   3   3  11   -0.30    1.20
  -4  -3 -11   70.49    3.80
  -4  -3 -11   69.89    3.50
  -4  -3 -11   73.49    3.70
  -4  -3 -11   70.39    5.90
   4   3  11   61.89    5.10
   4   3  11   73.99    4.00
   4   3  11   71.59    3.70
  -5  -3 -11   70.59    6.60
  -5  -3 -11   72.19    4.10
  -5  -3 -11   71.49    3.70
  -5  -3 -11   71.79    3.90
   5   3  11   73.69    4.10
   5   3  11   76.19    4.00
  -6  -3 -11    7.90    2.30
  -6  -3 -11   13.80    2.90
  -6  -3 -11    8.80    2.20
   6   3  11    7.10    2.10
  -7  -3 -11   -1.10    1.50
  -7  -3 -11    1.50    1.20
  -7  -3 -11   -0.30    1.90
   7   3  11    2.10    2.30
   6  -4 -11    1.70    2.50
   5  -4 -11    9.90    1.60
   5  -4 -11    9.80    2.70
  -5   4  11   10.10    1.80
  -5   4  11    9.20    1.80
  -5   4  11    5.90    2.50
   4  -4 -11    7.10    1.40
   4  -4 -11    8.70    2.40
  -4   4  11    4.50    2.10
  -4   4  11    3.10    1.30
  -4   4  11    6.40    1.70
   3  -4 -11   44.30    2.40
   3  -4 -11   43.30    3.30
  -3   4  11   44.10    2.90
  -3   4  11   40.90    3.60
  -3   4  11   43.40    5.30
   2  -4 -11   36.60    2.10
   2  -4 -11   41.00    2.40
  -2   4  11   43.00    4.80
  -2   4  11   39.50    2.20
  -2   4  11   36.20    3.00
  -2   4  11   41.60    2.80
   1  -4 -11   14.40    1.60
   1  -4 -11   14.70    1.70
  -1   4  11   13.00    3.00
  -1   4  11   17.50    3.80
  -1   4  11   14.70    1.60
  -1   4  11   16.60    1.90
   0  -4 -11   17.60    1.80
   0  -4 -11   18.40    1.80
   0  -4 -11   17.00    1.20
   0   4  11   19.60    2.10
   0   4  11   17.30    3.20
   0   4  11   14.90    2.00
   0   4  11   18.70    1.80
   0   4  11   18.70    3.70
  -1  -4 -11    1.70    0.50
  -1  -4 -11    3.00    1.20
  -1  -4 -11    4.10    1.30
  -1  -4 -11    3.30    1.20
   1   4  11    3.00    1.40
   1   4  11    2.00    1.40
   1   4  11    2.50    1.20
   1   4  11    3.80    1.80
  -2  -4 -11   23.40    2.10
  -2  -4 -11   22.50    2.30
  -2  -4 -11   24.10    3.60
  -2  -4 -11   17.90    1.90
  -2  -4 -11   20.60    2.10
   2   4  11   19.40    2.10
   2   4  11   23.70    2.50
   2   4  11   22.00    4.50
   2   4  11   23.60    3.40
  -3  -4 -11    4.60    1.80
  -3  -4 -11    9.20    1.80
  -3  -4 -11    5.40    1.50
  -3  -4 -11    7.90    1.90
   3   4  11    7.80    1.90
   3   4  11    4.60    1.80
   3   4  11    6.20    1.70
  -4  -4 -11    0.70    0.60
  -4  -4 -11    1.70    1.40
  -4  -4 -11   -1.00    1.50
  -4  -4 -11    1.60    1.30
  -4  -4 -11    0.00    1.20
   4   4  11    2.00    1.60
   4   4  11    0.80    1.50
   4   4  11   -1.40    1.70
  -5  -4 -11   28.90    2.70
  -5  -4 -11   35.40    3.10
  -5  -4 -11   25.20    5.60
  -5  -4 -11   33.40    3.20
  -5  -4 -11   35.20    3.50
   5   4  11   33.30    3.40
   5   4  11   34.00    3.40
  -6  -4 -11    4.50    2.10
  -6  -4 -11    5.70    1.80
  -6  -4 -11    5.00    1.40
  -6  -4 -11    8.00    2.20
   6   4  11    6.90    2.20
   6   4  11    6.40    2.30
  -7  -4 -11    2.20    1.30
   6  -5 -11   -1.90    2.30
   5  -5 -11    2.10    2.30
  -5   5  11    3.20    2.30
   4  -5 -11   12.10    1.60
   4  -5 -11   10.40    2.80
  -4   5  11    7.40    2.50
  -4   5  11   13.60    2.00
   3  -5 -11   11.70    1.70
   3  -5 -11   11.60    2.50
  -3   5  11    5.90    2.10
  -3   5  11    8.90    1.70
  -3   5  11    8.20    2.60
   2  -5 -11   84.39    3.30
  -2   5  11   95.39    6.90
  -2   5  11   81.49    3.80
  -2   5  11   81.89    6.80
   1  -5 -11   19.50    1.90
   1  -5 -11   17.80    1.70
  -1   5  11   21.00    3.60
  -1   5  11   17.60    2.20
  -1   5  11   18.50    1.80
  -1   5  11   20.90    4.00
   0  -5 -11    0.80    1.10
   0  -5 -11   -0.70    0.80
   0   5  11   -1.00    1.30
   0   5  11    0.30    1.10
   0   5  11   -1.10    1.40
   0   5  11    1.90    1.10
  -1  -5 -11   22.00    2.20
  -1  -5 -11   24.00    3.20
  -1  -5 -11   21.10    2.00
   1   5  11   21.30    4.60
   1   5  11   20.80    2.50
   1   5  11   22.30    2.10
   1   5  11   22.80    3.80
  -2  -5 -11   41.00    4.10
  -2  -5 -11   41.00    2.70
  -2  -5 -11   39.70    2.90
  -2  -5 -11   38.90    2.70
   2   5  11   39.20    3.10
   2   5  11   38.20    5.30
   2   5  11   40.80    4.40
   2   5  11   37.60    2.70
  -3  -5 -11   34.10    4.80
  -3  -5 -11   33.70    2.90
  -3  -5 -11   37.50    3.10
  -3  -5 -11   32.20    2.30
  -3  -5 -11   36.00    2.80
   3   5  11   39.90    3.30
   3   5  11   35.00    2.90
   3   5  11   32.10    4.60
  -4  -5 -11   -1.90    1.70
  -4  -5 -11    0.10    0.50
  -4  -5 -11    0.50    1.30
  -4  -5 -11    2.20    1.60
  -4  -5 -11    0.60    1.30
   4   5  11    3.70    1.70
   4   5  11    1.20    1.60
   4   5  11   -2.60    1.90
  -5  -5 -11   68.29    4.10
  -5  -5 -11   68.09    4.40
  -5  -5 -11   65.49    7.20
  -5  -5 -11   64.79    4.00
   5   5  11   71.09    4.20
   5   5  11   74.29    4.70
  -6  -5 -11    1.20    1.60
  -6  -5 -11    0.60    1.60
  -6  -5 -11   -3.30    2.40
  -6  -5 -11    0.30    2.00
   6   5  11    0.50    1.90
   6   5  11    1.50    2.00
   5  -6 -11    2.40    2.30
   4  -6 -11   27.60    3.50
  -4   6  11   32.10    2.40
  -4   6  11   37.70    5.90
  -4   6  11   35.10    5.70
   3  -6 -11    5.40    2.20
   3  -6 -11    2.80    1.10
  -3   6  11    1.90    1.80
  -3   6  11    3.30    2.20
  -3   6  11    3.20    1.40
   2  -6 -11    0.10    1.10
   2  -6 -11    4.90    1.90
  -2   6  11    2.50    1.50
  -2   6  11    1.10    1.70
  -2   6  11    0.50    1.70
   1  -6 -11    3.80    1.30
  -1   6  11    1.70    2.00
  -1   6  11    1.70    1.80
  -1   6  11    2.30    1.50
   0  -6 -11   26.50    2.20
   0  -6 -11   29.30    2.40
   0   6  11   28.70    2.30
   0   6  11   32.90    2.70
   0   6  11   27.20    4.30
   0   6  11   29.90    4.90
  -1  -6 -11   35.50    2.60
  -1  -6 -11   35.90    2.80
  -1  -6 -11   36.60    2.70
   1   6  11   32.30    2.90
   1   6  11   31.00    2.70
   1   6  11   32.10    4.40
   1   6  11   31.80    5.20
  -2  -6 -11    7.50    2.00
  -2  -6 -11   13.60    2.10
  -2  -6 -11   15.30    2.30
  -2  -6 -11    9.60    1.80
   2   6  11   13.30    2.40
   2   6  11    6.50    2.30
   2   6  11   10.30    2.10
   2   6  11    6.10    2.20
  -3  -6 -11    7.90    2.10
  -3  -6 -11    6.90    1.80
  -3  -6 -11    8.00    1.90
  -3  -6 -11    3.50    1.80
   3   6  11    2.70    2.20
   3   6  11    7.90    2.10
   3   6  11    7.20    2.20
  -4  -6 -11   24.00    2.80
  -4  -6 -11   18.70    2.90
  -4  -6 -11   21.50    2.70
  -4  -6 -11   18.60    4.60
   4   6  11   26.00    3.20
   4   6  11   22.80    2.90
  -5  -6 -11   12.10    2.50
  -5  -6 -11    6.40    2.70
  -5  -6 -11   14.20    3.00
  -5  -6 -11   10.60    2.30
   5   6  11   14.30    2.80
   5   6  11   13.80    2.90
  -6  -6 -11   10.70    2.80
  -6  -6 -11    8.50    2.30
  -6  -6 -11    2.40    2.80
   6   6  11    7.40    2.50
   6   6  11   10.70    2.80
   5  -7 -11   14.10    3.60
   4  -7 -11    2.30    2.20
  -4   7  11    1.40    2.00
   3  -7 -11    8.00    2.50
   3  -7 -11    4.10    1.20
  -3   7  11    5.60    1.50
  -3   7  11    3.60    2.20
  -3   7  11    4.20    2.60
   2  -7 -11    6.60    1.40
   2  -7 -11    8.10    2.40
  -2   7  11    9.40    1.90
  -2   7  11    6.40    2.60
   1  -7 -11   12.30    2.60
   1  -7 -11   11.70    1.80
  -1   7  11   10.70    2.00
  -1   7  11   11.70    3.10
   0  -7 -11   11.20    1.90
   0   7  11    7.60    2.80
   0   7  11   10.40    2.20
  -1  -7 -11    2.50    1.20
  -1  -7 -11    4.20    1.60
  -1  -7 -11    1.30    1.40
   1   7  11    0.40    1.90
   1   7  11    3.40    1.50
   1   7  11   -1.50    1.90
   1   7  11    2.50    1.70
  -2  -7 -11    7.70    1.80
  -2  -7 -11   10.10    2.30
  -2  -7 -11    8.40    2.10
   2   7  11    9.00    2.20
   2   7  11    5.60    2.40
   2   7  11   10.00    2.10
  -3  -7 -11   18.90    2.80
  -3  -7 -11   17.70    3.10
  -3  -7 -11   15.30    2.40
  -3  -7 -11   19.30    4.60
   3   7  11   18.30    2.90
   3   7  11    9.80    3.20
   3   7  11   17.30    2.60
  -4  -7 -11   21.00    2.80
  -4  -7 -11   25.90    3.20
  -4  -7 -11   24.30    3.00
   4   7  11   25.60    3.10
   4   7  11   29.90    3.70
  -5  -7 -11    6.90    2.20
  -5  -7 -11    3.80    2.80
  -5  -7 -11   15.20    3.20
  -5  -7 -11    7.90    2.30
   5   7  11   10.80    2.60
   5   7  11   12.60    3.00
  -6  -7 -11   -1.00    1.80
   6   7  11   -1.40    2.10
   4  -8 -11   10.60    3.00
  -4   8  11    3.60    2.80
   3  -8 -11    0.80    2.20
  -3   8  11   -2.30    1.80
   2  -8 -11    0.90    1.90
   2  -8 -11    0.10    1.20
  -2   8  11    1.60    2.20
  -2   8  11    1.70    1.40
  -2   8  11   -2.50    1.80
   1  -8 -11    2.20    1.50
   1  -8 -11    4.40    2.20
  -1   8  11   -2.30    2.10
  -1   8  11    3.10    1.70
  -1   8  11    0.00    2.10
   0  -8 -11    0.20    1.50
   0  -8 -11   -1.80    1.60
   0   8  11   -0.30    2.20
   0   8  11   -0.10    1.60
  -1  -8 -11   26.80    2.50
  -1  -8 -11   34.50    3.00
   1   8  11   31.70    5.50
   1   8  11   35.20    3.50
  -2  -8 -11    1.00    1.30
  -2  -8 -11   -0.30    1.40
   2   8  11   -2.10    2.60
   2   8  11    2.10    2.10
   2   8  11   -0.20    1.50
  -3  -8 -11    2.50    1.80
  -3  -8 -11    0.50    1.50
  -3  -8 -11    2.20    1.70
   3   8  11    2.60    2.00
   3   8  11   -3.00    2.70
   3   8  11    0.80    1.90
  -4  -8 -11   17.70    3.10
  -4  -8 -11   22.60    2.90
  -4  -8 -11   29.30    3.60
   4   8  11   29.10    3.70
   4   8  11   29.20    3.40
  -5  -8 -11    0.90    2.40
   5   8  11   -0.40    1.90
   3  -9 -11    4.40    2.70
   2  -9 -11    1.20    2.20
  -2   9  11    0.00    1.30
   1  -9 -11   -0.30    1.40
   1  -9 -11    0.90    1.90
  -1   9  11    1.00    1.60
  -1   9  11   -2.10    2.20
   0  -9 -11    1.10    1.90
   0  -9 -11    0.70    1.60
   0   9  11    0.40    2.50
   0   9  11    2.50    2.00
  -1  -9 -11    8.00    2.20
  -1  -9 -11    7.40    2.10
   1   9  11    2.50    3.10
   1   9  11    9.00    2.50
  -2  -9 -11    0.30    1.30
  -2  -9 -11   -0.50    1.70
   2   9  11    1.10    2.00
   2   9  11   -3.80    2.80
  -3  -9 -11   -0.10    1.30
   2 -10 -11   -0.60    2.00
   1 -10 -11    3.80    2.50
   0 -10 -11    9.40    2.50
   1  -8  12    3.70    2.50
   2  -8  12    3.30    2.30
  -3  -7  12   -1.40    2.20
   0   7 -12   -0.10    1.80
   0  -7  12   -1.30    2.00
  -1   7 -12    8.30    2.50
   1  -7  12    7.50    2.50
   1  -7  12    8.20    2.70
   2  -7  12   19.10    3.20
   2  -7  12   19.60    2.90
   3  -7  12    4.40    2.60
   4  -7  12    2.10    2.20
   3   6 -12   -0.30    1.80
   3   6 -12   -0.30    1.90
  -3  -6  12    0.60    2.10
  -3  -6  12   -2.20    1.60
  -3  -6  12   -3.00    1.90
   2   6 -12   -0.60    1.70
   2   6 -12    0.10    1.70
  -2  -6  12   -2.00    1.80
  -2  -6  12   -0.30    1.90
   1   6 -12    0.60    1.50
   1   6 -12    1.50    1.80
  -1  -6  12   -1.50    1.70
  -1  -6  12    0.80    1.70
   0   6 -12    7.10    2.10
   0  -6  12    8.90    2.40
  -1   6 -12   -1.80    1.90
  -1   6 -12    2.10    1.70
   1  -6  12    3.70    2.00
   1  -6  12   -0.70    1.90
  -2   6 -12    5.30    1.80
  -2   6 -12    0.40    2.20
   2  -6  12    3.20    1.90
   2  -6  12    7.00    2.30
  -3   6 -12    1.90    1.60
   3  -6  12    1.30    2.10
   3  -6  12    1.60    1.60
  -4   6 -12    1.40    1.50
   4  -6  12    1.60    1.50
   4  -6  12   -0.60    2.00
   5  -6  12    0.30    2.20
  -5  -5  12    0.50    2.20
   4   5 -12    4.70    2.30
   4   5 -12    2.30    2.20
  -4  -5  12    3.10    2.60
  -4  -5  12   -1.80    1.80
  -4  -5  12    2.90    2.20
   3   5 -12    1.10    1.80
   3   5 -12    2.90    2.20
  -3  -5  12   -0.70    1.80
  -3  -5  12    2.90    2.20
  -3  -5  12    1.90    2.10
   2   5 -12   -0.50    1.50
   2   5 -12   -0.50    1.60
  -2  -5  12    1.20    1.90
  -2  -5  12    0.40    1.70
   1   5 -12    2.10    1.60
   1   5 -12   -0.20    1.50
  -1  -5  12    0.70    1.80
  -1  -5  12   -0.30    1.60
   0   5 -12    1.90    1.40
   0   5 -12    4.20    1.80
   0  -5  12    5.30    1.60
   0  -5  12    4.10    2.10
   0  -5  12    3.20    1.90
  -1   5 -12   61.99    7.70
  -1   5 -12   70.29    4.00
   1  -5  12   73.89    3.60
   1  -5  12   64.09    3.70
   1  -5  12   63.49    3.90
  -2   5 -12    9.40    2.00
  -2   5 -12    4.40    2.30
   2  -5  12   10.70    2.10
   2  -5  12    9.00    2.30
  -3   5 -12    0.40    1.30
  -3   5 -12   -2.80    1.60
   3  -5  12    0.40    1.50
   3  -5  12   -0.70    1.80
  -4   5 -12    2.30    1.70
  -4   5 -12    1.00    1.50
   4  -5  12    0.20    1.40
   4  -5  12    0.00    1.90
  -5   5 -12    3.10    1.60
   5  -5  12    1.80    2.30
  -5  -4  12   -2.10    2.20
   4   4 -12   -0.20    1.80
   4   4 -12    1.10    1.90
  -4  -4  12   -0.40    1.90
  -4  -4  12    0.70    2.10
  -4  -4  12   -2.90    1.70
   3   4 -12    0.60    1.70
   3   4 -12    1.00    1.70
  -3  -4  12   -0.90    1.50
  -3  -4  12    1.30    2.00
  -3  -4  12    2.00    1.90
   2   4 -12    5.10    1.90
   2   4 -12    5.40    1.80
  -2  -4  12    5.10    2.10
  -2  -4  12    5.80    2.00
  -2  -4  12    2.40    1.60
  -2  -4  12    6.10    2.00
   1   4 -12   15.60    2.30
   1   4 -12   20.10    2.70
  -1  -4  12   24.10    2.90
  -1  -4  12   18.30    2.60
  -1  -4  12   17.80    2.80
   0   4 -12   38.80    6.00
   0   4 -12   41.70    2.90
   0   4 -12   42.10    3.20
   0  -4  12   41.50    3.10
   0  -4  12   43.20    3.00
   0  -4  12   39.00    3.30
  -1   4 -12   34.20    2.90
  -1   4 -12   26.40    5.80
  -1   4 -12   34.30    2.70
   1  -4  12   30.20    2.70
   1  -4  12   37.60    2.60
   1  -4  12   27.00    2.60
   1  -4  12   30.70    2.80
  -2   4 -12   -0.70    1.30
  -2   4 -12   -1.00    1.40
   2  -4  12   -1.00    1.40
   2  -4  12    0.50    1.40
   2  -4  12    0.70    1.10
  -3   4 -12   -1.50    1.60
  -3   4 -12    0.50    1.40
  -3   4 -12    3.10    1.50
   3  -4  12   -1.20    1.60
   3  -4  12    2.70    1.50
  -4   4 -12   13.10    2.30
  -4   4 -12   15.60    3.70
   4  -4  12    9.60    2.50
   4  -4  12   11.50    2.00
  -5   4 -12    1.30    1.40
  -5   4 -12    2.00    2.00
   5  -4  12   -0.60    2.10
   5  -4  12    1.30    1.40
  -6   4 -12    1.10    1.40
   6  -4  12    2.30    2.70
   5   3 -12   -0.90    1.60
  -5  -3  12    2.20    2.40
  -5  -3  12    0.60    1.80
  -5  -3  12   -2.80    1.90
   4   3 -12   -0.80    1.40
   4   3 -12    1.40    1.70
  -4  -3  12    0.00    2.00
  -4  -3  12   -2.50    1.50
  -4  -3  12    0.80    1.60
  -4  -3  12   -1.80    1.70
  -4  -3  12   -0.60    1.30
   3   3 -12    5.10    1.80
   3   3 -12    3.50    1.70
  -3  -3  12    1.30    1.60
  -3  -3  12    7.10    2.40
  -3  -3  12    6.90    2.10
  -3  -3  12    1.80    1.50
  -3  -3  12    4.90    1.90
   2   3 -12   16.30    2.30
  -2  -3  12   14.60    2.60
  -2  -3  12    8.70    2.00
  -2  -3  12   17.90    2.60
  -2  -3  12   15.90    2.40
  -2  -3  12   10.30    2.00
   1   3 -12    8.20    1.80
   1   3 -12   12.60    2.30
  -1  -3  12   10.20    2.00
  -1  -3  12   11.10    2.00
  -1  -3  12   11.00    2.30
   0   3 -12   59.49    6.80
   0   3 -12   63.09    3.60
   0   3 -12   55.99    3.10
   0  -3  12   62.79    3.30
   0  -3  12   50.89    4.80
   0  -3  12   61.29    3.70
   0  -3  12   55.09    3.30
  -1   3 -12   72.29    3.40
  -1   3 -12   69.69    3.70
  -1   3 -12   74.59    7.00
   1  -3  12   75.09    3.40
   1  -3  12   67.19    3.40
   1  -3  12   67.29    3.50
   1  -3  12   73.19    3.80
  -2   3 -12    0.50    1.40
  -2   3 -12    4.50    1.60
  -2   3 -12    4.00    1.20
   2  -3  12    3.00    1.50
   2  -3  12    3.80    1.50
   2  -3  12    3.00    1.50
   2  -3  12    2.80    1.20
  -3   3 -12    1.40    1.30
  -3   3 -12   -1.10    1.40
  -3   3 -12    0.20    1.30
   3  -3  12    1.30    0.90
   3  -3  12    0.20    1.30
   3  -3  12   -0.80    1.30
  -4   3 -12    1.60    1.60
  -4   3 -12   -1.90    1.50
  -4   3 -12    1.60    1.50
   4  -3  12    0.90    1.70
   4  -3  12    1.90    1.40
  -5   3 -12    0.30    1.40
  -5   3 -12    1.90    1.70
   5  -3  12    0.60    1.90
   5  -3  12   -0.20    1.40
  -6   3 -12    5.50    1.70
   6  -3  12    7.40    2.80
   6  -3  12    6.90    1.70
   7  -3  12    1.60    3.00
   5   2 -12    4.60    1.90
  -5  -2  12    4.50    2.00
  -5  -2  12    4.10    2.50
   4   2 -12    1.40    1.50
   4   2 -12    0.60    1.40
  -4  -2  12   -0.40    1.70
  -4  -2  12    0.00    1.60
  -4  -2  12    0.50    1.50
  -4  -2  12   -0.60    1.40
  -4  -2  12   -0.60    1.70
   3   2 -12   -0.90    1.00
   3   2 -12    2.00    1.50
   3   2 -12    0.70    1.40
  -3  -2  12    0.90    1.50
  -3  -2  12    2.20    1.60
  -3  -2  12   -0.60    1.30
  -3  -2  12    0.70    1.60
  -3  -2  12    0.40    1.40
   2   2 -12    3.90    1.50
   2   2 -12    3.20    1.50
  -2  -2  12    1.90    1.40
  -2  -2  12    1.30    1.40
  -2  -2  12    2.60    1.50
  -2  -2  12    3.20    1.70
  -2  -2  12    0.40    1.20
   1   2 -12  156.38    5.10
   1   2 -12  152.98    5.60
   1   2 -12  147.89    8.80
  -1  -2  12  142.39    7.40
  -1  -2  12  151.18    5.30
  -1  -2  12  161.98    5.90
  -1  -2  12  144.59    5.20
  -1  -2  12  147.59    7.60
   0   2 -12  169.08    9.60
   0   2 -12  170.38    5.30
   0   2 -12  171.58    5.90
   0  -2  12  176.18    6.10
   0  -2  12  161.28    5.40
   0  -2  12  163.98    5.40
   0  -2  12  168.18    8.10
  -1   2 -12   56.09    4.00
  -1   2 -12   50.89    3.10
  -1   2 -12   51.29    2.80
  -1   2 -12   56.39    6.00
   1  -2  12   47.60    4.80
   1  -2  12   48.80    3.00
   1  -2  12   52.99    3.30
   1  -2  12   50.29    2.80
  -2   2 -12   30.70    2.20
  -2   2 -12   36.30    3.70
  -2   2 -12   29.80    5.40
  -2   2 -12   31.20    2.50
   2  -2  12   25.70    2.40
   2  -2  12   27.00    2.20
   2  -2  12   32.50    2.60
  -3   2 -12    3.70    1.30
  -3   2 -12    2.60    1.40
  -3   2 -12    3.00    1.50
  -3   2 -12   -0.10    1.40
   3  -2  12    1.40    1.30
   3  -2  12    2.30    1.50
   3  -2  12    1.70    1.20
  -4   2 -12    5.50    1.60
  -4   2 -12    3.60    1.80
  -4   2 -12    1.50    1.60
   4  -2  12    7.40    1.80
   4  -2  12    4.70    1.80
  -5   2 -12    0.90    1.60
  -5   2 -12    1.80    1.50
   5  -2  12   -0.50    2.00
   5  -2  12    3.30    1.60
  -6   2 -12    6.00    2.70
  -6   2 -12    9.00    2.00
   6  -2  12    9.70    2.90
   6  -2  12   10.60    2.00
   7  -2  12    6.10    3.00
  -6  -1  12   -1.00    2.20
   5   1 -12    0.90    1.60
   5   1 -12   -0.70    1.40
  -5  -1  12   -0.30    1.70
  -5  -1  12    1.20    1.80
  -5  -1  12   -1.30    1.70
  -5  -1  12   -1.50    1.90
   4   1 -12    0.70    1.30
   4   1 -12    1.80    1.50
   4   1 -12    3.30    1.60
  -4  -1  12   -0.40    1.50
  -4  -1  12    1.80    1.70
  -4  -1  12    2.60    1.60
  -4  -1  12    1.10    1.70
  -4  -1  12    2.30    1.70
   3   1 -12    5.00    1.70
   3   1 -12    5.50    1.60
  -3  -1  12    1.80    1.40
  -3  -1  12    5.50    1.80
  -3  -1  12    5.30    1.60
  -3  -1  12    2.20    1.70
  -3  -1  12    5.30    1.90
   2   1 -12    4.70    1.50
   2   1 -12    8.90    1.90
   2   1 -12    6.60    1.60
  -2  -1  12    9.30    2.00
  -2  -1  12    8.40    1.70
  -2  -1  12    5.50    1.50
  -2  -1  12    4.40    1.80
  -2  -1  12   10.70    1.90
   1   1 -12   55.69    5.50
   1   1 -12   47.30    2.80
   1   1 -12   50.29    2.90
   1   1 -12   57.19    3.30
  -1  -1  12   54.49    3.10
  -1  -1  12   54.49    4.70
  -1  -1  12   52.59    4.60
  -1  -1  12   59.69    3.60
   0   1 -12  151.48    8.60
   0   1 -12  140.39    6.10
   0   1 -12  147.89    4.90
   0   1 -12  148.89    5.20
   0  -1  12  156.28    5.70
   0  -1  12  149.99    7.70
   0  -1  12  146.29    5.00
  -1   1 -12    0.20    1.10
  -1   1 -12    0.60    1.10
  -1   1 -12   -0.20    0.90
  -1   1 -12    0.60    0.80
   1  -1  12   -1.20    0.80
   1  -1  12    0.20    1.30
   1  -1  12    0.20    0.40
   1  -1  12   -1.00    1.20
   1  -1  12   -0.30    1.30
  -2   1 -12    8.80    1.50
  -2   1 -12    5.90    1.50
  -2   1 -12   10.10    1.80
   2  -1  12    7.50    1.60
   2  -1  12    9.60    1.80
   2  -1  12    9.20    1.50
  -3   1 -12    0.20    1.30
  -3   1 -12    1.80    1.30
  -3   1 -12    1.70    1.10
  -3   1 -12    2.60    1.40
   3  -1  12    3.10    1.40
   3  -1  12    3.30    1.40
   3  -1  12    2.10    1.50
  -4   1 -12   -1.90    1.40
  -4   1 -12    0.40    1.10
  -4   1 -12    2.10    1.20
  -4   1 -12    0.70    1.30
   4  -1  12    1.40    1.50
   4  -1  12    1.40    1.20
   4  -1  12    0.80    1.40
  -5   1 -12    6.30    2.20
  -5   1 -12   11.20    2.10
   5  -1  12   11.50    2.00
   5  -1  12   10.60    2.30
  -6   1 -12    0.30    2.00
  -6   1 -12    1.90    1.60
   6  -1  12   -1.30    2.10
   6  -1  12    0.50    1.50
   7  -1  12    1.30    2.80
   7  -1  12    6.70    1.90
   6   0 -12   -2.30    1.70
   6   0 -12   -2.40    1.40
  -6   0  12    0.80    2.30
  -6   0  12   -0.70    1.80
   5   0 -12   -0.10    1.40
   5   0 -12    1.40    1.80
  -5   0  12   -1.90    1.40
  -5   0  12   -0.30    1.50
  -5   0  12    0.30    1.90
  -5   0  12    1.10    1.90
   4   0 -12    0.40    1.20
   4   0 -12   -1.40    1.20
  -4   0  12   -0.60    1.40
  -4   0  12    1.60    1.50
  -4   0  12    0.50    1.30
  -4   0  12    1.40    1.50
  -4   0  12    1.30    1.70
   3   0 -12   12.00    1.80
   3   0 -12    9.70    1.80
  -3   0  12   10.70    2.20
  -3   0  12    9.60    1.90
  -3   0  12   10.60    1.90
  -3   0  12    7.00    2.20
   2   0 -12   28.90    2.30
   2   0 -12   33.10    4.50
   2   0 -12   33.60    2.50
  -2   0  12   33.10    4.50
  -2   0  12   34.50    2.80
  -2   0  12   32.10    3.90
  -2   0  12   31.60    2.50
   1   0 -12  365.56   11.30
   1   0 -12  403.76   15.50
   1   0 -12  395.46   10.00
   1   0 -12  373.66    9.10
  -1   0  12  383.66    9.30
  -1   0  12  388.16   14.80
  -1   0  12  392.76   13.30
  -1   0  12  374.16   10.10
   0   0 -12  267.87   12.00
   0   0 -12  253.87    8.90
   0   0 -12  265.97    7.60
   0   0 -12  256.97    6.80
   0   0  12  260.97    7.00
   0   0  12  259.47   10.90
   0   0  12  267.07    7.80
  -1   0 -12    0.40    1.00
  -1   0 -12    1.30    1.20
  -1   0 -12   -0.30    0.70
  -1   0 -12    0.30    1.10
   1   0  12   -0.10    0.80
   1   0  12    0.70    1.20
   1   0  12   -0.40    1.50
   1   0  12    0.50    1.10
   1   0  12    1.10    0.60
  -2   0 -12   85.79    6.60
  -2   0 -12   83.29    3.40
  -2   0 -12   83.09    3.70
  -2   0 -12   81.89    5.00
   2   0  12   83.99    3.00
   2   0  12   85.99    4.00
   2   0  12   84.19    6.00
   2   0  12   83.49    3.60
  -3   0 -12   37.70    2.40
  -3   0 -12   34.40    2.60
  -3   0 -12   39.40    4.30
  -3   0 -12   38.40    5.30
   3   0  12   36.60    2.80
   3   0  12   40.60    2.90
   3   0  12   40.10    2.50
  -4   0 -12    1.80    1.20
  -4   0 -12   -0.30    1.20
  -4   0 -12   -1.50    1.30
  -4   0 -12   -0.30    1.30
   4   0  12    0.70    1.30
   4   0  12    0.30    1.30
   4   0  12    0.30    1.40
  -5   0 -12    7.60    1.80
  -5   0 -12    3.80    2.10
   5   0  12    6.90    2.00
   5   0  12    9.20    1.90
  -6   0 -12    2.70    1.70
  -6   0 -12   -1.90    1.80
   6   0  12   -0.30    1.50
   6   0  12   -0.50    2.10
  -7   0 -12   23.10    3.10
   7   0  12   25.00    2.90
   7  -1 -12    1.80    2.20
   6  -1 -12   -1.30    2.00
   6  -1 -12    0.70    1.50
  -6   1  12   -0.50    2.00
  -6   1  12    2.70    1.90
  -6   1  12   -3.10    1.70
  -6   1  12   -0.30    1.70
   5  -1 -12    0.70    1.70
   5  -1 -12    1.90    1.40
  -5   1  12    1.60    1.50
  -5   1  12   -1.20    1.50
  -5   1  12    1.60    1.70
  -5   1  12    1.20    2.00
   4  -1 -12   -0.70    1.70
   4  -1 -12   -0.80    1.10
  -4   1  12   -0.20    1.30
  -4   1  12   -1.20    1.00
  -4   1  12    0.80    1.70
  -4   1  12   -1.10    1.20
   3  -1 -12   29.70    2.40
   3  -1 -12   29.00    2.30
  -3   1  12   29.10    2.70
  -3   1  12   28.60    2.40
  -3   1  12   31.30    4.30
  -3   1  12   29.20    2.80
  -3   1  12   29.70    3.70
   2  -1 -12   37.60    2.50
   2  -1 -12   35.80    2.40
  -2   1  12   36.20    4.50
  -2   1  12   38.00    2.50
  -2   1  12   37.00    3.00
  -2   1  12   38.20    3.80
   1  -1 -12   30.70    4.60
   1  -1 -12   38.50    2.70
   1  -1 -12   32.80    2.30
  -1   1  12   35.10    2.50
  -1   1  12   35.60    3.50
  -1   1  12   35.60    2.80
  -1   1  12   43.10    4.90
   0  -1 -12   81.39    6.10
   0  -1 -12   74.89    3.20
   0  -1 -12   73.89    3.70
   0  -1 -12   80.19    3.60
   0   1  12   76.79    3.40
   0   1  12   80.39    5.70
   0   1  12   79.09    3.90
  -1  -1 -12   55.59    3.00
  -1  -1 -12   52.99    3.50
  -1  -1 -12   56.99    5.40
  -1  -1 -12   54.29    2.70
   1   1  12   58.69    3.20
   1   1  12   56.59    2.90
   1   1  12   55.19    2.00
   1   1  12   60.29    5.10
   1   1  12   55.79    3.30
  -2  -1 -12    3.00    1.30
  -2  -1 -12    2.90    1.20
  -2  -1 -12    2.40    1.30
  -2  -1 -12    4.20    1.30
   2   1  12    4.20    1.50
   2   1  12    2.80    1.70
   2   1  12    5.20    1.10
   2   1  12    4.00    0.90
   2   1  12    4.00    1.50
  -3  -1 -12    3.00    1.40
  -3  -1 -12    2.80    1.20
  -3  -1 -12    3.30    1.30
  -3  -1 -12    1.30    1.20
   3   1  12    7.20    1.80
   3   1  12    2.10    1.00
   3   1  12    5.60    1.50
   3   1  12    3.60    1.30
  -4  -1 -12    3.10    1.40
  -4  -1 -12    0.40    1.10
  -4  -1 -12   -1.10    1.00
  -4  -1 -12    0.30    1.40
   4   1  12    1.70    1.30
   4   1  12    1.10    1.50
   4   1  12    1.60    1.40
  -5  -1 -12    7.90    1.60
  -5  -1 -12    4.90    2.20
  -5  -1 -12    7.80    1.90
   5   1  12    8.70    2.10
   5   1  12    7.50    1.90
  -6  -1 -12    4.10    1.90
  -6  -1 -12    4.60    1.60
  -6  -1 -12   -1.30    2.20
   6   1  12    5.10    2.00
  -7  -1 -12    1.80    2.00
   7   1  12    1.10    1.90
   6  -2 -12    2.90    1.40
   6  -2 -12    2.30    2.20
  -6   2  12    1.00    1.70
  -6   2  12    4.60    1.80
  -6   2  12   -1.90    1.70
   5  -2 -12    4.80    2.10
   5  -2 -12    2.50    1.40
  -5   2  12    2.30    2.00
  -5   2  12   -0.90    1.40
  -5   2  12    3.00    1.70
  -5   2  12    5.40    1.80
   4  -2 -12    2.20    1.30
   4  -2 -12    0.60    1.70
  -4   2  12    1.80    1.30
  -4   2  12    1.40    1.90
  -4   2  12    0.50    1.20
  -4   2  12    1.30    1.60
   3  -2 -12    2.00    1.10
   3  -2 -12    3.80    1.40
  -3   2  12    2.30    1.60
  -3   2  12    3.20    1.40
  -3   2  12    1.40    1.10
  -3   2  12    3.00    1.70
   2  -2 -12  144.89    4.60
   2  -2 -12  143.49    4.90
  -2   2  12  146.99    5.40
  -2   2  12  140.99    4.60
  -2   2  12  133.09    8.00
  -2   2  12  138.69    6.50
   1  -2 -12  286.67    7.40
   1  -2 -12  312.27    8.20
  -1   2  12  295.17    8.40
  -1   2  12  320.17   13.00
  -1   2  12  313.07   10.50
  -1   2  12  299.77    7.60
   0  -2 -12   76.89    3.30
   0  -2 -12   83.99    6.10
   0  -2 -12   77.49    3.80
   0  -2 -12   86.09    3.70
   0   2  12   82.89    4.80
   0   2  12   80.39    3.80
   0   2  12   82.29    5.90
   0   2  12   82.49    3.40
  -1  -2 -12   88.29    3.50
  -1  -2 -12   92.39    6.60
  -1  -2 -12   93.49    4.80
  -1  -2 -12   93.79    3.90
   1   2  12   99.09    6.40
   1   2  12   85.59    3.60
   1   2  12   89.69    4.70
   1   2  12   93.29    4.10
  -2  -2 -12    7.40    1.70
  -2  -2 -12    4.80    1.40
  -2  -2 -12    4.50    1.40
  -2  -2 -12    4.00    1.40
   2   2  12    8.00    1.80
   2   2  12    7.10    1.10
   2   2  12    3.50    1.80
   2   2  12    5.80    1.30
   2   2  12    5.70    1.50
  -3  -2 -12   38.80    4.10
  -3  -2 -12   37.60    2.50
  -3  -2 -12   39.90    4.70
  -3  -2 -12   39.80    2.80
   3   2  12   33.70    3.40
   3   2  12   39.90    3.00
   3   2  12   35.20    2.60
  -4  -2 -12    3.60    1.40
  -4  -2 -12    5.00    1.90
  -4  -2 -12    5.90    1.50
  -4  -2 -12    8.40    1.70
  -4  -2 -12   10.60    2.10
   4   2  12    8.10    1.80
   4   2  12   11.30    2.20
   4   2  12    3.80    1.60
  -5  -2 -12   26.20    2.80
  -5  -2 -12   28.10    2.80
  -5  -2 -12   26.20    4.70
  -5  -2 -12   22.20    4.90
  -5  -2 -12   29.20    2.60
   5   2  12   27.90    2.80
   5   2  12   30.80    3.00
  -6  -2 -12   17.90    2.80
  -6  -2 -12   11.70    2.40
   6   2  12   19.50    2.60
  -7  -2 -12   14.10    2.70
  -7  -2 -12   25.10    4.10
   6  -3 -12   -1.40    1.80
  -6   3  12   -0.40    1.40
   5  -3 -12    0.00    1.90
   5  -3 -12    1.30    1.20
  -5   3  12    0.00    1.90
  -5   3  12    1.10    1.40
  -5   3  12   -2.30    1.20
  -5   3  12    0.40    1.40
   4  -3 -12    0.10    1.80
   4  -3 -12    1.00    1.20
  -4   3  12    1.10    1.50
  -4   3  12   -0.60    1.60
  -4   3  12   -0.70    1.10
  -4   3  12    1.70    1.40
   3  -3 -12    0.00    1.10
  -3   3  12    0.10    0.90
  -3   3  12    0.60    1.40
  -3   3  12    0.00    1.40
   2  -3 -12  144.89    4.60
   2  -3 -12  134.89    4.60
  -2   3  12  141.09    6.20
  -2   3  12  151.78    8.80
  -2   3  12  142.99    5.20
  -2   3  12  140.89    4.50
   1  -3 -12    3.80    1.20
   1  -3 -12    3.20    1.20
  -1   3  12    4.60    1.60
  -1   3  12    4.10    1.80
  -1   3  12    2.20    0.90
  -1   3  12    4.30    1.30
  -1   3  12    5.90    1.70
   0  -3 -12    0.80    1.00
   0  -3 -12    0.00    0.50
   0  -3 -12   -1.00    0.90
   0  -3 -12    0.00    0.70
   0   3  12   -0.70    1.00
   0   3  12    0.40    1.10
   0   3  12    0.80    1.50
   0   3  12   -0.20    1.10
   0   3  12    0.90    0.50
  -1  -3 -12   15.40    2.00
  -1  -3 -12   13.80    1.80
  -1  -3 -12   13.50    2.60
  -1  -3 -12   12.70    1.90
   1   3  12   15.90    2.70
   1   3  12   16.90    4.20
   1   3  12   14.30    2.10
   1   3  12   13.30    1.80
  -2  -3 -12   21.50    3.00
  -2  -3 -12   17.70    2.00
  -2  -3 -12   18.80    2.20
   2   3  12   18.40    2.90
   2   3  12   17.50    2.10
   2   3  12   17.10    2.30
   2   3  12   22.50    4.60
  -3  -3 -12    5.80    1.60
  -3  -3 -12    2.30    1.40
  -3  -3 -12    3.20    1.30
  -3  -3 -12    6.00    1.50
   3   3  12    4.10    1.60
   3   3  12    2.20    1.40
   3   3  12    5.30    1.70
  -4  -3 -12    4.30    2.00
  -4  -3 -12    8.70    1.90
  -4  -3 -12    9.10    2.00
  -4  -3 -12    7.60    1.60
   4   3  12    3.50    1.90
   4   3  12    8.70    2.10
   4   3  12    7.50    1.80
  -5  -3 -12    2.40    1.70
  -5  -3 -12   -1.40    1.70
  -5  -3 -12    1.30    1.40
  -5  -3 -12    2.10    1.40
   5   3  12    2.90    1.80
   5   3  12    2.90    1.80
  -6  -3 -12   -2.40    2.10
  -6  -3 -12    2.30    1.60
  -6  -3 -12    1.20    1.80
  -6  -3 -12    1.60    1.00
   6   3  12    2.10    1.80
  -7  -3 -12    1.50    1.10
  -7  -3 -12    2.20    2.10
   6  -4 -12    1.80    2.30
   5  -4 -12    4.00    2.40
   5  -4 -12    3.70    1.30
  -5   4  12    3.10    2.40
  -5   4  12    3.00    1.50
  -5   4  12    2.50    1.50
   4  -4 -12    2.50    2.00
   4  -4 -12    1.90    1.20
  -4   4  12   -0.60    1.10
  -4   4  12    0.60    1.30
  -4   4  12    1.40    1.90
   3  -4 -12   59.19    2.90
   3  -4 -12   58.39    4.00
  -3   4  12   62.79    3.50
  -3   4  12   65.69    6.10
  -3   4  12   51.59    4.10
   2  -4 -12   62.09    3.00
   2  -4 -12   59.19    3.10
  -2   4  12   66.19    5.60
  -2   4  12   61.89    2.90
  -2   4  12   56.39    3.70
  -2   4  12   62.39    6.20
  -2   4  12   63.49    3.50
   1  -4 -12   94.89    3.80
   1  -4 -12   94.09    3.70
  -1   4  12   98.39    6.30
  -1   4  12   89.69    3.50
  -1   4  12   98.29    7.00
  -1   4  12   94.49    4.20
   0  -4 -12   -0.20    0.90
   0  -4 -12   -0.90    0.90
   0   4  12    1.10    1.10
   0   4  12   -0.90    1.20
   0   4  12    0.70    1.60
   0   4  12   -0.20    1.10
  -1  -4 -12   56.29    3.10
  -1  -4 -12   58.79    4.10
  -1  -4 -12   52.59    2.90
  -1  -4 -12   55.59    2.90
   1   4  12   56.09    3.00
   1   4  12   60.49    5.60
   1   4  12   64.89    4.80
   1   4  12   56.59    3.40
  -2  -4 -12   20.20    2.10
  -2  -4 -12   22.00    2.20
  -2  -4 -12   22.30    2.40
  -2  -4 -12   20.80    3.50
   2   4  12   18.90    2.20
   2   4  12   22.90    3.40
   2   4  12   22.40    4.80
   2   4  12   20.00    2.50
  -3  -4 -12    1.00    1.20
  -3  -4 -12   -0.50    1.30
  -3  -4 -12   -0.70    1.10
  -3  -4 -12   -0.30    1.20
   3   4  12   -0.70    1.40
   3   4  12   -0.20    1.30
   3   4  12   -0.10    1.40
  -4  -4 -12    2.00    1.40
  -4  -4 -12    0.20    1.60
  -4  -4 -12    1.00    1.30
  -4  -4 -12   -0.50    1.30
   4   4  12    0.70    1.50
   4   4  12    0.90    1.60
  -5  -4 -12   14.40    2.50
  -5  -4 -12   13.80    2.70
  -5  -4 -12    9.10    1.90
  -5  -4 -12   10.00    2.20
   5   4  12   11.40    2.40
   5   4  12   10.50    2.40
  -6  -4 -12   31.60    3.50
  -6  -4 -12   31.60    3.30
  -6  -4 -12   24.90    2.80
  -6  -4 -12   34.70    3.90
   6   4  12   30.40    3.30
   6  -5 -12    1.10    2.50
   5  -5 -12    1.40    2.20
  -5   5  12   -0.70    1.70
   4  -5 -12   -1.10    1.00
   4  -5 -12    0.60    2.00
  -4   5  12   -0.80    1.20
  -4   5  12    0.30    1.80
   3  -5 -12   46.10    3.80
   3  -5 -12   51.19    2.70
  -3   5  12   46.10    5.70
  -3   5  12   52.09    3.20
  -3   5  12   46.90    5.60
   2  -5 -12   55.89    2.90
  -2   5  12   51.89    5.70
  -2   5  12   54.69    6.20
  -2   5  12   49.90    3.20
   1  -5 -12   12.70    1.70
   1  -5 -12   14.30    1.80
  -1   5  12   10.00    2.50
  -1   5  12    8.40    2.30
  -1   5  12   11.90    1.60
  -1   5  12   11.70    2.00
   0  -5 -12   17.10    2.10
   0  -5 -12   20.30    2.00
   0   5  12   18.20    4.60
   0   5  12   19.50    3.60
   0   5  12   20.00    2.40
   0   5  12   16.70    2.10
  -1  -5 -12    6.80    1.60
  -1  -5 -12    4.70    1.40
  -1  -5 -12    9.70    1.80
   1   5  12    5.30    1.90
   1   5  12    4.90    2.30
   1   5  12    8.20    1.90
   1   5  12    7.60    1.70
  -2  -5 -12   -0.10    1.30
  -2  -5 -12    0.00    1.20
  -2  -5 -12    0.40    1.40
  -2  -5 -12    0.40    1.10
   2   5  12   -1.20    1.70
   2   5  12   -0.90    1.40
   2   5  12   -1.10    1.40
   2   5  12   -0.50    1.30
  -3  -5 -12    2.10    1.70
  -3  -5 -12    3.30    1.50
  -3  -5 -12    1.90    1.60
  -3  -5 -12    2.70    1.40
   3   5  12    2.70    1.60
   3   5  12    3.70    1.80
   3   5  12    1.40    1.70
  -4  -5 -12    9.10    2.00
  -4  -5 -12    8.20    2.10
  -4  -5 -12    2.50    2.10
  -4  -5 -12    7.20    1.90
   4   5  12    9.80    2.40
   4   5  12    5.40    2.00
  -5  -5 -12    0.60    1.50
  -5  -5 -12   -2.30    2.00
  -5  -5 -12    3.80    2.20
  -5  -5 -12    2.20    1.70
   5   5  12    2.40    1.90
   5   5  12    4.60    2.00
  -6  -5 -12    0.30    2.60
  -6  -5 -12    6.10    2.30
  -6  -5 -12    5.80    2.00
  -6  -5 -12    6.00    2.40
   6   5  12    6.30    2.20
   6   5  12    7.10    2.40
   5  -6 -12    1.00    2.20
   4  -6 -12    0.80    1.90
  -4   6  12    1.20    2.30
  -4   6  12    2.20    1.30
  -4   6  12    0.40    2.00
   3  -6 -12   47.80    4.20
   3  -6 -12   48.10    2.60
  -3   6  12   44.80    6.10
  -3   6  12   48.70    3.20
  -3   6  12   50.09    5.90
   2  -6 -12    1.00    1.20
   2  -6 -12    1.30    1.90
  -2   6  12   -1.50    1.80
  -2   6  12   -0.50    1.40
  -2   6  12   -0.60    1.70
   1  -6 -12   20.40    2.20
  -1   6  12   20.20    4.50
  -1   6  12   17.60    2.50
   0  -6 -12   11.00    1.90
   0  -6 -12    9.90    1.80
   0   6  12    5.30    2.30
   0   6  12   10.90    2.20
   0   6  12    7.30    2.40
   0   6  12    7.90    1.60
  -1  -6 -12    0.00    1.20
  -1  -6 -12   -0.80    1.10
   1   6  12   -2.80    1.80
   1   6  12   -1.20    1.50
   1   6  12   -0.20    1.60
   1   6  12    1.00    1.30
  -2  -6 -12    8.80    2.20
  -2  -6 -12   13.90    2.30
  -2  -6 -12   15.50    2.30
  -2  -6 -12   14.20    2.40
   2   6  12   15.30    2.70
   2   6  12   10.10    2.70
   2   6  12   12.50    2.20
   2   6  12    8.50    2.60
  -3  -6 -12   10.40    2.30
  -3  -6 -12    4.00    1.90
  -3  -6 -12    7.00    1.80
  -3  -6 -12    8.50    2.00
   3   6  12    2.10    2.10
   3   6  12    8.50    2.20
   3   6  12    7.10    2.00
  -4  -6 -12   -0.70    1.80
  -4  -6 -12    0.40    1.60
  -4  -6 -12   -0.30    1.40
  -4  -6 -12    0.10    1.50
   4   6  12    2.10    1.80
   4   6  12    2.10    1.90
  -5  -6 -12   -2.80    2.00
  -5  -6 -12    0.20    1.60
  -5  -6 -12   -2.30    1.80
  -5  -6 -12   -0.80    1.50
   5   6  12   -0.80    1.70
   5   6  12    1.80    1.90
  -6  -6 -12    5.40    2.00
   6   6  12    6.80    2.40
   5  -7 -12    2.50    2.30
   4  -7 -12   12.40    3.10
  -4   7  12    9.30    3.20
   3  -7 -12   35.10    2.30
   3  -7 -12   35.40    3.80
  -3   7  12   44.90    6.30
  -3   7  12   36.20    6.10
  -3   7  12   36.10    2.80
   2  -7 -12   -1.60    1.10
   2  -7 -12   -0.50    1.80
  -2   7  12   -0.40    1.80
  -2   7  12   -2.50    1.80
  -2   7  12   -0.10    1.30
   1  -7 -12    1.20    1.30
  -1   7  12   -2.00    1.80
  -1   7  12    1.70    1.60
  -1   7  12    0.90    1.90
   0  -7 -12    5.30    1.70
   0   7  12    5.00    2.00
   0   7  12    1.60    2.40
   0   7  12    5.60    2.40
  -1  -7 -12   12.20    2.40
  -1  -7 -12   13.10    2.30
   1   7  12   14.10    2.20
   1   7  12   15.40    2.70
   1   7  12    8.90    2.80
  -2  -7 -12    9.20    2.20
  -2  -7 -12    7.30    1.90
  -2  -7 -12   10.30    2.00
   2   7  12   10.20    2.10
   2   7  12    3.10    2.40
   2   7  12    9.80    2.40
  -3  -7 -12    0.00    1.60
  -3  -7 -12    1.40    1.70
  -3  -7 -12    3.50    1.60
  -3  -7 -12    1.60    1.70
   3   7  12    1.70    1.80
   3   7  12    5.30    2.40
   3   7  12   -1.30    2.30
  -4  -7 -12   -0.30    2.00
  -4  -7 -12    2.30    1.80
  -4  -7 -12    2.50    2.10
  -4  -7 -12    3.00    1.90
   4   7  12    3.40    2.00
   4   7  12    2.00    2.00
  -5  -7 -12   -0.90    1.60
  -5  -7 -12   -1.40    2.00
  -5  -7 -12    1.70    2.10
  -5  -7 -12   -0.50    1.70
   5   7  12    0.20    1.90
   5   7  12   -0.50    2.00
   6   7  12    3.60    2.80
   4  -8 -12   11.20    3.10
   3  -8 -12    2.50    2.30
  -3   8  12   -1.10    2.10
   2  -8 -12    0.00    2.00
   2  -8 -12    1.20    1.30
  -2   8  12   -2.90    2.10
  -2   8  12    1.50    1.40
  -2   8  12   -0.40    2.10
   1  -8 -12    2.90    1.60
   1  -8 -12    1.50    2.10
  -1   8  12    1.10    2.10
  -1   8  12    3.40    1.70
   0  -8 -12    1.80    1.60
   0   8  12    0.90    2.40
   0   8  12    2.50    1.70
  -1  -8 -12    4.20    1.90
   1   8  12    3.20    2.70
   1   8  12    3.70    2.10
  -2  -8 -12    0.10    1.20
  -2  -8 -12   -0.90    1.40
   2   8  12   -3.20    2.10
   2   8  12    1.10    1.90
  -3  -8 -12    3.40    1.80
  -3  -8 -12    2.90    2.10
  -3  -8 -12    2.30    1.90
   3   8  12    5.50    2.10
   3   8  12   -2.60    2.60
   3   8  12    4.60    2.60
  -4  -8 -12    1.00    1.80
  -4  -8 -12    1.30    1.80
  -4  -8 -12    4.30    2.20
   4   8  12    1.00    2.10
   4   8  12    1.10    2.00
  -5  -8 -12   -1.30    1.90
   3  -9 -12    2.70    2.60
   2  -9 -12    2.90    2.50
  -2   9  12    2.70    1.60
   1  -9 -12    3.30    1.70
   1  -9 -12    4.10    2.30
  -1   9  12    4.10    1.90
   0  -9 -12    2.70    2.00
   0  -9 -12   -1.10    1.60
   0   9  12    1.10    1.90
   0   9  12   -1.40    2.40
  -1  -9 -12   -1.00    1.60
  -1  -9 -12   -0.90    1.90
   1   9  12   -4.00    2.70
   1   9  12    0.70    1.90
  -2  -9 -12    2.30    2.10
  -2  -9 -12    3.80    1.70
   2   9  12    3.80    2.40
   2   9  12   -4.30    3.10
  -3  -9 -12    6.50    2.00
   1 -10 -12    0.10    2.30
   0 -10 -12    1.00    1.80
   1  -7  13    9.30    2.80
   2  -7  13    4.10    2.40
   3  -7  13   -0.60    2.10
   3   6 -13   -1.00    1.80
  -3  -6  13    1.30    2.20
   2   6 -13    0.70    2.00
   2   6 -13    2.40    1.80
  -2  -6  13   -0.30    2.10
  -2  -6  13    0.30    1.90
   1   6 -13    4.20    2.10
   1   6 -13    3.50    2.10
  -1  -6  13    1.90    2.00
   0   6 -13    1.20    1.80
   0  -6  13    0.60    2.10
  -1   6 -13    3.80    2.10
   1  -6  13    2.40    2.00
   1  -6  13    1.30    2.10
  -2   6 -13   16.90    3.00
   2  -6  13   18.90    3.00
   2  -6  13   15.60    2.70
  -3   6 -13    0.10    1.60
   3  -6  13   -1.90    1.90
   3  -6  13   -0.20    1.70
   4  -6  13    2.10    2.30
   4   5 -13    0.70    2.00
  -4  -5  13    2.70    2.60
  -4  -5  13    2.00    2.50
   3   5 -13    0.30    1.80
   3   5 -13    0.60    1.80
  -3  -5  13   -0.30    2.00
  -3  -5  13   -2.70    2.00
  -3  -5  13   -1.50    1.80
   2   5 -13    1.90    1.90
   2   5 -13    1.70    1.90
  -2  -5  13    4.70    2.50
  -2  -5  13    1.00    2.00
   1   5 -13    2.30    1.90
   1   5 -13    1.60    1.70
  -1  -5  13    1.90    2.00
  -1  -5  13    3.40    1.80
  -1  -5  13    2.50    2.00
   0   5 -13    0.90    1.50
   0   5 -13    1.60    1.80
   0  -5  13   -0.50    1.60
   0  -5  13   -0.70    1.70
   0  -5  13    1.00    1.60
  -1   5 -13   22.60    3.10
   1  -5  13   19.80    3.00
   1  -5  13   17.80    2.70
   1  -5  13   22.70    2.60
  -2   5 -13    4.60    1.80
  -2   5 -13   -1.30    1.80
   2  -5  13    2.10    1.60
   2  -5  13    5.70    2.10
  -3   5 -13   12.10    2.30
   3  -5  13   11.20    2.20
   3  -5  13    8.70    2.60
  -4   5 -13    3.70    1.80
   4  -5  13    1.90    2.10
   4  -5  13    3.00    1.60
   5  -5  13    0.90    2.30
   4   4 -13    1.80    1.80
   4   4 -13    0.10    1.80
  -4  -4  13    0.50    2.10
  -4  -4  13   -3.10    1.50
  -4  -4  13   -3.30    1.70
   3   4 -13    3.70    2.10
   3   4 -13    4.00    2.10
  -3  -4  13    3.50    2.20
  -3  -4  13    5.00    2.30
  -3  -4  13    1.40    1.90
  -3  -4  13    5.50    2.50
   2   4 -13    0.00    1.50
   2   4 -13    1.80    1.70
  -2  -4  13    2.80    1.90
  -2  -4  13   -0.40    1.70
  -2  -4  13    2.30    1.90
  -2  -4  13   -0.30    1.40
   1   4 -13    5.60    2.00
   1   4 -13    4.90    1.80
  -1  -4  13    5.90    2.30
  -1  -4  13    4.50    2.00
  -1  -4  13    6.20    1.90
   0   4 -13    0.50    1.40
   0   4 -13   -1.80    1.50
   0   4 -13    1.40    1.60
   0  -4  13    0.40    1.70
   0  -4  13    2.00    1.70
   0  -4  13    1.30    1.50
  -1   4 -13   13.80    2.40
  -1   4 -13   11.90    2.10
   1  -4  13   11.30    2.10
   1  -4  13   12.70    2.10
   1  -4  13   11.30    2.20
   1  -4  13   17.20    2.80
  -2   4 -13   19.70    2.70
   2  -4  13   17.30    2.40
   2  -4  13   19.60    2.50
   2  -4  13   18.60    2.20
  -3   4 -13   20.50    3.70
  -3   4 -13   12.40    2.30
   3  -4  13   10.50    2.20
   3  -4  13   10.40    2.30
  -4   4 -13    2.30    1.60
  -4   4 -13    4.70    1.80
   4  -4  13    2.40    1.60
   4  -4  13    1.00    1.90
  -5   4 -13    0.90    1.40
   5  -4  13    2.60    2.40
   5  -4  13    1.80    1.50
   6  -4  13    3.20    2.80
   4   3 -13    1.60    1.60
   4   3 -13    1.60    1.80
  -4  -3  13   -0.60    1.60
  -4  -3  13    1.70    2.10
  -4  -3  13   -2.00    1.50
  -4  -3  13    0.60    1.70
  -4  -3  13   -1.50    1.80
   3   3 -13    2.00    1.60
   3   3 -13    6.00    2.00
  -3  -3  13    2.10    1.80
  -3  -3  13    0.80    1.50
  -3  -3  13   -1.50    1.50
  -3  -3  13    4.60    2.20
  -3  -3  13    0.90    1.90
   2   3 -13    0.80    1.40
   2   3 -13    0.10    1.40
  -2  -3  13   -0.80    1.20
  -2  -3  13   -0.30    1.50
  -2  -3  13    1.40    1.60
  -2  -3  13   -0.50    1.30
  -2  -3  13   -0.20    1.50
   1   3 -13    4.90    1.80
   1   3 -13    4.80    1.70
  -1  -3  13    7.70    1.90
  -1  -3  13    4.80    1.90
  -1  -3  13    1.90    1.60
  -1  -3  13    4.70    1.70
   0   3 -13   23.00    2.40
   0   3 -13   23.10    5.50
   0   3 -13   28.20    2.80
   0  -3  13   27.10    2.70
   0  -3  13   26.70    2.60
   0  -3  13   28.50    2.90
   0  -3  13   17.60    4.10
  -1   3 -13    4.60    1.80
  -1   3 -13    4.20    1.50
  -1   3 -13    1.90    1.80
   1  -3  13    4.60    1.80
   1  -3  13    5.00    1.80
   1  -3  13    5.70    1.60
   1  -3  13    4.60    1.50
  -2   3 -13    2.10    1.10
  -2   3 -13    0.30    1.10
  -2   3 -13   -1.30    1.50
  -2   3 -13    1.60    1.50
   2  -3  13    2.10    1.70
   2  -3  13    1.20    1.40
   2  -3  13    0.30    1.20
   2  -3  13    0.10    1.20
  -3   3 -13   22.90    3.80
  -3   3 -13   23.50    2.70
   3  -3  13   21.30    2.50
   3  -3  13   22.90    2.10
   3  -3  13   22.50    2.60
  -4   3 -13    1.00    1.50
  -4   3 -13    2.40    1.70
   4  -3  13   -0.60    1.70
   4  -3  13   -0.20    1.60
  -5   3 -13   -0.20    1.40
  -5   3 -13    2.10    2.00
   5  -3  13   -1.80    2.10
   5  -3  13    2.70    1.70
  -6   3 -13    5.60    1.80
   6  -3  13    3.20    2.60
   6  -3  13    0.70    1.50
   5   2 -13    1.30    1.80
  -5  -2  13    2.40    2.00
  -5  -2  13    0.30    2.40
  -5  -2  13    1.70    2.20
  -5  -2  13   -2.30    1.70
   4   2 -13   -0.70    1.50
   4   2 -13    0.30    1.40
  -4  -2  13   -2.00    1.50
  -4  -2  13    0.30    1.80
  -4  -2  13   -2.40    1.40
  -4  -2  13   -2.00    1.90
  -4  -2  13    1.20    1.70
   3   2 -13   10.60    2.20
   3   2 -13    8.60    2.10
  -3  -2  13    9.90    2.40
  -3  -2  13    9.60    2.10
  -3  -2  13    6.60    2.10
  -3  -2  13    3.80    1.90
  -3  -2  13   11.70    2.40
   2   2 -13   24.80    2.60
   2   2 -13   20.30    2.40
  -2  -2  13   19.90    3.00
  -2  -2  13   20.30    3.90
  -2  -2  13   20.40    2.70
  -2  -2  13   24.40    4.10
  -2  -2  13   23.70    2.60
   1   2 -13    5.10    1.60
   1   2 -13    5.20    1.60
   1   2 -13    0.00    1.30
  -1  -2  13    0.60    1.50
  -1  -2  13    3.00    1.60
  -1  -2  13    2.00    1.40
  -1  -2  13    3.20    1.70
   0   2 -13    2.60    1.40
   0   2 -13    0.30    1.40
   0   2 -13    0.80    1.20
   0  -2  13    3.20    1.50
   0  -2  13    0.30    1.40
   0  -2  13    0.90    1.30
   0  -2  13    1.00    1.40
  -1   2 -13   10.10    1.80
  -1   2 -13    9.10    1.90
  -1   2 -13   10.60    2.40
   1  -2  13    7.70    1.90
   1  -2  13    9.00    1.70
   1  -2  13    6.30    2.00
   1  -2  13    5.20    1.90
  -2   2 -13   -1.20    1.30
  -2   2 -13    0.00    1.20
  -2   2 -13    0.70    1.10
  -2   2 -13    0.50    1.10
   2  -2  13   -0.40    1.00
   2  -2  13   -1.00    1.30
   2  -2  13   -0.80    1.30
  -3   2 -13   25.60    3.80
  -3   2 -13   24.60    2.60
  -3   2 -13   22.60    2.20
   3  -2  13   23.60    2.40
   3  -2  13   23.50    2.30
   3  -2  13   20.30    2.20
  -4   2 -13    1.20    1.40
  -4   2 -13   -2.00    1.50
  -4   2 -13    2.80    1.70
   4  -2  13    0.70    1.50
   4  -2  13    0.90    1.50
  -5   2 -13    2.70    1.90
  -5   2 -13    2.10    1.60
   5  -2  13    3.40    2.10
   5  -2  13    5.00    1.80
  -6   2 -13    1.80    1.60
   6  -2  13    1.80    2.70
   6  -2  13    2.90    1.60
   7  -2  13   -2.10    2.50
   5   1 -13    1.10    1.60
   5   1 -13    3.10    1.90
  -5  -1  13   -2.80    2.00
  -5  -1  13    1.10    2.00
  -5  -1  13    1.20    2.30
  -5  -1  13   -0.90    1.80
   4   1 -13    0.60    1.40
   4   1 -13   -0.50    1.40
   4   1 -13    0.30    1.40
  -4  -1  13    0.30    1.40
  -4  -1  13   -0.10    1.50
  -4  -1  13    0.50    2.00
  -4  -1  13    1.30    1.90
  -4  -1  13   -2.20    1.30
   3   1 -13    3.80    1.60
   3   1 -13    2.10    1.10
   3   1 -13    4.40    1.60
  -3  -1  13    4.00    1.70
  -3  -1  13    4.10    1.80
  -3  -1  13    4.20    1.90
  -3  -1  13    3.40    2.00
  -3  -1  13    0.50    1.30
   2   1 -13   -0.20    1.10
   2   1 -13    3.00    1.50
   2   1 -13    3.50    1.40
  -2  -1  13    3.20    1.70
  -2  -1  13    1.60    1.50
  -2  -1  13    1.00    1.70
  -2  -1  13    1.60    1.40
  -2  -1  13   -0.10    1.10
   1   1 -13   12.50    2.00
   1   1 -13   14.80    2.10
   1   1 -13   12.10    1.50
  -1  -1  13   13.50    2.20
  -1  -1  13   14.10    2.40
  -1  -1  13    7.80    2.00
   0   1 -13   34.40    2.80
   0   1 -13   32.10    2.50
   0   1 -13   33.40    5.20
   0   1 -13   30.70    2.70
   0  -1  13   33.40    4.20
   0  -1  13   35.70    3.20
   0  -1  13   32.50    2.80
  -1   1 -13   -0.80    1.20
  -1   1 -13    0.40    0.80
  -1   1 -13   -1.90    1.00
  -1   1 -13    0.40    1.30
   1  -1  13   -3.60    1.30
   1  -1  13    0.60    0.40
   1  -1  13    0.30    0.90
   1  -1  13   -0.70    1.50
   1  -1  13    0.00    1.30
  -2   1 -13   28.10    2.30
  -2   1 -13   33.70    3.70
  -2   1 -13   28.70    5.40
  -2   1 -13   31.60    2.60
   2  -1  13   24.80    4.20
   2  -1  13   29.90    2.60
   2  -1  13   29.30    2.10
   2  -1  13   29.70    2.50
  -3   1 -13    0.90    1.40
  -3   1 -13   -1.00    1.30
  -3   1 -13    0.20    1.10
  -3   1 -13   -0.50    0.90
   3  -1  13   -0.20    1.10
   3  -1  13    1.20    1.50
   3  -1  13    0.10    1.40
  -4   1 -13   -2.30    1.40
  -4   1 -13    0.30    1.40
  -4   1 -13    0.20    1.40
   4  -1  13    1.80    1.60
   4  -1  13    1.00    1.50
  -5   1 -13    1.40    1.40
  -5   1 -13    0.10    1.60
   5  -1  13    2.00    1.60
   5  -1  13    1.30    1.80
  -6   1 -13    4.70    2.70
  -6   1 -13    5.60    1.90
   6  -1  13    9.00    2.80
   6  -1  13    8.20    2.10
   7  -1  13   -0.60    2.90
   6   0 -13    5.40    2.50
   5   0 -13    2.10    1.70
   5   0 -13    2.80    2.10
  -5   0  13    1.90    2.20
  -5   0  13   -0.10    1.80
  -5   0  13    3.90    2.10
  -5   0  13    4.70    2.30
   4   0 -13    0.90    1.60
   4   0 -13    1.90    1.50
  -4   0  13    1.80    1.90
  -4   0  13    1.30    1.70
  -4   0  13    1.00    1.80
  -4   0  13   -1.50    1.30
   3   0 -13    0.20    1.20
   3   0 -13   -0.20    1.10
  -3   0  13    1.10    1.50
  -3   0  13   -0.10    1.60
  -3   0  13   -0.30    1.30
  -3   0  13   -1.30    1.20
  -3   0  13    0.80    1.30
   2   0 -13   12.20    1.90
   2   0 -13   11.60    1.90
  -2   0  13    7.90    1.80
  -2   0  13   15.00    2.50
  -2   0  13   10.30    2.50
  -2   0  13   15.00    2.20
   1   0 -13   24.70    5.00
   1   0 -13   26.50    2.30
   1   0 -13   22.50    1.60
   1   0 -13   28.40    2.50
  -1   0  13   27.50    2.50
  -1   0  13   28.20    2.70
  -1   0  13   30.10    4.30
  -1   0  13   26.30    3.40
   0   0 -13   38.20    2.70
   0   0 -13   42.90    5.30
   0   0 -13   43.70    2.90
   0   0 -13   41.90    2.70
   0   0  13   39.10    2.80
   0   0  13   41.90    3.10
   0   0  13   48.30    4.70
  -1   0 -13    0.20    1.10
  -1   0 -13    0.80    0.80
  -1   0 -13    0.40    1.10
  -1   0 -13    0.50    1.20
   1   0  13    0.00    1.40
   1   0  13    1.00    0.70
   1   0  13    0.60    0.80
   1   0  13   -0.50    1.20
   1   0  13   -1.80    1.20
  -2   0 -13   20.50    2.00
  -2   0 -13   17.70    3.00
  -2   0 -13   18.40    4.60
  -2   0 -13   20.80    2.20
   2   0  13   20.90    2.60
   2   0  13   19.50    1.70
   2   0  13   19.30    2.20
  -3   0 -13    0.10    1.10
  -3   0 -13   -0.40    1.30
  -3   0 -13    0.40    1.20
  -3   0 -13   -0.50    1.00
   3   0  13   -0.80    1.20
   3   0  13   -0.30    1.20
   3   0  13    0.10    1.40
  -4   0 -13    0.80    1.50
  -4   0 -13    2.10    1.50
  -4   0 -13    1.40    1.10
  -4   0 -13   -1.20    1.50
   4   0  13    1.10    1.50
   4   0  13    1.70    1.60
   4   0  13    0.40    1.20
  -5   0 -13   12.90    3.10
  -5   0 -13   18.80    2.60
   5   0  13   19.80    2.40
   5   0  13   18.00    2.60
  -6   0 -13   -1.30    2.20
  -6   0 -13    1.10    1.60
   6   0  13    1.90    2.30
   6   0  13    0.40    1.70
   6  -1 -13    1.40    2.30
   6  -1 -13   -0.50    1.50
  -6   1  13   -1.00    1.60
   5  -1 -13    0.00    1.40
   5  -1 -13    2.50    2.10
  -5   1  13    0.00    1.80
  -5   1  13    1.70    2.20
  -5   1  13   -1.80    1.60
   4  -1 -13    1.10    1.60
   4  -1 -13    0.00    1.30
  -4   1  13   -0.60    1.30
  -4   1  13   -0.90    1.60
  -4   1  13    1.80    1.80
  -4   1  13   -0.10    1.40
   3  -1 -13    1.50    1.20
   3  -1 -13    2.00    1.30
  -3   1  13    2.00    1.70
  -3   1  13    1.50    1.50
  -3   1  13    0.70    1.20
  -3   1  13    2.70    1.40
  -3   1  13    2.70    1.50
   2  -1 -13   10.60    1.80
   2  -1 -13   11.30    2.00
  -2   1  13   10.90    2.20
  -2   1  13    7.60    2.20
  -2   1  13   11.10    1.80
   1  -1 -13   51.49    2.80
   1  -1 -13   57.59    5.40
   1  -1 -13   56.69    3.10
  -1   1  13   55.29    5.50
  -1   1  13   51.79    4.20
  -1   1  13   52.89    3.40
  -1   1  13   49.20    2.90
   0  -1 -13    3.50    0.90
   0  -1 -13    2.60    1.30
   0  -1 -13    7.30    1.50
   0  -1 -13    7.60    1.60
   0   1  13    5.70    1.50
   0   1  13    5.50    1.70
   0   1  13    4.70    1.80
  -1  -1 -13    1.70    1.20
  -1  -1 -13    1.70    0.90
  -1  -1 -13    3.90    1.30
  -1  -1 -13    4.30    1.40
   1   1  13    4.30    1.60
   1   1  13    4.00    1.10
   1   1  13    4.50    1.40
   1   1  13    4.20    1.00
   1   1  13    3.90    1.90
  -2  -1 -13   26.20    3.20
  -2  -1 -13   23.20    4.60
  -2  -1 -13   26.00    2.40
  -2  -1 -13   22.00    2.10
   2   1  13   22.70    2.30
   2   1  13   23.40    2.20
   2   1  13   22.20    1.70
   2   1  13   21.00    4.20
   2   1  13   22.70    2.50
  -3  -1 -13   21.00    2.30
  -3  -1 -13   20.20    3.40
  -3  -1 -13   22.70    2.20
  -3  -1 -13   21.50    4.60
   3   1  13   21.80    2.00
   3   1  13   18.50    2.30
   3   1  13   14.40    2.10
   3   1  13   22.80    2.50
  -4  -1 -13    0.40    1.30
  -4  -1 -13    1.00    1.50
  -4  -1 -13    4.90    1.80
  -4  -1 -13    2.70    1.30
   4   1  13    3.10    1.60
   4   1  13    3.50    1.60
   4   1  13    2.90    1.70
  -5  -1 -13    3.30    1.60
  -5  -1 -13    1.60    2.00
   5   1  13    5.00    1.80
   5   1  13    4.80    1.90
  -6  -1 -13    3.40    1.80
  -6  -1 -13   -2.20    1.30
  -6  -1 -13   -3.10    1.90
   6   1  13    4.60    2.10
   6  -2 -13    1.00    1.40
   6  -2 -13    0.90    2.30
  -6   2  13    1.80    1.80
   5  -2 -13    3.50    1.50
   5  -2 -13    3.60    2.30
  -5   2  13    3.00    1.90
  -5   2  13    2.70    1.80
  -5   2  13   -0.40    1.60
  -5   2  13    3.80    2.30
   4  -2 -13    6.60    1.70
   4  -2 -13    3.10    2.10
  -4   2  13    5.40    2.30
  -4   2  13    7.00    2.00
  -4   2  13    3.70    1.60
  -4   2  13    1.10    1.40
   3  -2 -13    7.50    1.70
  -3   2  13    3.60    1.40
  -3   2  13    4.50    2.10
  -3   2  13    7.30    2.00
   2  -2 -13    1.90    1.30
   2  -2 -13    1.10    1.00
  -2   2  13    1.10    1.70
  -2   2  13    1.80    1.40
  -2   2  13    0.00    0.90
  -2   2  13    2.20    1.20
   1  -2 -13    3.20    1.30
   1  -2 -13    3.10    1.30
  -1   2  13    0.80    1.00
  -1   2  13    5.30    1.60
  -1   2  13    2.40    1.30
  -1   2  13    2.90    1.80
   0  -2 -13  110.19    7.30
   0  -2 -13   99.59    4.50
   0  -2 -13  107.09    4.30
   0  -2 -13  100.99    3.90
   0   2  13  120.39    6.00
   0   2  13  104.19    4.10
   0   2  13  107.39    4.50
   0   2  13  107.29    7.10
  -1  -2 -13    9.80    2.20
  -1  -2 -13    8.80    1.50
  -2  -2 -13    2.60    1.30
  -2  -2 -13    3.90    1.40
  -2  -2 -13    6.60    1.60
  -2  -2 -13    7.50    1.70
   2   2  13    2.80    1.90
   2   2  13    4.70    1.30
   2   2  13    6.40    1.80
   2   2  13    7.40    1.70
  -3  -2 -13   32.30    4.20
  -3  -2 -13   34.60    2.80
  -3  -2 -13   30.70    2.50
  -3  -2 -13   33.60    5.10
   3   2  13   37.30    3.00
   3   2  13   23.80    3.20
   3   2  13   31.70    2.90
  -4  -2 -13    7.90    1.70
  -4  -2 -13    6.60    2.20
  -4  -2 -13    9.50    2.00
   4   2  13    8.40    2.00
   4   2  13    9.20    2.20
  -5  -2 -13    4.80    1.70
  -5  -2 -13    4.90    1.60
  -5  -2 -13    0.90    2.00
  -5  -2 -13    5.50    1.90
   5   2  13    8.50    2.20
   5   2  13    6.80    1.90
  -6  -2 -13    2.80    1.80
  -6  -2 -13   -2.70    2.00
  -6  -2 -13   -1.20    1.40
   6   2  13    1.20    1.80
  -7  -2 -13   16.70    3.70
  -7  -2 -13    2.00    2.00
   6  -3 -13   -0.40    2.10
  -6   3  13    0.20    1.60
   5  -3 -13    1.20    2.10
   5  -3 -13    4.70    1.40
  -5   3  13    3.80    1.80
  -5   3  13    1.60    2.30
  -5   3  13    5.10    1.90
  -5   3  13    0.20    1.60
   4  -3 -13    0.30    1.80
   4  -3 -13    2.50    1.30
  -4   3  13    1.70    1.60
  -4   3  13   -0.90    1.20
  -4   3  13    1.40    1.40
  -4   3  13    0.90    1.70
   3  -3 -13    5.10    1.50
  -3   3  13    3.20    2.10
  -3   3  13    4.40    1.70
   2  -3 -13   66.89    3.20
   2  -3 -13   69.29    3.30
  -2   3  13   68.59    3.80
  -2   3  13   68.69    6.20
  -2   3  13   63.89    4.30
  -2   3  13   63.79    3.10
   1  -3 -13    0.00    0.90
   1  -3 -13    1.40    1.10
  -1   3  13   -1.20    1.60
  -1   3  13    1.40    1.20
  -1   3  13   -0.40    1.20
  -1   3  13    0.80    1.30
   0  -3 -13   43.30    3.00
   0  -3 -13   49.60    3.00
   0  -3 -13   45.90    2.60
   0   3  13   54.89    4.30
   0   3  13   50.69    2.80
   0   3  13   53.29    3.40
   0   3  13   46.50    5.30
  -1  -3 -13   35.70    2.70
  -1  -3 -13   33.40    3.30
  -1  -3 -13   34.60    2.40
   1   3  13   37.80    2.70
   1   3  13   36.40    3.50
   1   3  13   35.60    2.90
   1   3  13   31.90    4.80
  -2  -3 -13    3.40    1.50
  -2  -3 -13    1.90    1.20
  -2  -3 -13    1.00    1.20
   2   3  13    2.70    1.40
   2   3  13    3.80    1.70
   2   3  13    1.30    1.20
   2   3  13    0.90    1.80
  -3  -3 -13   11.40    2.00
  -3  -3 -13    6.70    1.90
  -3  -3 -13   12.00    1.90
   3   3  13    8.70    1.90
   3   3  13   11.40    2.20
   3   3  13    6.60    1.70
  -4  -3 -13    7.10    2.20
  -4  -3 -13   12.00    2.20
  -4  -3 -13    7.40    1.80
  -4  -3 -13   10.70    2.10
   4   3  13    8.20    2.00
   4   3  13   11.30    2.30
   4   3  13    3.00    1.90
  -5  -3 -13   21.90    2.70
  -5  -3 -13   21.50    2.50
  -5  -3 -13   21.90    2.80
   5   3  13   26.10    3.20
   5   3  13   19.60    2.70
  -6  -3 -13    1.30    1.60
  -6  -3 -13    1.30    0.90
  -6  -3 -13   -1.70    1.70
  -6  -3 -13   -3.10    2.10
   6   3  13   -0.50    1.70
   6  -4 -13    2.40    2.30
   5  -4 -13    0.50    1.10
   5  -4 -13   -2.40    2.00
  -5   4  13   -1.40    1.90
  -5   4  13    0.30    1.40
  -5   4  13    0.00    1.40
   4  -4 -13    0.50    1.90
   4  -4 -13    0.30    1.20
  -4   4  13    1.00    1.40
  -4   4  13   -0.50    1.70
   3  -4 -13   12.30    2.70
   3  -4 -13   13.80    2.00
  -3   4  13    7.60    2.60
  -3   4  13   13.20    2.30
   2  -4 -13    3.70    1.30
  -2   4  13    2.40    2.00
  -2   4  13    2.90    1.60
  -2   4  13    5.20    2.10
  -2   4  13    0.80    0.80
   1  -4 -13   31.20    2.30
   1  -4 -13   33.10    2.50
  -1   4  13   42.50    4.70
  -1   4  13   37.40    3.00
  -1   4  13   33.40    5.10
  -1   4  13   35.00    2.50
   0  -4 -13   42.90    2.80
   0  -4 -13   43.70    2.80
   0   4  13   39.50    3.00
   0   4  13   45.00    4.50
   0   4  13   35.90    5.10
   0   4  13   41.70    2.80
  -1  -4 -13   -0.60    1.20
  -1  -4 -13    0.30    1.00
  -1  -4 -13    0.70    1.20
   1   4  13    1.60    1.40
   1   4  13    0.80    1.30
   1   4  13    0.60    1.80
   1   4  13   -0.90    1.50
  -2  -4 -13    4.80    1.60
  -2  -4 -13    2.30    1.40
  -2  -4 -13    4.40    1.70
   2   4  13    1.40    1.50
   2   4  13    2.50    2.00
   2   4  13    3.90    1.60
   2   4  13    3.10    1.70
  -3  -4 -13   11.60    2.40
  -3  -4 -13   19.10    2.30
  -3  -4 -13   16.80    2.40
  -3  -4 -13   18.30    2.20
   3   4  13   18.60    2.60
   3   4  13   16.20    2.30
   3   4  13   15.60    3.50
  -4  -4 -13   25.10    2.70
  -4  -4 -13   27.20    3.20
  -4  -4 -13   23.70    2.60
  -4  -4 -13   20.50    4.50
   4   4  13   27.10    3.10
   4   4  13   24.20    2.80
  -5  -4 -13    0.30    1.60
  -5  -4 -13   -0.50    2.00
  -5  -4 -13    3.00    1.00
  -5  -4 -13    3.70    2.00
  -5  -4 -13    2.70    1.60
   5   4  13    1.50    1.80
   5   4  13    2.70    1.90
  -6  -4 -13    2.40    2.00
  -6  -4 -13    0.80    1.90
   6   4  13    1.50    2.00
   5  -5 -13   -0.30    2.10
   4  -5 -13    6.80    2.50
   4  -5 -13    5.70    1.40
  -4   5  13    3.70    2.20
  -4   5  13    5.20    1.80
   3  -5 -13    8.80    2.50
   3  -5 -13    7.00    1.50
  -3   5  13    5.80    2.50
  -3   5  13    5.10    2.50
  -3   5  13   10.20    2.00
   2  -5 -13   43.90    2.70
  -2   5  13   42.00    3.10
  -2   5  13   42.40    6.00
  -2   5  13   38.50    5.00
   1  -5 -13   67.79    3.30
  -1   5  13   70.99    6.10
  -1   5  13   57.79    3.40
  -1   5  13   61.59    3.80
  -1   5  13   64.09    6.40
   0  -5 -13    6.30    1.60
   0  -5 -13    5.30    1.60
   0   5  13    5.40    1.50
   0   5  13    1.20    1.90
   0   5  13    4.70    1.70
   0   5  13    4.20    2.00
  -1  -5 -13   25.40    3.40
  -1  -5 -13   27.20    2.40
  -1  -5 -13   26.40    2.50
   1   5  13   15.40    3.20
   1   5  13   24.60    3.00
   1   5  13   22.40    2.30
   1   5  13   23.50    3.70
  -2  -5 -13   14.40    2.10
  -2  -5 -13    9.40    2.10
  -2  -5 -13   13.40    2.30
   2   5  13   12.50    2.10
   2   5  13    9.20    2.40
   2   5  13   13.10    2.40
   2   5  13    6.70    2.60
  -3  -5 -13    2.90    1.50
  -3  -5 -13    1.70    1.60
  -3  -5 -13   -0.20    1.20
  -3  -5 -13   -0.10    1.50
   3   5  13    2.50    1.60
   3   5  13   -1.30    1.60
   3   5  13    1.70    1.70
  -4  -5 -13   -0.10    1.30
  -4  -5 -13   -0.50    1.30
  -4  -5 -13    0.00    1.50
  -4  -5 -13   -1.10    1.60
   4   5  13    0.10    1.70
   4   5  13   -1.20    1.60
  -5  -5 -13   24.80    3.60
  -5  -5 -13   16.90    2.70
  -5  -5 -13   21.60    2.90
  -5  -5 -13   12.80    3.20
   5   5  13   22.90    3.10
   5   5  13   22.00    3.20
  -6  -5 -13   -0.30    1.50
  -6  -5 -13    0.00    1.90
  -6  -5 -13   -1.20    2.50
   6   5  13    0.90    2.10
   5  -6 -13   -0.90    2.40
   4  -6 -13    9.70    2.90
  -4   6  13    7.10    3.00
  -4   6  13    8.40    1.90
  -4   6  13    9.50    3.10
   3  -6 -13    5.70    1.40
   3  -6 -13    3.30    2.30
  -3   6  13    6.80    2.70
  -3   6  13    4.30    1.70
  -3   6  13    1.20    2.10
   2  -6 -13    1.60    1.30
   2  -6 -13    0.50    1.90
  -2   6  13    0.30    1.90
  -2   6  13   -0.90    1.90
  -2   6  13    2.40    1.70
   1  -6 -13   27.70    2.50
  -1   6  13   27.40    5.60
  -1   6  13   27.90    3.00
  -1   6  13   33.90    5.20
   0  -6 -13    2.40    1.40
   0   6  13    2.90    1.60
   0   6  13   -0.20    2.20
   0   6  13    1.60    2.00
   0   6  13    2.30    1.40
  -1  -6 -13    0.40    1.30
  -1  -6 -13   -0.10    1.30
   1   6  13    0.00    1.70
   1   6  13   -2.30    2.00
   1   6  13   -0.20    1.70
   1   6  13    0.50    1.40
  -2  -6 -13   15.10    3.70
  -2  -6 -13   18.30    2.50
  -2  -6 -13   15.80    2.30
  -2  -6 -13   16.10    2.50
   2   6  13   15.50    2.70
   2   6  13    8.50    2.90
   2   6  13   15.50    2.40
   2   6  13   11.00    2.80
  -3  -6 -13   -0.70    1.40
  -3  -6 -13    1.50    1.40
  -3  -6 -13   -0.80    1.40
  -3  -6 -13   -0.50    1.50
   3   6  13   -1.40    1.50
   3   6  13   -2.80    1.90
   3   6  13    2.40    2.00
  -4  -6 -13   -0.60    2.00
  -4  -6 -13    2.20    2.00
  -4  -6 -13    1.30    1.70
  -4  -6 -13    2.10    1.70
   4   6  13    1.70    2.00
   4   6  13    2.00    1.90
  -5  -6 -13    4.30    2.20
  -5  -6 -13    0.50    2.20
  -5  -6 -13    6.00    2.20
  -5  -6 -13    3.70    1.90
   5   6  13    5.10    2.20
   5   6  13    4.20    2.30
  -6  -6 -13    3.70    2.00
   6   6  13    3.40    2.20
   4  -7 -13    3.90    2.50
   3  -7 -13    3.40    1.30
   3  -7 -13    3.80    2.50
  -3   7  13    5.20    2.60
  -3   7  13    5.30    1.70
  -3   7  13   -0.60    2.20
   2  -7 -13    0.60    1.20
   2  -7 -13    1.30    2.00
  -2   7  13    0.70    2.10
  -2   7  13   -2.40    2.00
  -2   7  13    1.30    1.50
   1  -7 -13   65.59    3.50
  -1   7  13   65.19    4.00
  -1   7  13   59.39    7.10
  -1   7  13   62.49    6.30
   0  -7 -13    7.10    1.80
   0   7  13    4.40    2.40
   0   7  13   -0.50    2.20
   0   7  13    4.80    2.00
  -1  -7 -13    3.30    1.60
   1   7  13    1.20    2.10
   1   7  13   -0.50    1.80
  -2  -7 -13    3.80    1.70
  -2  -7 -13    0.90    1.60
  -2  -7 -13    3.20    1.40
   2   7  13    2.80    1.80
   2   7  13    2.10    1.90
   2   7  13   -1.40    2.10
  -3  -7 -13    1.40    1.80
  -3  -7 -13    3.20    1.80
  -3  -7 -13    2.90    1.90
  -3  -7 -13    4.20    1.70
   3   7  13    5.10    2.00
   3   7  13    2.50    2.30
   3   7  13   -2.40    2.20
  -4  -7 -13    8.80    2.50
  -4  -7 -13    9.50    2.80
  -4  -7 -13    9.40    2.50
   4   7  13    7.80    2.30
   4   7  13    9.80    2.70
  -5  -7 -13    0.00    2.20
  -5  -7 -13    1.40    1.90
  -5  -7 -13    5.40    2.60
   5   7  13    2.90    2.20
   5   7  13    6.30    2.60
   4  -8 -13    8.40    3.20
   3  -8 -13    2.10    2.20
  -3   8  13   -3.50    2.00
   2  -8 -13    1.90    2.30
   2  -8 -13    1.70    1.40
  -2   8  13   -3.00    2.20
  -2   8  13    1.80    2.40
  -2   8  13    1.30    1.50
   1  -8 -13    2.50    1.50
   1  -8 -13    2.00    2.00
  -1   8  13   -3.40    2.30
  -1   8  13    1.70    2.40
  -1   8  13    1.90    1.70
   0  -8 -13   -0.20    1.50
   0   8  13    1.20    2.40
   0   8  13    2.40    1.90
  -1  -8 -13   -1.30    1.70
   1   8  13   -0.10    2.30
   1   8  13    0.60    1.80
  -2  -8 -13    7.10    2.10
  -2  -8 -13    5.00    1.60
   2   8  13    0.90    2.70
   2   8  13    8.80    2.50
  -3  -8 -13    1.00    1.70
  -3  -8 -13    1.40    1.50
   3   8  13    2.20    2.20
   3   8  13    3.20    1.90
  -4  -8 -13    1.90    2.00
  -4  -8 -13   -0.50    1.80
   4   8  13    0.30    1.90
   2  -9 -13    4.40    2.40
   1  -9 -13    7.50    2.00
   1  -9 -13    8.60    2.70
   0  -9 -13    7.80    2.10
   0  -9 -13    5.40    2.30
   0   9  13    5.80    2.20
  -1  -9 -13   -1.60    1.80
  -2  -9 -13   -0.10    1.30
  -3  -9 -13   -1.70    1.40
   0 -10 -13    0.00    1.90
   1  -7  14    4.90    2.40
   2  -7  14    3.70    2.30
   2   6 -14    1.80    2.00
  -2  -6  14   -0.70    2.10
   1   6 -14   -0.80    1.90
   0   6 -14    2.00    1.90
   0  -6  14    1.10    2.10
  -1   6 -14    5.70    2.20
   1  -6  14    3.30    2.40
   1  -6  14    4.50    2.30
   2  -6  14    4.10    2.30
   3  -6  14    0.30    2.10
   4  -6  14    2.00    2.30
   4   5 -14   11.10    2.80
   3   5 -14   -1.00    1.80
   3   5 -14    1.90    2.00
  -3  -5  14   -0.80    2.00
  -3  -5  14   -2.30    2.10
   2   5 -14    1.80    1.90
   2   5 -14    1.20    1.90
  -2  -5  14    1.80    2.10
  -2  -5  14    0.20    2.20
   1   5 -14    4.00    1.90
   1   5 -14    1.10    1.90
  -1  -5  14    2.30    2.00
  -1  -5  14   -0.50    1.90
  -1  -5  14    3.10    2.20
   0   5 -14    3.10    1.90
   0   5 -14    2.70    1.60
   0  -5  14    1.80    1.60
   0  -5  14    4.10    2.30
  -1   5 -14    3.50    1.90
   1  -5  14    5.80    2.30
   1  -5  14    1.30    1.90
   1  -5  14    3.60    1.60
  -2   5 -14   -0.90    1.60
   2  -5  14   -1.10    1.80
   2  -5  14    0.80    1.70
  -3   5 -14    0.90    1.70
   3  -5  14    1.50    1.80
   3  -5  14    0.10    1.90
   4  -5  14    0.00    1.60
   4  -5  14    2.30    2.30
   5  -5  14    1.40    2.30
   4   4 -14   11.70    2.70
   4   4 -14    9.90    2.50
  -4  -4  14    9.50    2.50
  -4  -4  14   10.30    3.00
   3   4 -14   -0.30    1.80
   3   4 -14    1.40    1.80
  -3  -4  14   -0.30    2.10
  -3  -4  14   -0.10    2.10
  -3  -4  14   -2.00    2.20
  -3  -4  14   -2.90    1.60
   2   4 -14   -2.10    1.40
   2   4 -14   -0.50    1.60
  -2  -4  14   -1.80    1.80
  -2  -4  14   -0.80    1.70
  -2  -4  14   -1.30    1.90
   1   4 -14   -0.90    1.50
   1   4 -14   -1.50    1.40
  -1  -4  14    0.50    1.70
  -1  -4  14   -2.30    1.80
  -1  -4  14    0.80    1.60
   0   4 -14    5.80    1.80
   0   4 -14    4.60    1.90
   0  -4  14    7.00    2.10
   0  -4  14    7.00    2.10
   0  -4  14    4.00    2.00
  -1   4 -14    2.40    1.40
  -1   4 -14    1.50    1.60
   1  -4  14    2.70    1.80
   1  -4  14    3.30    1.80
   1  -4  14    1.90    1.50
   1  -4  14    3.40    1.90
  -2   4 -14   16.60    3.20
  -2   4 -14    7.10    2.10
   2  -4  14    9.90    1.90
   2  -4  14   11.40    2.40
   2  -4  14    6.50    2.00
  -3   4 -14    3.10    1.60
  -3   4 -14   -0.30    1.30
   3  -4  14    4.40    2.00
   3  -4  14   -0.80    1.60
  -4   4 -14    6.30    2.20
  -4   4 -14    3.20    1.80
   4  -4  14    3.20    2.20
   4  -4  14    2.90    1.80
   5  -4  14    1.00    2.30
   5  -4  14   -0.20    1.50
   4   3 -14   11.60    2.70
   4   3 -14   12.60    2.60
  -4  -3  14    9.30    2.50
  -4  -3  14   14.30    3.10
  -4  -3  14   13.50    3.30
   3   3 -14   15.00    2.80
   3   3 -14   17.10    2.80
  -3  -3  14   16.20    3.20
  -3  -3  14   15.30    3.10
  -3  -3  14   18.20    2.90
   2   3 -14    2.20    1.70
   2   3 -14    1.10    1.60
  -2  -3  14    2.30    1.80
  -2  -3  14    0.30    1.90
  -2  -3  14    1.00    1.80
  -2  -3  14   -0.90    1.30
  -2  -3  14   -1.90    1.40
   1   3 -14    0.10    1.40
   1   3 -14    0.30    1.50
  -1  -3  14   -0.60    1.50
  -1  -3  14   -0.30    1.50
  -1  -3  14   -0.30    1.70
   0   3 -14   -0.10    1.30
   0   3 -14    0.40    1.30
   0  -3  14    0.80    1.50
   0  -3  14    1.60    1.40
   0  -3  14   -0.80    1.70
  -1   3 -14   13.70    2.30
  -1   3 -14   13.80    2.20
   1  -3  14   12.50    2.00
   1  -3  14   13.40    2.50
   1  -3  14   12.80    2.40
   1  -3  14   12.90    2.10
  -2   3 -14   20.90    3.60
  -2   3 -14   13.40    2.40
  -2   3 -14    9.50    1.90
   2  -3  14   12.90    2.40
   2  -3  14   10.80    1.90
   2  -3  14   14.10    2.30
   2  -3  14   12.40    2.40
  -3   3 -14    3.30    1.60
  -3   3 -14    0.50    1.40
  -3   3 -14   -2.40    1.70
   3  -3  14    4.50    1.90
   3  -3  14    1.20    1.60
   3  -3  14    0.40    1.20
  -4   3 -14   16.40    4.10
  -4   3 -14   13.50    2.30
   4  -3  14   15.10    2.70
   4  -3  14   11.20    2.20
  -5   3 -14    3.70    2.00
  -5   3 -14    0.40    1.50
   5  -3  14    0.60    2.10
   5  -3  14    0.30    1.60
   6  -3  14    4.80    2.80
  -5  -2  14   43.60    6.40
  -5  -2  14   42.10    4.40
   4   2 -14   -1.30    1.60
   4   2 -14    0.20    1.70
  -4  -2  14    0.50    1.90
  -4  -2  14   -0.40    2.10
  -4  -2  14   -1.50    2.30
  -4  -2  14   -0.90    1.80
  -4  -2  14   -0.70    1.90
   3   2 -14    1.80    1.70
   3   2 -14    1.10    1.70
   3   2 -14   -1.20    1.20
  -3  -2  14    3.20    2.10
  -3  -2  14    0.50    1.60
  -3  -2  14    0.70    1.80
  -3  -2  14   -0.60    1.50
  -3  -2  14    1.80    2.00
   2   2 -14    0.60    1.40
   2   2 -14   -1.60    1.30
   2   2 -14    0.30    1.40
  -2  -2  14    2.10    1.70
  -2  -2  14   -0.70    1.40
  -2  -2  14   -0.30    1.60
  -2  -2  14    2.60    1.90
  -2  -2  14   -1.40    1.30
   1   2 -14    5.60    1.60
   1   2 -14    6.00    1.80
  -1  -2  14    4.00    1.90
  -1  -2  14    6.20    1.90
  -1  -2  14    1.90    1.70
  -1  -2  14    6.60    1.90
   0   2 -14   10.80    2.00
   0   2 -14    8.30    2.00
   0   2 -14    7.90    1.80
   0  -2  14    6.90    2.10
   0  -2  14    3.50    2.00
   0  -2  14    8.40    1.90
   0  -2  14    8.90    2.10
  -1   2 -14    2.70    1.40
  -1   2 -14    3.90    1.70
  -1   2 -14    3.90    1.30
   1  -2  14   -0.80    1.70
   1  -2  14    3.10    1.80
   1  -2  14    3.70    1.80
   1  -2  14    3.20    1.40
  -2   2 -14    1.40    1.40
  -2   2 -14    1.20    1.30
  -2   2 -14    0.90    1.20
  -2   2 -14   -2.10    1.50
   2  -2  14    0.50    1.30
   2  -2  14    1.60    1.60
   2  -2  14    1.20    1.40
  -3   2 -14    1.20    1.40
  -3   2 -14    0.70    1.20
  -3   2 -14    1.50    1.10
  -3   2 -14   -1.90    1.60
   3  -2  14    1.20    1.40
   3  -2  14    0.50    1.60
  -4   2 -14    2.00    1.50
  -4   2 -14    3.20    1.90
   4  -2  14    3.30    2.00
   4  -2  14    2.70    1.60
  -5   2 -14    9.30    2.20
  -5   2 -14    4.30    2.10
   5  -2  14    7.50    2.00
   5  -2  14    4.40    2.30
   6  -2  14    0.70    1.70
   6  -2  14    0.90    2.40
   5   1 -14   50.09    4.00
  -5  -1  14   54.19    4.70
  -5  -1  14   68.49    4.90
  -5  -1  14   62.69    7.10
   4   1 -14    3.30    1.80
   4   1 -14    2.50    1.80
  -4  -1  14    3.20    2.10
  -4  -1  14    0.20    1.60
  -4  -1  14    3.00    2.20
  -4  -1  14    2.60    2.10
   3   1 -14   21.60    4.30
   3   1 -14   23.10    2.60
   3   1 -14   21.40    2.80
  -3  -1  14   23.50    4.80
  -3  -1  14   23.00    3.00
  -3  -1  14   20.70    2.80
  -3  -1  14   18.50    3.10
   2   1 -14   11.50    2.20
   2   1 -14   12.20    2.10
  -2  -1  14   15.90    2.60
  -2  -1  14    8.70    2.40
  -2  -1  14   14.30    2.60
  -2  -1  14   14.00    2.30
   1   1 -14    6.30    1.30
   1   1 -14    5.90    1.80
   1   1 -14    6.30    1.70
  -1  -1  14    2.50    1.80
  -1  -1  14    5.00    1.80
  -1  -1  14    7.20    2.00
   0   1 -14   35.10    2.60
   0   1 -14   36.30    2.80
   0   1 -14   38.00    3.00
   0   1 -14   30.00    5.50
   0  -1  14   35.60    2.90
   0  -1  14   37.70    3.30
   0  -1  14   32.60    4.70
  -1   1 -14   -1.10    1.30
  -1   1 -14    0.60    0.80
  -1   1 -14   -1.20    1.00
  -1   1 -14   -0.20    1.20
   1  -1  14   -0.90    1.30
   1  -1  14   -0.50    0.90
   1  -1  14   -2.00    1.10
   1  -1  14   -2.80    1.50
  -2   1 -14   36.80    4.00
  -2   1 -14   39.40    3.10
  -2   1 -14   37.10    2.80
  -2   1 -14   30.90    5.90
   2  -1  14   40.40    3.30
   2  -1  14   34.40    2.30
   2  -1  14   35.50    5.10
   2  -1  14   36.30    2.80
  -3   1 -14    5.50    1.40
  -3   1 -14    4.20    1.60
  -3   1 -14    3.40    1.60
   3  -1  14    6.90    1.80
   3  -1  14    7.00    1.90
   3  -1  14    3.70    1.80
  -4   1 -14   16.60    2.60
  -4   1 -14   19.30    4.30
   4  -1  14   14.60    2.30
   4  -1  14   16.50    2.30
  -5   1 -14    3.30    2.00
  -5   1 -14    2.70    1.70
   5  -1  14    5.10    2.00
   5  -1  14    1.70    2.30
  -6   1 -14   -0.60    2.10
  -6   1 -14    0.90    1.50
   6  -1  14   -0.10    2.30
   6  -1  14    0.10    1.70
   7  -1  14   -2.20    2.80
  -6   0  14    6.10    2.40
   5   0 -14   10.20    2.20
   5   0 -14   17.30    2.70
  -5   0  14    8.00    3.00
  -5   0  14   14.40    3.20
  -5   0  14   12.30    2.90
  -5   0  14    3.40    2.30
   4   0 -14    7.80    1.90
   4   0 -14   10.10    2.30
  -4   0  14    2.30    1.90
  -4   0  14   11.70    2.60
  -4   0  14    7.80    2.30
  -4   0  14    6.80    2.50
   3   0 -14    0.10    1.30
   3   0 -14    3.40    1.60
  -3   0  14    0.30    1.40
  -3   0  14    2.30    1.80
  -3   0  14    0.30    1.90
  -3   0  14   -0.70    1.30
  -3   0  14    0.80    1.80
   2   0 -14    0.20    1.30
   2   0 -14    0.40    1.20
   2   0 -14   -0.10    1.00
  -2   0  14   -0.40    1.30
  -2   0  14   -0.80    1.50
  -2   0  14    0.20    1.20
  -2   0  14   -0.40    1.50
   1   0 -14   10.70    2.00
   1   0 -14    9.70    1.90
  -1   0  14   11.00    2.00
  -1   0  14   10.40    2.20
  -1   0  14    5.50    1.90
   0   0 -14    1.00    1.30
   0   0 -14    2.60    1.30
   0   0 -14    0.30    1.30
   0   0 -14    0.60    0.70
   0   0  14    1.60    1.60
   0   0  14    2.90    1.70
   0   0  14    3.00    0.90
   0   0  14    2.10    1.50
  -1   0 -14   -0.10    0.70
  -1   0 -14   -1.30    1.10
  -1   0 -14   -0.90    1.20
  -1   0 -14   -1.00    1.10
   1   0  14   -2.10    1.50
   1   0  14   -1.60    1.20
   1   0  14   -0.30    0.70
   1   0  14    0.40    0.60
   1   0  14   -0.70    1.20
  -2   0 -14    4.50    1.50
  -2   0 -14    2.60    1.20
  -2   0 -14    5.00    1.50
   2   0  14    7.10    1.90
   2   0  14    5.70    1.30
   2   0  14    6.60    2.00
   2   0  14    1.10    1.90
  -3   0 -14    6.60    1.80
  -3   0 -14    8.80    1.70
  -3   0 -14    8.20    1.90
   3   0  14    8.50    1.90
   3   0  14   10.50    2.10
   3   0  14    7.20    1.60
  -4   0 -14    5.40    1.70
  -4   0 -14    3.40    1.80
  -4   0 -14    6.00    1.80
   4   0  14    4.80    1.70
   4   0  14    6.10    1.80
   4   0  14    4.60    1.60
  -5   0 -14    2.00    2.00
  -5   0 -14    5.20    1.80
   5   0  14    2.10    1.90
   5   0  14    6.70    2.10
  -6   0 -14   -0.40    2.10
  -6   0 -14    1.20    1.60
   6   0  14    1.40    2.40
   6   0  14    1.40    1.90
   6  -1 -14   38.20    3.70
  -6   1  14   46.70    4.30
   5  -1 -14   13.70    3.00
   5  -1 -14    7.50    2.10
  -5   1  14   12.60    2.80
  -5   1  14    2.30    2.20
  -5   1  14    7.10    2.80
  -5   1  14    9.30    2.50
   4  -1 -14   24.50    2.80
   4  -1 -14   24.70    2.90
  -4   1  14   27.80    5.00
  -4   1  14   29.50    3.20
  -4   1  14   28.80    3.10
   3  -1 -14    0.40    1.20
   3  -1 -14   -0.60    1.40
  -3   1  14    0.20    1.20
  -3   1  14   -1.70    1.50
  -3   1  14    1.10    1.50
  -3   1  14   -0.60    1.80
   2  -1 -14    4.80    1.60
   2  -1 -14    3.40    1.40
  -2   1  14    2.40    2.00
  -2   1  14    3.80    1.50
  -2   1  14    2.50    1.30
  -2   1  14    4.20    1.70
   1  -1 -14    0.10    1.20
   1  -1 -14    2.70    1.40
   1  -1 -14    2.40    1.30
  -1   1  14    1.20    1.50
  -1   1  14    0.40    1.30
  -1   1  14    0.60    1.50
   0  -1 -14   78.39    6.80
   0  -1 -14   68.79    3.40
   0  -1 -14   76.59    3.80
   0  -1 -14   71.19    3.70
   0   1  14   79.69    4.70
   0   1  14   77.09    6.40
   0   1  14   70.89    3.60
   0   1  14   74.99    4.00
  -1  -1 -14   42.60    3.00
  -1  -1 -14   40.90    2.70
  -1  -1 -14   38.90    5.30
  -1  -1 -14   40.00    3.30
   1   1  14   40.80    2.80
   1   1  14   41.20    3.20
   1   1  14   40.70    3.00
   1   1  14   38.50    5.20
  -2  -1 -14   19.80    3.10
  -2  -1 -14   20.40    2.10
  -2  -1 -14   20.10    4.80
  -2  -1 -14   24.60    2.50
   2   1  14   22.70    2.60
   2   1  14   21.00    1.70
   2   1  14   24.90    2.50
   2   1  14   17.70    2.00
  -3  -1 -14   16.30    2.10
  -3  -1 -14   14.70    3.60
  -3  -1 -14   14.60    2.30
   3   1  14   16.90    2.40
   3   1  14   13.10    1.80
   3   1  14   18.20    2.50
  -4  -1 -14   -1.90    1.20
  -4  -1 -14    0.70    1.30
  -4  -1 -14   -1.00    1.40
  -4  -1 -14   -0.80    1.40
   4   1  14   -0.40    1.70
   4   1  14    0.90    1.50
   4   1  14   -2.20    1.30
  -5  -1 -14    1.50    2.30
  -5  -1 -14    6.30    2.10
   5   1  14    4.40    2.20
   5   1  14    6.50    2.20
  -6  -1 -14    2.10    1.70
  -6  -1 -14   -2.90    2.10
  -6  -1 -14   -2.40    1.40
   6   1  14    0.20    2.00
   6  -2 -14    6.20    2.60
  -6   2  14    4.20    2.20
   5  -2 -14    1.00    1.40
   5  -2 -14   -0.90    2.00
  -5   2  14   -0.20    2.20
  -5   2  14    0.40    1.90
  -5   2  14    1.00    1.80
   4  -2 -14    0.60    1.40
   4  -2 -14    1.30    1.90
  -4   2  14    2.30    1.70
  -4   2  14    2.80    1.80
  -4   2  14   -1.40    1.30
  -4   2  14    1.50    1.80
   3  -2 -14    2.90    1.50
  -3   2  14    2.40    2.10
  -3   2  14    4.00    1.80
  -3   2  14    0.50    1.30
   2  -2 -14   -0.40    1.10
   2  -2 -14    0.80    1.20
  -2   2  14    1.10    1.30
  -2   2  14   -0.90    0.90
  -2   2  14   -0.40    1.40
  -2   2  14   -0.40    1.60
   1  -2 -14    0.50    1.30
   1  -2 -14    0.70    1.20
  -1   2  14   -0.20    1.40
  -1   2  14    0.00    1.70
  -1   2  14    0.10    1.40
   0  -2 -14    4.80    1.40
   0  -2 -14    3.50    1.60
   0  -2 -14    1.60    1.20
   0   2  14    4.10    1.40
   0   2  14    2.20    1.80
   0   2  14    3.20    1.60
   0   2  14    4.30    1.50
  -1  -2 -14   51.39    5.60
  -1  -2 -14   52.59    3.00
  -1  -2 -14   47.50    3.70
  -1  -2 -14   59.19    3.40
   1   2  14   52.99    3.10
   1   2  14   52.79    3.50
   1   2  14   50.49    5.50
   1   2  14   54.09    3.90
  -2  -2 -14   -0.10    1.00
  -2  -2 -14   -1.20    1.10
  -2  -2 -14   -0.70    0.90
  -2  -2 -14    0.70    1.30
   2   2  14    3.30    1.50
   2   2  14   -1.10    1.60
   2   2  14   -1.00    0.80
   2   2  14    1.70    1.50
  -3  -2 -14    8.30    2.10
  -3  -2 -14   10.30    1.90
   3   2  14    7.00    1.90
   3   2  14    9.80    2.20
  -4  -2 -14   24.30    2.70
  -4  -2 -14   19.60    4.70
  -4  -2 -14   19.70    4.70
  -4  -2 -14   24.10    2.40
   4   2  14   22.10    2.60
   4   2  14   22.70    2.80
  -5  -2 -14   -0.20    1.20
  -5  -2 -14   -0.30    1.50
  -5  -2 -14   -0.80    1.20
   5   2  14   -1.80    1.60
   5   2  14   -0.60    1.40
  -6  -2 -14   -1.80    1.30
  -6  -2 -14   -0.10    1.60
   6   2  14    0.40    1.90
   6  -3 -14   23.00    3.50
   5  -3 -14    0.80    1.30
   5  -3 -14   -1.60    2.10
  -5   3  14   -2.60    1.60
  -5   3  14    0.70    1.50
  -5   3  14   -0.40    1.60
   4  -3 -14    3.40    2.30
   4  -3 -14    4.00    1.50
  -4   3  14   -0.20    1.40
  -4   3  14    3.20    2.30
  -4   3  14    2.90    1.70
  -4   3  14    7.00    2.10
   3  -3 -14    8.10    1.70
  -3   3  14    1.90    1.30
  -3   3  14    6.50    1.90
  -3   3  14    3.80    2.20
   2  -3 -14    4.80    1.40
   2  -3 -14    4.40    1.50
  -2   3  14    2.20    1.10
  -2   3  14    2.40    2.00
  -2   3  14    5.70    1.60
  -2   3  14    5.40    1.80
   1  -3 -14    4.00    1.40
   1  -3 -14    2.90    1.40
  -1   3  14    4.70    1.40
  -1   3  14    1.30    1.90
  -1   3  14    1.70    1.50
  -1   3  14    3.30    1.60
   0  -3 -14   20.50    2.20
   0  -3 -14   24.70    2.20
   0  -3 -14   17.90    2.10
   0   3  14   19.70    4.80
   0   3  14   23.00    2.50
   0   3  14   22.40    3.40
   0   3  14   23.40    2.80
  -1  -3 -14   61.49    4.30
  -1  -3 -14   67.29    3.30
  -1  -3 -14   70.59    3.80
   1   3  14   63.69    3.40
   1   3  14   67.49    4.00
   1   3  14   70.89    4.80
   1   3  14   61.99    6.40
  -2  -3 -14    6.20    1.60
  -2  -3 -14    2.10    1.40
  -2  -3 -14    3.00    1.60
   2   3  14    3.20    1.40
   2   3  14    5.80    1.90
   2   3  14    4.50    1.60
   2   3  14    1.80    2.10
  -3  -3 -14   11.20    2.00
  -3  -3 -14    7.20    2.00
  -3  -3 -14   14.60    2.30
   3   3  14    5.30    2.30
   3   3  14   15.10    2.50
   3   3  14    6.70    1.80
   3   3  14   10.50    2.10
  -4  -3 -14   14.50    2.50
  -4  -3 -14   13.80    2.30
   4   3  14    9.70    2.30
   4   3  14   12.40    2.30
  -5  -3 -14    0.90    1.40
  -5  -3 -14   -0.40    1.50
  -5  -3 -14   -0.60    1.40
  -5  -3 -14   -2.10    1.80
   5   3  14   -0.30    1.70
   5   3  14   -0.90    1.70
  -6  -3 -14   -0.60    1.90
  -6  -3 -14    3.20    1.20
  -6  -3 -14    0.20    1.70
   6   3  14    0.70    2.00
   5  -4 -14    1.20    1.20
   5  -4 -14   -0.30    2.30
  -5   4  14   -0.10    1.40
  -5   4  14    0.90    1.60
   4  -4 -14    2.90    1.30
   4  -4 -14    0.50    2.10
  -4   4  14    2.00    2.20
  -4   4  14    1.40    1.60
   3  -4 -14    1.40    1.30
  -3   4  14   -0.80    1.40
  -3   4  14   -1.10    1.80
   2  -4 -14    0.20    1.30
  -2   4  14   -0.50    1.50
  -2   4  14   -0.80    1.80
  -2   4  14   -0.50    1.50
   1  -4 -14    1.70    1.20
   1  -4 -14    2.90    1.50
  -1   4  14    1.00    1.60
  -1   4  14    1.20    1.60
  -1   4  14    0.60    1.80
  -1   4  14    1.60    1.20
   0  -4 -14   13.10    2.20
   0  -4 -14   12.80    2.00
   0   4  14   15.90    2.60
   0   4  14   13.60    2.00
   0   4  14   13.80    3.30
  -1  -4 -14   81.39    4.10
  -1  -4 -14   77.89    4.90
  -1  -4 -14   78.49    3.70
   1   4  14   82.39    3.80
   1   4  14   84.09    4.40
   1   4  14   83.09    7.40
   1   4  14   91.39    5.80
  -2  -4 -14   17.20    3.50
  -2  -4 -14   21.30    2.50
  -2  -4 -14   18.70    2.30
   2   4  14   16.80    2.30
   2   4  14   19.30    2.70
   2   4  14   16.40    3.40
  -3  -4 -14   -1.70    1.50
  -3  -4 -14    0.20    1.20
  -3  -4 -14   -0.40    1.30
   3   4  14   -2.20    1.80
   3   4  14    1.20    1.70
   3   4  14   -1.60    1.50
  -4  -4 -14    8.00    1.90
  -4  -4 -14   10.10    2.30
  -4  -4 -14   10.00    2.10
   4   4  14   10.80    2.40
   4   4  14    7.20    2.10
  -5  -4 -14    0.60    1.60
  -5  -4 -14   -2.80    1.80
  -5  -4 -14    1.80    1.60
  -5  -4 -14   -1.00    1.50
   5   4  14   -0.60    1.70
   5   4  14    1.10    1.90
  -6  -4 -14   -3.70    2.60
  -6  -4 -14    0.20    2.00
  -6  -4 -14    2.40    1.90
   6   4  14    3.80    2.30
   5  -5 -14    0.50    2.40
   4  -5 -14    0.70    1.20
   4  -5 -14    1.10    2.30
  -4   5  14    0.70    2.30
  -4   5  14    0.10    1.50
  -4   5  14    0.50    2.00
   3  -5 -14    0.80    2.00
   3  -5 -14    0.60    1.30
  -3   5  14   -2.00    1.30
  -3   5  14   -2.10    1.90
  -3   5  14   -0.60    1.80
   2  -5 -14    8.40    1.80
  -2   5  14    6.00    1.90
  -2   5  14    2.20    2.30
  -2   5  14    4.70    2.10
   1  -5 -14   13.90    2.20
  -1   5  14   10.80    2.30
  -1   5  14    6.00    2.50
  -1   5  14    9.50    2.60
   0  -5 -14    0.10    1.30
   0  -5 -14    0.20    1.20
   0   5  14    0.00    1.40
   0   5  14   -1.70    2.00
   0   5  14    1.20    1.20
   0   5  14    0.40    1.60
  -1  -5 -14   19.20    3.20
  -1  -5 -14   15.70    2.30
  -1  -5 -14   15.40    2.30
   1   5  14   18.50    3.50
   1   5  14   20.30    2.40
   1   5  14   15.70    2.60
  -2  -5 -14    0.50    1.40
  -2  -5 -14    3.80    1.70
  -2  -5 -14    2.10    1.40
   2   5  14   -1.20    2.10
   2   5  14    1.70    1.80
   2   5  14    2.40    1.80
   2   5  14    2.90    1.60
  -3  -5 -14    3.00    1.40
  -3  -5 -14    2.50    1.60
  -3  -5 -14    0.00    1.50
  -3  -5 -14    2.80    1.60
   3   5  14    2.80    1.80
   3   5  14   -0.10    1.50
   3   5  14   -3.30    1.80
   3   5  14   -1.10    1.70
  -4  -5 -14    9.40    2.10
  -4  -5 -14   14.60    2.70
  -4  -5 -14   11.30    2.30
   4   5  14   13.20    2.50
   4   5  14   16.60    3.10
  -5  -5 -14    7.70    2.40
  -5  -5 -14    1.00    2.30
  -5  -5 -14    5.40    2.00
  -5  -5 -14    7.50    2.50
   5   5  14    3.50    2.20
   5   5  14    3.50    2.20
  -6  -5 -14    3.10    1.80
   5  -6 -14   -0.50    2.30
   4  -6 -14    1.80    2.30
  -4   6  14    1.20    1.50
   3  -6 -14    4.70    2.40
   3  -6 -14    5.30    1.50
  -3   6  14    5.80    2.60
  -3   6  14    4.50    1.80
  -3   6  14    1.00    2.30
   2  -6 -14   -0.20    1.30
  -2   6  14    0.40    1.50
  -2   6  14   -2.40    2.00
  -2   6  14    0.50    1.80
   1  -6 -14    1.00    1.40
  -1   6  14   -1.40    2.10
  -1   6  14    2.50    2.20
  -1   6  14    1.60    1.70
   0  -6 -14   52.49    3.30
   0   6  14   45.20    6.70
   0   6  14   49.10    3.60
   0   6  14   52.49    5.70
  -1  -6 -14   12.80    2.30
  -1  -6 -14    9.60    1.90
   1   6  14    8.10    2.50
   1   6  14   11.90    2.10
   1   6  14   12.20    2.60
  -2  -6 -14   16.60    2.50
  -2  -6 -14   15.50    3.80
  -2  -6 -14   16.00    2.50
   2   6  14   16.30    2.50
   2   6  14   14.10    3.10
   2   6  14   15.80    2.80
  -3  -6 -14    5.10    1.80
  -3  -6 -14    3.80    1.80
  -3  -6 -14    5.20    1.90
  -3  -6 -14    2.30    1.90
   3   6  14    0.40    2.30
   3   6  14    4.50    1.90
   3   6  14    3.70    2.10
  -4  -6 -14   -0.50    1.70
  -4  -6 -14    0.60    1.60
  -4  -6 -14   -2.90    1.80
  -4  -6 -14   -0.90    1.40
   4   6  14    0.80    2.00
   4   6  14   -0.80    1.80
  -5  -6 -14    1.20    1.70
  -5  -6 -14   -1.60    2.10
  -5  -6 -14    0.40    1.70
  -5  -6 -14   -1.50    2.00
   5   6  14    1.20    2.10
   5   6  14   -0.20    2.30
  -6  -6 -14    1.80    2.00
   4  -7 -14    1.70    2.40
   3  -7 -14    9.20    2.90
   3  -7 -14    4.60    1.40
  -3   7  14   -0.80    2.50
  -3   7  14    8.80    2.00
   2  -7 -14    1.70    1.40
   2  -7 -14    0.60    2.20
  -2   7  14    0.20    2.10
  -2   7  14   -2.50    2.00
  -2   7  14   -1.20    1.40
   1  -7 -14    3.20    1.50
  -1   7  14   -0.20    2.50
  -1   7  14    5.20    2.00
  -1   7  14    1.60    2.00
   0  -7 -14    2.00    1.50
   0   7  14    2.30    1.90
   0   7  14    1.70    2.10
   0   7  14   -3.60    2.30
  -1  -7 -14   -1.40    1.40
   1   7  14    1.60    1.90
   1   7  14    0.60    2.10
  -2  -7 -14    3.80    1.80
  -2  -7 -14    4.70    1.90
   2   7  14    4.90    1.90
   2   7  14    4.20    2.10
   2   7  14    1.10    2.40
  -3  -7 -14   -0.60    1.70
  -3  -7 -14    1.30    1.50
  -3  -7 -14    1.60    1.90
  -3  -7 -14    2.00    1.80
   3   7  14    0.80    2.30
   3   7  14    2.30    1.90
  -4  -7 -14    0.60    1.80
  -4  -7 -14   -0.50    2.00
  -4  -7 -14   -0.70    2.10
  -4  -7 -14   -0.60    2.10
   4   7  14   -0.20    2.00
   4   7  14   -0.50    1.90
  -5  -7 -14    1.50    2.40
   5   7  14    2.80    2.60
   3  -8 -14    2.90    2.70
   2  -8 -14    4.60    2.60
   2  -8 -14   -0.10    1.40
  -2   8  14    1.40    1.70
  -2   8  14   -3.30    2.50
   1  -8 -14    2.00    1.60
   1  -8 -14    0.40    2.10
  -1   8  14    0.80    2.30
  -1   8  14   -4.50    2.40
  -1   8  14    1.80    1.80
   0  -8 -14   30.70    3.10
   0   8  14   28.40    3.40
   0   8  14   29.20    5.40
  -1  -8 -14    3.10    2.00
   1   8  14   -0.40    2.20
   1   8  14    2.60    2.00
  -2  -8 -14    0.20    1.60
   2   8  14   -4.10    2.30
   2   8  14    2.50    2.10
  -3  -8 -14    3.20    1.70
  -3  -8 -14   -0.30    2.10
   3   8  14    3.60    2.00
   3   8  14    3.20    2.70
  -4  -8 -14    0.00    1.90
  -4  -8 -14   -0.30    1.70
   4   8  14    1.50    2.10
   2  -9 -14    2.20    2.50
   1  -9 -14   -2.10    2.00
   0  -9 -14   -1.50    2.20
  -1 -10 -14    2.90    2.30
   1  -7  15    2.80    2.40
   2   6 -15    5.70    2.60
   1  -6  15    3.30    2.40
   2  -6  15    1.60    2.10
   3  -6  15    1.40    2.30
  -3  -5  15    5.00    2.60
   2   5 -15    5.40    2.20
   2   5 -15    3.50    2.30
  -2  -5  15    5.00    2.60
  -2  -5  15    7.20    2.80
   1   5 -15    0.40    1.70
   1   5 -15    1.50    2.10
  -1  -5  15   -1.10    1.90
  -1  -5  15    2.60    2.30
  -1  -5  15   -0.40    1.80
   0   5 -15    1.30    2.10
   0  -5  15    0.00    1.60
   0  -5  15    1.00    2.00
  -1   5 -15    4.00    2.10
   1  -5  15    4.40    2.20
   1  -5  15    6.40    2.30
   1  -5  15    5.20    1.80
  -2   5 -15    4.70    2.10
   2  -5  15    1.80    1.90
   2  -5  15    4.50    2.20
   3  -5  15    3.70    2.20
   4  -5  15    1.00    2.40
   4   4 -15   11.00    2.80
  -4  -4  15    9.50    2.90
   3   4 -15    4.70    2.40
   3   4 -15    4.20    2.20
  -3  -4  15    0.20    1.90
  -3  -4  15    6.20    2.70
  -3  -4  15    1.80    2.30
  -3  -4  15    4.50    2.30
   2   4 -15    2.20    2.00
   2   4 -15    2.10    1.90
  -2  -4  15    1.00    2.20
  -2  -4  15    3.00    2.20
  -2  -4  15    4.60    2.40
   1   4 -15   -0.80    1.50
   1   4 -15   -1.20    1.70
  -1  -4  15    2.10    1.90
  -1  -4  15   -1.50    1.80
  -1  -4  15   -0.30    2.10
   0   4 -15    0.10    1.50
   0   4 -15    2.10    1.80
   0  -4  15    2.10    1.90
   0  -4  15    2.10    2.00
   0  -4  15    1.70    2.10
  -1   4 -15    6.10    1.80
  -1   4 -15    3.20    1.80
   1  -4  15    8.10    2.30
   1  -4  15    4.50    2.10
   1  -4  15    6.00    2.00
  -2   4 -15    3.20    1.80
  -2   4 -15    5.00    1.70
   2  -4  15    2.70    1.90
   2  -4  15    5.50    2.10
   2  -4  15    3.70    1.60
  -3   4 -15    5.60    2.00
   3  -4  15    5.50    2.20
   3  -4  15    5.60    2.10
  -4   4 -15    1.10    1.70
  -4   4 -15    5.90    2.10
   4  -4  15    0.10    2.00
   4  -4  15    1.80    1.90
   5  -4  15    0.20    2.50
   4   3 -15    4.70    2.10
  -4  -3  15    6.80    2.70
  -4  -3  15    8.80    3.00
  -4  -3  15    4.70    2.40
   3   3 -15    0.50    1.80
   3   3 -15    1.30    1.80
  -3  -3  15    2.60    2.50
  -3  -3  15   -1.70    1.50
  -3  -3  15   -0.50    1.80
  -3  -3  15    0.80    2.40
   2   3 -15    5.30    2.10
   2   3 -15    5.30    2.00
  -2  -3  15    5.20    2.10
  -2  -3  15    8.90    2.50
  -2  -3  15    4.60    2.50
   1   3 -15    5.60    1.90
   1   3 -15    4.90    2.10
  -1  -3  15    3.30    1.90
  -1  -3  15    4.10    2.20
  -1  -3  15    5.90    2.10
   0   3 -15    3.20    1.70
   0   3 -15    2.30    1.60
   0  -3  15    4.80    2.00
   0  -3  15    2.30    1.90
   0  -3  15    3.00    1.80
  -1   3 -15   -1.80    1.30
  -1   3 -15   -0.60    1.30
  -1   3 -15    2.80    1.20
   1  -3  15    1.10    1.40
   1  -3  15   -0.90    1.50
   1  -3  15    1.30    1.80
   1  -3  15    0.40    1.70
  -2   3 -15    5.40    2.00
  -2   3 -15    4.00    1.70
   2  -3  15    5.10    1.90
   2  -3  15    3.90    1.80
   2  -3  15    5.20    1.60
  -3   3 -15    5.60    2.30
  -3   3 -15    5.50    2.10
   3  -3  15    4.80    1.90
   3  -3  15    5.40    2.00
  -4   3 -15    0.20    1.60
  -4   3 -15    1.30    1.90
   4  -3  15    1.90    1.80
   4  -3  15   -3.90    1.70
   5  -3  15   -1.50    2.10
   5  -3  15    1.30    1.80
   6  -3  15   -1.60    2.50
  -5  -2  15   30.60    4.10
  -5  -2  15   26.20    6.50
   4   2 -15    8.80    2.30
  -4  -2  15    7.30    2.70
  -4  -2  15    2.00    2.00
  -4  -2  15    9.60    3.00
  -4  -2  15    7.40    2.50
  -4  -2  15    7.00    2.90
   3   2 -15    3.20    1.90
   3   2 -15    8.60    2.20
  -3  -2  15    3.60    2.40
  -3  -2  15    5.60    2.10
  -3  -2  15    7.10    2.60
  -3  -2  15    3.50    2.30
  -3  -2  15    1.00    1.80
   2   2 -15    3.60    1.80
   2   2 -15    2.40    1.70
  -2  -2  15   -0.40    1.60
  -2  -2  15   -0.50    1.40
  -2  -2  15    3.80    2.20
  -2  -2  15    2.20    1.90
  -2  -2  15    2.90    2.00
   1   2 -15    2.10    1.60
   1   2 -15    0.60    1.40
  -1  -2  15    0.80    1.60
  -1  -2  15    0.90    1.60
  -1  -2  15    0.20    1.70
  -1  -2  15   -2.50    1.60
   0   2 -15   -0.80    1.20
   0   2 -15    1.10    0.70
   0   2 -15    0.70    1.40
   0  -2  15   -1.50    1.40
   0  -2  15   -0.20    1.30
   0  -2  15    0.40    1.60
  -1   2 -15   -1.70    1.50
  -1   2 -15    0.80    1.40
  -1   2 -15    1.60    1.50
  -1   2 -15    2.40    1.20
   1  -2  15   -2.60    1.70
   1  -2  15    3.40    1.50
   1  -2  15    4.80    2.00
   1  -2  15    2.00    1.70
  -2   2 -15    1.20    1.20
  -2   2 -15   -0.30    1.20
  -2   2 -15    1.80    1.60
   2  -2  15   -0.10    1.60
   2  -2  15    1.50    1.50
   2  -2  15    2.20    1.30
  -3   2 -15   35.00    4.40
  -3   2 -15   31.90    3.20
   3  -2  15   28.30    2.80
   3  -2  15   29.20    2.70
  -4   2 -15    8.60    2.20
  -4   2 -15    6.10    2.30
   4  -2  15    6.50    2.20
   4  -2  15    5.80    1.90
  -5   2 -15    0.80    1.70
  -5   2 -15    0.60    1.70
   5  -2  15    1.70    1.90
   5  -2  15   -0.80    2.10
   6  -2  15   -1.50    2.30
  -5  -1  15   35.90    4.20
  -5  -1  15   29.80    7.10
   4   1 -15    4.90    1.90
   4   1 -15    2.00    1.80
  -4  -1  15    1.10    2.20
  -4  -1  15    4.80    2.30
  -4  -1  15   -1.70    1.80
  -4  -1  15    0.50    2.30
   3   1 -15    2.50    1.70
   3   1 -15    2.20    1.30
   3   1 -15    7.20    2.10
  -3  -1  15    3.10    2.20
  -3  -1  15    7.90    2.50
  -3  -1  15    2.70    1.70
  -3  -1  15    7.20    2.50
  -3  -1  15    4.30    1.90
   2   1 -15    6.20    1.80
   2   1 -15    6.60    2.00
  -2  -1  15    3.50    2.00
  -2  -1  15    7.40    2.10
  -2  -1  15    5.60    1.90
  -2  -1  15    2.40    1.60
  -2  -1  15    6.30    2.30
   1   1 -15    0.20    1.40
   1   1 -15    2.50    1.60
   1   1 -15    3.30    1.60
  -1  -1  15   -0.80    1.50
  -1  -1  15    2.20    1.70
  -1  -1  15    1.80    1.70
   0   1 -15   10.40    2.00
   0   1 -15    8.80    2.10
   0   1 -15   11.20    2.00
   0  -1  15   10.60    1.60
   0  -1  15    9.90    2.40
   0  -1  15    9.90    2.10
  -1   1 -15    3.00    1.50
  -1   1 -15    1.90    1.00
  -1   1 -15    4.30    1.60
  -1   1 -15   -0.10    1.50
   1  -1  15    2.70    1.60
   1  -1  15    3.90    1.20
   1  -1  15   -0.60    1.80
   1  -1  15    3.70    1.80
  -2   1 -15    1.40    1.10
  -2   1 -15    1.30    1.40
  -2   1 -15    0.80    1.30
  -2   1 -15   -0.90    1.50
   2  -1  15    0.90    1.50
   2  -1  15    2.80    1.30
   2  -1  15   -0.10    1.50
   2  -1  15   -1.60    1.70
  -3   1 -15   -1.40    1.60
  -3   1 -15    1.10    1.40
  -3   1 -15    0.90    1.40
  -3   1 -15   -0.10    1.10
   3  -1  15   -0.50    1.40
   3  -1  15    0.30    1.30
   3  -1  15   -0.40    1.50
  -4   1 -15    2.50    1.70
  -4   1 -15    2.10    1.70
   4  -1  15    2.80    1.70
   4  -1  15    1.50    1.80
  -5   1 -15    0.60    1.60
  -5   1 -15    1.00    2.00
   5  -1  15    0.50    1.80
   5  -1  15    0.60    2.30
   6  -1  15   -1.60    2.20
  -6   0  15   23.70    3.60
   5   0 -15    9.00    2.60
  -5   0  15    4.00    2.70
  -5   0  15    4.00    2.60
   4   0 -15    6.10    2.20
   4   0 -15    8.10    2.30
  -4   0  15    2.50    1.90
  -4   0  15    6.90    2.60
  -4   0  15    6.10    2.70
  -4   0  15    5.70    2.70
   3   0 -15    0.90    1.20
   3   0 -15   -0.20    1.50
  -3   0  15   -1.40    1.50
  -3   0  15   -0.10    1.80
  -3   0  15   -0.40    1.70
  -3   0  15   -2.10    1.20
  -3   0  15   -0.90    1.70
   2   0 -15    8.90    2.20
   2   0 -15    7.30    1.90
  -2   0  15    2.60    1.50
  -2   0  15    4.80    2.40
  -2   0  15    5.70    1.90
  -2   0  15    7.90    2.20
   1   0 -15   14.00    2.30
   1   0 -15   13.60    2.20
  -1   0  15   12.70    2.20
  -1   0  15    7.90    2.40
  -1   0  15   14.60    2.60
   0   0 -15    0.50    1.20
   0   0 -15    1.60    1.40
   0   0 -15    0.50    1.40
   0   0 -15    0.60    0.70
   0   0  15   -0.50    1.80
   0   0  15    2.00    1.70
   0   0  15    1.40    1.60
  -1   0 -15    0.00    1.30
  -1   0 -15   -0.20    0.80
  -1   0 -15    0.10    1.20
  -1   0 -15   -0.60    1.30
   1   0  15   -0.80    1.40
   1   0  15    0.30    0.90
   1   0  15   -0.20    1.50
  -2   0 -15   10.10    1.90
  -2   0 -15    4.10    1.40
  -2   0 -15    3.80    1.80
  -2   0 -15    6.60    1.80
   2   0  15    4.60    2.30
   2   0  15    8.30    2.00
   2   0  15    8.80    1.40
   2   0  15   11.20    2.30
  -3   0 -15   15.50    2.10
  -3   0 -15   13.70    2.30
   3   0  15   16.30    2.50
   3   0  15   14.50    2.40
   3   0  15   15.00    2.00
  -4   0 -15   15.30    2.10
  -4   0 -15    7.60    2.40
  -4   0 -15   11.30    2.30
   4   0  15   16.60    2.50
   4   0  15   14.40    2.40
  -5   0 -15    1.60    1.80
  -5   0 -15    0.50    2.10
   5   0  15    3.30    1.90
   5   0  15    0.40    1.90
   6   0  15   -0.30    2.30
   6   0  15   -2.00    1.90
   6  -1 -15   26.80    3.70
  -6   1  15   31.10    4.10
   5  -1 -15   12.80    2.50
   5  -1 -15   15.40    3.20
  -5   1  15   10.00    3.10
  -5   1  15   14.60    3.50
  -5   1  15   13.40    2.90
   4  -1 -15    1.90    1.90
   4  -1 -15    0.90    1.60
  -4   1  15   -0.90    1.80
  -4   1  15    1.60    2.30
  -4   1  15    0.60    2.00
   3  -1 -15   -0.20    1.40
  -3   1  15    0.40    1.80
  -3   1  15   -0.70    1.90
  -3   1  15    1.30    1.60
  -3   1  15    1.80    1.50
  -3   1  15   -0.90    1.30
   2  -1 -15   36.30    2.90
   2  -1 -15   31.10    2.70
  -2   1  15   32.60    4.30
  -2   1  15   40.50    5.50
  -2   1  15   30.60    2.80
  -2   1  15   34.90    3.20
   1  -1 -15    9.50    1.80
   1  -1 -15   10.50    2.00
  -1   1  15   11.40    2.10
  -1   1  15   14.40    2.50
  -1   1  15    6.00    2.30
   0  -1 -15    0.70    1.30
   0  -1 -15    0.30    1.20
   0  -1 -15   -0.40    0.60
   0  -1 -15    1.20    1.30
   0   1  15    0.90    1.60
   0   1  15    0.90    1.40
   0   1  15    1.60    1.10
   0   1  15   -0.50    1.80
  -1  -1 -15    0.80    1.30
  -1  -1 -15   -1.00    1.20
  -1  -1 -15   -0.10    1.30
  -1  -1 -15   -0.30    0.80
   1   1  15    0.70    1.50
   1   1  15    0.30    0.80
   1   1  15    0.10    1.40
   1   1  15    0.40    1.70
  -2  -1 -15    1.50    1.30
  -2  -1 -15    0.10    1.50
  -2  -1 -15    1.20    1.40
  -2  -1 -15   -0.80    1.00
   2   1  15   -1.70    1.70
   2   1  15   -0.80    1.40
   2   1  15    2.10    1.50
  -3  -1 -15    5.10    1.80
  -3  -1 -15    5.10    1.70
  -3  -1 -15    1.70    1.50
  -3  -1 -15    2.70    1.70
   3   1  15    5.00    1.80
   3   1  15    4.20    1.90
   3   1  15    6.70    1.50
  -4  -1 -15   -0.90    1.50
  -4  -1 -15   -1.00    1.40
  -4  -1 -15    0.40    1.50
  -4  -1 -15    0.90    1.30
   4   1  15    2.80    1.70
   4   1  15    0.50    1.60
   4   1  15    1.40    1.60
  -5  -1 -15   -1.60    1.90
  -5  -1 -15    1.00    1.50
   5   1  15   -1.40    1.70
   5   1  15    2.10    1.80
  -6  -1 -15   -2.50    2.10
   6   1  15    2.50    2.20
   6  -2 -15    8.90    3.10
  -6   2  15    6.90    2.50
   5  -2 -15    2.10    2.30
   5  -2 -15    1.50    1.60
  -5   2  15    0.80    2.00
  -5   2  15   -0.20    2.10
  -5   2  15   -2.80    1.60
   4  -2 -15    8.10    2.70
   4  -2 -15    5.40    1.80
  -4   2  15    3.40    2.40
  -4   2  15    7.10    2.20
  -4   2  15    8.50    2.50
   3  -2 -15    5.70    1.60
  -3   2  15    5.30    2.00
  -3   2  15    1.10    1.40
  -3   2  15    3.20    2.20
   2  -2 -15    0.40    1.20
   2  -2 -15    1.60    1.20
  -2   2  15    2.50    1.70
  -2   2  15   -0.60    1.90
  -2   2  15    2.30    1.40
  -2   2  15   -0.60    1.00
   1  -2 -15   12.60    2.00
   1  -2 -15   12.30    2.10
  -1   2  15   13.60    2.40
  -1   2  15    7.30    2.40
  -1   2  15   12.40    2.10
   0  -2 -15   12.30    2.00
   0  -2 -15   11.40    2.20
   0   2  15   15.30    2.70
   0   2  15   12.80    2.40
   0   2  15   10.80    2.00
   0   2  15    8.30    2.50
  -1  -2 -15   -1.00    0.80
  -1  -2 -15    1.20    1.30
  -1  -2 -15   -0.20    1.10
  -1  -2 -15    1.20    1.40
   1   2  15   -0.20    0.90
   1   2  15   -2.40    1.40
   1   2  15    0.50    2.00
   1   2  15    1.00    1.50
  -2  -2 -15   24.20    2.60
  -2  -2 -15   22.10    4.80
  -2  -2 -15   26.10    2.40
  -2  -2 -15   18.60    3.40
   2   2  15   26.00    2.60
   2   2  15   24.10    3.10
   2   2  15   22.00    2.70
  -3  -2 -15    0.10    1.40
  -3  -2 -15    0.00    1.30
  -3  -2 -15   -1.20    1.40
  -3  -2 -15    0.90    1.30
   3   2  15    1.60    1.60
   3   2  15   -1.40    1.40
  -4  -2 -15   -0.80    1.20
  -4  -2 -15   -1.60    1.50
  -4  -2 -15    0.00    1.50
  -4  -2 -15   -0.50    1.30
   4   2  15   -0.60    1.60
   4   2  15   -0.90    1.60
  -5  -2 -15   -0.30    1.30
  -5  -2 -15   -0.80    1.70
  -5  -2 -15   -2.80    2.00
  -5  -2 -15   -0.90    1.20
   5   2  15    0.70    1.80
   6   2  15    4.70    2.60
   5  -3 -15    2.80    2.30
   5  -3 -15    2.40    1.50
  -5   3  15    3.90    2.10
  -5   3  15    1.10    1.80
   4  -3 -15    0.50    1.30
   4  -3 -15    0.70    2.20
  -4   3  15   -0.50    1.90
  -4   3  15    1.10    1.70
  -4   3  15    1.80    1.90
   3  -3 -15    6.50    1.80
  -3   3  15    1.70    2.30
  -3   3  15    5.70    2.10
   2  -3 -15    7.30    1.70
  -2   3  15    3.60    1.30
  -2   3  15    4.50    2.60
  -2   3  15   11.60    2.30
   1  -3 -15   14.80    2.20
   1  -3 -15   13.60    2.00
  -1   3  15   14.50    2.10
  -1   3  15    9.10    2.70
  -1   3  15   15.10    2.40
  -1   3  15   14.40    3.40
   0  -3 -15   10.40    2.00
   0  -3 -15    9.30    1.80
   0   3  15   10.40    2.00
   0   3  15    5.00    2.50
   0   3  15    7.70    1.90
   0   3  15   11.00    2.30
  -1  -3 -15   10.80    2.10
  -1  -3 -15   10.90    1.90
   1   3  15    6.70    2.50
   1   3  15   11.70    2.40
   1   3  15   10.20    2.00
   1   3  15   13.00    2.90
  -2  -3 -15    9.30    1.90
  -2  -3 -15    3.80    1.60
  -2  -3 -15    9.40    2.00
   2   3  15    8.30    1.90
   2   3  15    6.70    2.60
   2   3  15    7.10    1.70
   2   3  15   11.50    2.40
  -3  -3 -15    5.20    1.60
  -3  -3 -15    6.40    1.80
  -3  -3 -15    2.40    1.80
   3   3  15    4.80    1.80
   3   3  15    1.30    2.20
   3   3  15    1.40    1.50
   3   3  15    5.50    1.90
  -4  -3 -15    6.90    2.10
  -4  -3 -15    7.50    1.90
  -4  -3 -15    4.20    2.40
   4   3  15    8.90    2.40
   4   3  15   11.70    2.40
  -5  -3 -15   -0.40    1.40
  -5  -3 -15   -1.60    1.50
   5   3  15   -1.40    1.60
   5   3  15   -0.10    1.80
  -6  -3 -15   -3.30    2.40
   5  -4 -15    2.30    2.40
   5  -4 -15    0.20    1.30
  -5   4  15   -0.20    1.50
   4  -4 -15    2.30    2.30
   4  -4 -15    3.30    1.50
  -4   4  15    3.20    1.80
  -4   4  15    1.50    2.50
   3  -4 -15    3.10    1.50
  -3   4  15    1.00    1.50
  -3   4  15   -0.10    2.00
   2  -4 -15   10.70    1.90
  -2   4  15    6.40    2.30
  -2   4  15    4.10    2.40
  -2   4  15    6.50    2.00
   1  -4 -15    0.40    1.40
   1  -4 -15    0.20    1.10
  -1   4  15   -0.10    1.50
  -1   4  15    0.50    1.20
  -1   4  15    1.50    1.70
  -1   4  15   -1.60    1.80
   0  -4 -15   12.10    2.10
   0  -4 -15   11.70    2.00
   0   4  15    9.10    2.30
   0   4  15    6.60    2.70
   0   4  15   11.20    1.90
   0   4  15   12.40    2.30
  -1  -4 -15   -0.50    0.90
  -1  -4 -15    1.30    1.30
  -1  -4 -15   -0.70    1.30
   1   4  15   -1.00    2.00
   1   4  15   -0.10    1.30
   1   4  15    0.10    1.50
   1   4  15    0.80    1.40
  -2  -4 -15    5.20    1.60
  -2  -4 -15    1.80    1.50
  -2  -4 -15    5.30    1.70
   2   4  15    4.60    1.90
   2   4  15    2.30    1.60
   2   4  15    4.80    1.80
   2   4  15   -0.50    2.20
  -3  -4 -15    2.90    1.70
  -3  -4 -15    1.30    1.50
   3   4  15    1.30    1.70
   3   4  15    2.00    1.90
   3   4  15   -3.20    1.90
   3   4  15   -1.90    1.50
  -4  -4 -15   10.60    2.30
  -4  -4 -15    6.70    2.20
   4   4  15    9.80    2.40
   4   4  15    9.10    2.40
  -5  -4 -15    1.30    1.90
  -5  -4 -15    1.90    1.70
  -5  -4 -15    2.10    1.80
  -5  -4 -15   -3.10    2.20
   5   4  15    4.30    2.40
   5   4  15    0.80    2.10
   5  -5 -15    3.40    2.50
   4  -5 -15    0.90    1.30
   4  -5 -15    0.60    2.30
  -4   5  15    0.40    1.50
   3  -5 -15    6.40    2.50
   3  -5 -15    6.10    1.70
  -3   5  15    7.60    2.10
  -3   5  15    1.90    2.40
  -3   5  15    6.50    2.50
   2  -5 -15    0.40    1.40
  -2   5  15    0.30    1.60
  -2   5  15   -1.60    1.90
  -2   5  15    0.90    1.80
   1  -5 -15    2.60    1.40
  -1   5  15    4.00    2.00
  -1   5  15    0.70    2.20
  -1   5  15    5.10    2.00
   0  -5 -15    1.20    1.40
   0  -5 -15    1.80    1.20
   0   5  15    2.00    1.60
   0   5  15   -2.00    2.20
   0   5  15    3.40    1.80
   0   5  15    1.80    1.90
  -1  -5 -15   11.20    2.10
  -1  -5 -15   12.60    2.80
  -1  -5 -15   11.80    2.20
   1   5  15    3.50    2.80
   1   5  15   10.80    2.00
   1   5  15    7.60    2.20
   1   5  15    8.30    2.30
  -2  -5 -15   32.60    3.10
  -2  -5 -15   33.00    2.90
  -2  -5 -15   26.60    4.00
   2   5  15   33.20    3.60
   2   5  15   34.20    3.20
   2   5  15   32.10    4.40
  -3  -5 -15    0.20    1.50
  -3  -5 -15   -1.30    1.60
  -3  -5 -15    0.90    1.50
   3   5  15    0.50    1.60
   3   5  15   -0.80    1.70
   3   5  15   -2.70    1.60
  -4  -5 -15    4.10    1.90
  -4  -5 -15    6.00    2.20
  -4  -5 -15    6.90    2.00
  -4  -5 -15    1.10    2.20
   4   5  15    8.00    2.50
   4   5  15    3.40    2.10
  -5  -5 -15   -2.00    1.60
  -5  -5 -15    0.90    1.90
  -5  -5 -15   -1.20    1.80
  -5  -5 -15   -4.00    2.20
   5   5  15   -1.00    2.00
   5   5  15   -0.50    2.10
   4  -6 -15   -1.40    2.00
  -4   6  15    0.70    1.60
   3  -6 -15    0.90    2.20
   3  -6 -15    2.60    1.50
  -3   6  15    0.90    1.60
  -3   6  15    2.70    2.30
  -3   6  15   -1.50    2.40
   2  -6 -15    2.40    1.50
  -2   6  15   -2.70    2.20
  -2   6  15   -0.30    1.80
  -2   6  15    1.70    2.10
   1  -6 -15    7.90    1.90
  -1   6  15    5.90    1.90
  -1   6  15    5.00    2.30
  -1   6  15    0.70    2.40
   0  -6 -15    3.60    1.70
   0   6  15    2.60    2.00
   0   6  15    2.40    1.90
   0   6  15   -2.40    2.40
  -1  -6 -15   -0.40    1.20
  -1  -6 -15    0.30    1.50
   1   6  15   -1.10    1.50
   1   6  15   -0.20    1.70
   1   6  15   -0.50    1.50
  -2  -6 -15    1.10    1.50
  -2  -6 -15    2.50    1.50
  -2  -6 -15    1.40    1.50
   2   6  15    2.00    1.90
   2   6  15    0.30    1.60
   2   6  15   -0.20    2.00
   2   6  15   -4.20    2.30
  -3  -6 -15    4.50    2.10
  -3  -6 -15    0.60    1.70
  -3  -6 -15    2.90    1.80
   3   6  15    2.40    2.00
   3   6  15    4.20    2.20
  -4  -6 -15    0.40    2.20
  -4  -6 -15    2.60    1.90
  -4  -6 -15    4.20    2.30
  -4  -6 -15    3.40    1.80
   4   6  15    4.70    2.30
   4   6  15    5.60    2.40
  -5  -6 -15    5.80    2.60
  -5  -6 -15    0.30    2.40
  -5  -6 -15    2.60    1.90
   5   6  15    7.80    2.60
   5   6  15    5.00    2.70
   4  -7 -15   -0.90    2.00
   3  -7 -15    1.40    1.40
   3  -7 -15    1.00    2.40
  -3   7  15    0.50    1.60
   2  -7 -15    0.20    1.50
   2  -7 -15    0.60    2.30
  -2   7  15   -0.70    1.60
  -2   7  15   -2.70    2.40
  -2   7  15    1.10    2.40
   1  -7 -15   10.90    2.10
  -1   7  15    1.70    3.10
  -1   7  15    6.40    2.80
  -1   7  15    7.50    2.20
   0  -7 -15    1.50    1.50
   0   7  15    2.40    2.20
   0   7  15    3.30    2.00
  -1  -7 -15   -1.00    1.50
   1   7  15    0.30    1.90
   1   7  15   -0.10    2.10
  -2  -7 -15   13.20    2.40
  -2  -7 -15   13.20    2.70
   2   7  15    7.10    2.90
   2   7  15   13.90    2.50
   2   7  15   10.80    2.60
  -3  -7 -15    6.10    2.30
  -3  -7 -15    6.30    2.10
  -3  -7 -15    6.40    1.90
  -3  -7 -15    1.40    1.90
   3   7  15    3.90    2.10
   3   7  15    5.00    2.40
  -4  -7 -15   -1.40    1.70
  -4  -7 -15    0.20    2.00
  -4  -7 -15   -2.10    2.00
  -4  -7 -15    1.30    1.70
   4   7  15    0.90    2.10
   4   7  15    0.20    2.30
   3  -8 -15    2.10    2.60
   2  -8 -15   -0.30    2.20
   2  -8 -15   -0.60    1.40
   1  -8 -15   -0.40    1.50
   1  -8 -15    2.70    2.70
  -1   8  15   -1.00    1.70
   0  -8 -15    1.50    1.80
   0   8  15    0.70    2.20
   0   8  15    0.10    1.90
  -1  -8 -15    0.60    1.80
   1   8  15    0.30    2.00
   1   8  15   -1.00    2.10
  -2  -8 -15    0.70    1.80
   2   8  15   -3.90    2.40
   2   8  15    0.30    1.90
  -3  -8 -15    7.80    2.10
  -4  -8 -15    0.30    2.20
   4   8  15    1.00    2.10
   1  -9 -15    5.40    2.90
   0  -9 -15    3.40    2.70
   1  -6  16    2.40    2.40
   2  -6  16    0.50    2.40
   2   5 -16    0.00    2.00
  -2  -5  16   -2.40    2.20
   1   5 -16    5.40    2.10
  -1  -5  16    6.50    2.30
  -1  -5  16    6.50    2.70
   0  -5  16    1.40    1.80
   1  -5  16    2.70    1.80
   1  -5  16    2.80    2.10
   2  -5  16    3.70    2.30
   3  -5  16   -1.40    1.90
   4  -5  16    1.20    2.30
   3   4 -16    0.10    1.90
  -3  -4  16    1.10    2.40
  -3  -4  16    2.70    2.50
   2   4 -16    2.60    2.10
   2   4 -16    4.40    2.10
  -2  -4  16   -0.80    2.20
  -2  -4  16    0.80    2.00
  -2  -4  16    3.40    2.40
   1   4 -16   34.30    3.70
   1   4 -16   28.50    3.20
  -1  -4  16   34.80    3.70
  -1  -4  16   31.60    3.90
  -1  -4  16   31.60    3.70
   0   4 -16    1.60    1.90
   0   4 -16    0.10    1.70
   0  -4  16   -1.20    1.70
   0  -4  16    1.20    1.90
   0  -4  16   -1.40    1.90
  -1   4 -16    1.80    2.00
   1  -4  16    1.50    2.00
   1  -4  16    3.70    2.10
   1  -4  16    1.90    1.80
  -2   4 -16    2.60    1.80
   2  -4  16    0.40    1.80
   2  -4  16    0.20    1.90
  -3   4 -16    2.90    2.00
   3  -4  16    0.00    2.10
   3  -4  16   -0.30    2.00
   4  -4  16   -0.10    2.10
  -4  -3  16    6.90    3.00
  -4  -3  16    1.80    2.40
   3   3 -16   -1.80    1.70
   3   3 -16   -1.60    1.80
  -3  -3  16    0.60    2.40
  -3  -3  16   -1.10    1.70
  -3  -3  16    0.40    2.30
  -3  -3  16   -2.80    1.80
   2   3 -16    1.40    1.90
   2   3 -16    0.90    1.70
  -2  -3  16    1.90    2.30
  -2  -3  16    2.80    2.40
  -2  -3  16    1.00    2.00
   1   3 -16    2.60    1.70
   1   3 -16    4.20    2.10
  -1  -3  16   -0.70    1.90
  -1  -3  16   -0.30    2.10
  -1  -3  16    1.90    1.90
   0   3 -16    7.50    2.30
   0   3 -16    8.50    2.20
   0  -3  16    5.30    2.00
   0  -3  16    5.80    2.30
   0  -3  16    6.50    2.30
  -1   3 -16   -0.20    1.50
  -1   3 -16    0.40    1.40
   1  -3  16    1.00    1.80
   1  -3  16   -0.90    1.60
   1  -3  16    1.80    1.60
   1  -3  16    0.20    1.80
  -2   3 -16    6.10    2.00
   2  -3  16    6.20    2.00
   2  -3  16    6.80    2.20
   2  -3  16    6.10    1.80
  -3   3 -16    4.00    1.90
  -3   3 -16    6.30    2.10
   3  -3  16    3.30    2.00
   3  -3  16    4.80    2.20
  -4   3 -16    1.80    1.70
  -4   3 -16   -0.70    1.70
   4  -3  16   -0.30    1.90
   4  -3  16   -0.40    1.80
   5  -3  16    1.70    2.70
  -5  -2  16    6.60    2.90
  -4  -2  16    6.90    3.10
  -4  -2  16   -0.10    2.40
   3   2 -16    5.90    2.10
   3   2 -16    6.00    2.30
  -3  -2  16    1.40    2.20
  -3  -2  16    0.40    1.80
  -3  -2  16    7.60    2.80
  -3  -2  16   -1.20    2.10
  -3  -2  16    2.00    1.90
   2   2 -16   11.70    2.60
   2   2 -16   12.50    2.40
  -2  -2  16   14.90    2.70
  -2  -2  16   13.30    3.00
  -2  -2  16   15.40    3.00
   1   2 -16   13.50    2.40
   1   2 -16   17.50    3.00
  -1  -2  16   18.70    3.00
  -1  -2  16   12.80    2.70
  -1  -2  16   16.90    2.80
   0   2 -16   15.50    2.60
   0   2 -16   11.60    2.20
   0  -2  16   11.90    2.50
   0  -2  16   11.90    2.60
   0  -2  16   13.80    2.40
  -1   2 -16    1.50    1.10
  -1   2 -16    1.00    1.60
  -1   2 -16    3.00    1.50
   1  -2  16    2.20    1.50
   1  -2  16    3.10    1.90
   1  -2  16   -0.40    1.70
  -2   2 -16    0.50    1.20
  -2   2 -16    0.40    1.50
  -2   2 -16    0.60    1.50
   2  -2  16   -0.40    1.30
   2  -2  16    0.00    1.60
   2  -2  16    0.40    1.60
  -3   2 -16    0.90    1.50
  -3   2 -16    2.20    1.70
   3  -2  16    1.10    1.70
   3  -2  16    1.80    1.70
  -4   2 -16    5.50    2.30
  -4   2 -16    6.00    2.10
   4  -2  16    9.30    2.40
   4  -2  16    7.80    2.20
  -5   2 -16    3.00    2.30
   5  -2  16    1.80    2.30
   6  -2  16    1.40    2.60
  -5  -1  16    9.40    3.20
   4   1 -16    1.30    2.10
   4   1 -16    1.50    2.00
  -4  -1  16   -1.40    2.20
  -4  -1  16   -3.50    2.00
  -4  -1  16    3.20    2.60
   3   1 -16    2.00    1.70
   3   1 -16    2.60    2.00
  -3  -1  16    1.90    2.40
  -3  -1  16    0.30    1.70
  -3  -1  16    0.40    2.30
  -3  -1  16    2.50    2.30
   2   1 -16    7.90    2.10
   2   1 -16    7.70    2.20
  -2  -1  16    7.10    2.30
  -2  -1  16    3.20    1.70
  -2  -1  16    8.00    2.60
  -2  -1  16    2.30    2.10
  -2  -1  16    7.20    2.40
   1   1 -16    7.50    2.00
   1   1 -16    5.40    1.90
  -1  -1  16    7.80    2.10
  -1  -1  16    5.30    2.00
  -1  -1  16    8.60    2.40
   0   1 -16    3.50    1.60
   0   1 -16    4.80    1.80
   0  -1  16   -1.10    2.00
   0  -1  16    3.30    1.20
   0  -1  16    4.40    2.20
   0  -1  16    5.90    1.90
  -1   1 -16    0.50    1.40
  -1   1 -16    1.80    1.70
  -1   1 -16    0.40    0.90
   1  -1  16    1.40    1.70
   1  -1  16    1.40    1.10
   1  -1  16    0.30    1.80
  -2   1 -16    5.00    1.60
  -2   1 -16    3.60    1.70
  -2   1 -16    4.80    1.60
   2  -1  16    5.10    2.00
   2  -1  16    6.70    2.20
   2  -1  16    7.30    1.70
  -3   1 -16    8.00    2.20
  -3   1 -16   13.40    2.50
  -3   1 -16   16.80    2.20
   3  -1  16   15.70    2.70
   3  -1  16   13.90    2.30
   3  -1  16   12.10    2.40
  -4   1 -16    6.50    2.10
  -4   1 -16    5.40    2.10
   4  -1  16    6.30    2.20
   4  -1  16    9.40    2.30
  -5   1 -16    1.70    1.70
  -5   1 -16    1.10    2.00
   5  -1  16    2.10    1.90
   5  -1  16    1.50    2.10
   6  -1  16    2.20    2.90
   5   0 -16    5.50    2.50
  -5   0  16    1.30    2.60
   4   0 -16   23.70    3.30
   4   0 -16   14.70    2.70
  -4   0  16   15.90    3.20
  -4   0  16   23.70    3.90
  -4   0  16   10.20    3.10
   3   0 -16    6.10    2.00
   3   0 -16    7.40    2.00
  -3   0  16    7.80    2.60
  -3   0  16    4.20    1.90
  -3   0  16    1.20    2.40
  -3   0  16    3.80    2.40
   2   0 -16   19.60    4.60
   2   0 -16   21.70    2.90
   2   0 -16   20.40    2.60
  -2   0  16   20.70    2.80
  -2   0  16   22.80    3.20
  -2   0  16   22.20    3.30
   1   0 -16    6.70    1.80
   1   0 -16    5.00    1.70
   1   0 -16    1.60    1.60
  -1   0  16    4.30    2.10
  -1   0  16    1.50    2.10
  -1   0  16    3.60    1.80
   0   0 -16    0.80    1.60
   0   0 -16    5.90    1.70
   0   0 -16    5.90    1.80
   0   0  16    4.20    1.80
   0   0  16    3.90    1.30
   0   0  16    2.40    2.00
   0   0  16   -0.80    2.00
  -1   0 -16    5.00    1.60
  -1   0 -16    3.90    1.30
  -1   0 -16    7.10    2.00
  -1   0 -16    1.40    1.70
   1   0  16    5.70    2.00
   1   0  16    8.00    2.20
   1   0  16    1.20    2.20
  -2   0 -16   -0.20    1.50
  -2   0 -16    0.00    1.00
  -2   0 -16    1.80    1.30
  -2   0 -16    2.50    1.60
   2   0  16    1.60    1.70
   2   0  16   -1.80    1.90
   2   0  16    1.70    1.80
  -3   0 -16    2.30    1.60
  -3   0 -16    1.80    1.40
  -3   0 -16   -0.20    1.70
  -3   0 -16    0.40    1.50
   3   0  16    1.90    1.40
   3   0  16    5.50    2.00
   3   0  16    4.00    1.90
  -4   0 -16    2.00    2.00
  -4   0 -16    4.90    1.90
   4   0  16    6.30    2.00
   4   0  16    6.00    2.10
  -5   0 -16    7.00    2.60
  -5   0 -16    8.20    2.20
   5   0  16   11.50    2.60
   5   0  16    7.60    2.40
   6   0  16    5.10    2.90
   5  -1 -16    3.40    2.30
  -5   1  16    1.80    2.40
   4  -1 -16   42.70    4.00
   4  -1 -16   34.00    3.10
  -4   1  16   25.60    5.30
  -4   1  16   39.40    7.10
  -4   1  16   34.60    4.00
  -4   1  16   35.70    4.10
   3  -1 -16    3.40    1.70
  -3   1  16    2.70    1.90
  -3   1  16    3.00    2.20
  -3   1  16   -0.10    2.00
  -3   1  16   -0.10    1.30
   2  -1 -16    5.30    1.70
   2  -1 -16    4.00    1.70
  -2   1  16    4.60    2.10
  -2   1  16    8.40    2.00
  -2   1  16    1.60    1.40
  -2   1  16    2.60    2.30
   1  -1 -16    7.60    1.90
   1  -1 -16   16.40    2.40
   1  -1 -16   12.70    2.10
  -1   1  16    9.70    2.90
  -1   1  16   19.80    3.20
  -1   1  16   15.30    2.50
   0  -1 -16   -0.80    1.30
   0  -1 -16   -0.30    1.30
   0  -1 -16    0.60    1.30
   0   1  16   -2.70    1.80
   0   1  16    1.20    1.10
   0   1  16    0.60    1.50
   0   1  16   -0.90    1.60
  -1  -1 -16   11.70    2.20
  -1  -1 -16    9.30    1.90
   1   1  16   10.00    2.30
   1   1  16    9.80    2.10
  -2  -1 -16   -0.70    1.10
  -2  -1 -16   -0.30    1.50
  -2  -1 -16   -1.10    1.30
  -2  -1 -16    0.30    1.30
   2   1  16   -0.10    1.60
   2   1  16    0.30    1.50
   2   1  16   -2.10    2.00
  -3  -1 -16    3.50    1.50
  -3  -1 -16    4.90    1.80
  -3  -1 -16    2.10    1.50
   3   1  16    5.10    1.90
   3   1  16    4.20    2.00
  -4  -1 -16    3.70    2.20
  -4  -1 -16    6.40    1.70
  -4  -1 -16   12.20    2.60
   4   1  16    6.70    2.00
   4   1  16    8.00    2.30
   4   1  16    6.20    2.00
  -5  -1 -16   -0.50    2.30
  -5  -1 -16    5.40    2.10
   5   1  16   10.00    2.60
   5  -2 -16   -1.90    2.00
  -5   2  16   -1.70    2.10
   4  -2 -16   18.90    2.90
   4  -2 -16   22.00    3.10
  -4   2  16   20.70    3.50
  -4   2  16   16.90    3.10
  -4   2  16   12.30    3.50
   3  -2 -16    4.20    1.60
  -3   2  16    0.20    2.20
  -3   2  16    2.20    2.00
  -3   2  16   -1.70    1.20
   2  -2 -16    3.50    1.60
   2  -2 -16    6.70    1.90
  -2   2  16    1.50    1.30
  -2   2  16    2.80    1.90
  -2   2  16    1.50    2.10
  -2   2  16    3.30    1.60
   1  -2 -16   22.00    2.70
   1  -2 -16   25.80    2.90
  -1   2  16   23.40    5.10
  -1   2  16   28.50    3.30
  -1   2  16   26.40    3.80
  -1   2  16   24.00    2.90
   0  -2 -16    6.70    2.00
   0  -2 -16    6.60    1.80
   0   2  16    6.30    1.90
   0   2  16    4.30    2.50
   0   2  16   11.60    2.80
   0   2  16    8.50    2.20
  -1  -2 -16    0.60    1.30
  -1  -2 -16    1.50    1.50
  -1  -2 -16   -0.10    1.30
  -1  -2 -16   -1.60    0.90
   1   2  16   -3.10    1.70
   1   2  16    0.00    1.00
   1   2  16   -0.10    1.40
   1   2  16   -0.60    1.50
  -2  -2 -16    0.10    1.40
  -2  -2 -16    0.30    1.30
  -2  -2 -16   -0.40    1.20
  -2  -2 -16   -1.30    1.10
   2   2  16    0.60    1.50
   2   2  16    0.00    1.50
  -3  -2 -16    4.90    1.90
  -3  -2 -16    8.10    1.90
  -3  -2 -16   10.50    2.30
   3   2  16   11.30    2.30
   3   2  16    9.20    2.40
  -4  -2 -16    4.80    2.00
  -4  -2 -16    1.10    1.40
  -4  -2 -16    0.40    2.00
  -4  -2 -16    0.20    1.50
   4   2  16    5.00    2.10
   4   2  16    2.60    1.90
  -5  -2 -16   25.70    3.20
   5   2  16   24.00    3.40
  -6  -2 -16   -2.70    1.40
   5  -3 -16   10.80    3.00
  -5   3  16    7.40    2.40
   4  -3 -16   34.80    3.80
   4  -3 -16   37.50    3.20
  -4   3  16   35.10    3.70
  -4   3  16   37.00    4.00
  -4   3  16   39.30    7.10
   3  -3 -16   22.30    2.70
  -3   3  16   26.70    3.30
   2  -3 -16    0.30    1.40
  -2   3  16   -0.50    1.00
  -2   3  16   -2.70    1.70
  -2   3  16    1.10    1.70
   1  -3 -16    4.00    1.60
   1  -3 -16    5.00    1.70
  -1   3  16    3.90    1.90
  -1   3  16    5.20    1.80
  -1   3  16    4.10    1.90
  -1   3  16    1.70    2.10
   0  -3 -16   -0.50    1.30
   0  -3 -16   -0.40    1.20
   0   3  16   -0.20    1.70
   0   3  16   -1.70    2.00
   0   3  16   -1.00    1.50
   0   3  16    0.40    1.40
  -1  -3 -16   12.10    2.00
  -1  -3 -16   14.90    2.40
   1   3  16   12.00    2.50
   1   3  16    7.20    2.90
   1   3  16    9.10    2.00
   1   3  16   15.10    2.40
  -2  -3 -16    1.90    1.40
  -2  -3 -16    2.70    1.70
  -2  -3 -16   -0.40    1.30
   2   3  16    1.50    1.80
   2   3  16    0.70    1.30
   2   3  16    2.70    1.70
   2   3  16   -3.80    2.00
  -3  -3 -16   -2.10    1.30
  -3  -3 -16    3.30    1.70
  -3  -3 -16    2.50    1.70
   3   3  16   -1.60    2.10
   3   3  16    0.80    1.60
   3   3  16   -0.10    1.80
  -4  -3 -16   -0.50    1.50
  -4  -3 -16    1.40    1.50
  -4  -3 -16   -2.70    1.70
   4   3  16   -0.30    1.90
   4   3  16    1.50    1.90
  -5  -3 -16    1.30    1.70
  -5  -3 -16   -3.50    2.00
  -5  -3 -16    1.00    1.70
   5   3  16    0.20    2.10
   5   3  16    0.50    1.80
   5  -4 -16    5.80    2.60
  -5   4  16    1.60    2.00
   4  -4 -16    3.20    1.60
   4  -4 -16    3.70    2.50
  -4   4  16    2.90    1.90
  -4   4  16    4.30    2.10
   3  -4 -16    3.20    1.60
  -3   4  16    5.00    2.10
  -3   4  16    1.30    2.50
   2  -4 -16    0.30    1.20
  -2   4  16   -0.10    1.60
  -2   4  16   -0.30    1.60
  -2   4  16   -1.90    2.10
   1  -4 -16    7.40    1.90
  -1   4  16    6.20    2.20
  -1   4  16    2.60    2.30
  -1   4  16    4.30    1.90
  -1   4  16    4.50    1.70
   0  -4 -16   10.20    2.00
   0  -4 -16   12.50    2.20
   0   4  16   10.50    2.40
   0   4  16    8.00    2.20
   0   4  16   11.80    2.20
   0   4  16    5.10    2.90
  -1  -4 -16   12.40    2.30
  -1  -4 -16    6.30    1.80
  -1  -4 -16   11.00    2.10
   1   4  16    6.80    3.00
   1   4  16   14.00    2.30
   1   4  16    8.50    2.10
   1   4  16   13.20    2.70
  -2  -4 -16   10.60    2.20
  -2  -4 -16    8.30    1.90
   2   4  16    2.30    2.70
   2   4  16   10.60    2.30
   2   4  16    6.60    2.00
   2   4  16   11.50    2.50
  -3  -4 -16    3.40    1.80
  -3  -4 -16    4.20    1.70
   3   4  16   -0.90    2.50
   3   4  16    4.20    1.90
   3   4  16    2.70    2.00
  -4  -4 -16    4.60    2.00
  -4  -4 -16    6.80    2.00
   4   4  16    4.50    2.20
   4   4  16    2.70    2.20
  -5  -4 -16   12.10    2.80
  -5  -4 -16    9.80    2.40
   5   4  16    8.20    2.50
   5   4  16   10.60    2.70
   4  -5 -16    1.40    1.50
   4  -5 -16    0.20    2.10
   3  -5 -16   14.70    3.40
   3  -5 -16   13.70    2.20
  -3   5  16   13.20    2.50
  -3   5  16   10.80    3.00
  -3   5  16    5.70    3.20
   2  -5 -16    5.10    1.80
  -2   5  16    2.10    1.90
  -2   5  16    3.70    2.00
  -2   5  16   -0.80    2.20
   1  -5 -16    0.00    1.40
  -1   5  16   -3.50    2.00
  -1   5  16    1.50    1.90
  -1   5  16    0.30    1.80
   0  -5 -16    3.60    1.60
   0  -5 -16    3.40    1.70
   0   5  16    1.70    1.50
   0   5  16    3.20    1.90
   0   5  16    2.80    1.90
  -1  -5 -16    5.60    1.90
  -1  -5 -16    4.00    1.70
   1   5  16    4.90    2.10
   1   5  16    2.70    1.60
   1   5  16    2.90    1.90
   1   5  16   -2.20    2.40
  -2  -5 -16    1.00    1.50
  -2  -5 -16   -1.10    1.30
  -2  -5 -16    2.10    1.70
   2   5  16    3.10    2.00
   2   5  16   -0.70    1.50
   2   5  16   -1.00    1.60
  -3  -5 -16    4.30    1.80
  -3  -5 -16    0.10    1.80
  -3  -5 -16    3.80    1.90
   3   5  16    6.40    2.20
   3   5  16    5.00    2.20
  -4  -5 -16    3.00    1.90
  -4  -5 -16   -3.50    1.90
  -4  -5 -16   -0.80    1.80
   4   5  16   -1.20    1.70
   4   5  16    1.20    2.10
  -5  -5 -16    0.10    1.60
  -5  -5 -16    3.40    2.30
   5   5  16    1.70    2.00
   5   5  16    1.60    2.20
   4  -6 -16   -1.90    2.10
   3  -6 -16    4.10    2.40
   3  -6 -16    1.00    1.40
  -3   6  16    1.10    1.80
   2  -6 -16    2.20    1.60
  -2   6  16    1.90    1.90
  -2   6  16   -2.10    2.50
  -2   6  16    1.10    2.00
   1  -6 -16   -1.90    1.40
  -1   6  16   -3.50    2.40
  -1   6  16   -0.50    1.70
  -1   6  16    0.40    1.80
   0  -6 -16   -0.60    1.30
   0   6  16    1.30    1.90
   0   6  16    0.80    1.80
  -1  -6 -16    6.30    2.00
  -1  -6 -16    4.30    1.70
   1   6  16    4.30    1.80
   1   6  16    4.30    2.10
   1   6  16    8.00    2.50
  -2  -6 -16   22.40    2.90
  -2  -6 -16   16.70    2.70
  -2  -6 -16   21.20    4.00
   2   6  16   21.00    3.10
   2   6  16   24.70    3.30
   2   6  16   13.80    3.20
  -3  -6 -16   -1.30    1.50
  -3  -6 -16   -0.20    1.70
  -3  -6 -16   -0.10    1.50
   3   6  16    1.20    2.00
   3   6  16    0.80    1.80
  -4  -6 -16    0.60    2.20
  -4  -6 -16    2.60    2.00
  -4  -6 -16    5.30    2.30
   4   6  16    3.00    2.20
   4   6  16    7.30    2.60
  -5  -6 -16   -1.50    1.70
   5   6  16    1.80    2.30
   3  -7 -16    0.60    1.40
   3  -7 -16   -2.20    2.00
   2  -7 -16    0.80    1.50
   2  -7 -16    0.70    2.40
  -2   7  16   -4.10    2.70
  -2   7  16   -0.50    1.60
   1  -7 -16   -0.90    1.50
  -1   7  16    0.20    2.30
  -1   7  16   -0.20    1.80
   0  -7 -16    0.80    1.70
   0   7  16    1.80    2.20
   0   7  16    2.40    1.90
  -1  -7 -16    2.70    1.80
   1   7  16    1.00    1.90
   1   7  16    0.60    2.20
  -2  -7 -16    6.80    2.30
   2   7  16   -1.20    2.30
   2   7  16    3.90    2.20
   2   7  16    4.10    2.30
  -3  -7 -16   -0.10    1.80
  -3  -7 -16    1.90    2.10
  -3  -7 -16   -0.70    1.60
   3   7  16   -0.30    2.10
   3   7  16   -0.20    1.90
  -4  -7 -16   -2.10    1.80
  -4  -7 -16   -2.30    1.90
   4   7  16   -0.30    2.00
   2  -8 -16    1.10    2.30
   1  -8 -16   -0.40    2.30
   1   8  16   -2.00    2.20
   2   8  16    0.60    2.80
   0  -9 -16   -1.20    2.10
   1   5 -17    2.20    2.20
  -1  -5  17    1.30    1.90
   0  -5  17    0.60    1.70
   0  -5  17    0.40    2.00
   1  -5  17    1.70    2.00
   2  -5  17    0.20    2.10
   3  -5  17   -1.60    2.30
  -3  -4  17    1.90    2.70
   2   4 -17    2.30    2.10
   2   4 -17   -0.10    2.00
  -2  -4  17    2.40    2.30
  -2  -4  17    1.30    2.40
   1   4 -17    3.60    2.30
   1   4 -17    2.20    1.90
  -1  -4  17    2.10    2.20
  -1  -4  17    0.50    2.10
  -1  -4  17   -0.30    2.10
   0   4 -17    0.20    1.70
   0   4 -17    0.20    1.80
   0  -4  17   -0.90    1.70
   0  -4  17    1.70    2.10
   0  -4  17   -0.70    2.10
  -1   4 -17    1.80    1.80
   1  -4  17    2.50    2.20
   1  -4  17    5.00    2.20
   1  -4  17    2.90    1.90
   3  -4  17    3.20    2.20
   4  -4  17    1.40    2.50
  -4  -3  17    3.20    3.10
   3   3 -17   -1.00    1.80
  -3  -3  17    0.30    2.50
  -3  -3  17   -4.00    1.80
   2   3 -17   18.30    3.10
   2   3 -17   21.00    3.10
  -2  -3  17   16.90    3.60
  -2  -3  17   26.00    4.20
  -2  -3  17   16.40    3.00
   1   3 -17    1.60    1.90
   1   3 -17   -0.10    1.80
  -1  -3  17   -0.30    2.10
  -1  -3  17    1.90    2.50
  -1  -3  17    0.40    2.10
   0   3 -17    2.10    1.90
   0   3 -17    5.60    1.90
   0  -3  17    4.30    2.30
   0  -3  17    4.50    2.40
   0  -3  17    4.00    2.30
   0  -3  17    4.60    2.00
  -1   3 -17    0.40    1.70
  -1   3 -17    0.20    1.50
   1  -3  17    1.30    1.90
   1  -3  17   -0.30    1.70
   1  -3  17    1.50    1.60
   1  -3  17    0.40    1.80
  -2   3 -17    0.10    1.70
   2  -3  17   -0.50    1.90
   2  -3  17    2.00    1.70
   2  -3  17    1.30    1.70
  -3   3 -17    1.40    1.80
   3  -3  17    1.90    2.20
   3  -3  17   -1.80    1.80
  -4   3 -17    2.40    1.90
   4  -3  17   -0.40    2.10
   5  -3  17   -1.60    2.30
  -4  -2  17    3.60    3.00
   3   2 -17   -0.40    1.80
   3   2 -17   -1.30    1.60
  -3  -2  17   -0.10    2.40
  -3  -2  17   -0.40    2.00
  -3  -2  17   -0.90    2.50
   2   2 -17    4.50    2.20
   2   2 -17    4.90    2.20
  -2  -2  17    6.30    2.70
  -2  -2  17    3.70    2.30
  -2  -2  17    4.70    2.20
   1   2 -17   -2.80    1.60
   1   2 -17   -0.30    1.90
   1   2 -17    0.30    1.80
  -1  -2  17   -1.30    2.10
  -1  -2  17    0.00    2.00
  -1  -2  17   -0.80    2.10
   0   2 -17    2.50    1.70
   0   2 -17    1.30    1.90
   0  -2  17    3.90    2.10
   0  -2  17    1.70    2.00
   0  -2  17    4.00    1.60
   0  -2  17    1.00    2.10
  -1   2 -17   -2.30    1.30
  -1   2 -17    1.80    1.70
  -1   2 -17    1.10    1.00
   1  -2  17    1.00    1.40
   1  -2  17    1.90    1.90
   1  -2  17   -0.10    1.80
  -2   2 -17   13.90    2.70
  -2   2 -17   18.50    3.70
  -2   2 -17   10.40    2.10
   2  -2  17   16.20    2.90
   2  -2  17   17.50    3.10
   2  -2  17   19.30    2.40
  -3   2 -17    6.30    2.30
  -3   2 -17    6.30    2.00
   3  -2  17    7.20    2.40
   3  -2  17    6.50    2.30
  -4   2 -17   -1.70    1.40
  -4   2 -17    1.40    1.60
   4  -2  17   -0.50    2.00
   4  -2  17   -1.00    2.00
   5  -2  17    0.40    2.50
  -5  -1  17    1.30    2.80
   4   1 -17   -0.50    2.00
  -4  -1  17   -1.00    2.80
   3   1 -17   11.50    2.50
   3   1 -17   12.20    2.50
  -3  -1  17   19.10    3.50
  -3  -1  17    9.20    2.90
  -3  -1  17    6.80    3.00
  -3  -1  17   16.50    3.10
   2   1 -17    5.90    2.10
   2   1 -17    7.90    2.10
  -2  -1  17    8.30    2.60
  -2  -1  17    2.40    2.30
  -2  -1  17    6.50    2.20
  -2  -1  17   11.60    2.80
   1   1 -17    3.40    1.80
   1   1 -17    4.10    1.90
  -1  -1  17    2.10    2.00
  -1  -1  17    1.70    2.10
  -1  -1  17    6.10    2.50
   0   1 -17    5.10    2.00
   0   1 -17    6.20    1.90
   0  -1  17    6.10    2.50
   0  -1  17    7.30    2.20
  -1   1 -17    6.50    2.10
  -1   1 -17   -0.60    2.00
  -1   1 -17    3.40    1.30
  -1   1 -17    2.90    1.70
   1  -1  17   -1.30    2.20
   1  -1  17    8.20    2.20
   1  -1  17    4.40    2.20
  -2   1 -17    0.40    1.60
  -2   1 -17    2.60    1.60
  -2   1 -17    1.90    1.30
   2  -1  17    4.10    2.20
   2  -1  17    3.10    1.60
   2  -1  17    2.60    1.90
  -3   1 -17   -0.10    1.30
  -3   1 -17    0.10    1.30
  -3   1 -17   -0.10    1.50
   3  -1  17   -0.70    1.80
   3  -1  17    1.10    1.60
  -4   1 -17    0.20    1.50
  -4   1 -17   -0.60    1.40
   4  -1  17   -0.30    2.10
   4  -1  17    0.70    1.90
  -5   1 -17    0.60    2.10
   5  -1  17    0.40    2.30
   6  -1  17   -3.10    2.30
   5   0 -17    0.00    2.20
  -5   0  17   -1.10    2.60
   4   0 -17    1.20    2.30
  -4   0  17   -2.00    2.40
  -4   0  17   -0.80    2.70
  -4   0  17   -2.70    1.60
   3   0 -17   10.40    2.30
  -3   0  17   13.20    3.00
  -3   0  17   10.20    2.70
   2   0 -17   12.30    2.50
   2   0 -17   10.30    2.40
  -2   0  17   12.80    2.90
  -2   0  17    6.80    2.90
  -2   0  17   14.00    2.90
  -2   0  17    8.50    2.20
   1   0 -17   -0.90    1.40
   1   0 -17   -0.10    1.40
   1   0 -17   -1.80    1.20
  -1   0  17    0.50    1.70
  -1   0  17    2.10    2.10
   0   0 -17    2.20    1.60
   0   0 -17    1.20    1.40
   0   0 -17   -0.40    1.50
   0   0  17   -2.90    2.10
   0   0  17    1.00    1.90
   0   0  17    2.00    1.80
  -1   0 -17    7.20    2.10
  -1   0 -17    6.00    1.80
   1   0  17    4.00    2.10
   1   0  17    5.90    2.00
  -2   0 -17   -0.40    1.80
  -2   0 -17    3.00    1.50
  -2   0 -17    4.00    1.60
  -2   0 -17    4.30    1.90
   2   0  17    7.60    2.40
   2   0  17    6.40    2.20
   2   0  17   -1.70    2.30
  -3   0 -17    9.20    2.30
  -3   0 -17    6.60    2.20
  -3   0 -17    8.90    1.90
   3   0  17   11.80    2.40
   3   0  17   13.30    2.70
  -4   0 -17    2.40    1.80
  -4   0 -17    1.80    2.10
   4   0  17    4.10    2.10
   4   0  17    4.40    2.20
  -5   0 -17    0.50    2.10
   5   0  17    6.10    2.70
   6   0  17   -6.30    2.30
   5  -1 -17    0.20    2.30
  -5   1  17    0.80    2.30
   4  -1 -17    2.20    2.40
  -4   1  17    1.10    2.40
  -4   1  17   -0.40    2.30
   3  -1 -17   23.40    3.00
  -3   1  17   21.50    3.20
  -3   1  17   12.20    3.70
  -3   1  17   20.20    3.50
   2  -1 -17   -0.60    1.40
   2  -1 -17    0.50    1.40
  -2   1  17    0.30    1.60
  -2   1  17   -0.60    1.30
  -2   1  17   -0.40    1.80
  -2   1  17   -2.40    2.00
   1  -1 -17    1.20    1.40
   1  -1 -17    2.80    1.70
   1  -1 -17    3.80    1.80
  -1   1  17    2.80    1.80
  -1   1  17    3.50    2.20
  -1   1  17   -0.90    2.10
   0  -1 -17   -0.30    1.30
   0  -1 -17    0.00    1.40
   0  -1 -17   -1.20    1.30
   0   1  17    0.70    1.20
   0   1  17   -3.70    2.00
   0   1  17    1.30    2.00
   0   1  17   -1.10    1.60
  -1  -1 -17    6.90    1.80
  -1  -1 -17    7.30    2.00
   1   1  17    7.00    2.00
   1   1  17    9.10    2.40
  -2  -1 -17    5.80    2.00
  -2  -1 -17    4.30    1.70
  -2  -1 -17    2.80    1.80
  -2  -1 -17    7.90    1.90
   2   1  17    1.00    2.60
   2   1  17    4.90    2.00
   2   1  17    9.10    2.30
  -3  -1 -17    0.10    1.30
  -3  -1 -17   -1.50    1.30
  -3  -1 -17    1.40    1.70
  -3  -1 -17   -1.20    1.50
   3   1  17   -1.80    1.60
   3   1  17    1.40    1.80
  -4  -1 -17   -0.60    1.90
  -4  -1 -17    2.80    2.10
  -4  -1 -17    0.10    1.80
  -4  -1 -17    3.70    1.70
   4   1  17    4.70    2.10
  -5  -1 -17   -0.60    2.20
  -5  -1 -17    3.00    2.00
   5   1  17    5.40    2.30
   5  -2 -17    0.70    2.30
  -5   2  17   -2.00    2.20
   4  -2 -17    2.80    2.30
   4  -2 -17   -0.20    1.70
  -4   2  17   -1.80    1.60
  -4   2  17   -0.60    2.30
   3  -2 -17   37.50    3.20
  -3   2  17   27.10    4.70
  -3   2  17   36.40    3.70
  -3   2  17   36.70    7.10
   2  -2 -17    0.90    1.50
  -2   2  17    0.00    1.70
  -2   2  17   -2.20    2.00
  -2   2  17   -0.40    1.20
   1  -2 -17    2.30    1.50
   1  -2 -17    0.20    1.50
  -1   2  17    0.20    1.50
  -1   2  17    1.80    1.50
  -1   2  17   -0.40    1.70
  -1   2  17   -0.80    2.00
   0  -2 -17   -0.20    1.30
   0  -2 -17    0.50    1.40
   0   2  17    0.60    1.20
   0   2  17   -2.20    2.10
   0   2  17    1.10    1.60
   0   2  17   -0.10    1.70
  -1  -2 -17    8.00    1.90
  -1  -2 -17   10.10    2.30
   1   2  17    1.80    2.70
   1   2  17    7.20    2.00
   1   2  17    8.10    2.20
  -2  -2 -17    0.70    1.40
  -2  -2 -17   -1.60    1.20
  -2  -2 -17    1.40    1.60
  -2  -2 -17   -0.10    1.30
   2   2  17   -3.70    2.20
   2   2  17    2.80    1.80
   2   2  17    1.20    2.00
  -3  -2 -17    0.00    1.30
  -3  -2 -17    0.10    1.50
  -3  -2 -17   -1.90    1.40
  -3  -2 -17    0.40    1.60
   3   2  17    1.10    1.80
   3   2  17    1.60    1.90
  -4  -2 -17   -0.70    1.50
  -4  -2 -17   -2.80    1.80
  -4  -2 -17    1.20    1.70
  -4  -2 -17   -0.90    1.40
   4   2  17   -0.10    1.90
   4   2  17    0.20    1.80
  -5  -2 -17   -2.10    2.50
  -5  -2 -17    2.30    1.90
  -5  -2 -17    9.70    2.50
   5   2  17    8.00    2.50
   5  -3 -17    2.40    2.60
  -5   3  17    0.50    2.20
   4  -3 -17    0.10    2.10
   4  -3 -17    1.20    1.70
  -4   3  17   -2.10    1.80
   3  -3 -17    5.10    1.90
  -3   3  17    1.50    2.70
  -3   3  17    3.40    2.00
   2  -3 -17   -0.20    1.30
  -2   3  17    1.00    1.80
  -2   3  17   -1.80    2.20
  -2   3  17    0.70    1.60
   1  -3 -17   11.90    2.20
   1  -3 -17   10.10    2.00
  -1   3  17   16.90    3.80
  -1   3  17    6.70    2.90
  -1   3  17   11.30    2.10
  -1   3  17   11.80    2.60
   0  -3 -17   12.90    2.40
   0  -3 -17   11.00    2.10
   0   3  17   20.20    3.50
   0   3  17   15.00    2.40
   0   3  17   13.00    2.60
  -1  -3 -17    1.10    1.40
  -1  -3 -17    1.00    1.50
   1   3  17    2.40    1.90
   1   3  17   -0.10    1.20
   1   3  17    2.30    1.70
  -2  -3 -17    2.70    1.70
  -2  -3 -17   -1.10    1.20
  -2  -3 -17   -2.10    1.30
   2   3  17    1.90    1.80
   2   3  17   -1.00    1.70
   2   3  17   -3.80    2.10
  -3  -3 -17    0.50    1.50
  -3  -3 -17   -0.50    1.50
   3   3  17    0.20    1.80
   3   3  17   -0.10    1.70
  -4  -3 -17   14.10    2.40
  -4  -3 -17   12.20    2.60
   4   3  17   17.40    3.10
   4   3  17   11.30    2.70
  -5  -3 -17   -0.60    1.50
  -5  -3 -17    1.40    1.90
   5   3  17   -1.10    2.00
   4  -4 -17    1.70    2.40
  -4   4  17   -4.30    1.80
   3  -4 -17   32.00    3.10
  -3   4  17   31.90    3.40
  -3   4  17   40.40    5.80
   2  -4 -17    3.20    1.60
  -2   4  17   -1.00    2.40
  -2   4  17    2.70    2.10
  -2   4  17    3.00    1.80
   1  -4 -17   -1.10    1.40
  -1   4  17   -1.40    2.20
  -1   4  17   -0.40    1.60
  -1   4  17    1.60    1.70
   0  -4 -17    1.50    1.60
   0  -4 -17    0.90    1.60
   0   4  17    2.60    1.80
   0   4  17   -2.50    2.20
   0   4  17    1.70    1.70
   0   4  17    0.70    1.70
  -1  -4 -17    2.00    1.70
  -1  -4 -17    1.40    1.60
   1   4  17    0.40    1.50
   1   4  17   -3.60    2.20
   1   4  17    1.60    1.90
   1   4  17    1.20    1.60
  -2  -4 -17   -0.60    1.40
  -2  -4 -17    1.90    1.60
  -2  -4 -17    3.60    1.60
   2   4  17    1.10    1.80
   2   4  17    0.50    1.60
   2   4  17    0.50    1.60
   2   4  17   -4.30    2.40
  -3  -4 -17   -2.40    1.60
  -3  -4 -17    1.50    1.60
  -3  -4 -17   -1.40    1.40
   3   4  17    1.90    1.90
   3   4  17   -4.20    2.30
   3   4  17   -1.20    1.70
  -4  -4 -17    8.50    2.20
  -4  -4 -17    5.30    2.10
   4   4  17    9.90    2.60
   4   4  17    6.90    2.30
  -5  -4 -17   -4.20    2.20
  -5  -4 -17    0.70    1.80
   5   4  17    2.40    2.10
   4  -5 -17   -1.20    2.00
   3  -5 -17    1.90    2.40
   3  -5 -17    2.30    1.70
  -3   5  17    4.50    2.60
  -3   5  17    1.50    2.00
   2  -5 -17    0.90    1.60
  -2   5  17    3.90    2.10
  -2   5  17   -1.10    2.70
  -2   5  17    3.70    2.10
   1  -5 -17    2.00    1.50
  -1   5  17    4.30    2.10
  -1   5  17   -3.70    2.40
  -1   5  17   -1.00    1.90
   0  -5 -17   10.00    2.20
   0   5  17    9.60    2.50
   0   5  17   17.40    4.10
   0   5  17    2.50    3.00
  -1  -5 -17    6.80    2.00
  -1  -5 -17    4.70    1.90
   1   5  17    8.50    2.60
   1   5  17   -1.00    2.60
   1   5  17    6.50    2.10
   1   5  17    4.70    2.10
  -2  -5 -17    2.50    1.70
  -2  -5 -17    2.30    1.60
   2   5  17    1.40    1.80
   2   5  17    3.60    2.10
   2   5  17   -1.70    1.60
  -3  -5 -17    4.00    1.90
  -3  -5 -17    4.50    1.90
   3   5  17    4.10    2.10
   3   5  17    6.30    2.40
  -4  -5 -17    6.60    2.10
  -4  -5 -17    9.70    2.60
   4   5  17    6.80    2.30
   4   5  17    6.50    2.60
  -5  -5 -17    1.20    1.90
   5   5  17    2.60    2.30
   3  -6 -17    5.60    2.80
   3  -6 -17    8.20    2.20
   2  -6 -17    2.10    1.80
  -2   6  17    4.70    2.60
  -2   6  17   -3.10    2.70
  -2   6  17    3.20    2.00
   1  -6 -17    0.20    1.50
  -1   6  17   -0.40    2.00
  -1   6  17    0.10    2.10
   0  -6 -17    2.40    1.80
   0   6  17    1.90    2.10
   0   6  17    2.20    2.10
   0   6  17   -4.50    2.70
  -1  -6 -17   -0.30    1.40
   1   6  17    0.30    1.80
   1   6  17    0.70    1.90
  -2  -6 -17   -0.70    1.60
  -2  -6 -17    1.40    1.80
   2   6  17    2.30    2.00
   2   6  17   -1.30    2.00
   2   6  17   -1.10    1.60
  -3  -6 -17    8.70    2.40
  -3  -6 -17    2.40    2.00
  -3  -6 -17    3.20    1.90
   3   6  17    8.30    2.40
   3   6  17    7.30    2.50
   3   6  17   -0.10    2.40
  -4  -6 -17    2.80    2.10
  -4  -6 -17    2.70    2.20
  -4  -6 -17   -2.10    1.90
   4   6  17    2.00    2.20
   4   6  17    5.10    2.50
   3  -7 -17   -3.00    2.10
   2  -7 -17    7.50    3.30
   1  -7 -17    0.70    1.70
  -1   7  17   -2.60    1.80
   0  -7 -17   -1.40    1.60
   0   7  17   -1.10    2.00
   0   7  17   -0.50    2.30
  -1  -7 -17    2.20    1.70
   1   7  17    0.90    2.20
   1   7  17    0.70    2.20
  -2  -7 -17    4.50    2.00
   2   7  17    5.00    2.50
   2   7  17   -0.70    2.40
  -3  -7 -17    8.50    2.60
   3   7  17    9.50    2.80
  -4  -7 -17    0.70    2.20
  -4  -7 -17   -2.80    1.80
   1  -8 -17   -0.80    2.20
  -1  -5  18    3.10    2.10
   0  -5  18    0.40    2.20
   0  -5  18    3.60    1.90
   1  -5  18    6.30    2.50
   2  -5  18   -0.70    1.90
  -2  -4  18    2.50    2.60
   1   4 -18    4.10    2.40
  -1  -4  18    7.10    3.00
  -1  -4  18    5.50    2.50
   0   4 -18   -0.70    1.80
   0  -4  18    1.50    1.90
   0  -4  18    0.90    2.00
   1  -4  18    3.20    2.10
   1  -4  18    2.50    2.00
   2  -4  18    2.10    2.00
   3  -4  18    3.50    2.40
   3   3 -18   -1.20    2.10
  -3  -3  18   -0.30    2.80
   2   3 -18   -3.20    1.60
  -2  -3  18   -2.10    2.00
  -2  -3  18    2.90    2.60
  -2  -3  18    0.60    2.50
   1   3 -18   -1.90    1.90
   1   3 -18    1.70    2.10
  -1  -3  18    0.40    2.20
  -1  -3  18    0.10    2.20
  -1  -3  18    2.30    2.30
   0   3 -18    2.90    2.00
   0   3 -18    3.30    2.20
   0  -3  18    2.60    1.80
   0  -3  18    1.60    2.50
   0  -3  18    5.40    2.30
   0  -3  18    5.00    2.60
  -1   3 -18    2.20    1.70
  -1   3 -18    5.30    2.30
   1  -3  18    5.60    2.10
   1  -3  18    4.60    2.30
   1  -3  18    2.10    2.10
  -2   3 -18    2.30    2.00
   2  -3  18    2.40    1.80
   2  -3  18    1.00    1.80
  -3   3 -18   16.30    3.80
   3  -3  18    1.80    2.20
   4  -3  18   -0.40    2.40
  -4  -2  18    1.50    3.00
   3   2 -18   -0.70    1.80
  -3  -2  18   -2.60    1.90
  -3  -2  18    2.00    2.80
   2   2 -18    0.00    1.80
   2   2 -18    0.10    1.80
  -2  -2  18   -0.70    2.10
  -2  -2  18    1.00    2.50
  -2  -2  18   -3.30    1.90
   1   2 -18   10.60    2.60
   1   2 -18    7.10    2.20
  -1  -2  18   10.60    2.90
  -1  -2  18    8.30    2.80
  -1  -2  18    9.30    2.60
   0   2 -18   12.50    2.40
   0   2 -18    9.30    2.50
   0  -2  18   13.40    2.80
   0  -2  18   11.10    2.90
   0  -2  18    8.90    2.60
  -1   2 -18    0.00    1.70
  -1   2 -18    0.80    1.70
   1  -2  18    0.40    1.90
   1  -2  18    1.50    2.00
   1  -2  18    1.50    1.50
   1  -2  18    0.20    1.80
  -2   2 -18    1.40    1.30
  -2   2 -18   -0.10    1.70
  -2   2 -18   -0.90    1.50
   2  -2  18   -0.40    1.90
   2  -2  18    0.20    1.70
  -3   2 -18    2.40    1.60
  -3   2 -18    0.70    1.90
   3  -2  18    2.60    2.00
   3  -2  18   -1.40    1.80
  -4   2 -18    3.90    1.80
   4  -2  18    1.20    2.30
   5  -2  18    2.00    2.60
  -4  -1  18    0.60    2.70
  -3  -1  18    0.40    2.50
   2   1 -18   -0.90    1.90
   2   1 -18    0.20    1.70
  -2  -1  18    1.00    2.40
  -2  -1  18   -0.30    2.10
  -2  -1  18   -1.50    1.80
  -2  -1  18   -3.90    2.10
   1   1 -18   -0.80    1.60
   1   1 -18    0.00    1.70
   1   1 -18    1.00    1.80
  -1  -1  18    1.40    2.40
  -1  -1  18   -3.40    1.90
  -1  -1  18    1.30    2.20
   0   1 -18   25.40    3.20
   0   1 -18   23.30    2.90
   0  -1  18   30.40    4.00
   0  -1  18   27.30    3.30
  -1   1 -18    3.50    1.80
  -1   1 -18   -1.00    1.90
  -1   1 -18    3.20    1.90
   1  -1  18    5.20    2.40
   1  -1  18    3.90    2.20
  -2   1 -18    5.20    2.00
  -2   1 -18    3.70    1.90
  -2   1 -18    3.00    1.50
   2  -1  18    2.90    2.10
   2  -1  18    2.20    2.00
  -3   1 -18    3.00    1.80
  -3   1 -18    5.10    2.10
   3  -1  18    6.30    2.30
   3  -1  18    6.80    2.00
  -4   1 -18    0.80    1.70
   4  -1  18   -0.80    1.80
   5  -1  18   -2.10    2.20
   4   0 -18    1.80    2.40
  -4   0  18    3.40    3.00
   3   0 -18   -0.60    1.60
  -3   0  18    1.00    2.20
  -3   0  18   -1.70    1.40
  -3   0  18   -2.00    2.50
   2   0 -18    1.60    1.90
   2   0 -18    0.70    1.50
  -2   0  18    2.80    2.40
  -2   0  18    2.30    2.00
  -2   0  18   -0.10    2.00
   1   0 -18    2.70    1.70
   1   0 -18    0.60    1.60
   1   0 -18    0.10    1.50
  -1   0  18    2.80    2.30
  -1   0  18    0.90    1.90
   0   0 -18    7.50    2.00
   0   0 -18    9.60    2.40
   0   0  18   11.90    2.50
   0   0  18   10.40    2.70
  -1   0 -18   10.20    2.30
  -1   0 -18    1.80    1.90
  -1   0 -18    5.40    1.90
   1   0  18    9.40    2.30
   1   0  18   -0.20    2.80
   1   0  18   10.30    2.60
  -2   0 -18    0.00    1.20
  -2   0 -18   -1.30    2.00
  -2   0 -18    3.40    1.70
  -2   0 -18    0.80    1.60
   2   0  18    1.40    1.90
   2   0  18   -3.80    2.50
   2   0  18    1.70    1.80
  -3   0 -18   -0.40    1.80
  -3   0 -18   -1.80    1.40
  -3   0 -18    0.40    1.40
   3   0  18   -0.90    1.70
   3   0  18    1.40    1.90
  -4   0 -18    1.20    1.90
  -4   0 -18    5.20    2.10
  -4   0 -18   -2.80    1.90
   4   0  18    4.80    2.20
  -5   0 -18   -3.20    2.00
   5   0  18   -3.20    2.00
   4  -1 -18    5.10    2.60
  -4   1  18    1.70    2.80
   3  -1 -18    0.60    1.80
  -3   1  18   -2.90    2.30
  -3   1  18   -2.20    1.90
  -3   1  18   -2.50    1.50
  -3   1  18   -4.00    2.10
   2  -1 -18   -1.00    1.50
   2  -1 -18   -0.40    1.40
  -2   1  18   -1.00    1.90
  -2   1  18   -2.20    1.50
   1  -1 -18   -1.20    1.40
   1  -1 -18    0.50    1.60
  -1   1  18    1.30    2.00
  -1   1  18   -2.30    1.70
  -1   1  18   -3.50    2.00
   0  -1 -18   33.70    6.20
   0  -1 -18   38.00    3.60
   0  -1 -18   26.80    2.90
   0   1  18   33.50    3.60
   0   1  18   36.60    3.30
  -1  -1 -18    2.10    1.90
  -1  -1 -18   -1.00    1.50
  -1  -1 -18    0.80    1.50
   1   1  18    0.30    1.70
   1   1  18    1.20    1.80
  -2  -1 -18   -1.00    1.20
  -2  -1 -18   -0.50    1.60
  -2  -1 -18   -0.90    1.50
  -2  -1 -18    1.10    1.50
   2   1  18    2.30    2.20
   2   1  18   -2.00    1.60
  -3  -1 -18    4.10    1.70
  -3  -1 -18    3.80    2.00
   3   1  18    4.30    2.10
   3   1  18    4.40    2.10
  -4  -1 -18    8.80    2.60
   4   1  18    6.00    2.30
  -5  -1 -18   -3.00    1.80
  -5  -1 -18   -2.20    2.30
   4  -2 -18    0.60    2.30
  -4   2  18   -2.10    2.10
   3  -2 -18   -1.00    1.40
  -3   2  18   -0.40    2.00
  -3   2  18   -2.90    2.70
  -3   2  18   -3.40    2.20
   2  -2 -18    0.70    1.60
  -2   2  18    0.90    2.10
  -2   2  18   -2.80    2.40
   1  -2 -18    0.90    1.50
   1  -2 -18    0.80    1.60
  -1   2  18    1.90    1.90
  -1   2  18   -0.90    2.50
  -1   2  18    1.80    1.90
  -1   2  18    1.30    1.40
   0  -2 -18    3.00    1.70
   0  -2 -18    4.50    1.70
   0   2  18   -2.10    2.50
   0   2  18    3.00    1.80
   0   2  18    4.10    2.10
  -1  -2 -18    2.60    1.70
  -1  -2 -18    1.50    1.50
  -1  -2 -18    4.20    1.80
   1   2  18    4.30    2.20
   1   2  18    2.70    1.80
  -2  -2 -18    6.00    2.00
  -2  -2 -18    3.60    1.70
  -2  -2 -18    2.40    1.70
   2   2  18    4.70    2.00
   2   2  18    2.00    1.90
  -3  -2 -18   -0.30    1.30
  -3  -2 -18   -0.80    1.60
  -3  -2 -18   -0.30    1.60
   3   2  18    0.00    1.90
   3   2  18   -1.10    1.60
  -4  -2 -18    6.70    2.10
  -4  -2 -18    4.20    2.10
  -4  -2 -18    0.90    1.90
   4   2  18    4.30    2.20
   4   2  18    6.00    2.30
  -5  -2 -18   -1.30    1.60
   4  -3 -18    8.70    3.00
  -4   3  18    8.40    2.70
   3  -3 -18    5.80    2.10
  -3   3  18    6.90    2.50
  -3   3  18    0.50    3.30
   2  -3 -18    0.30    1.80
  -2   3  18    2.30    1.90
  -2   3  18   -0.30    2.20
  -2   3  18   -3.30    2.50
   1  -3 -18    3.20    1.70
  -1   3  18    3.60    1.80
  -1   3  18    4.10    1.80
  -1   3  18   -0.90    2.40
  -1   3  18    3.90    2.10
   0  -3 -18   12.20    2.40
   0  -3 -18   11.50    2.20
   0   3  18   13.10    2.90
   0   3  18   11.00    2.30
   0   3  18    8.60    2.20
  -1  -3 -18   -0.20    1.40
  -1  -3 -18   -0.10    1.50
   1   3  18    0.80    1.60
   1   3  18   -0.70    2.00
  -2  -3 -18    3.70    1.70
  -2  -3 -18    6.80    2.10
   2   3  18    5.70    2.40
   2   3  18    3.70    2.00
  -3  -3 -18    0.00    1.50
  -3  -3 -18    0.70    1.80
   3   3  18   -2.30    1.70
   3   3  18    0.50    1.90
  -4  -3 -18    2.80    1.70
  -4  -3 -18    2.70    2.00
   4   3  18   -0.40    1.80
   4   3  18    3.40    2.20
   4  -4 -18    0.50    2.40
  -4   4  18   -2.60    1.90
  -3   4  18    5.30    2.50
   2  -4 -18    0.00    1.60
  -2   4  18    0.50    1.90
  -2   4  18    2.30    1.90
   1  -4 -18    0.20    1.40
  -1   4  18   -4.10    2.20
  -1   4  18    1.50    1.80
  -1   4  18    2.10    1.90
   0  -4 -18   17.20    2.80
   0  -4 -18   10.00    2.10
   0   4  18   19.60    3.40
   0   4  18    9.20    2.40
   0   4  18    4.70    3.10
   0   4  18   20.50    2.90
  -1  -4 -18   -1.30    1.40
  -1  -4 -18   -0.30    1.60
   1   4  18   -1.60    1.70
   1   4  18    0.90    1.50
   1   4  18    0.80    1.80
  -2  -4 -18   -0.80    1.50
  -2  -4 -18    0.50    1.50
   2   4  18    0.60    1.90
   2   4  18   -0.30    1.70
  -3  -4 -18    1.90    1.80
  -3  -4 -18   -0.40    1.50
   3   4  18    2.10    2.10
   3   4  18    1.00    1.90
  -4  -4 -18    1.40    1.70
  -4  -4 -18   -0.10    1.70
   4   4  18   -0.10    2.00
   4   4  18    0.40    2.00
  -5  -4 -18    1.60    2.00
   3  -5 -18    6.20    2.90
   2  -5 -18    7.30    2.10
  -2   5  18    5.90    2.60
  -2   5  18    7.40    2.40
   1  -5 -18    6.40    2.00
  -1   5  18    6.70    2.50
  -1   5  18    7.70    2.60
   0  -5 -18    0.10    1.60
   0   5  18   -0.60    1.80
   0   5  18    0.60    1.80
  -1  -5 -18   -0.10    1.60
  -1  -5 -18    1.50    1.60
   1   5  18    1.70    1.70
   1   5  18    0.00    1.70
   1   5  18   -0.20    2.10
  -2  -5 -18    3.10    2.00
  -2  -5 -18    1.60    1.70
   2   5  18    0.70    2.00
   2   5  18    0.20    1.70
   2   5  18   -1.00    1.80
  -3  -5 -18    1.10    1.90
  -3  -5 -18    2.00    1.90
  -3  -5 -18   -2.40    1.90
   3   5  18    0.20    2.10
   3   5  18    1.90    2.00
  -4  -5 -18   -2.20    1.60
  -4  -5 -18   -0.70    1.80
   4   5  18   -0.50    2.00
   4   5  18   -0.90    2.10
   5   5  18   -1.30    2.30
   3  -6 -18    2.30    2.50
   1  -6 -18    4.60    1.80
  -1   6  18    4.10    2.50
  -1   6  18   -5.70    3.20
   0  -6 -18    3.90    1.80
   0   6  18    1.90    2.10
   0   6  18    1.80    2.20
  -1  -6 -18    2.10    1.80
   1   6  18    8.20    2.60
   1   6  18    2.80    2.20
  -2  -6 -18    1.00    1.80
  -2  -6 -18    2.50    1.90
   2   6  18    0.30    2.10
   2   6  18    1.50    1.90
   2   6  18   -1.70    2.00
  -3  -6 -18    1.50    1.70
  -3  -6 -18    1.50    2.20
   3   6  18   -0.90    2.10
   3   6  18    0.00    1.90
  -4  -6 -18   -0.50    1.90
   2  -7 -18    2.00    2.60
   0   7  18   -1.00    2.10
   1   7  18    0.60    2.20
   2   7  18   -2.90    2.10
   3   7  18   -0.10    2.10
  -1  -4  19    0.90    2.30
   0  -4  19    2.30    2.00
   0  -4  19    0.20    2.00
   1  -4  19    3.70    2.20
   1  -4  19    0.90    2.10
   2  -4  19    8.00    2.40
  -2  -3  19    4.70    2.90
   1   3 -19   -0.10    1.90
  -1  -3  19    2.90    2.50
  -1  -3  19   -0.40    2.70
   0   3 -19    2.20    1.90
   0  -3  19    4.10    2.50
   0  -3  19    5.70    2.50
   0  -3  19    6.20    2.30
   1  -3  19    1.90    1.90
   1  -3  19    3.10    2.10
   2  -3  19    8.20    2.20
   2  -3  19    3.50    2.30
   3  -3  19    1.40    2.00
  -3  -2  19    2.20    2.70
   2   2 -19   -1.50    1.70
  -2  -2  19   -0.10    2.00
  -2  -2  19    1.60    2.60
   1   2 -19    0.90    1.90
   1   2 -19    0.70    2.10
  -1  -2  19    3.70    2.50
  -1  -2  19   -1.30    2.40
  -1  -2  19    1.50    2.30
   0   2 -19    3.80    2.00
   0   2 -19    1.00    2.00
   0  -2  19   -0.60    2.10
   0  -2  19   -0.10    2.00
   0  -2  19    1.10    2.20
  -1   2 -19    7.60    2.20
  -1   2 -19    8.60    2.50
   1  -2  19    9.80    2.50
   1  -2  19    8.30    2.70
   1  -2  19    9.00    2.60
  -3   2 -19    3.40    1.60
   3  -2  19    2.90    2.10
   4  -2  19    0.20    2.10
  -3  -1  19    0.20    2.70
   2   1 -19   -1.10    1.60
  -2  -1  19   -0.70    1.90
  -2  -1  19   -0.50    2.20
  -2  -1  19    1.10    2.50
   1   1 -19   -0.60    1.70
   1   1 -19    2.60    1.90
  -1  -1  19    0.00    2.20
  -1  -1  19    0.80    2.10
  -1  -1  19    0.00    2.40
   0   1 -19   21.90    3.20
   0   1 -19   22.80    3.00
   0  -1  19   28.30    3.70
   0  -1  19   23.80    3.30
  -1   1 -19    3.40    2.00
  -1   1 -19    3.30    2.00
   1  -1  19    1.70    2.10
   1  -1  19    1.60    2.10
  -2   1 -19    1.40    1.80
  -2   1 -19   -3.60    2.00
  -2   1 -19   -1.00    1.50
   2  -1  19    0.70    2.30
   2  -1  19    1.40    2.20
  -3   1 -19    1.30    1.50
  -4   1 -19    0.30    1.80
   5  -1  19   -1.30    2.40
   4   0 -19   -0.40    2.20
  -4   0  19   -0.70    2.70
  -3   0  19   -3.70    2.50
   2   0 -19   -1.30    1.80
   2   0 -19   -0.20    1.50
  -2   0  19   -0.80    1.70
  -2   0  19   -2.00    2.10
  -2   0  19   -1.40    2.50
   1   0 -19    9.50    2.30
   1   0 -19    8.40    2.30
  -1   0  19    6.80    2.60
  -1   0  19    7.30    2.40
   0   0 -19    1.60    1.70
   0   0 -19   -0.60    1.70
   0   0 -19    2.10    1.90
   0   0  19    0.50    2.10
   0   0  19    5.80    2.50
  -1   0 -19   24.00    3.20
  -1   0 -19   21.30    3.20
   1   0  19   23.90    3.60
   1   0  19   24.80    3.60
  -2   0 -19    2.90    1.70
  -2   0 -19    1.20    1.90
   2   0  19    1.80    2.20
   2   0  19    0.50    2.00
  -3   0 -19    7.60    2.40
  -3   0 -19    6.50    2.00
   3   0  19    7.80    2.50
  -4   0 -19    0.70    1.90
   4  -1 -19   -1.40    2.30
  -4   1  19   -1.20    2.50
  -3   1  19   -2.80    1.40
  -3   1  19   -2.90    2.30
   2  -1 -19    0.20    1.70
  -2   1  19    0.00    2.20
   1  -1 -19    5.50    1.90
   1  -1 -19    3.40    1.80
  -1   1  19    5.30    2.40
  -1   1  19    5.10    2.20
   0  -1 -19   24.20    3.00
   0  -1 -19   25.80    3.20
   0   1  19   27.90    3.60
   0   1  19   23.70    3.20
  -1  -1 -19    0.20    1.60
  -1  -1 -19   -0.50    1.70
  -1  -1 -19    3.70    2.10
   1   1  19    3.80    2.30
   1   1  19    1.90    2.10
  -2  -1 -19    0.10    1.90
  -2  -1 -19    1.30    1.70
  -2  -1 -19   -1.40    1.80
   2   1  19    0.20    2.10
   2   1  19    0.10    1.90
  -3  -1 -19    3.70    2.10
  -3  -1 -19    1.90    1.80
  -3  -1 -19   -0.50    1.90
   3   1  19    3.80    2.20
   3   1  19    3.50    2.10
  -4  -1 -19   -3.20    1.70
   4  -2 -19   -1.10    2.30
  -4   2  19   -0.70    2.40
  -3   2  19   -4.30    2.30
   2  -2 -19    2.60    1.80
  -2   2  19    4.20    2.50
  -2   2  19   -1.70    2.60
   1  -2 -19    9.80    2.40
   1  -2 -19    9.80    2.40
  -1   2  19    8.60    2.30
  -1   2  19   10.90    2.90
   0  -2 -19    0.90    1.50
   0  -2 -19    2.50    1.70
   0   2  19    1.80    1.90
   0   2  19    3.00    2.10
  -1  -2 -19   15.60    2.90
  -1  -2 -19   13.10    2.50
   1   2  19   15.20    3.00
   1   2  19   16.30    2.90
  -2  -2 -19    4.40    2.10
  -2  -2 -19    2.40    1.80
  -2  -2 -19    6.40    2.00
   2   2  19   -4.60    2.90
   2   2  19    6.10    2.30
   2   2  19    4.00    2.30
  -3  -2 -19    0.50    1.50
  -3  -2 -19    1.70    1.90
  -3  -2 -19   -1.30    1.60
   3   2  19    1.90    2.00
   3   2  19    3.40    2.20
  -4  -2 -19    5.00    2.00
  -4  -2 -19    6.00    2.40
  -4  -2 -19    0.20    1.80
   4  -3 -19    1.20    2.60
  -4   3  19   -1.70    2.20
   2  -3 -19    0.00    1.60
  -2   3  19    1.30    2.10
  -2   3  19    3.80    1.90
   1  -3 -19   24.00    3.10
  -1   3  19   31.30    4.50
  -1   3  19   27.60    3.40
   0  -3 -19    1.10    1.80
   0  -3 -19    2.30    1.70
   0   3  19    2.20    2.00
   0   3  19    1.40    1.80
  -1  -3 -19   -1.70    1.50
  -1  -3 -19    0.70    1.80
   1   3  19    0.30    2.00
   1   3  19    1.20    2.00
  -2  -3 -19    0.40    1.90
  -2  -3 -19    0.60    1.60
   2   3  19   -2.20    1.90
   2   3  19   -1.20    1.90
  -3  -3 -19    4.70    1.90
  -3  -3 -19    2.70    2.00
   3   3  19    3.90    2.30
   3   3  19    4.80    2.20
  -4  -3 -19    1.80    2.30
  -4  -3 -19    4.70    2.10
   4   3  19    1.70    2.30
  -2   4  19   21.30    4.70
   1  -4 -19    2.30    1.70
  -1   4  19    5.00    2.40
  -1   4  19    3.50    2.00
   0  -4 -19    0.60    1.60
   0   4  19   -0.50    1.60
   0   4  19    0.00    2.10
   0   4  19    1.10    1.80
  -1  -4 -19    2.90    1.80
  -1  -4 -19   -0.60    1.50
   1   4  19    0.20    1.70
   1   4  19    1.50    2.30
  -2  -4 -19    2.90    1.90
  -2  -4 -19    4.20    1.80
   2   4  19    6.60    2.30
   2   4  19    6.30    2.70
  -3  -4 -19    1.50    1.90
  -3  -4 -19    2.60    2.00
   3   4  19    3.10    2.40
   3   4  19    1.30    2.10
  -4  -4 -19    0.70    1.80
   4   4  19   -1.10    2.30
   3  -5 -19   -0.80    2.30
  -2   5  19   30.00    5.40
   1  -5 -19    8.00    2.20
  -1   5  19    7.50    2.70
   0  -5 -19    1.80    1.80
   0   5  19    0.20    2.10
   0   5  19    0.50    1.90
  -1  -5 -19    0.90    1.60
   1   5  19    1.60    1.70
   1   5  19    1.10    2.30
   1   5  19   -0.40    1.80
  -2  -5 -19    0.30    1.70
  -2  -5 -19    1.30    1.80
   2   5  19    1.30    1.90
   2   5  19   -0.80    2.10
  -3  -5 -19   -0.80    1.70
  -3  -5 -19   -1.10    1.80
   3   5  19   -1.10    2.20
   3   5  19   -0.40    2.10
  -1   6  19    0.60    2.30
   0   6  19   -1.60    2.00
   1   6  19    0.30    1.80
   2   6  19   -0.80    2.10
  -3  -6 -19   -0.40    2.10
   3   6  19   -1.80    2.30
   1   7  19   -0.40    2.20
  -1  -3  20    5.70    2.90
   0  -3  20   -0.90    2.00
   1  -3  20   -1.60    1.90
  -2  -2  20    4.20    3.10
  -1  -2  20    0.00    2.50
   0   2 -20   -0.40    1.80
   0  -2  20   -1.70    2.20
   0  -2  20   -1.40    2.10
  -1   2 -20   -0.90    1.70
   1  -2  20   -1.60    1.70
   2  -2  20    1.40    2.10
  -3  -1  20   -1.40    3.10
   2   1 -20    0.10    2.00
  -2  -1  20   -2.20    2.00
  -2  -1  20    1.20    2.70
   1   1 -20    4.40    2.30
  -1  -1  20    4.10    2.60
  -1  -1  20    5.20    2.50
  -1  -1  20    5.30    2.80
   0   1 -20    2.30    1.90
   0   1 -20    3.00    2.20
   0  -1  20    3.70    2.50
   0  -1  20    1.50    2.20
   0  -1  20    0.20    2.40
  -1   1 -20    1.40    2.00
  -1   1 -20    0.80    1.90
   1  -1  20   -0.90    2.10
   1  -1  20    2.80    2.40
  -2   1 -20    0.70    1.70
  -3   0  20    1.70    2.90
  -2   0  20   -1.80    2.50
  -2   0  20   -0.10    2.10
   1   0 -20    1.20    1.90
   1   0 -20    1.30    1.80
  -1   0  20    3.00    2.20
  -1   0  20    1.80    2.40
   0   0 -20    3.30    1.90
   0   0 -20    3.70    2.10
   0   0  20    2.00    2.30
   0   0  20    2.50    2.10
  -1   0 -20    2.70    1.90
  -1   0 -20    3.50    2.00
   1   0  20    4.00    2.40
   1   0  20    3.20    2.30
  -2   0 -20    2.20    1.70
  -2   0 -20    5.00    2.50
   2   0  20    2.00    2.30
   2   0  20    5.00    2.60
  -3   1  20    0.30    2.90
  -2   1  20   -2.50    2.50
   1  -1 -20    2.50    1.90
   1  -1 -20    0.60    2.00
  -1   1  20    3.60    2.20
  -1   1  20   -1.10    2.00
   0  -1 -20    3.50    2.10
   0  -1 -20    7.30    2.10
   0  -1 -20    7.10    2.30
   0   1  20   11.50    2.90
   0   1  20   11.90    2.70
  -1  -1 -20    8.30    2.40
  -1  -1 -20    7.60    2.20
   1   1  20    5.20    2.30
   1   1  20    6.10    2.60
  -2  -1 -20    0.00    1.60
  -2  -1 -20   -2.40    1.70
  -2  -1 -20    2.40    2.00
   2   1  20    3.30    2.20
   2   1  20    0.30    2.10
  -3  -1 -20    1.80    1.70
  -3  -1 -20    1.00    1.80
   3   1  20    1.90    2.10
  -3   2  20   -4.10    2.40
   1  -2 -20    2.60    1.90
  -1   2  20    0.30    1.90
  -1   2  20    3.20    2.30
   0  -2 -20    1.40    1.80
   0  -2 -20    2.70    1.90
   0   2  20    0.90    2.20
   0   2  20   -1.30    1.80
  -1  -2 -20    4.90    1.90
  -1  -2 -20    4.40    2.30
   1   2  20    8.40    2.70
   1   2  20    7.10    2.40
  -2  -2 -20    3.00    1.90
  -2  -2 -20    1.20    1.90
  -2  -2 -20    0.40    1.80
   2   2  20    1.90    2.20
   2   2  20    3.10    2.30
  -3  -2 -20    8.10    2.50
  -3  -2 -20    5.50    1.90
   3   2  20    7.60    2.60
   3   2  20   11.90    3.10
  -2   3  20    3.40    2.00
   1  -3 -20   -1.70    1.50
   0  -3 -20    1.10    1.80
   0  -3 -20    1.00    1.70
   0   3  20    3.70    2.40
   0   3  20    1.60    1.90
  -1  -3 -20   28.70    3.20
  -1  -3 -20   31.80    3.40
   1   3  20   30.50    3.40
   1   3  20   32.20    3.90
  -2  -3 -20    4.30    2.00
  -2  -3 -20    1.70    1.90
   2   3  20    0.90    2.20
   2   3  20    1.40    2.00
  -3  -3 -20   -0.70    1.90
  -3  -3 -20    0.20    1.70
   3   3  20    1.10    2.40
   3   3  20   -0.40    2.10
  -4  -3 -20   -0.80    1.90
   4   3  20   -1.00    2.40
  -2   4  20    4.30    2.10
  -1   4  20    3.20    1.90
   0  -4 -20    4.30    1.90
   0   4  20    2.00    2.30
  -1  -4 -20    3.00    1.90
  -1  -4 -20    2.10    1.80
   1   4  20    4.50    2.40
   1   4  20    2.10    2.00
  -2  -4 -20    2.50    2.00
  -2  -4 -20    1.40    1.70
   2   4  20    3.20    2.20
   2   4  20    4.80    2.80
  -3  -4 -20    1.60    2.10
  -3  -4 -20    0.70    2.10
   3   4  20    2.10    2.60
   3   4  20    1.50    2.40
  -1   5  20    2.40    2.20
  -2  -5 -20    2.90    2.00
   2   5  20    1.80    2.10
  -3  -5 -20   -1.70    1.90
   0   6  20    1.40    2.20
  -1  -2  21   -2.10    2.30
   0  -2  21   -5.10    1.90
   1  -2  21   -0.40    2.10
   2  -2  21    1.00    2.00
  -2  -1  21    4.50    3.00
  -1  -1  21   -1.20    2.40
   0  -1  21   -1.60    2.20
  -1   1 -21   -0.10    1.80
   1  -1  21    0.10    2.40
  -2   0  21    0.50    2.70
   1   0 -21   -0.90    1.70
  -1   0  21   -2.50    2.60
  -1   0  21    0.80    2.20
   0   0 -21    1.60    2.00
   0   0 -21    0.20    1.80
   0   0  21    1.40    2.60
   0   0  21   -0.50    2.30
  -1   0 -21    0.60    1.90
  -1   0 -21   -0.60    2.00
   1   0  21   -2.00    2.20
  -2   0 -21    2.70    1.90
   2   0  21    4.40    2.40
  -2   1  21    4.00    3.30
  -1   1  21    1.00    2.10
   0  -1 -21   -3.00    1.80
   0   1  21    1.40    3.00
   0   1  21   -0.50    2.10
  -1  -1 -21    1.10    2.00
  -1  -1 -21    2.40    1.90
   1   1  21   -0.40    2.30
   1   1  21   -0.50    2.20
  -2  -1 -21    5.50    2.00
   2   1  21    8.00    2.70
   0  -2 -21    0.60    2.00
   0   2  21   -1.00    1.90
  -1  -2 -21    1.40    2.00
  -1  -2 -21    2.30    2.20
   1   2  21    1.10    2.30
   1   2  21    2.70    2.50
  -2  -2 -21   39.30    4.10
   2   2  21   40.30    4.10
   2   2  21   39.70    4.80
  -3  -2 -21   26.00    3.40
   3   2  21   30.80    4.10
   0   3  21   -0.30    1.90
  -1  -3 -21    1.00    1.80
   1   3  21    1.70    2.10
  -2  -3 -21   10.40    2.50
   2   3  21   22.10    3.50
   2   3  21   15.60    3.50
   3   3  21    9.40    3.10
   1   4  21    3.20    2.20
  -2  -4 -21   61.19    4.70
   2   4  21   58.19    4.50
   2   5  21    4.70    2.30
   0  -1  22    0.50    2.60
   1  -1  22    1.40    2.30
  -1   0  22   -0.80    2.70
   0  -1 -22   -1.30    1.80
   0   2  22   -1.70    2.00
  -1  -2 -22   -0.80    2.10
  -1  -3 -22    6.40    2.70
;
_shelx_hkl_checksum              28339
_shelx_res_file
;
TITL a3cgt
CELL  0.71073   5.8271   7.4489  15.2068   79.745   84.427   85.763
ZERR     2.00   0.0003   0.0004   0.0009    0.003    0.003    0.003
LATT   1
SFAC  C    H    O    S
UNIT  34   24   2    2
MERG   2
OMIT -2 53.1
OMIT     0   0   1
FMAP   2
PLAN   20
SIZE     0.150   0.200   0.250
ACTA
BOND   $H
CONF
HTAB
L.S.  20
TEMP    23.00
EXYZ C2 C2A
EADP C2 C2A
EXYZ C3 C3A
EADP C3 C3A
EXYZ C32 C42
EADP C32 C42
EADP S31 C43
EADP C43 S41
EADP C34 C45
EADP C35 C44
MPLA C32 > C35
MPLA C11 > C20
MPLA C1 C2 C3
MPLA C32 > C35
MPLA C42 > C45
WGHT    0.027800    0.867400
FVAR       0.74839   0.78028
C1    1    0.971755    0.260816    0.501199    11.00000    0.03706    0.04364 =
         0.04327   -0.00086   -0.00197   -0.00104
O1    3    1.171580    0.270134    0.516036    11.00000    0.03902    0.10342 =
         0.04752   -0.00672   -0.00337   -0.00792
C11   1    1.070979    0.304484    0.337711    11.00000    0.02814    0.03290 =
         0.04408   -0.00841   -0.00034   -0.00358
AFIX  43
H11   2    1.205513    0.354287    0.348083    11.00000   -1.20000
AFIX   0
C12   1    0.915245    0.246326    0.408867    11.00000    0.03256    0.03188 =
         0.04296   -0.00512   -0.00032    0.00070
C13   1    0.711051    0.170486    0.393017    11.00000    0.03375    0.03871 =
         0.05325   -0.00183    0.00488   -0.00632
AFIX  43
H13   2    0.602594    0.134007    0.440682    11.00000   -1.20000
AFIX   0
C14   1    0.671500    0.150270    0.308458    11.00000    0.03210    0.03873 =
         0.06707   -0.01437   -0.00590   -0.00680
AFIX  43
H14   2    0.538342    0.096530    0.299710    11.00000   -1.20000
AFIX   0
C15   1    0.792358    0.195229    0.145576    11.00000    0.04036    0.04434 =
         0.06384   -0.01911   -0.01661    0.00201
AFIX  43
H15   2    0.660792    0.142287    0.134516    11.00000   -1.20000
AFIX   0
C16   1    0.944674    0.257021    0.076052    11.00000    0.05804    0.06028 =
         0.05013   -0.01894   -0.01445    0.00773
AFIX  43
H16   2    0.917675    0.244975    0.018161    11.00000   -1.20000
AFIX   0
C17   1    1.142346    0.338841    0.090474    11.00000    0.05357    0.04927 =
         0.04665   -0.00765    0.00271    0.00389
AFIX  43
H17   2    1.244892    0.382861    0.042021    11.00000   -1.20000
AFIX   0
C18   1    1.186034    0.354639    0.174889    11.00000    0.03719    0.03656 =
         0.04434   -0.00646   -0.00284   -0.00147
AFIX  43
H18   2    1.319197    0.408373    0.183635    11.00000   -1.20000
AFIX   0
C19   1    1.031769    0.290486    0.249500    11.00000    0.02990    0.02736 =
         0.04437   -0.00506   -0.00323    0.00339
C20   1    0.827487    0.208845    0.234355    11.00000    0.03314    0.02910 =
         0.04966   -0.00950   -0.00434    0.00406
PART -1
C2    1    0.782143    0.264100    0.572620    21.00000    0.03574    0.04684 =
         0.04447   -0.00722   -0.00351    0.00183
AFIX  43
H2    2    0.631615    0.295269    0.557658    21.00000   -1.20000
AFIX   0
C3    1    0.825068    0.223119    0.657410    21.00000    0.03405    0.03812 =
         0.04939   -0.00964    0.00043   -0.00109
AFIX  43
H3    2    0.976061    0.183121    0.668719    21.00000   -1.20000
AFIX   0
C32   1    0.663423    0.233383    0.734985    21.00000    0.03555    0.03257 =
         0.04390   -0.00964   -0.00214   -0.00650
S31   4    0.395825    0.339687    0.729507    21.00000    0.03474    0.04668 =
         0.05092   -0.01087   -0.00798    0.00663
C33   1    0.701224    0.170462    0.822445    21.00000    0.04383    0.04092 =
         0.04331    0.00018   -0.01986    0.00514
AFIX  43
H33   2    0.836983    0.105600    0.839451    21.00000   -1.20000
AFIX   0
C34   1    0.520045    0.210852    0.884895    21.00000    0.05662    0.04674 =
         0.04104   -0.00663    0.00068   -0.01500
AFIX  43
H34   2    0.521655    0.178397    0.946794    21.00000   -1.20000
AFIX   0
C35   1    0.343028    0.303468    0.842481    21.00000    0.04329    0.04683 =
         0.05604   -0.02537    0.00658   -0.00848
AFIX  43
H35   2    0.206711    0.343112    0.872150    21.00000   -1.20000
AFIX   0
PART 0
PART -2
SAME 0.005 0.01 C2 > C35
C2A   1    0.782143    0.264100    0.572620   -21.00000    0.03574    0.04684 =
         0.04447   -0.00722   -0.00351    0.00183
AFIX  43
H2A   2    0.631615    0.295269    0.557658   -21.00000   -1.20000
AFIX   0
C3A   1    0.825068    0.223119    0.657410   -21.00000    0.03405    0.03812 =
         0.04939   -0.00964    0.00043   -0.00109
AFIX  43
H3A   2    0.976061    0.183121    0.668719   -21.00000   -1.20000
AFIX   0
C42   1    0.663423    0.233383    0.734985   -21.00000    0.03555    0.03257 =
         0.04390   -0.00964   -0.00214   -0.00650
S41   4    0.733372    0.149077    0.839161   -21.00000    0.03474    0.04668 =
         0.05092   -0.01087   -0.00798    0.00663
C43   1    0.439314    0.299312    0.736506   -21.00000    0.03474    0.04668 =
         0.05092   -0.01087   -0.00798    0.00663
AFIX  43
H43   2    0.368097    0.348622    0.684734   -21.00000   -1.20000
AFIX   0
C44   1    0.324490    0.286720    0.822728   -21.00000    0.04329    0.04683 =
         0.05604   -0.02537    0.00658   -0.00848
AFIX  43
H44   2    0.172508    0.328544    0.835181   -21.00000   -1.20000
AFIX   0
C45   1    0.466691    0.205029    0.885053   -21.00000    0.05662    0.04674 =
         0.04104   -0.00663    0.00068   -0.01500
AFIX  43
H45   2    0.423039    0.182088    0.946293   -21.00000   -1.20000
PART 0
AFIX   0
HKLF 4
REM  a3cgt
REM R1 =  0.0575 for    2164 Fo > 4sig(Fo)  and  0.0727 for all    2694 data
REM    185 parameters refined using     15 restraints
END
WGHT      0.0278      0.8674
REM No hydrogen bonds found for HTAB generation
REM Highest difference peak  0.232,  deepest hole -0.408,  1-sigma level  0.051
Q1    1   1.0217  0.3720  0.2781  11.00000  0.05    0.23
Q2    1   0.6580  0.1870  0.7738  11.00000  0.05    0.23
Q3    1   0.9083  0.2987  0.2378  11.00000  0.05    0.23
Q4    1   0.5716  0.3382  0.7379  11.00000  0.05    0.23
Q5    1   1.0708  0.3748  0.2165  11.00000  0.05    0.21
Q6    1   1.1312  0.2743  0.2261  11.00000  0.05    0.20
Q7    1   0.4941  0.1590  0.2815  11.00000  0.05    0.19
Q8    1   0.8048  0.1628  0.2785  11.00000  0.05    0.19
Q9    1   0.8515  0.0176  0.7359  11.00000  0.05    0.18
Q10   1   0.8772  0.1565  0.8428  11.00000  0.05    0.18
Q11   1   0.9564  0.2019  0.2446  11.00000  0.05    0.18
Q12   1   0.3321  0.2822  0.7858  11.00000  0.05    0.18
Q13   1   0.9561  0.3435  0.3679  11.00000  0.05    0.17
Q14   1   0.4751  0.0667  0.3227  11.00000  0.05    0.17
Q15   1   1.0497  0.2397  0.6839  11.00000  0.05    0.16
Q16   1   0.3420  0.4182  0.5652  11.00000  0.05    0.16
Q17   1   1.1190  0.1665  0.5124  11.00000  0.05    0.16
Q18   1   0.5620  0.3721  0.5650  11.00000  0.05    0.16
Q19   1   0.3842  0.3944  0.6006  11.00000  0.05    0.16
Q20   1   0.3871  0.3557  0.7962  11.00000  0.05    0.15
;
_shelx_res_checksum              50622
_shelxl_version_number           2.014
loop_
_space_group_symop_operation_xyz
'x, y, z'
'-x, -y, -z'
loop_
_atom_site_type_symbol
_atom_site_label
_atom_site_fract_x
_atom_site_fract_y
_atom_site_fract_z
_atom_site_U_iso_or_equiv
_atom_site_adp_type
_atom_site_calc_flag
_atom_site_occupancy
_atom_site_disorder_assembly
_atom_site_disorder_group
C C1 0.9718(5) 0.2608(4) 0.50120(19) 0.0423(7) Uani d 1 . .
O O1 1.1716(4) 0.2701(4) 0.51604(15) 0.0639(7) Uani d 1 . .
C C11 1.0710(4) 0.3045(3) 0.33771(18) 0.0349(6) Uani d 1 . .
H H11 1.2055 0.3543 0.3481 0.042 Uiso calc 1 . .
C C12 0.9152(4) 0.2463(3) 0.40887(18) 0.0363(6) Uani d 1 . .
C C13 0.7111(5) 0.1705(4) 0.3930(2) 0.0430(7) Uani d 1 . .
H H13 0.6026 0.1340 0.4407 0.052 Uiso calc 1 . .
C C14 0.6715(5) 0.1503(4) 0.3085(2) 0.0450(7) Uani d 1 . .
H H14 0.5383 0.0965 0.2997 0.054 Uiso calc 1 . .
C C15 0.7924(5) 0.1952(4) 0.1456(2) 0.0477(7) Uani d 1 . .
H H15 0.6608 0.1423 0.1345 0.057 Uiso calc 1 . .
C C16 0.9447(6) 0.2570(5) 0.0761(2) 0.0549(8) Uani d 1 . .
H H16 0.9177 0.2450 0.0182 0.066 Uiso calc 1 . .
C C17 1.1423(6) 0.3388(4) 0.0905(2) 0.0507(8) Uani d 1 . .
H H17 1.2449 0.3829 0.0420 0.061 Uiso calc 1 . .
C C18 1.1860(5) 0.3546(4) 0.17489(19) 0.0395(6) Uani d 1 . .
H H18 1.3192 0.4084 0.1836 0.047 Uiso calc 1 . .
C C19 1.0318(4) 0.2905(3) 0.24950(18) 0.0343(6) Uani d 1 . .
C C20 0.8275(4) 0.2088(3) 0.23435(19) 0.0372(6) Uani d 1 . .
C C2 0.7821(5) 0.2641(4) 0.57262(19) 0.0426(7) Uani d 0.780(3) A -1
H H2 0.6316 0.2953 0.5577 0.051 Uiso calc 0.780(3) A -1
C C3 0.8251(5) 0.2231(4) 0.65741(19) 0.0406(6) Uani d 0.780(3) A -1
H H3 0.9761 0.1831 0.6687 0.049 Uiso calc 0.780(3) A -1
C C32 0.6634(4) 0.2334(3) 0.73499(18) 0.0368(6) Uani d 0.780(3) A -1
S S31 0.3958(2) 0.33969(18) 0.72951(8) 0.0440(3) Uani d 0.780(3) A -1
C C33 0.7012(11) 0.1705(10) 0.8224(4) 0.0429(13) Uani d 0.780(3) A -1
H H33 0.8370 0.1056 0.8395 0.051 Uiso calc 0.780(3) A -1
C C34 0.5200(8) 0.2109(16) 0.8849(3) 0.0480(13) Uani d 0.780(3) A -1
H H34 0.5217 0.1784 0.9468 0.058 Uiso calc 0.780(3) A -1
C C35 0.3430(8) 0.3035(10) 0.8425(3) 0.0471(12) Uani d 0.780(3) A -1
H H35 0.2067 0.3431 0.8721 0.057 Uiso calc 0.780(3) A -1
C C2A 0.7821(5) 0.2641(4) 0.57262(19) 0.0426(7) Uani d 0.220(3) A -2
H H2A 0.6316 0.2953 0.5577 0.051 Uiso calc 0.220(3) A -2
C C3A 0.8251(5) 0.2231(4) 0.65741(19) 0.0406(6) Uani d 0.220(3) A -2
H H3A 0.9761 0.1831 0.6687 0.049 Uiso calc 0.220(3) A -2
C C42 0.6634(4) 0.2334(3) 0.73499(18) 0.0368(6) Uani d 0.220(3) A -2
S S41 0.7334(11) 0.1491(11) 0.8392(3) 0.0440(3) Uani d 0.220(3) A -2
C C43 0.4393(19) 0.299(3) 0.7365(8) 0.0440(3) Uani d 0.220(3) A -2
H H43 0.3681 0.3486 0.6847 0.053 Uiso calc 0.220(3) A -2
C C44 0.324(2) 0.287(4) 0.8227(9) 0.0471(12) Uani d 0.220(3) A -2
H H44 0.1725 0.3285 0.8352 0.057 Uiso calc 0.220(3) A -2
C C45 0.467(3) 0.205(6) 0.8851(8) 0.0480(13) Uani d 0.220(3) A -2
H H45 0.4230 0.1821 0.9463 0.058 Uiso calc 0.220(3) A -2
loop_
_atom_site_aniso_label
_atom_site_aniso_U_11
_atom_site_aniso_U_22
_atom_site_aniso_U_33
_atom_site_aniso_U_12
_atom_site_aniso_U_13
_atom_site_aniso_U_23
C1 0.0371(15) 0.0436(16) 0.0433(16) -0.0010(12) -0.0020(12) -0.0009(12)
O1 0.0390(12) 0.103(2) 0.0475(13) -0.0079(12) -0.0034(10) -0.0067(13)
C11 0.0281(12) 0.0329(13) 0.0441(15) -0.0036(10) -0.0003(11) -0.0084(11)
C12 0.0326(13) 0.0319(13) 0.0430(15) 0.0007(10) -0.0003(11) -0.0051(11)
C13 0.0337(14) 0.0387(15) 0.0532(18) -0.0063(11) 0.0049(12) -0.0018(13)
C14 0.0321(14) 0.0387(15) 0.067(2) -0.0068(12) -0.0059(13) -0.0144(14)
C15 0.0404(16) 0.0443(17) 0.064(2) 0.0020(13) -0.0166(14) -0.0191(15)
C16 0.058(2) 0.060(2) 0.0501(19) 0.0077(16) -0.0144(15) -0.0189(16)
C17 0.0536(18) 0.0493(18) 0.0467(18) 0.0039(14) 0.0027(14) -0.0077(14)
C18 0.0372(14) 0.0366(14) 0.0443(16) -0.0015(11) -0.0028(12) -0.0065(12)
C19 0.0299(12) 0.0274(12) 0.0444(15) 0.0034(10) -0.0032(11) -0.0051(11)
C20 0.0331(13) 0.0291(13) 0.0497(16) 0.0041(10) -0.0043(11) -0.0095(11)
C2 0.0357(14) 0.0468(16) 0.0445(16) 0.0018(12) -0.0035(12) -0.0072(13)
C3 0.0340(14) 0.0381(15) 0.0494(17) -0.0011(11) 0.0004(12) -0.0096(12)
C32 0.0355(14) 0.0326(13) 0.0439(15) -0.0065(11) -0.0021(11) -0.0096(11)
S31 0.0347(6) 0.0467(8) 0.0509(6) 0.0066(4) -0.0080(4) -0.0109(4)
C33 0.044(3) 0.041(3) 0.043(3) 0.005(2) -0.020(2) 0.000(2)
C34 0.057(3) 0.047(2) 0.0410(17) -0.015(4) 0.0007(17) -0.0066(14)
C35 0.0433(18) 0.047(2) 0.056(3) -0.0085(17) 0.0066(18) -0.025(2)
C2A 0.0357(14) 0.0468(16) 0.0445(16) 0.0018(12) -0.0035(12) -0.0072(13)
C3A 0.0340(14) 0.0381(15) 0.0494(17) -0.0011(11) 0.0004(12) -0.0096(12)
C42 0.0355(14) 0.0326(13) 0.0439(15) -0.0065(11) -0.0021(11) -0.0096(11)
S41 0.0347(6) 0.0467(8) 0.0509(6) 0.0066(4) -0.0080(4) -0.0109(4)
C43 0.0347(6) 0.0467(8) 0.0509(6) 0.0066(4) -0.0080(4) -0.0109(4)
C44 0.0433(18) 0.047(2) 0.056(3) -0.0085(17) 0.0066(18) -0.025(2)
C45 0.057(3) 0.047(2) 0.0410(17) -0.015(4) 0.0007(17) -0.0066(14)
loop_
_atom_type_symbol
_atom_type_description
_atom_type_scat_dispersion_real
_atom_type_scat_dispersion_imag
_atom_type_scat_source
C C 0.0033 0.0016 'International Tables Vol C Tables 4.2.6.8 and 6.1.1.4'
H H 0.0000 0.0000 'International Tables Vol C Tables 4.2.6.8 and 6.1.1.4'
O O 0.0106 0.0060 'International Tables Vol C Tables 4.2.6.8 and 6.1.1.4'
S S 0.1246 0.1234 'International Tables Vol C Tables 4.2.6.8 and 6.1.1.4'
loop_
_geom_angle_atom_site_label_1
_geom_angle_atom_site_label_2
_geom_angle_atom_site_label_3
_geom_angle
O1 C1 C2 121.2(3)
O1 C1 C12 119.8(3)
C2 C1 C12 118.9(2)
C12 C11 C19 121.5(2)
C12 C11 H11 119.3
C19 C11 H11 119.3
C11 C12 C13 119.2(3)
C11 C12 C1 118.5(2)
C13 C12 C1 122.3(2)
C14 C13 C12 120.6(3)
C14 C13 H13 119.7
C12 C13 H13 119.7
C13 C14 C20 121.4(3)
C13 C14 H14 119.3
C20 C14 H14 119.3
C16 C15 C20 121.7(3)
C16 C15 H15 119.1
C20 C15 H15 119.1
C15 C16 C17 120.4(3)
C15 C16 H16 119.8
C17 C16 H16 119.8
C18 C17 C16 120.4(3)
C18 C17 H17 119.8
C16 C17 H17 119.8
C17 C18 C19 120.9(3)
C17 C18 H18 119.6
C19 C18 H18 119.6
C11 C19 C18 122.5(2)
C11 C19 C20 118.9(2)
C18 C19 C20 118.6(3)
C14 C20 C15 123.7(3)
C14 C20 C19 118.3(3)
C15 C20 C19 118.0(3)
C3 C2 C1 120.2(3)
C3 C2 H2 119.9
C1 C2 H2 119.9
C2 C3 C32 127.2(2)
C2 C3 H3 116.4
C32 C3 H3 116.4
C33 C32 C3 126.9(3)
C33 C32 S31 109.4(3)
C3 C32 S31 123.67(19)
C35 S31 C32 92.48(19)
C32 C33 C34 115.0(5)
C32 C33 H33 122.5
C34 C33 H33 122.5
C35 C34 C33 110.4(5)
C35 C34 H34 124.8
C33 C34 H34 124.8
C34 C35 S31 112.7(4)
C34 C35 H35 123.6
S31 C35 H35 123.6
C44 C43 H43 122.8
C45 C44 C43 110.2(8)
C45 C44 H44 124.9
C43 C44 H44 124.9
C44 C45 S41 112.5(7)
C44 C45 H45 123.8
S41 C45 H45 123.8
loop_
_geom_bond_atom_site_label_1
_geom_bond_atom_site_label_2
_geom_bond_distance
C1 O1 1.217(3)
C1 C2 1.474(4)
C1 C12 1.497(4)
C11 C12 1.372(4)
C11 C19 1.405(4)
C11 H11 0.9300
C12 C13 1.413(4)
C13 C14 1.364(4)
C13 H13 0.9300
C14 C20 1.404(4)
C14 H14 0.9300
C15 C16 1.350(5)
C15 C20 1.407(4)
C15 H15 0.9300
C16 C17 1.395(5)
C16 H16 0.9300
C17 C18 1.359(4)
C17 H17 0.9300
C18 C19 1.413(4)
C18 H18 0.9300
C19 C20 1.432(4)
C2 C3 1.315(4)
C2 H2 0.9300
C3 C32 1.446(4)
C3 H3 0.9300
C32 C33 1.363(6)
C32 S31 1.698(2)
S31 C35 1.692(5)
C33 C34 1.403(7)
C33 H33 0.9300
C34 C35 1.350(5)
C34 H34 0.9300
C35 H35 0.9300
S41 C45 1.695(7)
C43 C44 1.404(9)
C43 H43 0.9300
C44 C45 1.352(7)
C44 H44 0.9300
C45 H45 0.9300
loop_
_geom_hbond_atom_site_label_D
_geom_hbond_atom_site_label_H
_geom_hbond_atom_site_label_A
_geom_hbond_site_symmetry_A
_geom_hbond_distance_DH
_geom_hbond_distance_HA
_geom_hbond_distance_DA
_geom_hbond_angle_DHA
_geom_hbond_publ_flag
C18 H18 Cg5 2_766 0.93 2.80 3.572(4) 141 no
loop_
_geom_torsion_atom_site_label_1
_geom_torsion_atom_site_label_2
_geom_torsion_atom_site_label_3
_geom_torsion_atom_site_label_4
_geom_torsion
C19 C11 C12 C13 0.1(4)
C19 C11 C12 C1 178.3(2)
O1 C1 C12 C11 -21.7(4)
C2 C1 C12 C11 158.1(3)
O1 C1 C12 C13 156.5(3)
C2 C1 C12 C13 -23.7(4)
C11 C12 C13 C14 1.8(4)
C1 C12 C13 C14 -176.3(3)
C12 C13 C14 C20 -2.0(4)
C20 C15 C16 C17 -0.7(5)
C15 C16 C17 C18 1.1(5)
C16 C17 C18 C19 -0.6(4)
C12 C11 C19 C18 178.0(2)
C12 C11 C19 C20 -1.8(4)
C17 C18 C19 C11 -180.0(3)
C17 C18 C19 C20 -0.2(4)
C13 C14 C20 C15 -178.4(3)
C13 C14 C20 C19 0.3(4)
C16 C15 C20 C14 178.5(3)
C16 C15 C20 C19 -0.2(4)
C11 C19 C20 C14 1.6(4)
C18 C19 C20 C14 -178.1(2)
C11 C19 C20 C15 -179.6(2)
C18 C19 C20 C15 0.6(4)
O1 C1 C2 C3 -20.2(5)
C12 C1 C2 C3 160.0(3)
C1 C2 C3 C32 174.8(3)
C2 C3 C32 C33 171.5(5)
C2 C3 C32 S31 -12.1(4)
C33 C32 S31 C35 1.4(4)
C3 C32 S31 C35 -175.6(3)
C3 C32 C33 C34 175.3(6)
S31 C32 C33 C34 -1.5(8)
C32 C33 C34 C35 0.9(11)
C33 C34 C35 S31 0.2(10)
C32 S31 C35 C34 -0.9(6)
C43 C44 C45 S41 1(4)

_cod_database_fobs_code 2020725
