#------------------------------------------------------------------------------
#$Date: 2018-01-24 08:28:54 +0200 (Wed, 24 Jan 2018) $
#$Revision: 205532 $
#$URL: file:///home/coder/svn-repositories/cod/cif/2/02/09/2020955.cif $
#------------------------------------------------------------------------------
#
# This file is available in the Crystallography Open Database (COD),
# http://www.crystallography.net/. The original data for this entry
# were provided by IUCr Journals, http://journals.iucr.org/.
#
# The file may be used within the scientific community so long as
# proper attribution is given to the journal article from which the
# data were obtained.
#
data_2020955
loop_
_publ_author_name
'Sagar, Belakavadi K.'
'Yathirajan, Hemmige S.'
'Rathore, Ravindranath S.'
'Glidewell, Christopher'
_publ_section_title
;
 Synthesis and structures of six closely related
 <i>N</i>-[3-(2-chlorobenzoyl)-5-ethylthiophen-2-yl]arylamides, together
 with an isolated reaction intermediate: order <i>versus</i> disorder,
 molecular conformations and hydrogen bonding in zero, one and two
 dimensions
;
_journal_coeditor_code           SK3680
_journal_issue                   2
_journal_name_full               'Acta Crystallographica Section C'
_journal_page_first
;
;
_journal_paper_doi               10.1107/S2053229618000657
_journal_volume                  74
_journal_year                    2018
_chemical_formula_iupac          'C15 H13 N3 O4'
_chemical_formula_moiety         'C15 H13 N3 O4'
_chemical_formula_sum            'C15 H13 N3 O4'
_chemical_formula_weight         299.28
_chemical_name_systematic
;
Benzotriazol-1-yl 3,4-dimethoxybenzoate
;
_space_group_crystal_system      triclinic
_space_group_IT_number           2
_space_group_name_Hall           '-P 1'
_space_group_name_H-M_alt        'P -1'
_symmetry_space_group_name_Hall  '-P 1'
_symmetry_space_group_name_H-M   'P -1'
_atom_sites_solution_hydrogens   geom
_audit_creation_method           SHELXL-2014
_cell_angle_alpha                66.840(4)
_cell_angle_beta                 71.533(4)
_cell_angle_gamma                71.350(4)
_cell_formula_units_Z            2
_cell_length_a                   8.1296(6)
_cell_length_b                   9.5899(6)
_cell_length_c                   10.8824(8)
_cell_measurement_reflns_used    3424
_cell_measurement_temperature    294(2)
_cell_measurement_theta_max      27.838
_cell_measurement_theta_min      2.056
_cell_volume                     721.10(9)
_computing_cell_refinement
;
APEX2 (Bruker, 2012)
;
_computing_data_collection
;
APEX2 (Bruker, 2012)
;
_computing_data_reduction
;
SAINT (Bruker, 2012)
;
_computing_molecular_graphics
;
PLATON (Spek, 2009)
;
_computing_publication_material
;
SHELXL2014 (Sheldrick, 2015) and PLATON (Spek, 2009)
;
_computing_structure_refinement
;
SHELXL2014 (Sheldrick, 2015)
;
_computing_structure_solution
;
SHELXS86 (Sheldrick, 2008)
;
_diffrn_ambient_temperature      294(2)
_diffrn_measured_fraction_theta_full 1.000
_diffrn_measured_fraction_theta_max 0.999
_diffrn_measurement_device_type  'Bruker Kappa APEXII'
_diffrn_measurement_method       '\f and \w scans'
_diffrn_radiation_type           MoK\a
_diffrn_radiation_wavelength     0.71073
_diffrn_reflns_av_R_equivalents  0.0508
_diffrn_reflns_limit_h_max       10
_diffrn_reflns_limit_h_min       -10
_diffrn_reflns_limit_k_max       12
_diffrn_reflns_limit_k_min       -12
_diffrn_reflns_limit_l_max       13
_diffrn_reflns_limit_l_min       -13
_diffrn_reflns_number            15518
_diffrn_reflns_theta_full        25.242
_diffrn_reflns_theta_max         26.547
_diffrn_reflns_theta_min         2.086
_diffrn_standards_decay_%        0
_diffrn_standards_interval_count 0
_diffrn_standards_interval_time  0
_diffrn_standards_number         0
_exptl_absorpt_coefficient_mu    0.102
_exptl_absorpt_correction_T_max  0.990
_exptl_absorpt_correction_T_min  0.921
_exptl_absorpt_correction_type   multi-scan
_exptl_absorpt_process_details
;
(SADABS; Bruker, 2012)
;
_exptl_crystal_colour            colourless
_exptl_crystal_density_diffrn    1.378
_exptl_crystal_description       block
_exptl_crystal_F_000             312
_exptl_crystal_size_max          0.150
_exptl_crystal_size_mid          0.150
_exptl_crystal_size_min          0.100
_refine_diff_density_max         0.173
_refine_diff_density_min         -0.210
_refine_ls_extinction_method     none
_refine_ls_goodness_of_fit_ref   1.029
_refine_ls_hydrogen_treatment    constr
_refine_ls_matrix_type           full
_refine_ls_number_parameters     201
_refine_ls_number_reflns         2992
_refine_ls_number_restraints     0
_refine_ls_restrained_S_all      1.029
_refine_ls_R_factor_all          0.1064
_refine_ls_R_factor_gt           0.0519
_refine_ls_shift/su_max          0.000
_refine_ls_shift/su_mean         0.000
_refine_ls_structure_factor_coef Fsqd
_refine_ls_weighting_details
'w=1/[\s^2^(Fo^2^)+(0.0655P)^2^+0.1923P] where P=(Fo^2^+2Fc^2^)/3'
_refine_ls_weighting_scheme      calc
_refine_ls_wR_factor_gt          0.1241
_refine_ls_wR_factor_ref         0.1561
_reflns_number_gt                1667
_reflns_number_total             2992
_reflns_threshold_expression     'I > 2\s(I)'
_cod_data_source_file            sk3680sup1.cif
_cod_data_source_block           VII
_cod_database_code               2020955
_shelx_space_group_comment
;
The symmetry employed for this shelxl refinement is uniquely defined
by the following loop, which should always be used as a source of
symmetry information in preference to the above space-group names.
They are only intended as comments.
;
_shelx_estimated_absorpt_t_min   0.985
_shelx_estimated_absorpt_t_max   0.990
_shelx_hkl_file
;
  -1   0   0   20.40    0.90
  -1   0   0   16.00    1.20
  -1   0   0   15.30    0.80
   1   0   0   17.60    1.30
   1   0   0   17.50    0.90
   1   0   0   20.70    1.40
   1   0   0   19.50    0.90
  -2   0   0   -0.90    0.90
  -2   0   0    0.10    0.60
  -2   0   0    0.10    0.50
  -2   0   0    0.50    0.60
   2   0   0   -0.70    0.40
   2   0   0   -0.20    0.60
   2   0   0    0.00    0.60
   2   0   0   -1.20    0.40
  -3   0   0    2.00    0.80
  -3   0   0    3.40    1.30
  -3   0   0    4.50    0.90
  -3   0   0    3.50    1.00
   3   0   0    3.00    1.00
   3   0   0    3.20    0.90
   3   0   0    3.10    1.10
   3   0   0    4.20    1.00
   3   0   0    1.70    0.60
  -4   0   0  147.19    8.60
  -4   0   0  154.08    5.90
  -4   0   0  163.48    6.10
  -4   0   0  162.68    8.40
  -4   0   0  158.18    7.80
   4   0   0  153.58    6.00
   4   0   0  165.68    8.60
   4   0   0  155.38    6.10
   4   0   0  151.18    6.30
  -5   0   0   29.50    4.30
  -5   0   0   29.70    2.50
  -5   0   0   31.00    4.10
  -5   0   0   26.00    2.60
   5   0   0   27.00    2.70
   5   0   0   26.20    2.50
   5   0   0   31.20    2.90
   5   0   0   30.40    3.20
  -6   0   0   -0.20    0.60
  -6   0   0   -0.50    1.50
  -6   0   0    1.80    1.30
  -6   0   0   -0.30    1.30
   6   0   0    0.80    1.50
   6   0   0    1.00    1.40
   6   0   0    0.70    1.20
  -7   0   0    1.10    1.40
  -7   0   0   -1.10    1.40
  -7   0   0   -0.20    2.50
   7   0   0    2.60    1.90
   7   0   0    0.70    1.90
   7   0   0    3.50    2.10
  -8   0   0   61.79    7.50
  -8   0   0   84.59    8.80
   8   0   0   73.19    6.00
   8   0   0   79.49    5.30
   8   0   0   59.59    5.30
  -9   0   0    3.80    2.00
  -9   0   0    2.50    3.60
   9   0   0    0.40    2.10
   9   0   0    4.50    2.50
   9  -1   0   -0.90    1.90
   9  -1   0    1.80    1.90
  -9   1   0    2.40    3.40
   8  -1   0   20.60    4.10
   8  -1   0   13.90    3.60
  -8   1   0   11.60    3.90
  -8   1   0    7.20    2.30
   7  -1   0   36.40    3.90
   7  -1   0   42.30    3.50
   7  -1   0   34.90    4.40
  -7   1   0   29.70    5.90
  -7   1   0   47.20    6.50
   6  -1   0   19.00    2.90
   6  -1   0   19.60    3.10
   6  -1   0   17.00    2.40
   6  -1   0   19.10    2.50
  -6   1   0   13.60    3.30
  -6   1   0   17.00    2.20
  -6   1   0   13.70    2.90
   5  -1   0   12.60    1.90
   5  -1   0   13.60    2.40
   5  -1   0   13.00    2.00
   5  -1   0   11.80    2.30
   5  -1   0   16.70    2.90
  -5   1   0    7.30    2.30
  -5   1   0   11.80    1.70
   4  -1   0   94.99    4.80
   4  -1   0  101.59    4.90
   4  -1   0  111.89    5.80
   4  -1   0  102.99    4.20
   4  -1   0  101.69    4.20
  -4   1   0   97.19    6.60
  -4   1   0   99.99    4.10
  -4   1   0  104.49    6.50
  -4   1   0  101.89    4.00
   3  -1   0   17.40    1.40
   3  -1   0   17.20    1.40
   3  -1   0   18.60    1.90
   3  -1   0   18.00    2.20
   3  -1   0   18.50    2.10
  -3   1   0   17.90    1.40
  -3   1   0   21.50    2.70
  -3   1   0   17.20    2.50
  -3   1   0   17.90    1.30
   2  -1   0    0.50    0.80
   2  -1   0    0.80    0.50
   2  -1   0    1.10    0.80
  -2   1   0   -0.40    0.60
  -2   1   0    1.00    0.40
  -2   1   0    1.00    0.50
  -2   1   0   -0.10    0.50
   1  -1   0  238.98    7.20
   1  -1   0  257.07    7.20
   1  -1   0  235.88    8.80
  -1   1   0  266.87    7.20
  -1   1   0  263.07    7.90
  -1   1   0  244.58    7.20
  -1   1   0  235.68    8.80
   0  -1   0   13.40    0.80
   0  -1   0   13.30    0.70
   0   1   0   10.70    0.60
  -1  -1   0   90.99    3.30
  -1  -1   0   91.79    3.30
  -1  -1   0   91.69    4.10
  -1  -1   0   96.39    4.20
  -1  -1   0   90.19    4.60
   1   1   0   87.19    4.60
   1   1   0   87.69    3.30
   1   1   0   94.99    4.10
   1   1   0   85.99    4.00
   1   1   0   93.59    3.30
  -2  -1   0 1642.84   45.80
  -2  -1   0 1510.55   66.19
  -2  -1   0 1664.33   56.39
  -2  -1   0 1363.86   45.70
  -2  -1   0 1551.64   69.19
   2   1   0 1601.34   45.80
   2   1   0 1612.44   45.90
   2   1   0 1657.43   56.39
   2   1   0 1624.94   66.99
   2   1   0 1514.45   68.99
  -3  -1   0    3.20    0.90
  -3  -1   0    1.20    1.20
  -3  -1   0    2.20    0.80
  -3  -1   0    4.00    1.10
  -3  -1   0    1.50    0.40
   3   1   0    3.20    1.10
   3   1   0    2.00    0.70
   3   1   0    3.80    1.00
   3   1   0    3.10    1.00
   3   1   0    3.20    1.20
  -4  -1   0   17.80    1.80
  -4  -1   0   17.10    1.60
  -4  -1   0   18.10    2.00
  -4  -1   0   17.50    2.90
  -4  -1   0   11.60    2.30
   4   1   0   18.80    2.10
   4   1   0   19.30    2.60
   4   1   0   17.70    2.10
   4   1   0   17.40    1.90
  -5  -1   0   -1.50    1.50
  -5  -1   0    1.30    1.20
  -5  -1   0    1.00    1.10
  -5  -1   0    1.00    0.40
   5   1   0    1.10    1.50
   5   1   0    1.00    0.70
   5   1   0    0.90    1.30
   5   1   0    1.30    1.30
  -6  -1   0   -1.70    1.90
  -6  -1   0    0.60    0.20
  -6  -1   0    0.40    1.30
  -6  -1   0   -0.10    1.40
   6   1   0    1.80    1.60
   6   1   0    2.50    1.70
   6   1   0    1.00    0.80
   6   1   0    1.40    1.50
  -7  -1   0   -0.90    2.40
  -7  -1   0   -0.30    1.50
  -7  -1   0   -1.50    1.40
   7   1   0   -2.50    1.50
   7   1   0    1.60    1.80
  -8  -1   0   -1.60    2.80
   8   1   0   -0.70    1.90
   8   1   0    2.70    2.20
  -9  -1   0   -1.70    3.30
  -9  -1   0    2.80    1.90
   9   1   0    1.70    2.60
   9   1   0    0.90    2.10
 -10  -1   0   42.40    6.80
  10   1   0   32.00    5.00
   9  -2   0    0.90    2.10
   9  -2   0    0.80    1.70
  -9   2   0    1.60    3.10
   8  -2   0    5.60    2.80
   8  -2   0    4.60    1.70
   8  -2   0    4.00    2.80
  -8   2   0    0.30    1.80
  -8   2   0    5.50    3.20
   7  -2   0    0.70    2.00
   7  -2   0   -1.00    2.00
   7  -2   0    1.70    1.40
  -7   2   0   -1.00    1.50
  -7   2   0   -0.30    2.40
   6  -2   0  167.08    8.30
   6  -2   0  181.68    8.80
   6  -2   0  176.08    6.80
   6  -2   0  197.08    9.80
  -6   2   0  176.98   11.60
  -6   2   0  181.78   10.00
  -6   2   0  167.78   10.50
  -6   2   0  164.38    6.50
   5  -2   0   70.19    5.10
   5  -2   0   78.89    4.90
   5  -2   0   72.49    5.20
   5  -2   0   73.89    3.50
  -5   2   0   78.09    6.80
  -5   2   0   73.89    6.20
  -5   2   0   73.99    3.30
   4  -2   0   79.99    3.30
   4  -2   0   82.69    5.10
   4  -2   0   78.89    4.70
   4  -2   0   87.39    4.60
  -4   2   0   78.29    3.10
  -4   2   0   78.99    5.70
  -4   2   0   75.59    3.10
  -4   2   0   82.29    6.20
   3  -2   0    0.70    0.50
   3  -2   0    0.80    1.10
   3  -2   0    0.90    0.50
   3  -2   0   -0.30    1.30
   3  -2   0    0.80    1.00
  -3   2   0    1.10    0.40
  -3   2   0    0.00    0.80
  -3   2   0   -0.30    0.60
  -3   2   0    0.80    0.40
   2  -2   0    2.60    1.00
   2  -2   0    2.10    1.10
   2  -2   0    1.40    0.80
   2  -2   0    1.50    0.30
   2  -2   0    1.60    0.40
  -2   2   0    1.50    0.20
  -2   2   0    1.50    0.30
  -2   2   0    1.50    0.90
  -2   2   0    2.40    0.90
   1  -2   0  402.46   11.70
   1  -2   0  414.06   12.70
   1  -2   0  393.46   11.80
  -1   2   0  394.76   11.70
  -1   2   0  392.06   11.70
  -1   2   0  416.16   14.30
  -1   2   0  415.96   12.70
   0  -2   0  144.89    6.00
   0  -2   0  137.89    4.80
   0  -2   0  147.39    4.80
   0   2   0  148.89    4.80
   0   2   0  148.69    6.00
   0   2   0  144.69    4.80
   0   2   0  148.29    7.80
  -1  -2   0   87.79    4.00
  -1  -2   0   84.09    5.00
  -1  -2   0   85.89    3.40
  -1  -2   0   87.79    3.50
  -1  -2   0   80.79    3.20
  -1  -2   0   84.69    4.40
   1   2   0   85.89    5.10
   1   2   0   83.29    3.40
   1   2   0   86.89    3.50
   1   2   0   86.39    4.10
   1   2   0   81.19    3.20
   1   2   0   90.59    4.40
  -2  -2   0 1148.29   46.40
  -2  -2   0 1327.67   37.90
  -2  -2   0 1228.28   47.00
  -2  -2   0 1333.97   38.10
  -2  -2   0 1278.27   43.20
  -2  -2   0 1330.07   55.79
   2   2   0 1315.37   46.60
   2   2   0 1275.37   38.00
   2   2   0 1312.37   53.99
   2   2   0 1290.27   55.79
   2   2   0 1314.67   38.00
  -3  -2   0    0.90    1.20
  -3  -2   0    0.20    0.70
  -3  -2   0    0.80    0.90
  -3  -2   0    0.30    0.40
  -3  -2   0    0.10    0.80
   3   2   0    1.30    1.00
   3   2   0   -0.10    1.00
   3   2   0    0.20    0.60
   3   2   0    0.20    1.00
   3   2   0   -0.10    0.60
  -4  -2   0  183.38    9.40
  -4  -2   0  179.18    8.90
  -4  -2   0  171.58    7.10
  -4  -2   0  185.88    9.70
   4   2   0  186.48    9.70
   4   2   0  174.18    9.10
   4   2   0  177.48    7.20
   4   2   0  178.68    6.60
   4   2   0  178.38    7.20
  -5  -2   0   18.90    1.70
  -5  -2   0   10.70    2.70
  -5  -2   0   19.50    2.60
  -5  -2   0   19.00    3.50
   5   2   0   18.60    2.20
   5   2   0   19.00    2.70
   5   2   0   19.20    3.20
   5   2   0   18.40    2.60
  -6  -2   0   25.10    4.40
  -6  -2   0   18.70    2.90
  -6  -2   0   17.90    3.70
   6   2   0   17.60    2.90
   6   2   0   20.80    3.60
   6   2   0   20.50    3.10
  -7  -2   0    8.70    3.50
  -7  -2   0   11.70    2.60
   7   2   0   13.40    2.90
  -8  -2   0    2.70    1.90
  -8  -2   0    1.50    3.40
  -8  -2   0    1.50    1.60
  -8  -2   0    5.80    2.30
   8   2   0    5.70    2.80
  -9  -2   0    1.00    1.70
  -9  -2   0   -2.20    2.50
   9   2   0    1.10    2.70
 -10  -2   0    4.20    2.10
 -10  -2   0   -0.80    4.10
  10   2   0    0.90    2.80
   8  -3   0    2.60    2.70
   8  -3   0    2.20    2.50
  -8   3   0    0.50    1.60
  -8   3   0    3.00    2.60
   7  -3   0    6.50    1.40
   7  -3   0    5.50    3.60
   7  -3   0    8.60    2.70
   7  -3   0    9.50    3.00
  -7   3   0    1.90    1.80
  -7   3   0    7.20    3.20
   6  -3   0   10.60    2.40
   6  -3   0    6.80    2.70
   6  -3   0    6.10    1.30
   6  -3   0    7.00    1.30
   6  -3   0    9.80    3.00
  -6   3   0    3.00    1.70
  -6   3   0    7.50    2.90
   5  -3   0  112.89    4.20
   5  -3   0  116.09    4.20
   5  -3   0  110.19    6.30
   5  -3   0  114.99    6.30
   5  -3   0  112.39    6.90
  -5   3   0  106.69    3.70
  -5   3   0  120.99    8.90
  -5   3   0  122.89    8.00
  -5   3   0  120.79    8.10
   4  -3   0    0.60    1.50
   4  -3   0    3.10    2.00
   4  -3   0    1.40    0.60
   4  -3   0    2.90    1.50
   4  -3   0    2.20    0.60
  -4   3   0    3.70    1.70
  -4   3   0   -0.10    0.90
   3  -3   0    2.90    0.40
   3  -3   0    1.90    1.50
   3  -3   0    2.90    0.40
   3  -3   0    3.50    1.40
   3  -3   0    4.00    1.30
  -3   3   0    2.00    1.20
  -3   3   0    1.90    1.00
   2  -3   0  176.78    5.50
   2  -3   0  196.88    7.20
   2  -3   0  196.78    6.80
   2  -3   0  171.38    5.40
  -2   3   0  182.68    7.10
  -2   3   0  199.88    8.30
   1  -3   0   43.50    1.80
   1  -3   0   46.90    2.80
   1  -3   0   41.20    2.50
  -1   3   0   46.00    1.80
  -1   3   0   42.20    1.70
  -1   3   0   37.30    2.70
   0  -3   0   14.70    1.30
   0  -3   0   13.60    1.30
   0  -3   0   14.10    1.50
   0   3   0   14.10    1.20
   0   3   0   10.00    2.40
   0   3   0   14.60    1.50
   0   3   0   15.00    1.20
  -1  -3   0  536.35   16.40
  -1  -3   0  541.45   16.30
  -1  -3   0  528.65   19.90
   1   3   0  515.95   16.20
   1   3   0  517.15   19.90
   1   3   0  506.45   17.70
   1   3   0  549.74   20.30
   1   3   0  554.14   16.40
   1   3   0  500.25   24.50
  -2  -3   0    9.60    1.90
  -2  -3   0   10.30    1.60
  -2  -3   0   12.50    1.80
  -2  -3   0   13.20    1.30
  -2  -3   0   11.30    1.80
   2   3   0   11.20    2.30
   2   3   0   15.30    2.10
   2   3   0   11.80    2.40
   2   3   0   12.60    1.70
   2   3   0   12.60    1.70
  -3  -3   0  235.98    8.80
  -3  -3   0  225.88   10.50
  -3  -3   0  230.98   11.80
  -3  -3   0  243.38    8.60
  -3  -3   0  233.18   10.90
  -3  -3   0  242.68    9.20
   3   3   0  224.08    8.60
   3   3   0  229.08    8.70
   3   3   0  239.08   10.80
   3   3   0  239.58   11.90
   3   3   0  229.98   12.00
  -4  -3   0    6.50    1.20
  -4  -3   0    8.10    2.00
  -4  -3   0    8.30    2.00
   4   3   0    8.00    1.80
   4   3   0    4.50    1.30
   4   3   0    5.20    1.40
   4   3   0    8.40    1.90
  -5  -3   0    1.40    1.60
  -5  -3   0    0.80    1.60
  -5  -3   0    0.10    1.00
   5   3   0   -0.40    1.00
   5   3   0    0.80    1.10
   5   3   0    1.70    1.60
  -6  -3   0   63.69    4.80
  -6  -3   0   70.29    5.40
  -6  -3   0   70.19    7.10
   6   3   0   68.69    5.00
   6   3   0   58.29    5.80
  -7  -3   0    4.20    2.70
  -7  -3   0    7.00    2.50
  -7  -3   0    4.00    1.70
   7   3   0    5.10    2.60
  -8  -3   0    0.60    1.50
  -8  -3   0    2.40    2.20
  -8  -3   0   -0.10    2.50
   8   3   0    0.40    2.30
  -9  -3   0    1.60    4.10
  -9  -3   0    3.70    2.10
   9   3   0    0.70    2.50
 -10  -3   0    3.60    2.00
 -10  -3   0   -7.50    3.70
  10   3   0   -2.10    2.60
   8  -4   0    7.20    4.40
   8  -4   0    5.30    3.10
  -8   4   0    3.80    2.20
  -8   4   0    5.00    3.30
   7  -4   0   -0.40    2.00
   7  -4   0   -2.60    3.10
  -7   4   0    2.10    1.50
  -7   4   0   -0.70    1.90
   6  -4   0    1.30    2.30
   6  -4   0    2.10    1.80
   6  -4   0    2.20    2.10
  -6   4   0   -0.20    1.50
  -6   4   0    3.10    1.70
  -6   4   0    2.80    1.20
   5  -4   0   11.20    2.80
   5  -4   0   11.80    3.20
   5  -4   0   11.10    2.60
  -5   4   0   19.50    4.50
  -5   4   0    8.70    2.10
  -5   4   0   12.10    3.00
   4  -4   0  125.29    6.30
   4  -4   0  113.79    6.30
  -4   4   0  129.49    8.90
  -4   4   0  123.99    9.20
   3  -4   0  154.58    6.60
   3  -4   0  157.08    7.20
  -3   4   0  152.48    7.00
  -3   4   0  157.38   10.10
   2  -4   0   29.30    2.30
   2  -4   0   29.00    2.50
   2  -4   0   29.50    3.00
   2  -4   0   27.30    1.20
   2  -4   0   26.40    1.20
  -2   4   0   32.00    4.00
  -2   4   0   31.40    3.00
   1  -4   0  328.07   11.90
   1  -4   0  350.16   10.70
   1  -4   0  363.36   11.60
   1  -4   0  346.37   10.70
  -1   4   0  351.36   10.60
  -1   4   0  319.27   13.20
  -1   4   0  347.67   10.50
  -1   4   0  343.87   17.90
  -1   4   0  346.87   14.10
   0  -4   0  431.66   14.10
   0  -4   0  451.15   14.00
   0   4   0  462.05   17.60
   0   4   0  453.05   22.40
   0   4   0  455.35   14.00
   0   4   0  453.05   14.00
  -1  -4   0    2.50    0.70
  -1  -4   0    3.90    1.20
  -1  -4   0    4.00    1.10
   1   4   0    2.90    1.30
   1   4   0    5.90    1.20
   1   4   0    4.50    1.10
   1   4   0    2.00    0.40
   1   4   0    2.10    0.70
   1   4   0    1.80    1.00
  -2  -4   0    2.40    1.10
  -2  -4   0    0.70    1.20
  -2  -4   0    0.80    0.40
  -2  -4   0    0.50    0.60
  -2  -4   0    1.70    1.50
   2   4   0    2.30    1.20
   2   4   0    2.80    1.10
   2   4   0    1.30    0.80
   2   4   0    1.70    1.10
   2   4   0    1.00    1.20
  -3  -4   0  525.35   21.70
  -3  -4   0  533.75   17.70
  -3  -4   0  545.15   17.50
  -3  -4   0  541.35   21.40
  -3  -4   0  540.45   18.80
   3   4   0  539.45   25.70
   3   4   0  512.35   17.50
  -4  -4   0   43.10    3.40
  -4  -4   0   48.90    5.10
  -4  -4   0   49.50    3.50
   4   4   0   44.40    3.60
   4   4   0   41.90    4.60
   4   4   0   42.90    5.00
  -5  -4   0    4.50    1.30
  -5  -4   0    8.10    2.80
  -5  -4   0    8.80    2.30
   5   4   0    4.70    1.90
   5   4   0   10.00    2.40
   5   4   0    5.30    1.60
  -6  -4   0    0.20    1.10
  -6  -4   0   -0.30    2.00
  -6  -4   0   -1.90    1.80
   6   4   0   -0.50    1.40
   6   4   0   -1.20    1.30
  -7  -4   0   20.00    3.70
  -7  -4   0   27.00    4.10
  -7  -4   0   12.60    4.10
   7   4   0   20.00    3.70
  -8  -4   0   10.10    2.50
  -8  -4   0    7.40    3.50
  -8  -4   0   13.50    3.30
   8   4   0   10.20    3.40
  -9  -4   0    3.10    1.80
  -9  -4   0    3.60    2.60
  -9  -4   0    0.10    4.00
   9   4   0   -1.90    2.50
 -10  -4   0   -9.50    3.90
 -10  -4   0    1.90    1.80
  10   4   0    1.30    3.10
   7  -5   0   -1.60    3.40
   7  -5   0   -0.10    2.30
  -7   5   0    3.80    1.90
  -7   5   0    1.90    1.90
   6  -5   0    8.70    2.90
   6  -5   0    6.30    3.60
  -6   5   0    6.70    2.30
  -6   5   0   10.60    3.10
   5  -5   0   -1.50    1.80
   5  -5   0   -1.70    1.40
  -5   5   0    1.20    1.30
  -5   5   0   -0.30    1.20
  -5   5   0    3.10    1.90
   4  -5   0   25.50    3.10
   4  -5   0   30.40    4.40
  -4   5   0   30.50    4.90
  -4   5   0   38.10    5.60
   3  -5   0   25.70    2.60
   3  -5   0   23.60    3.60
  -3   5   0   20.80    4.40
   2  -5   0   18.80    2.60
   2  -5   0   19.90    1.30
   2  -5   0   21.60    3.20
   2  -5   0   20.30    1.20
   2  -5   0   22.20    2.30
  -2   5   0   21.60    2.80
  -2   5   0   22.30    4.20
   1  -5   0   23.30    2.00
   1  -5   0   21.90    2.30
   1  -5   0   20.90    2.80
   1  -5   0   23.80    1.90
  -1   5   0   27.00    2.60
  -1   5   0   22.10    1.50
  -1   5   0   21.40    1.60
  -1   5   0   23.80    2.80
  -1   5   0   25.50    4.20
   0  -5   0  220.68    7.60
   0  -5   0  218.88    7.80
   0   5   0  196.28   12.60
   0   5   0  206.18    7.50
   0   5   0  230.98    9.60
   0   5   0  220.98    7.60
  -1  -5   0   86.89    4.80
  -1  -5   0   84.09    4.30
  -1  -5   0   88.19    4.20
   1   5   0   85.09    4.90
   1   5   0   81.89    3.50
   1   5   0   88.39    4.20
   1   5   0   86.49    7.20
  -2  -5   0   30.60    3.00
  -2  -5   0   31.60    2.60
  -2  -5   0   33.40    2.90
   2   5   0   30.30    2.60
   2   5   0   34.40    4.80
   2   5   0   37.30    3.50
  -3  -5   0    7.10    2.10
  -3  -5   0   11.30    1.70
  -3  -5   0   11.80    2.30
  -3  -5   0    7.40    1.50
  -3  -5   0   14.30    2.20
   3   5   0    8.30    2.00
   3   5   0   15.70    3.00
   3   5   0   14.80    2.40
  -4  -5   0    0.40    0.70
  -4  -5   0    0.80    1.70
  -4  -5   0    0.40    2.00
   4   5   0    0.10    1.60
   4   5   0    0.60    1.20
  -5  -5   0    5.00    2.30
  -5  -5   0    2.70    2.50
  -5  -5   0    3.30    1.10
   5   5   0    2.70    2.00
   5   5   0    2.70    1.60
  -6  -5   0    0.60    1.10
  -6  -5   0    2.40    2.50
  -6  -5   0    0.70    2.30
   6   5   0   -0.30    1.60
   6   5   0    1.50    1.80
  -7  -5   0    1.00    3.10
  -7  -5   0    4.30    1.60
  -7  -5   0    7.10    2.80
   7   5   0   -0.20    1.80
   7   5   0    4.70    2.70
  -8  -5   0    7.50    2.10
  -8  -5   0   12.90    3.50
  -8  -5   0   11.70    4.00
   8   5   0   13.40    3.70
  -9  -5   0    2.90    2.80
  -9  -5   0    1.40    1.80
  -9  -5   0   -4.70    3.60
   9   5   0    3.30    3.20
   7  -6   0    2.80    4.10
   7  -6   0    4.60    2.90
   6  -6   0    1.40    2.30
   6  -6   0    4.00    3.60
  -6   6   0    5.30    2.00
  -6   6   0    7.10    2.90
   5  -6   0    2.20    2.40
   5  -6   0    1.30    1.70
  -5   6   0    2.50    1.60
   4  -6   0   -0.30    1.50
   4  -6   0   -4.70    2.20
  -4   6   0    1.10    1.20
  -4   6   0    0.40    1.40
   3  -6   0    8.40    3.10
   3  -6   0   11.30    2.30
  -3   6   0    4.80    1.40
  -3   6   0    7.40    2.50
   2  -6   0    0.40    0.80
   2  -6   0   -0.70    0.60
   2  -6   0    0.70    1.60
   2  -6   0   -0.60    0.90
   2  -6   0   -2.70    1.40
  -2   6   0    0.50    1.20
  -2   6   0    0.00    0.30
  -2   6   0    0.00    0.20
  -2   6   0   -0.10    0.70
   1  -6   0   20.60    2.70
   1  -6   0   21.10    2.80
   1  -6   0   21.40    2.10
   1  -6   0   22.30    2.00
  -1   6   0   21.00    2.70
  -1   6   0   20.40    1.60
  -1   6   0   24.20    4.90
   0  -6   0    3.90    2.10
   0  -6   0    5.30    1.30
   0   6   0    1.50    1.30
   0   6   0    2.90    1.10
   0   6   0    2.40    0.80
  -1  -6   0    6.60    1.60
  -1  -6   0    3.40    0.90
  -1  -6   0    5.90    1.70
   1   6   0    4.40    1.00
   1   6   0    2.60    1.70
   1   6   0    2.90    0.60
   1   6   0    7.30    1.60
  -2  -6   0   12.90    2.10
  -2  -6   0   12.80    2.30
  -2  -6   0   11.30    2.20
   2   6   0    7.10    1.50
   2   6   0   12.90    2.20
   2   6   0    8.20    2.40
  -3  -6   0   17.70    2.60
   3   6   0   25.20    3.00
   3   6   0   29.70    4.20
   3   6   0   21.20    5.00
  -4  -6   0   16.20    3.50
  -4  -6   0   17.30    2.20
  -4  -6   0   15.80    2.90
   4   6   0   17.00    2.60
   4   6   0   10.90    2.70
  -5  -6   0    8.10    3.20
  -5  -6   0    5.70    1.30
  -5  -6   0    8.20    2.70
   5   6   0    9.40    2.70
   5   6   0    6.60    2.30
  -6  -6   0    2.10    2.50
  -6  -6   0   -0.20    1.00
  -6  -6   0   -0.50    2.80
   6   6   0   -0.90    1.60
   6   6   0    3.70    2.40
  -7  -6   0    2.00    2.10
  -7  -6   0    1.30    1.30
  -7  -6   0   -0.20    2.50
   7   6   0    1.10    2.50
  -8  -6   0   -3.80    3.00
  -8  -6   0    0.70    2.10
  -8  -6   0    0.90    1.50
   8   6   0    3.20    3.00
  -9  -6   0   -7.60    3.50
  -9  -6   0    2.20    3.10
  -9  -6   0    2.30    1.80
   9   6   0    0.60    3.00
  -6   7   0   54.69    7.00
  -6   7   0   45.60    5.60
  -6   7   0   68.99    6.80
   5  -7   0    2.20    3.30
   5  -7   0   -3.20    1.50
  -5   7   0    3.10    1.50
  -5   7   0    1.10    1.10
   4  -7   0    2.70    1.90
   4  -7   0    1.50    2.40
  -4   7   0    2.10    1.20
  -4   7   0    3.80    1.90
  -4   7   0    3.20    1.50
   3  -7   0   17.00    3.50
   3  -7   0   12.70    2.50
  -3   7   0   19.60    3.10
  -3   7   0   13.30    3.40
   2  -7   0   47.80    4.60
   2  -7   0   42.70    2.20
   2  -7   0   45.10    2.40
   2  -7   0   38.90    4.20
   2  -7   0   41.70    3.30
  -2   7   0   42.50    4.10
  -2   7   0   51.19    7.00
   1  -7   0    7.50    2.80
   1  -7   0    6.60    1.50
   1  -7   0    6.70    1.60
   1  -7   0    7.00    2.30
  -1   7   0    6.00    1.10
  -1   7   0    4.20    1.20
  -1   7   0    1.40    2.10
   0  -7   0   29.30    2.00
   0  -7   0   25.50    4.00
   0  -7   0   30.90    2.70
   0   7   0   34.00    6.40
   0   7   0   27.20    2.70
   0   7   0   33.30    3.40
   0   7   0   29.10    2.50
  -1  -7   0    1.40    0.80
  -1  -7   0    3.00    1.80
  -1  -7   0    1.30    1.40
   1   7   0    1.50    2.00
   1   7   0    1.10    0.50
   1   7   0    1.80    1.00
   1   7   0    1.80    1.30
  -2  -7   0   49.99    3.80
  -2  -7   0   52.29    4.20
   2   7   0   55.39    4.90
   2   7   0   54.89    4.00
   2   7   0   55.29    7.60
  -3  -7   0   -0.30    1.80
   3   7   0   -0.10    1.90
   3   7   0    0.00    1.60
   3   7   0   -0.10    1.20
  -4  -7   0   22.00    3.60
   4   7   0   22.10    3.50
   4   7   0   13.00    3.30
  -5  -7   0    1.30    0.90
  -5  -7   0    0.80    2.80
  -5  -7   0    4.60    2.10
   5   7   0    3.20    2.40
   5   7   0    1.50    2.20
  -6  -7   0    8.90    3.20
  -6  -7   0    2.90    2.60
  -6  -7   0    3.20    1.20
   6   7   0    2.20    2.30
   6   7   0    6.50    2.90
  -7  -7   0   -0.40    3.40
  -7  -7   0    1.50    2.60
   7   7   0    0.60    2.50
   7   7   0   -2.30    2.00
  -8  -7   0    0.60    2.90
  -8  -7   0    3.30    4.00
   8   7   0    0.40    2.90
  -9  -7   0   -0.30    2.90
  -9  -7   0   -5.80    3.80
   9   7   0    0.20    3.20
   4  -8   0    8.60    3.80
   4  -8   0    1.60    1.90
  -4   8   0    5.10    1.40
   3  -8   0    8.30    2.30
   3  -8   0   13.00    3.50
  -3   8   0   23.90    5.70
  -3   8   0   16.60    3.20
   2  -8   0    3.70    2.40
   2  -8   0    1.40    1.00
   2  -8   0    1.60    1.40
   2  -8   0    2.10    2.90
  -2   8   0    2.00    1.80
  -2   8   0    1.20    1.00
   1  -8   0   12.40    2.00
   1  -8   0   11.10    2.90
   1  -8   0    8.30    1.80
   1  -8   0    9.90    2.80
  -1   8   0    7.90    2.80
  -1   8   0    6.70    1.50
   0  -8   0   55.69    5.30
   0  -8   0   54.99    4.90
   0  -8   0   58.89    4.20
   0   8   0   51.29    4.40
   0   8   0   51.89    8.40
   1   8   0    1.60    1.20
   1   8   0    3.00    2.50
   1   8   0    5.20    1.80
  -2  -8   0   39.70    4.10
  -2  -8   0   39.10    3.60
   2   8   0   38.30    6.60
   2   8   0   35.80    4.70
   2   8   0   37.00    3.60
  -3  -8   0    7.00    2.60
   3   8   0    7.00    2.40
   3   8   0    4.60    2.50
   3   8   0    2.50    1.60
  -4  -8   0   25.20    4.00
   4   8   0   18.00    4.30
   4   8   0   29.00    4.00
  -5  -8   0    2.50    2.60
   5   8   0    1.70    1.80
   5   8   0    0.20    2.30
  -6  -8   0    9.90    3.40
  -6  -8   0    6.50    3.80
   6   8   0   15.90    3.70
   6   8   0    3.30    2.90
  -7  -8   0    6.30    3.00
  -7  -8   0    1.60    3.60
   7   8   0   -0.40    2.30
   7   8   0    6.80    2.90
  -8  -8   0   -0.10    3.10
  -8  -8   0    1.30    3.00
   8   8   0    1.50    3.10
  -4   9   0   36.80    6.30
   3  -9   0    2.30    3.40
   3  -9   0   -1.70    1.60
  -3   9   0    3.50    2.30
   2  -9   0   -1.20    2.10
   2  -9   0   -3.00    2.70
  -2   9   0    1.70    2.20
   1  -9   0    4.50    1.80
   1  -9   0    0.90    2.20
   1  -9   0    3.70    2.70
  -1   9   0    0.50    2.10
   0  -9   0   -1.60    1.90
   0  -9   0    5.40    2.50
   0  -9   0    0.80    1.80
   0   9   0   -0.90    1.00
   0   9   0    0.90    1.90
  -1  -9   0   -2.80    2.50
  -1  -9   0    1.00    1.90
   1   9   0   -1.90    1.00
   1   9   0   -0.80    2.30
   2   9   0    2.80    1.90
   2   9   0   -0.20    1.90
   2   9   0   -2.10    1.20
  -3  -9   0    0.60    2.10
   3   9   0    0.10    2.60
   3   9   0   -1.20    1.60
   3   9   0   -2.20    1.30
  -4  -9   0   -0.80    2.00
   4   9   0    1.10    2.70
   4   9   0   -1.10    2.10
  -5  -9   0    2.90    2.80
   5   9   0    4.70    2.70
   5   9   0    1.50    3.10
  -6  -9   0    0.10    2.60
   6   9   0   -1.10    2.80
   6   9   0    0.70    2.50
  -7  -9   0   -4.30    3.40
  -7  -9   0   -2.00    2.60
   7   9   0   -0.20    2.70
   3 -10   0   -0.10    3.50
   2 -10   0    7.00    4.00
  -2  10   0    1.80    2.50
   1 -10   0   -1.20    1.40
   1 -10   0   -1.80    2.10
   1 -10   0    0.60    2.40
  -1  10   0    2.40    2.40
   0 -10   0    5.30    3.40
   0 -10   0    3.20    2.30
   0 -10   0    6.60    2.80
   0  10   0    7.20    3.50
  -1 -10   0    5.10    2.70
  -1 -10   0    2.80    3.10
  -1 -10   0    5.10    2.60
   1  10   0    4.70    2.80
   2  10   0   -0.90    1.70
   3  10   0    0.80    3.20
  -4 -10   0    3.70    3.00
   4  10   0    0.40    3.00
  -5 -10   0   -1.10    2.60
   5  10   0   -1.00    3.20
   5  10   0   -0.80    2.50
  -6 -10   0    1.90    3.30
   6  10   0    2.30    2.80
   6  10   0   -0.60    3.30
   0 -11   0   -0.50    2.00
   0 -11   0    3.60    3.80
   0  11   0    3.20    3.00
  -1 -11   0    3.90    2.70
  -1 -11   0    9.20    4.20
   1  11   0    5.30    3.10
  -2 -11   0   -1.00    2.70
  -2 -11   0   -0.40    3.50
   2  11   0    2.20    2.50
   3  11   0    1.90    3.20
   4  11   0   -0.20    3.00
   5  11   0    1.70    3.50
   3  11  -1    2.60    3.50
  -3 -11   1   -0.50    2.90
   2  11  -1    2.70    3.50
  -2 -11   1   -0.20    2.80
  -2 -11   1    0.40    3.60
   1  11  -1    5.60    3.40
  -1 -11   1    1.00    2.80
  -1 -11   1    2.30    3.70
   6  10  -1   -1.30    3.90
   6  10  -1    2.20    3.00
   5  10  -1    1.60    2.60
   5  10  -1   -3.20    3.40
   4  10  -1    1.90    3.10
   3  10  -1    6.90    4.30
  -3 -10   1   14.20    4.00
   2  10  -1    2.90    3.40
  -2 -10   1    1.50    2.60
   1  10  -1    9.10    4.00
  -1 -10   1    9.50    3.90
  -1 -10   1    7.40    2.80
   0  10  -1    1.90    2.30
   0 -10   1    5.70    2.80
   0 -10   1    3.30    2.70
   0 -10   1    1.10    2.20
  -1  10  -1    2.00    3.00
   1 -10   1   -2.60    3.00
   1 -10   1    1.10    1.90
   1 -10   1    1.30    2.50
  -2  10  -1    2.50    2.90
   2 -10   1    4.30    3.60
   7   9  -1    1.00    2.50
  -7  -9   1    0.40    3.10
   6   9  -1   -0.40    2.50
   6   9  -1   -1.70    3.10
  -6  -9   1    2.90    3.20
   5   9  -1    1.40    3.30
   5   9  -1    2.30    2.50
  -5  -9   1    2.10    2.80
   4   9  -1   -1.80    2.80
   4   9  -1    3.00    2.50
   3   9  -1    2.60    3.20
   3   9  -1    1.20    2.00
   2   9  -1    2.20    2.40
  -2  -9   1   -0.80    2.20
   1   9  -1   -1.60    2.10
  -1  -9   1   -2.20    1.70
  -1  -9   1    0.20    2.00
   0   9  -1   35.20    7.00
   0  -9   1   32.10    3.90
   0  -9   1   35.00    5.00
   0  -9   1   26.30    4.20
  -1   9  -1    9.70    3.60
   1  -9   1    8.10    3.00
   1  -9   1    9.30    3.50
   1  -9   1    9.40    2.30
  -2   9  -1    3.20    2.70
   2  -9   1   -2.20    1.20
   2  -9   1   -1.10    2.00
   2  -9   1    0.00    2.20
  -3   9  -1    2.60    2.50
   3  -9   1   -2.20    3.20
   8   8  -1    2.70    3.50
  -8  -8   1   -1.10    3.10
  -8  -8   1   -3.90    3.90
   7   8  -1    1.90    3.00
  -7  -8   1   -2.70    3.40
  -7  -8   1    1.20    3.10
   6   8  -1   -1.80    2.30
   6   8  -1   -1.30    2.90
  -6  -8   1    1.80    3.50
  -6  -8   1    2.70    2.90
   5   8  -1    3.60    2.60
   5   8  -1    0.20    2.70
  -5  -8   1    2.80    2.70
   4   8  -1    0.50    2.60
   4   8  -1    0.90    2.10
  -4  -8   1   -0.30    1.60
   3   8  -1    1.90    2.70
   3   8  -1   -0.90    2.10
   2   8  -1    1.60    2.00
   2   8  -1    0.90    2.60
   2   8  -1    0.70    1.30
   1   8  -1    4.50    1.40
   1   8  -1    7.10    2.90
   1   8  -1   12.50    2.40
  -1  -8   1   13.40    2.90
   0   8  -1   -0.60    1.60
   0   8  -1   -1.40    0.70
   0  -8   1    0.80    2.10
   0  -8   1   -0.90    2.40
   0  -8   1    1.50    1.90
  -1   8  -1   33.00    3.50
  -1   8  -1   36.30    7.50
   1  -8   1   30.80    4.10
   1  -8   1   35.80    3.40
   1  -8   1   35.40    4.80
  -2   8  -1   25.40    5.60
   2  -8   1   17.60    4.00
   2  -8   1   21.60    3.90
   2  -8   1   23.00    2.50
  -3   8  -1    3.70    2.60
   3  -8   1    1.50    3.00
  -4   8  -1    4.00    1.60
  -4   8  -1    3.20    1.90
   4  -8   1    4.20    3.50
  -5   8  -1   33.40    6.10
  -5   8  -1   49.10    6.60
   8   7  -1    4.10    3.30
  -8  -7   1   -0.80    4.00
  -8  -7   1    5.50    3.40
   7   7  -1    0.70    2.80
  -7  -7   1   -0.60    2.70
  -7  -7   1   -1.50    3.30
   6   7  -1    2.50    2.60
   6   7  -1    9.90    3.30
  -6  -7   1    5.00    3.10
  -6  -7   1    4.10    3.60
  -6  -7   1    4.40    1.50
   5   7  -1    1.50    2.40
   5   7  -1    4.70    2.60
  -5  -7   1    4.40    2.70
  -5  -7   1    2.80    3.10
  -5  -7   1    0.40    1.10
   4   7  -1   -0.40    1.50
   4   7  -1    2.50    2.10
  -4  -7   1    3.40    2.30
   3   7  -1   47.40    4.30
   3   7  -1   49.70    8.00
  -3  -7   1   34.60    4.20
   2   7  -1    1.60    0.50
   2   7  -1   -0.70    1.60
   2   7  -1    1.00    1.20
   2   7  -1    1.50    1.70
  -2  -7   1    1.00    0.80
   1   7  -1   40.20    3.40
   1   7  -1   39.90    7.10
   1   7  -1   42.30    3.90
  -1  -7   1   38.90    3.50
   0   7  -1   -0.70    0.70
   0   7  -1   -0.20    1.40
   0   7  -1    0.40    0.70
   0   7  -1    1.10    1.20
   0  -7   1    0.80    1.30
   0  -7   1    1.60    1.80
   0  -7   1   -0.20    1.70
  -1   7  -1    4.90    1.10
  -1   7  -1    2.10    2.30
  -1   7  -1    7.40    1.40
   1  -7   1    5.40    1.40
   1  -7   1   10.40    2.00
   1  -7   1    7.60    2.30
   1  -7   1    7.90    2.80
  -2   7  -1   -0.70    0.60
  -2   7  -1    1.10    1.40
   2  -7   1    0.80    1.80
   2  -7   1    0.40    1.30
   2  -7   1   -0.80    1.70
   2  -7   1   -1.70    1.10
  -3   7  -1   46.50    7.00
  -3   7  -1   41.00    4.10
   3  -7   1   35.90    1.70
   3  -7   1   38.20    3.50
   3  -7   1   42.10    4.60
  -4   7  -1    3.40    1.20
  -4   7  -1    5.80    2.10
  -4   7  -1    3.20    2.10
   4  -7   1    2.60    3.10
   4  -7   1    2.60    2.00
  -5   7  -1    4.90    2.00
  -5   7  -1    2.00    1.00
   5  -7   1    5.50    3.60
  -6   7  -1   35.60    6.00
  -6   7  -1   45.20    6.00
   9   6  -1   -1.60    3.00
  -9  -6   1   -7.80    3.90
  -9  -6   1    0.90    3.20
   8   6  -1    4.70    3.40
  -8  -6   1    0.10    2.70
  -8  -6   1    1.60    1.60
  -8  -6   1   -2.50    2.60
   7   6  -1    0.70    2.70
  -7  -6   1    0.70    2.10
  -7  -6   1    0.80    1.40
  -7  -6   1    1.80    3.40
   6   6  -1    9.40    2.90
   6   6  -1   23.10    4.10
  -6  -6   1   15.10    3.60
  -6  -6   1   14.30    4.20
  -6  -6   1   21.00    3.80
   5   6  -1   74.09    5.70
   5   6  -1   80.79    8.50
  -5  -6   1   77.99    8.00
  -5  -6   1   73.99    5.90
  -5  -6   1   70.09    5.10
   4   6  -1   55.69    4.70
   4   6  -1   60.79    7.60
  -4  -6   1   59.39    5.00
  -4  -6   1   60.59    6.90
  -4  -6   1   58.69    4.10
   3   6  -1    1.60    2.00
   3   6  -1    3.10    1.80
  -3  -6   1    1.90    1.10
  -3  -6   1    4.20    2.00
  -3  -6   1    2.40    0.90
   2   6  -1   -1.10    1.30
   2   6  -1    1.10    1.00
   2   6  -1   -0.20    1.10
   2   6  -1    0.10    0.40
  -2  -6   1   -0.30    1.60
  -2  -6   1    0.30    0.70
  -2  -6   1   -0.80    1.20
   1   6  -1   98.29    5.50
   1   6  -1   92.79    4.50
   1   6  -1   98.19    4.90
   1   6  -1   89.59    8.30
  -1  -6   1  101.09    5.00
   0   6  -1    2.20    1.80
   0   6  -1    2.80    0.90
   0   6  -1    2.40    0.80
   0   6  -1    4.20    1.20
   0  -6   1    5.00    1.70
   0  -6   1    4.80    1.50
  -1   6  -1   12.10    2.00
  -1   6  -1    7.40    2.50
  -1   6  -1   12.50    1.60
   1  -6   1    9.40    2.70
   1  -6   1   10.90    1.80
   1  -6   1   10.70    1.60
   1  -6   1    8.40    1.40
   1  -6   1   12.10    2.40
  -2   6  -1   28.00    1.90
  -2   6  -1   24.00    2.90
  -2   6  -1   19.50    4.40
   2  -6   1   24.90    2.00
   2  -6   1   26.00    3.30
   2  -6   1   26.20    2.40
   2  -6   1   22.50    3.70
   2  -6   1   27.20    2.30
  -3   6  -1    0.50    0.80
  -3   6  -1    1.40    1.30
   3  -6   1    0.40    2.30
   3  -6   1    0.10    0.60
   3  -6   1    0.80    0.70
   3  -6   1   -0.60    1.10
  -4   6  -1    4.50    2.10
  -4   6  -1    3.40    1.70
   4  -6   1    5.30    2.10
   4  -6   1    7.30    3.10
  -5   6  -1    5.00    1.90
  -5   6  -1    4.60    1.90
   5  -6   1    1.10    2.00
   5  -6   1    1.30    2.30
  -6   6  -1    4.70    1.80
  -6   6  -1    3.60    1.80
   6  -6   1    2.70    3.30
  -7   6  -1   33.80    5.70
  -7   6  -1   43.10    6.80
   9   5  -1    4.40    3.40
  -9  -5   1   -2.30    2.80
  -9  -5   1   -4.00    4.00
  -9  -5   1    2.60    1.90
   8   5  -1    1.40    2.80
  -8  -5   1   -0.10    1.50
  -8  -5   1    0.70    2.60
  -8  -5   1   -0.50    2.80
   7   5  -1    0.60    2.00
  -7  -5   1   -2.90    2.90
  -7  -5   1    0.30    2.40
  -7  -5   1    0.30    1.40
   6   5  -1   11.50    3.10
   6   5  -1    3.80    2.30
  -6  -5   1   15.50    3.40
  -6  -5   1    6.50    1.70
  -6  -5   1   11.70    3.40
   5   5  -1    0.60    2.00
   5   5  -1    2.20    1.80
  -5  -5   1    1.90    2.20
  -5  -5   1    1.90    2.20
  -5  -5   1    0.60    1.10
   4   5  -1    3.60    2.10
   4   5  -1    3.50    1.80
  -4  -5   1    2.90    1.00
  -4  -5   1    7.60    2.40
  -4  -5   1    5.40    2.70
   3   5  -1   21.00    2.90
  -3  -5   1   14.00    3.10
  -3  -5   1   21.50    3.00
  -3  -5   1   19.50    3.00
  -3  -5   1   20.10    2.40
   2   5  -1    0.60    0.40
   2   5  -1    1.70    1.10
   2   5  -1    0.80    1.50
   2   5  -1    1.40    0.90
  -2  -5   1    1.20    1.20
  -2  -5   1    0.90    0.70
  -2  -5   1    0.00    0.60
  -2  -5   1    0.70    1.40
   1   5  -1   41.10    5.30
   1   5  -1   34.90    3.00
   1   5  -1   39.70    2.90
   1   5  -1   37.50    2.40
  -1  -5   1   36.90    3.00
  -1  -5   1   35.90    2.80
  -1  -5   1   37.20    2.90
   0   5  -1   64.69    6.40
   0   5  -1   72.39    4.60
   0   5  -1   71.09    3.90
   0   5  -1   70.29    4.00
   0   5  -1   75.89    3.70
   0  -5   1   74.79    3.80
   0  -5   1   71.19    3.90
  -1   5  -1   92.39    8.00
  -1   5  -1   92.69    5.60
  -1   5  -1   93.79    4.90
  -1   5  -1   88.59    3.90
   1  -5   1   91.49    5.00
   1  -5   1   88.59    5.10
   1  -5   1   94.89    3.80
   1  -5   1   92.29    4.30
   1  -5   1   94.89    4.10
  -2   5  -1   12.10    1.20
  -2   5  -1   12.60    2.10
  -2   5  -1    6.60    1.90
  -2   5  -1   10.10    1.20
   2  -5   1   10.80    1.70
   2  -5   1   10.50    1.70
   2  -5   1    9.90    1.30
   2  -5   1   13.10    2.40
   2  -5   1   10.10    2.30
  -3   5  -1    4.60    1.80
   3  -5   1    8.70    1.10
   3  -5   1   11.10    2.90
   3  -5   1    8.90    1.90
   3  -5   1    8.00    1.00
  -4   5  -1  145.59   10.70
  -4   5  -1  129.49   10.10
   4  -5   1  115.69    6.80
   4  -5   1  121.89    6.30
  -5   5  -1   34.10    5.20
  -5   5  -1   34.80    5.90
   5  -5   1   26.30    3.40
   5  -5   1   34.00    4.70
  -6   5  -1    9.30    3.00
  -6   5  -1    5.50    2.30
   6  -5   1    3.80    2.50
   6  -5   1    5.70    2.80
  -7   5  -1    8.70    3.00
  -7   5  -1    8.20    2.50
   7  -5   1    3.30    3.70
   9   4  -1   -2.10    2.50
  -9  -4   1   -3.30    3.70
  -9  -4   1    0.30    1.60
   8   4  -1    5.40    3.10
  -8  -4   1    4.70    2.70
  -8  -4   1    1.60    3.70
  -8  -4   1    3.70    1.90
   7   4  -1    0.80    1.70
   7   4  -1    6.20    3.00
  -7  -4   1    5.00    3.60
  -7  -4   1    4.10    1.70
  -7  -4   1    8.20    2.80
   6   4  -1    5.10    2.50
   6   4  -1    1.50    1.90
  -6  -4   1    2.50    1.50
  -6  -4   1    1.40    2.80
  -6  -4   1    3.90    2.40
   5   4  -1    0.50    1.30
   5   4  -1    1.10    1.60
   5   4  -1    3.40    2.00
  -5  -4   1    2.80    0.90
  -5  -4   1    1.30    1.00
  -5  -4   1    2.30    2.00
  -5  -4   1    1.30    2.00
   4   4  -1    0.60    1.10
   4   4  -1    3.00    1.50
   4   4  -1    1.90    1.70
  -4  -4   1    1.40    0.80
  -4  -4   1    1.00    0.90
  -4  -4   1    0.90    1.70
  -4  -4   1    3.30    2.20
   3   4  -1    1.20    1.20
   3   4  -1    0.30    1.10
  -3  -4   1    0.50    0.90
  -3  -4   1    0.80    1.50
  -3  -4   1    0.60    0.70
  -3  -4   1    1.20    0.80
  -3  -4   1    2.10    1.80
   2   4  -1  177.38    7.10
   2   4  -1  176.58    6.90
   2   4  -1  185.38   10.90
  -2  -4   1  154.38    6.90
  -2  -4   1  175.88    7.00
  -2  -4   1  169.88    9.20
  -2  -4   1  172.18    7.00
  -2  -4   1  172.88   10.20
  -2  -4   1  172.08    8.00
   1   4  -1    1.30    1.00
   1   4  -1    0.60    0.60
   1   4  -1    1.50    1.30
   1   4  -1    0.60    0.90
   1   4  -1    0.70    0.50
   1   4  -1    1.90    1.10
  -1  -4   1    0.60    0.50
  -1  -4   1    1.30    1.00
  -1  -4   1    1.70    1.20
  -1  -4   1    0.80    0.80
   0   4  -1   34.50    2.80
   0   4  -1   34.90    4.50
   0   4  -1   33.70    2.30
   0   4  -1   36.10    2.40
   0   4  -1   30.70    2.30
   0   4  -1   33.30    2.30
   0  -4   1   36.60    2.40
  -1   4  -1   84.39    6.80
  -1   4  -1   84.39    3.60
  -1   4  -1   88.79    3.60
  -1   4  -1   93.89    5.10
  -1   4  -1   91.19    4.50
   1  -4   1   87.09    3.80
   1  -4   1   81.19    4.30
   1  -4   1   86.99    3.70
   1  -4   1   91.49    4.60
  -2   4  -1    0.50    1.00
  -2   4  -1    0.20    0.50
  -2   4  -1    0.60    1.40
  -2   4  -1    0.30    0.50
   2  -4   1   -0.20    0.60
   2  -4   1   -0.80    1.50
   2  -4   1    0.70    0.90
   2  -4   1   -0.60    0.70
   2  -4   1    0.40    1.00
  -3   4  -1    1.80    1.20
  -3   4  -1    1.20    1.20
  -3   4  -1    3.20    0.40
  -3   4  -1    3.00    0.50
   3  -4   1    3.20    0.70
   3  -4   1    3.50    0.70
   3  -4   1    3.60    1.50
   3  -4   1    3.60    1.40
   3  -4   1    2.70    1.60
  -4   4  -1    3.80    1.50
  -4   4  -1    1.70    1.20
   4  -4   1    4.60    1.80
   4  -4   1    4.70    2.00
   4  -4   1    4.80    2.50
   4  -4   1    3.80    0.60
   4  -4   1    4.20    0.70
  -5   4  -1    5.10    1.70
  -5   4  -1    5.20    2.00
   5  -4   1    8.30    2.80
   5  -4   1    9.00    2.90
   5  -4   1   10.50    2.50
  -6   4  -1    2.30    1.20
  -6   4  -1    1.70    1.60
  -6   4  -1    2.50    2.20
   6  -4   1   -0.20    1.80
   6  -4   1    3.10    2.40
   6  -4   1    4.20    3.20
  -7   4  -1    1.70    1.90
  -7   4  -1    3.80    2.70
   7  -4   1    2.50    3.50
   7  -4   1    5.50    2.70
   7  -4   1    3.80    2.10
  -8   4  -1    3.50    2.60
  -8   4  -1    1.50    2.10
   8  -4   1    1.00    3.70
   9   3  -1    4.30    2.90
  -9  -3   1    2.10    4.20
  -9  -3   1    4.40    2.10
   8   3  -1    3.50    2.70
  -8  -3   1    1.00    2.30
  -8  -3   1    4.90    2.10
  -8  -3   1   -1.40    3.40
   7   3  -1    2.00    2.30
  -7  -3   1    2.50    2.10
  -7  -3   1    2.10    1.50
  -7  -3   1    1.90    3.20
   6   3  -1   61.99    5.60
   6   3  -1   62.19    5.00
   6   3  -1   59.99    5.90
  -6  -3   1   67.99    5.60
  -6  -3   1   60.59    4.90
  -6  -3   1   66.39    7.30
  -6  -3   1   61.69    4.80
   5   3  -1    3.80    2.00
   5   3  -1    3.90    1.40
   5   3  -1    1.30    1.20
   5   3  -1    1.10    1.40
  -5  -3   1    1.70    0.80
  -5  -3   1    3.10    1.80
  -5  -3   1    0.90    1.10
  -5  -3   1    2.80    1.90
   4   3  -1    0.20    1.10
   4   3  -1    1.00    0.90
   4   3  -1   -0.50    1.40
   4   3  -1    0.50    1.00
  -4  -3   1    1.90    1.50
  -4  -3   1    0.30    1.40
  -4  -3   1    0.00    0.80
  -4  -3   1    0.20    0.50
   3   3  -1   76.99    4.30
   3   3  -1   76.59    4.20
   3   3  -1   73.79    5.20
   3   3  -1   73.59    5.90
  -3  -3   1   79.09    5.70
  -3  -3   1   71.99    4.10
  -3  -3   1   77.99    4.10
  -3  -3   1   72.39    4.80
  -3  -3   1   77.79    5.40
  -3  -3   1   78.49    4.30
   2   3  -1    0.70    1.00
   2   3  -1    1.60    1.10
   2   3  -1    0.70    0.40
   2   3  -1    2.20    1.20
   2   3  -1    2.20    1.10
  -2  -3   1    1.70    1.00
  -2  -3   1    0.80    0.60
  -2  -3   1    1.40    1.00
  -2  -3   1    0.90    0.70
  -2  -3   1    2.10    1.50
  -2  -3   1    1.00    0.70
   1   3  -1    1.10    0.90
   1   3  -1    1.00    0.50
   1   3  -1    1.90    1.00
   1   3  -1    0.80    0.40
   1   3  -1    1.30    1.00
   1   3  -1    0.80    0.90
  -1  -3   1    1.10    0.90
  -1  -3   1    0.70    0.50
  -1  -3   1    0.60    0.60
  -1  -3   1    0.90    0.50
  -1  -3   1    0.80    1.00
   0   3  -1  356.86   13.50
   0   3  -1  363.86   11.50
   0   3  -1  355.66   12.90
   0   3  -1  380.46   13.10
   0   3  -1  366.06   18.00
   0   3  -1  363.06   11.50
   0  -3   1  356.16   13.60
   0  -3   1  347.27   11.40
   0  -3   1  348.47   17.70
  -1   3  -1  321.47   10.30
  -1   3  -1  353.66   12.70
  -1   3  -1  332.67   12.90
  -1   3  -1  304.27   16.60
  -1   3  -1  334.67   10.40
   1  -3   1  334.17   10.40
   1  -3   1  347.77   10.90
   1  -3   1  328.47   11.10
   1  -3   1  322.77   10.40
  -2   3  -1  802.42   23.70
  -2   3  -1  744.13   28.10
  -2   3  -1  822.02   37.40
   2  -3   1  790.02   24.10
   2  -3   1  858.81   28.50
   2  -3   1  798.22   23.80
   2  -3   1  837.52   25.20
   2  -3   1  837.02   23.40
  -3   3  -1    1.30    0.90
  -3   3  -1    3.50    0.60
  -3   3  -1    2.20    1.00
  -3   3  -1    4.50    1.40
   3  -3   1    3.30    0.70
   3  -3   1    3.90    1.60
   3  -3   1    4.30    1.30
   3  -3   1    3.90    0.80
   3  -3   1    5.10    1.90
  -4   3  -1   40.80    5.10
  -4   3  -1   37.90    1.70
  -4   3  -1   38.10    1.70
  -4   3  -1   39.50    3.10
  -4   3  -1   40.90    4.30
   4  -3   1   38.70    2.00
   4  -3   1   42.40    3.30
   4  -3   1   39.80    2.00
   4  -3   1   44.10    3.90
   4  -3   1   34.80    3.70
  -5   3  -1   11.80    1.00
  -5   3  -1   10.10    1.00
  -5   3  -1    7.50    2.10
  -5   3  -1    7.20    1.80
  -5   3  -1   10.90    2.70
   5  -3   1   14.70    3.20
   5  -3   1    9.60    2.40
   5  -3   1   11.50    1.50
   5  -3   1   11.70    1.60
   5  -3   1   10.00    2.60
  -6   3  -1    1.60    1.60
  -6   3  -1    1.70    1.00
  -6   3  -1    0.40    2.10
   6  -3   1    0.40    2.70
   6  -3   1    0.90    1.00
   6  -3   1    1.30    1.00
   6  -3   1    3.40    2.10
   6  -3   1    2.60    1.80
  -7   3  -1    3.60    2.00
  -7   3  -1    4.00    2.70
   7  -3   1    3.80    2.60
   7  -3   1    3.40    2.60
   7  -3   1    3.20    2.30
   7  -3   1    3.70    1.20
  -8   3  -1    2.50    2.70
  -8   3  -1    3.60    2.10
   8  -3   1    7.70    4.10
   8  -3   1    4.90    2.90
   9   2  -1    6.30    3.20
  -9  -2   1    2.00    1.90
  -9  -2   1   -2.10    3.70
   8   2  -1    2.60    2.40
  -8  -2   1   -1.00    2.00
  -8  -2   1   -2.80    3.20
  -8  -2   1    2.00    1.80
   7   2  -1   46.50    4.30
   7   2  -1   55.99    4.80
  -7  -2   1   54.99    5.90
  -7  -2   1   49.90    7.30
  -7  -2   1   58.69    4.70
   6   2  -1    1.10    1.60
   6   2  -1   -0.20    2.00
   6   2  -1    0.20    0.90
  -6  -2   1    0.70    0.60
  -6  -2   1    2.30    1.80
  -6  -2   1    2.10    2.50
  -6  -2   1    0.40    1.20
   5   2  -1   16.10    2.10
   5   2  -1   18.40    2.70
   5   2  -1   17.90    2.80
   5   2  -1   17.60    2.70
  -5  -2   1   12.30    2.90
  -5  -2   1   16.20    3.10
  -5  -2   1   18.10    2.40
  -5  -2   1   16.20    2.70
   4   2  -1   -0.30    1.10
   4   2  -1    0.40    0.80
   4   2  -1   -0.10    1.10
   4   2  -1    0.50    0.70
   4   2  -1   -0.50    1.20
  -4  -2   1    0.20    0.90
  -4  -2   1    0.20    1.20
  -4  -2   1    0.30    0.60
  -4  -2   1   -0.40    1.10
   3   2  -1    2.60    0.80
   3   2  -1    2.10    1.10
   3   2  -1    3.50    1.30
   3   2  -1    3.90    1.40
   3   2  -1    5.20    1.10
   3   2  -1    3.60    1.20
  -3  -2   1    5.60    1.60
  -3  -2   1    2.80    0.90
  -3  -2   1    5.20    1.40
  -3  -2   1    4.40    1.40
  -3  -2   1    2.60    0.80
   2   2  -1   11.40    1.40
   2   2  -1   10.80    1.60
   2   2  -1   14.20    2.30
   2   2  -1   11.50    2.30
   2   2  -1   10.80    1.40
  -2  -2   1   10.50    1.80
  -2  -2   1   11.90    1.40
  -2  -2   1    8.80    1.80
  -2  -2   1   14.80    2.10
  -2  -2   1   10.40    1.60
  -2  -2   1   10.80    1.80
   1   2  -1  293.97    9.60
   1   2  -1  278.97    9.60
   1   2  -1  292.67   14.30
   1   2  -1  300.57   10.50
   1   2  -1  279.47   11.80
  -1  -2   1  301.87    9.60
  -1  -2   1  300.07   12.00
  -1  -2   1  289.77   11.30
  -1  -2   1  296.17   10.60
  -1  -2   1  288.07   14.10
  -1  -2   1  290.47    9.70
   0   2  -1   18.50    1.50
   0   2  -1   15.70    1.40
   0   2  -1   14.10    1.30
   0   2  -1   17.20    1.10
   0   2  -1   14.00    1.30
   0   2  -1   13.40    2.00
   0  -2   1   15.20    1.40
   0  -2   1   14.90    2.00
   0  -2   1   15.10    1.30
   0  -2   1   14.20    1.00
  -1   2  -1    6.40    0.80
  -1   2  -1    7.40    1.30
  -1   2  -1    3.50    1.00
  -1   2  -1    5.60    0.80
   1  -2   1    5.80    0.90
   1  -2   1    6.70    1.00
   1  -2   1    6.40    1.30
   1  -2   1    6.40    1.10
  -2   2  -1   80.69    5.30
  -2   2  -1   75.39    3.50
  -2   2  -1   79.09    5.60
  -2   2  -1   75.69    2.80
  -2   2  -1   79.49    2.80
   2  -2   1   81.99    3.80
   2  -2   1   83.99    3.50
   2  -2   1   76.49    2.90
   2  -2   1   67.29    4.10
  -3   2  -1  101.29    4.60
  -3   2  -1  102.79    3.60
  -3   2  -1   99.59    3.60
  -3   2  -1  102.59    6.40
  -3   2  -1   88.19    6.60
   3  -2   1   98.89    4.60
   3  -2   1  105.69    5.60
   3  -2   1  103.69    4.50
   3  -2   1   98.19    3.70
  -4   2  -1   55.39    3.60
  -4   2  -1   53.09    2.50
  -4   2  -1   55.09    2.50
  -4   2  -1   60.19    5.50
  -4   2  -1   59.29    4.60
   4  -2   1   59.89    3.70
   4  -2   1   52.69    4.00
   4  -2   1   57.19    2.80
   4  -2   1   60.49    4.10
  -5   2  -1   24.60    3.10
  -5   2  -1   20.80    4.30
  -5   2  -1   22.30    1.80
  -5   2  -1   25.60    4.10
   5  -2   1   26.90    3.00
   5  -2   1   28.30    3.70
   5  -2   1   23.80    2.10
   5  -2   1   27.80    3.30
  -6   2  -1    4.30    2.30
  -6   2  -1    2.40    1.00
  -6   2  -1    0.70    0.80
  -6   2  -1    1.10    1.50
   6  -2   1    1.50    2.60
   6  -2   1    2.10    2.00
   6  -2   1    2.80    1.80
   6  -2   1    0.70    0.90
   6  -2   1    2.10    1.40
  -7   2  -1    2.80    2.10
  -7   2  -1    0.40    1.70
   7  -2   1    0.70    2.10
   7  -2   1    0.20    1.40
   7  -2   1    0.00    3.00
   7  -2   1    1.60    2.00
  -8   2  -1    0.50    2.60
  -8   2  -1   -0.90    1.80
   8  -2   1   -0.50    1.40
   8  -2   1   -0.10    1.40
  -9   2  -1    1.80    3.10
   9  -2   1    0.00    2.20
   9  -2   1    0.40    1.50
   9   1  -1    3.40    2.80
   9   1  -1    5.70    2.50
  -9  -1   1   -0.80    3.30
  -9  -1   1    4.10    2.20
   8   1  -1   -0.80    2.20
   8   1  -1    2.60    1.90
   8   1  -1   -0.30    2.20
  -8  -1   1   -1.20    2.80
  -8  -1   1   -0.80    1.60
   7   1  -1   22.00    3.10
   7   1  -1   24.10    3.50
   7   1  -1   18.70    3.30
  -7  -1   1   19.90    3.10
  -7  -1   1   14.40    2.80
  -7  -1   1   17.60    3.90
   6   1  -1   15.80    2.40
   6   1  -1   18.20    2.60
   6   1  -1   17.70    2.80
   6   1  -1   16.70    2.70
  -6  -1   1   15.70    2.60
  -6  -1   1   17.60    3.80
  -6  -1   1    9.70    3.20
  -6  -1   1    9.80    2.10
  -6  -1   1   14.70    2.10
   5   1  -1   17.30    2.50
   5   1  -1   17.50    2.70
   5   1  -1   18.90    2.40
   5   1  -1   16.40    2.50
  -5  -1   1   19.90    3.30
  -5  -1   1   16.80    2.40
  -5  -1   1   16.10    2.30
  -5  -1   1   18.10    3.20
  -5  -1   1   13.60    2.90
   4   1  -1  262.17    9.50
   4   1  -1  260.17    9.20
   4   1  -1  266.37   12.40
   4   1  -1  250.87    9.40
  -4  -1   1  253.97    9.50
  -4  -1   1  267.67   12.80
  -4  -1   1  254.07   12.30
  -4  -1   1  272.67   12.50
  -4  -1   1  259.87   11.30
   3   1  -1   11.00    1.70
   3   1  -1   10.60    1.80
   3   1  -1   10.40    2.30
   3   1  -1   11.10    2.10
   3   1  -1   11.60    1.40
   3   1  -1   10.70    1.70
  -3  -1   1    9.60    1.60
  -3  -1   1   11.70    1.90
  -3  -1   1    7.90    1.80
  -3  -1   1   12.20    1.50
  -3  -1   1    9.70    1.80
   2   1  -1  200.68    8.90
   2   1  -1  197.18    6.90
   2   1  -1  198.38    8.60
   2   1  -1  178.38    9.70
   2   1  -1  183.48    6.80
  -2  -1   1  194.88    7.80
  -2  -1   1  197.08    8.70
  -2  -1   1  197.38    9.70
  -2  -1   1  198.38    6.80
  -2  -1   1  191.68    6.90
   1   1  -1  773.92   27.50
   1   1  -1  764.82   22.40
   1   1  -1  755.12   25.50
   1   1  -1  679.53   33.00
   1   1  -1  725.23   22.30
  -1  -1   1  773.62   33.10
  -1  -1   1  782.62   22.40
  -1  -1   1  746.13   27.40
  -1  -1   1  774.12   22.40
  -1  -1   1  740.93   25.60
   0   1  -1 1427.36   58.79
   0   1  -1 1254.17   40.50
   0   1  -1 1362.66   46.30
   0   1  -1 1366.16   44.10
   0  -1   1 1364.96   39.90
   0  -1   1 1300.47   45.80
   0  -1   1 1366.16   44.60
   0  -1   1 1355.66   39.40
   0  -1   1 1433.76   58.69
  -1   1  -1  594.24   17.40
  -1   1  -1  609.24   17.40
  -1   1  -1  577.64   26.30
  -1   1  -1  606.64   17.60
  -1   1  -1  556.84   25.60
   1  -1   1  607.94   17.40
   1  -1   1  610.54   17.40
   1  -1   1  619.44   26.30
   1  -1   1  619.24   17.60
   1  -1   1  513.35   19.80
  -2   1  -1   75.29    4.40
  -2   1  -1   72.79    3.10
  -2   1  -1   72.49    2.70
  -2   1  -1   73.29    4.90
  -2   1  -1   73.99    2.70
   2  -1   1   67.49    2.70
   2  -1   1   69.99    2.70
   2  -1   1   74.69    3.20
  -3   1  -1  424.36   13.20
  -3   1  -1  430.76   19.80
  -3   1  -1  457.75   20.40
  -3   1  -1  430.56   13.20
   3  -1   1  442.36   13.40
   3  -1   1  411.96   13.20
   3  -1   1  448.56   13.60
   3  -1   1  418.86   13.20
  -4   1  -1   -0.10    0.40
  -4   1  -1   -0.10    0.70
  -4   1  -1   -0.70    1.10
  -4   1  -1    0.10    0.80
  -4   1  -1   -0.20    0.60
   4  -1   1    1.40    1.60
   4  -1   1   -0.60    0.80
   4  -1   1    0.70    0.80
   4  -1   1    0.00    0.80
  -5   1  -1   -0.10    1.50
  -5   1  -1    0.30    1.10
  -5   1  -1    0.40    0.50
  -5   1  -1    0.10    0.90
   5  -1   1    0.80    1.50
   5  -1   1    0.90    1.10
   5  -1   1    1.10    1.90
   5  -1   1    1.20    1.10
   5  -1   1    1.20    1.10
  -6   1  -1    5.70    2.00
  -6   1  -1   11.40    1.90
  -6   1  -1    8.90    2.90
  -6   1  -1   10.50    1.80
   6  -1   1   11.00    2.90
   6  -1   1   11.60    2.00
   6  -1   1   13.50    2.20
   6  -1   1   12.00    2.40
   6  -1   1   13.40    3.20
  -7   1  -1   86.69    8.30
  -7   1  -1   83.39    8.00
   7  -1   1   89.99    5.00
   7  -1   1   75.49    5.50
   7  -1   1   76.89    6.30
  -8   1  -1    0.80    1.90
  -8   1  -1    0.90    2.70
   8  -1   1    5.60    2.10
   8  -1   1    5.50    2.70
  -9   1  -1    3.30    3.50
   9  -1   1    1.90    2.50
   9  -1   1    2.90    2.00
   9   0  -1    4.30    2.40
   9   0  -1    0.90    2.10
  -9   0   1    1.60    1.80
  -9   0   1    0.90    3.50
   8   0  -1    8.50    3.00
   8   0  -1    8.00    2.60
   8   0  -1    6.40    2.50
  -8   0   1    1.60    3.30
  -8   0   1    5.30    2.20
   7   0  -1    0.70    1.90
   7   0  -1    3.50    2.00
   7   0  -1    2.00    1.70
  -7   0   1   -0.90    1.40
  -7   0   1    1.40    1.60
  -7   0   1    0.20    2.50
  -7   0   1   -1.20    1.30
   6   0  -1    7.70    2.10
   6   0  -1   11.20    2.50
   6   0  -1    8.50    2.20
   6   0  -1   10.40    2.50
  -6   0   1    4.20    1.50
  -6   0   1    7.80    1.90
  -6   0   1    7.10    2.50
   5   0  -1    6.50    1.80
   5   0  -1    5.90    1.70
   5   0  -1    7.10    1.80
   5   0  -1    5.50    1.60
  -5   0   1    5.20    1.50
  -5   0   1    3.00    1.10
  -5   0   1    5.50    2.10
  -5   0   1    3.30    1.20
   4   0  -1   -0.80    1.10
   4   0  -1    0.00    0.40
   4   0  -1   -0.30    1.00
   4   0  -1    1.00    1.00
  -4   0   1    0.50    1.40
  -4   0   1    0.10    0.70
  -4   0   1    1.00    1.00
  -4   0   1   -0.30    0.80
   3   0  -1    6.50    1.20
   3   0  -1    6.40    1.20
   3   0  -1    4.40    1.20
   3   0  -1    6.30    1.20
  -3   0   1    7.40    1.20
  -3   0   1    3.90    0.90
  -3   0   1    6.60    1.60
  -3   0   1    9.50    1.40
  -3   0   1    7.40    1.60
   2   0  -1  946.71   27.50
   2   0  -1  885.11   27.40
   2   0  -1  872.51   38.50
   2   0  -1  938.51   34.00
  -2   0   1  982.40   34.20
  -2   0   1  953.90   32.20
  -2   0   1  937.71   27.50
  -2   0   1  940.61   40.60
  -2   0   1  955.00   27.50
  -2   0   1  891.41   38.60
   1   0  -1 1104.79   32.10
   1   0  -1 1059.49   47.60
   1   0  -1 1103.79   37.20
   1   0  -1 1097.59   35.90
   1   0  -1 1140.79   39.40
   1   0  -1 1090.19   32.10
  -1   0   1 1110.89   32.00
  -1   0   1 1127.09   37.20
  -1   0   1 1148.99   39.40
  -1   0   1 1063.59   47.60
   0   0  -1   70.49    2.30
   0   0   1   59.49    3.50
   0   0   1   67.39    2.30
  -1   0  -1  156.68    5.00
  -1   0  -1  162.38    5.00
  -1   0  -1  159.88    7.50
  -1   0  -1  152.98    7.30
  -1   0  -1  161.08    6.20
   1   0   1  153.98    7.40
   1   0   1  166.58    5.00
   1   0   1  145.59    7.20
   1   0   1  163.58    5.00
  -2   0  -1  425.76   19.50
  -2   0  -1  431.36   17.00
  -2   0  -1  465.85   13.60
  -2   0  -1  483.25   20.10
  -2   0  -1  459.35   13.50
   2   0   1  449.95   13.60
   2   0   1  439.86   13.50
   2   0   1  435.96   19.80
  -3   0  -1  504.05   20.50
  -3   0  -1  523.45   16.10
  -3   0  -1  539.45   16.20
  -3   0  -1  514.05   22.90
  -3   0  -1  555.54   23.90
   3   0   1  525.65   15.90
   3   0   1  508.15   16.10
   3   0   1  549.25   23.70
   3   0   1  507.15   16.10
   3   0   1  558.24   15.90
  -4   0  -1   80.09    3.60
  -4   0  -1   74.29    4.10
  -4   0  -1   79.09    5.50
  -4   0  -1   84.29    6.00
  -4   0  -1   78.09    3.70
   4   0   1   80.49    3.70
   4   0   1   80.49    4.10
   4   0   1   81.89    5.60
   4   0   1   76.49    3.70
   4   0   1   89.69    4.40
  -5   0  -1   18.00    3.60
  -5   0  -1   17.70    2.10
  -5   0  -1   17.50    1.40
  -5   0  -1   17.30    3.10
   5   0   1   17.20    2.80
   5   0   1   17.10    2.20
   5   0   1   18.50    2.40
   5   0   1   18.80    2.20
  -6   0  -1    2.00    1.50
  -6   0  -1    2.00    1.40
  -6   0  -1    3.20    1.90
   6   0   1    4.10    1.80
   6   0   1    2.40    1.50
   6   0   1    3.10    1.50
  -7   0  -1   39.00    3.40
  -7   0  -1   35.20    6.50
  -7   0  -1   46.00    6.30
   7   0   1   45.90    3.80
  -8   0  -1   45.80    7.30
  -8   0  -1   33.30    7.10
   8   0   1   48.00    5.20
   8   0   1   55.09    4.50
  -9   0  -1    2.50    3.50
   9   0   1    5.60    2.50
   9   0   1    4.70    2.70
 -10   0  -1   -3.00    3.50
  10   0   1    1.60    2.20
   9  -1  -1   -0.30    2.60
   9  -1  -1    2.70    2.30
   9  -1  -1    2.30    2.20
  -9   1   1    1.80    1.90
  -9   1   1   -1.60    3.30
   8  -1  -1   79.29    5.20
   8  -1  -1   69.09    6.00
   8  -1  -1   73.59    6.10
  -8   1   1   83.19    8.00
  -8   1   1   71.29    7.80
   7  -1  -1   32.50    3.90
   7  -1  -1   26.80    3.40
   7  -1  -1   29.30    3.50
  -7   1   1   19.60    4.30
  -7   1   1   22.00    4.80
   6  -1  -1    8.60    1.90
   6  -1  -1   10.80    2.60
   6  -1  -1    9.60    2.00
   6  -1  -1   10.00    2.30
  -6   1   1    2.80    2.30
  -6   1   1    3.80    1.50
  -6   1   1    5.70    1.70
   5  -1  -1   64.39    3.60
   5  -1  -1   53.69    3.90
   5  -1  -1   61.09    3.50
   5  -1  -1   60.69    4.30
  -5   1   1   57.79    5.60
  -5   1   1   63.19    5.20
  -5   1   1   58.29    3.30
  -5   1   1   57.29    4.90
   4  -1  -1    1.90    1.00
   4  -1  -1    4.70    1.90
   4  -1  -1    0.80    1.20
   4  -1  -1    2.60    1.30
   4  -1  -1    1.70    1.00
  -4   1   1    1.20    1.40
  -4   1   1    1.80    0.80
  -4   1   1    1.10    0.80
  -4   1   1    1.90    1.00
   3  -1  -1    4.40    1.00
   3  -1  -1    4.30    1.30
   3  -1  -1    4.70    1.00
   3  -1  -1    9.50    1.80
   3  -1  -1    4.30    1.30
  -3   1   1    2.90    0.80
  -3   1   1    4.60    0.90
  -3   1   1    4.30    0.80
  -3   1   1    3.90    1.40
   2  -1  -1    5.90    1.20
   2  -1  -1    4.80    0.80
   2  -1  -1    4.30    0.90
   2  -1  -1    4.20    0.80
  -2   1   1    4.60    0.70
  -2   1   1    3.40    1.10
   1  -1  -1   91.29    3.10
  -1   1   1   97.09    3.90
  -1   1   1   92.99    3.10
  -1   1   1   94.49    3.10
  -1   1   1   95.99    4.20
   0  -1  -1 1350.16   38.20
   0  -1  -1 1287.07   38.00
   0  -1  -1 1341.97   38.20
   0  -1  -1 1257.67   43.60
   0  -1  -1 1198.08   47.40
   0   1   1 1370.46   38.20
   0   1   1 1345.07   38.20
   0   1   1 1113.79   46.10
  -1  -1  -1 1225.18   33.90
  -1  -1  -1 1202.88   34.50
  -1  -1  -1 1183.78   41.40
  -1  -1  -1 1050.09   48.60
  -1  -1  -1 1077.59   42.00
   1   1   1 1092.19   49.70
   1   1   1 1068.49   42.10
   1   1   1 1180.28   41.40
   1   1   1 1210.48   34.30
   1   1   1 1159.48   33.80
  -2  -1  -1   47.80    3.10
  -2  -1  -1   44.40    2.30
  -2  -1  -1   46.40    3.50
  -2  -1  -1   44.00    2.20
  -2  -1  -1   43.40    3.00
   2   1   1   42.10    2.90
   2   1   1   47.80    3.40
   2   1   1   41.80    2.20
   2   1   1   40.20    2.10
  -3  -1  -1   32.20    3.10
  -3  -1  -1   33.90    2.10
  -3  -1  -1   31.00    2.80
  -3  -1  -1   33.40    3.30
  -3  -1  -1   34.40    2.20
   3   1   1   35.30    2.20
   3   1   1   31.00    2.10
   3   1   1   34.50    3.10
   3   1   1   31.20    2.60
  -4  -1  -1    0.70    0.80
  -4  -1  -1   -0.60    0.90
  -4  -1  -1    0.80    0.90
  -4  -1  -1    0.00    1.30
   4   1   1    0.30    0.70
   4   1   1   -0.60    0.90
   4   1   1   -0.40    0.60
   4   1   1    0.20    0.90
  -5  -1  -1   -0.80    1.10
  -5  -1  -1   -1.10    1.50
  -5  -1  -1   -0.10    1.10
   5   1   1   -0.90    1.30
   5   1   1   -1.80    1.10
   5   1   1    0.20    0.80
  -6  -1  -1    0.40    2.10
  -6  -1  -1    0.70    1.30
  -6  -1  -1    0.30    1.30
   6   1   1    1.00    1.30
   6   1   1    0.30    1.40
  -7  -1  -1    3.00    1.70
  -7  -1  -1   -0.50    1.70
  -7  -1  -1    0.60    2.50
   7   1   1    1.90    1.90
   7   1   1    2.00    1.70
  -8  -1  -1   -0.40    2.20
   8   1   1    1.50    2.20
  -9  -1  -1    1.90    2.40
  -9  -1  -1    2.00    3.70
   9   1   1    4.20    2.90
   9   1   1    7.90    2.90
 -10  -1  -1    4.50    4.30
  10   1   1    8.00    3.10
  10   1   1    5.90    3.20
   9  -2  -1    2.70    1.80
   9  -2  -1   -0.70    2.50
   9  -2  -1    0.30    2.30
  -9   2   1    1.70    1.70
  -9   2   1   -1.20    3.10
   8  -2  -1    1.70    2.50
   8  -2  -1    3.50    1.80
   8  -2  -1    0.90    2.10
  -8   2   1    2.30    1.80
  -8   2   1    0.60    2.60
   7  -2  -1   25.60    3.90
   7  -2  -1   17.00    3.70
   7  -2  -1   21.80    2.80
  -7   2   1   23.50    4.70
   6  -2  -1  106.79    6.70
   6  -2  -1  111.89    5.30
   6  -2  -1  127.79    5.50
   6  -2  -1  134.99    7.60
  -6   2   1  125.29    8.60
  -6   2   1  131.09    9.10
   5  -2  -1    1.40    1.80
   5  -2  -1   -0.30    1.00
   5  -2  -1    0.10    0.80
   5  -2  -1    0.20    1.30
   5  -2  -1    1.60    1.60
  -5   2   1   -0.10    1.60
  -5   2   1   -0.10    1.00
   4  -2  -1   51.19    2.70
   4  -2  -1   53.09    3.70
   4  -2  -1   52.49    3.60
   4  -2  -1   49.60    3.90
  -4   2   1   54.39    4.70
  -4   2   1   55.89    4.70
  -4   2   1   49.10    2.40
   3  -2  -1    0.80    1.10
   3  -2  -1    1.70    0.60
   3  -2  -1    2.50    1.60
   3  -2  -1    1.60    0.60
   3  -2  -1    2.50    1.10
  -3   2   1    0.80    0.70
  -3   2   1    1.20    1.10
  -3   2   1    2.70    0.60
  -3   2   1    2.10    0.50
   2  -2  -1    1.30    0.40
   2  -2  -1    1.60    0.90
   2  -2  -1    1.30    1.00
   2  -2  -1    1.30    0.40
   2  -2  -1    1.00    0.90
  -2   2   1    1.70    1.00
  -2   2   1    1.20    0.40
  -2   2   1    0.40    0.70
  -2   2   1    1.00    0.30
   1  -2  -1   88.09    2.70
   1  -2  -1   86.99    2.70
  -1   2   1   88.39    3.70
  -1   2   1   93.19    4.10
   0  -2  -1  161.28    5.40
   0  -2  -1  174.08    5.40
   0  -2  -1  174.28    5.90
   0  -2  -1  165.38    7.20
   0   2   1  175.58    7.30
   0   2   1  179.18    5.40
   0   2   1  175.18    5.40
   0   2   1  179.08    6.30
  -1  -2  -1  931.01   26.80
  -1  -2  -1  899.21   33.30
  -1  -2  -1  895.81   32.60
  -1  -2  -1  873.41   30.80
  -1  -2  -1  921.71   26.80
   1   2   1  914.41   26.70
   1   2   1  936.71   32.60
   1   2   1  929.71   26.80
   1   2   1  899.61   33.30
  -2  -2  -1 9186.78  335.27
  -2  -2  -1 9309.87  393.06
  -2  -2  -1 9999.00  276.57
  -2  -2  -1 9889.71  343.07
  -2  -2  -1 9522.55  276.27
   2   2   1 9024.20  394.76
   2   2   1 9885.51  275.47
   2   2   1 9676.43  275.87
   2   2   1 8848.62  336.67
   2   2   1 8960.20  343.57
  -3  -2  -1  441.76   14.10
  -3  -2  -1  451.55   14.00
  -3  -2  -1  457.45   20.00
  -3  -2  -1  434.26   17.60
  -3  -2  -1  399.56   17.20
   3   2   1  435.66   14.10
   3   2   1  456.75   20.00
   3   2   1  412.26   13.90
   3   2   1  424.46   19.30
   3   2   1  451.05   17.40
  -4  -2  -1    0.40    1.10
  -4  -2  -1    1.20    1.00
  -4  -2  -1    0.40    0.90
  -4  -2  -1    0.40    0.80
  -4  -2  -1   -0.60    1.30
   4   2   1    0.30    1.10
   4   2   1    0.10    0.40
   4   2   1   -0.20    0.80
   4   2   1    0.20    0.80
   4   2   1    0.20    0.80
  -5  -2  -1   14.70    2.40
  -5  -2  -1   15.90    3.10
   5   2   1   15.30    2.40
   5   2   1   15.20    3.00
   5   2   1   16.60    2.50
  -6  -2  -1    2.70    1.80
  -6  -2  -1    3.40    1.60
  -6  -2  -1    3.40    2.40
   6   2   1    4.10    2.00
   6   2   1    3.20    1.80
  -7  -2  -1    2.30    1.90
  -7  -2  -1    5.40    2.80
  -7  -2  -1    4.50    2.10
   7   2   1   10.30    2.60
  -8  -2  -1    1.40    3.30
  -8  -2  -1    1.10    1.80
  -8  -2  -1    5.60    2.40
   8   2   1    6.20    2.60
  -9  -2  -1    5.70    2.40
  -9  -2  -1   10.00    4.40
   9   2   1   15.40    3.50
 -10  -2  -1   35.40    6.10
 -10  -2  -1    5.70    4.10
  10   2   1   17.50    4.10
  10   2   1   15.10    4.30
   8  -3  -1   -0.30    2.30
  -8   3   1   -0.60    2.40
  -8   3   1    3.30    2.00
   7  -3  -1   10.10    3.30
   7  -3  -1   14.40    2.00
   7  -3  -1   12.20    3.30
   7  -3  -1   14.80    3.60
  -7   3   1    6.70    2.20
  -7   3   1   10.00    3.20
   6  -3  -1   64.89    5.30
   6  -3  -1   64.29    5.90
   6  -3  -1   65.29    3.30
   6  -3  -1   65.69    5.60
  -6   3   1   68.39    6.90
  -6   3   1   69.99    7.10
   5  -3  -1   79.19    5.30
   5  -3  -1   81.79    3.40
   5  -3  -1   84.59    3.40
   5  -3  -1   82.19    5.90
   5  -3  -1   84.69    5.50
  -5   3   1   87.39    7.30
  -5   3   1   84.39    6.40
  -5   3   1   79.59    3.00
  -5   3   1   76.49    2.90
   4  -3  -1   51.29    4.20
   4  -3  -1   48.80    4.20
   4  -3  -1   46.10    2.00
   4  -3  -1   45.50    3.60
   4  -3  -1   46.50    2.10
  -4   3   1   52.49    5.10
  -4   3   1   42.60    4.40
   3  -3  -1   10.40    2.10
   3  -3  -1    8.60    1.80
  -3   3   1    8.50    1.70
  -3   3   1    8.10    1.80
   2  -3  -1    6.90    1.60
   2  -3  -1    4.50    1.10
  -2   3   1    4.30    1.40
  -2   3   1    4.10    1.10
   1  -3  -1  100.19    3.20
   1  -3  -1  108.39    4.60
   1  -3  -1  119.19    4.30
   1  -3  -1   99.19    4.20
   1  -3  -1   97.99    3.20
  -1   3   1   86.49    4.70
  -1   3   1  100.39    3.10
  -1   3   1  104.39    4.50
  -1   3   1   98.79    3.00
   0  -3  -1  413.26   12.70
   0  -3  -1  440.56   16.50
   0  -3  -1  414.16   12.70
   0   3   1  415.06   12.70
   0   3   1  426.96   16.50
   0   3   1  419.36   12.70
  -1  -3  -1   27.90    2.20
  -1  -3  -1   32.60    2.00
  -1  -3  -1   31.60    2.00
   1   3   1   29.00    2.40
   1   3   1   28.50    2.40
   1   3   1   32.90    1.90
   1   3   1   31.40    1.90
  -2  -3  -1  252.67    8.50
  -2  -3  -1  242.28   10.30
  -2  -3  -1  242.78   10.30
  -2  -3  -1  253.17    8.40
   2   3   1  237.18   12.10
   2   3   1  228.48    8.30
   2   3   1  240.08   10.20
   2   3   1  229.88    8.30
   2   3   1  242.68   10.40
   2   3   1  255.87   12.20
  -3  -3  -1   46.70    3.70
  -3  -3  -1   43.70    3.60
  -3  -3  -1   42.70    2.70
  -3  -3  -1   49.80    3.10
   3   3   1   45.20    3.90
   3   3   1   46.80    2.90
   3   3   1   50.89    4.30
   3   3   1   46.70    3.00
   3   3   1   50.69    3.80
   3   3   1   45.50    3.60
  -4  -3  -1  437.06   18.00
  -4  -3  -1  436.16   20.20
  -4  -3  -1  440.26   14.60
   4   3   1  392.56   14.20
   4   3   1  412.56   20.10
   4   3   1  430.56   14.40
   4   3   1  419.16   19.50
  -5  -3  -1    0.60    1.10
  -5  -3  -1    0.70    1.50
  -5  -3  -1    2.50    1.40
   5   3   1    1.10    1.20
   5   3   1    0.00    1.40
   5   3   1   -0.30    1.00
   5   3   1    0.30    0.80
  -6  -3  -1   32.10    3.60
  -6  -3  -1   34.90    4.90
  -6  -3  -1   36.20    5.60
   6   3   1   33.00    3.60
  -7  -3  -1   83.69    8.30
  -7  -3  -1   76.49    5.50
  -7  -3  -1   78.99    7.80
   7   3   1   82.69    5.80
  -8  -3  -1    8.20    3.90
  -8  -3  -1   11.00    2.90
   8   3   1    8.00    3.00
  -9  -3  -1    0.30    1.60
  -9  -3  -1   -0.30    1.50
  -9  -3  -1   -1.10    3.50
   9   3   1    3.80    2.70
 -10  -3  -1   -3.40    3.90
 -10  -3  -1    3.30    2.00
  10   3   1    2.10    2.80
   8  -4  -1   -0.70    2.40
  -8   4   1    1.40    1.80
  -8   4   1    2.10    2.50
   7  -4  -1    2.20    3.40
   7  -4  -1   -0.10    2.00
  -7   4   1    1.50    1.40
  -7   4   1    0.60    2.00
   6  -4  -1    8.10    3.50
   6  -4  -1    9.20    2.50
  -6   4   1    4.70    2.60
  -6   4   1    4.70    1.80
   5  -4  -1   41.40    5.00
   5  -4  -1   41.00    4.00
  -5   4   1   40.20    5.80
  -5   4   1   39.70    5.20
   4  -4  -1   85.79    5.20
   4  -4  -1   80.59    5.10
  -4   4   1   78.89    6.90
  -4   4   1   82.79    6.30
   3  -4  -1   91.19    5.00
   3  -4  -1   89.89    4.80
   2  -4  -1  183.48    7.10
   2  -4  -1  184.68    7.30
  -2   4   1  181.68    8.30
  -2   4   1  172.28    7.40
   1  -4  -1   32.50    2.20
   1  -4  -1   28.80    1.50
   1  -4  -1   29.60    2.60
   1  -4  -1   25.80    2.30
   1  -4  -1   29.40    1.40
  -1   4   1   27.20    1.30
  -1   4   1   29.20    1.30
  -1   4   1   28.90    2.70
  -1   4   1   30.90    2.80
   0  -4  -1  111.09    4.70
   0  -4  -1  112.69    4.20
   0  -4  -1  115.89    4.30
   0   4   1  112.89    4.20
   0   4   1  119.89    5.90
   0   4   1  109.89    4.10
  -1  -4  -1  144.99    5.70
  -1  -4  -1  142.69    7.00
  -1  -4  -1  157.18    5.70
   1   4   1  159.58    7.30
   1   4   1  151.28    5.70
   1   4   1  159.78    7.30
   1   4   1  152.28    5.70
  -2  -4  -1  241.38   10.60
  -2  -4  -1  246.68    8.60
  -2  -4  -1  247.68    8.80
  -2  -4  -1  244.98   10.70
   2   4   1  242.58   10.60
   2   4   1  227.48   10.50
   2   4   1  244.78    8.70
   2   4   1  236.38    8.60
   2   4   1  245.08   13.00
  -3  -4  -1  261.57    9.90
  -3  -4  -1  273.47   10.00
  -3  -4  -1  268.97    9.80
  -3  -4  -1  281.07   12.20
  -3  -4  -1  278.17   12.40
   3   4   1  283.97   12.30
   3   4   1  268.77    9.90
   3   4   1  270.07   10.00
   3   4   1  286.97   14.30
   3   4   1  267.77   12.30
   3   4   1  279.77   14.20
  -4  -4  -1  291.97   11.10
  -4  -4  -1  312.17   13.90
   4   4   1  290.87   15.40
   4   4   1  281.57   10.90
   4   4   1  312.37   15.20
  -5  -4  -1   10.00    2.40
  -5  -4  -1    6.20    2.20
   5   4   1    9.90    2.10
   5   4   1    4.90    1.30
  -6  -4  -1   79.89    5.50
  -6  -4  -1   88.19    7.80
   6   4   1   76.79    5.40
   6   4   1   74.79    5.80
  -7  -4  -1   15.20    3.20
  -7  -4  -1   12.90    3.40
   7   4   1   15.00    3.30
  -8  -4  -1    0.60    2.70
  -8  -4  -1    0.00    2.10
  -8  -4  -1    0.00    1.50
   8   4   1   -0.70    2.30
  -9  -4  -1    2.30    1.70
  -9  -4  -1   -2.80    3.40
  -9  -4  -1    1.00    2.30
   9   4   1   -0.50    2.30
 -10  -4  -1    1.80    1.80
 -10  -4  -1   -3.70    4.20
  10   4   1    0.30    2.90
   7  -5  -1   -1.70    3.50
   7  -5  -1    0.50    2.20
  -7   5   1    3.90    2.30
   6  -5  -1    1.70    2.60
   6  -5  -1    0.10    2.00
  -6   5   1    0.60    2.00
  -6   5   1    4.30    1.70
   5  -5  -1   46.70    4.50
   5  -5  -1   56.59    5.60
  -5   5   1   65.19    6.80
  -5   5   1   63.69    6.40
  -5   5   1   57.69    6.00
   4  -5  -1   16.30    2.90
   4  -5  -1   15.40    3.50
  -4   5   1   17.40    4.10
   3  -5  -1   28.90    2.70
   3  -5  -1   27.30    3.20
   2  -5  -1    1.00    1.00
   2  -5  -1    1.30    1.30
   2  -5  -1   -0.30    1.70
  -2   5   1    1.00    0.70
   1  -5  -1    2.50    1.20
   1  -5  -1    1.20    1.60
   1  -5  -1    2.70    0.70
   1  -5  -1    3.20    1.10
  -1   5   1    1.40    0.70
  -1   5   1    2.30    0.60
  -1   5   1    1.90    1.20
  -1   5   1    2.20    0.60
   0  -5  -1  100.99    4.00
   0  -5  -1   95.89    4.00
   0  -5  -1  101.79    5.00
   0  -5  -1   99.79    4.20
   0   5   1   96.29    4.00
   0   5   1  101.69    5.70
   0   5   1   95.69    3.90
  -1  -5  -1  115.49    4.90
  -1  -5  -1  113.09    5.90
  -1  -5  -1  111.39    4.70
   1   5   1  108.99    4.60
   1   5   1  106.09    7.90
   1   5   1  111.29    5.90
   1   5   1   96.39    3.90
   1   5   1  100.09    3.90
   1   5   1  113.69    6.20
   1   5   1  101.39    4.50
  -2  -5  -1   22.30    2.60
  -2  -5  -1   22.80    2.50
  -2  -5  -1   26.90    2.30
   2   5   1   19.60    3.00
   2   5   1   21.00    3.80
   2   5   1   20.20    2.20
   2   5   1   20.50    2.70
  -3  -5  -1   49.40    3.40
  -3  -5  -1   47.70    4.00
  -3  -5  -1   50.09    3.70
  -3  -5  -1   44.10    2.20
  -3  -5  -1   47.60    4.70
   3   5   1   48.70    5.10
   3   5   1   50.49    4.40
   3   5   1   48.40    3.30
  -4  -5  -1   39.10    4.90
  -4  -5  -1   35.50    3.60
  -4  -5  -1   37.00    2.70
   4   5   1   38.20    5.00
   4   5   1   33.80    3.10
   4   5   1   36.40    4.40
  -5  -5  -1   91.09    5.20
  -5  -5  -1   88.19    5.70
  -5  -5  -1   94.19    7.50
   5   5   1   92.59    7.10
   5   5   1   93.09    5.70
  -6  -5  -1   19.00    3.40
  -6  -5  -1   16.60    3.80
  -6  -5  -1   23.20    3.50
   6   5   1   23.00    3.80
  -7  -5  -1    0.00    1.10
  -7  -5  -1   -1.30    1.40
  -7  -5  -1   -1.40    2.80
   7   5   1    2.30    2.40
  -8  -5  -1    4.20    1.80
  -8  -5  -1    7.90    3.00
  -8  -5  -1    1.70    3.50
   8   5   1    3.00    2.70
  -9  -5  -1    1.30    1.50
  -9  -5  -1   -1.30    2.10
  -9  -5  -1   -2.70    2.80
   9   5   1    1.60    2.80
 -10  -5  -1   -6.10    3.90
 -10  -5  -1    3.90    2.00
  10   5   1    1.20    3.30
   7  -6  -1   18.30    5.10
   7  -6  -1   15.70    3.70
  -7   6   1   28.00    5.10
   6  -6  -1    3.40    3.50
   6  -6  -1    1.40    2.30
  -6   6   1    7.80    2.70
   5  -6  -1    5.70    3.40
   5  -6  -1    0.80    1.90
  -5   6   1    2.80    1.20
  -5   6   1    1.80    1.70
  -5   6   1    2.40    1.30
   4  -6  -1   12.90    2.80
   4  -6  -1   14.20    3.20
  -4   6   1   26.60    4.70
  -4   6   1   18.10    4.40
   3  -6  -1   21.80    3.40
   3  -6  -1   19.50    2.80
  -3   6   1   22.00    4.80
  -3   6   1   22.20    3.50
   2  -6  -1   59.09    3.80
   2  -6  -1   56.89    4.30
   2  -6  -1   56.09    4.80
  -2   6   1   61.09    4.80
  -2   6   1   53.59    6.10
   1  -6  -1   15.20    2.90
   1  -6  -1   16.30    1.50
   1  -6  -1   14.00    1.80
   1  -6  -1   13.80    2.20
  -1   6   1   14.60    1.20
  -1   6   1   17.50    2.60
  -1   6   1   16.60    1.30
   0  -6  -1  106.59    4.60
   0  -6  -1  111.49    4.50
   0  -6  -1  110.99    5.80
   0  -6  -1  112.99    5.80
   0  -6  -1  111.39    4.80
   0   6   1  106.29    4.40
   0   6   1  108.99    6.30
   0   6   1  105.79    8.80
  -1  -6  -1   56.79    3.30
  -1  -6  -1   58.39    3.70
  -1  -6  -1   61.69    4.30
   1   6   1   50.59    2.40
   1   6   1   53.29    2.40
   1   6   1   58.09    5.90
   1   6   1   55.59    4.30
   1   6   1   65.69    3.50
  -2  -6  -1   63.19    4.60
  -2  -6  -1   69.99    4.00
  -2  -6  -1   68.29    4.20
   2   6   1   72.09    5.10
   2   6   1   73.19    4.10
   2   6   1   64.99    6.40
  -3  -6  -1    9.50    2.40
  -3  -6  -1   13.30    2.00
  -3  -6  -1   11.50    2.30
   3   6   1   15.50    2.50
   3   6   1   17.70    3.40
   3   6   1    6.60    2.10
  -4  -6  -1    1.90    0.60
  -4  -6  -1    3.80    2.00
  -4  -6  -1    3.50    2.40
   4   6   1    3.10    1.50
   4   6   1    0.80    1.40
   4   6   1    5.00    1.80
  -5  -6  -1   24.60    3.30
  -5  -6  -1   28.80    4.70
  -5  -6  -1   32.50    3.00
   5   6   1   35.00    4.00
   5   6   1   38.40    5.80
  -6  -6  -1    3.00    1.20
  -6  -6  -1    4.80    2.60
  -6  -6  -1    3.20    2.90
   6   6   1    1.70    1.70
   6   6   1    8.20    2.80
  -7  -6  -1    1.30    2.30
  -7  -6  -1    0.90    1.20
  -7  -6  -1    0.00    3.00
   7   6   1   -1.30    1.50
   7   6   1    1.30    2.30
  -8  -6  -1   -1.00    3.70
  -8  -6  -1    2.40    2.60
  -8  -6  -1    2.80    1.50
   8   6   1    1.10    2.60
  -9  -6  -1    1.80    1.60
  -9  -6  -1    2.20    2.90
  -9  -6  -1   -4.10    3.50
   9   6   1   -1.80    2.40
  -6   7   1   32.40    5.10
  -6   7   1   32.20    4.80
   5  -7  -1    1.30    3.30
   5  -7  -1    3.10    2.20
  -5   7   1    7.10    2.40
   4  -7  -1   17.40    4.30
   4  -7  -1   18.30    3.30
  -4   7   1   29.00    5.20
  -4   7   1   34.50    5.20
  -4   7   1   22.50    4.20
   3  -7  -1    0.00    2.60
   3  -7  -1    1.80    1.70
  -3   7   1    1.10    1.10
  -3   7   1    1.90    1.80
   2  -7  -1   -1.20    2.40
   2  -7  -1    1.30    1.30
   2  -7  -1    2.10    1.90
  -2   7   1    0.10    0.90
  -2   7   1    1.00    1.30
   1  -7  -1   42.30    4.50
   1  -7  -1   43.70    3.20
   1  -7  -1   46.20    2.60
   1  -7  -1   45.60    4.20
   1  -7  -1   47.00    2.80
  -1   7   1   42.00    2.20
  -1   7   1   37.40    5.80
  -1   7   1   46.70    4.30
   0  -7  -1    0.60    2.20
   0  -7  -1    2.90    1.50
   0  -7  -1    0.80    1.60
   0  -7  -1    2.80    1.10
   0  -7  -1    0.90    1.10
   0   7   1    1.20    0.90
   0   7   1    2.70    1.10
   0   7   1    2.00    1.80
  -1  -7  -1   35.90    3.30
  -1  -7  -1   33.70    2.70
  -1  -7  -1   33.80    2.10
   1   7   1   30.50    1.60
   1   7   1   29.80    5.80
   1   7   1   33.60    3.50
   1   7   1   26.30    1.60
   1   7   1   37.40    2.90
  -2  -7  -1    5.90    1.80
  -2  -7  -1    6.70    2.20
   2   7   1    8.40    1.90
   2   7   1    3.90    1.40
   2   7   1    5.30    2.20
  -3  -7  -1  132.99    6.90
   3   7   1  139.09   10.90
   3   7   1  135.19    6.70
   3   7   1  136.59    8.60
  -4  -7  -1   12.50    2.80
  -4  -7  -1   11.50    3.40
   4   7   1   10.20    2.80
   4   7   1   16.60    3.00
   4   7   1   11.20    2.40
  -5  -7  -1    2.30    2.20
  -5  -7  -1    3.50    2.30
  -5  -7  -1    2.40    0.80
   5   7   1    5.70    2.10
   5   7   1    2.20    2.10
  -6  -7  -1   16.10    3.60
  -6  -7  -1    7.10    1.30
  -6  -7  -1    9.80    3.60
   6   7   1   13.50    3.30
   6   7   1    9.50    2.80
  -7  -7  -1    0.10    1.00
  -7  -7  -1   -2.60    3.00
  -7  -7  -1   -1.20    2.40
   7   7   1   -0.80    2.30
   7   7   1   -1.20    1.60
  -8  -7  -1   -2.00    3.50
  -8  -7  -1    0.30    2.10
   8   7   1    2.10    2.80
  -9  -7  -1    3.50    3.40
  -9  -7  -1   -3.70    3.90
   9   7   1    3.30    3.20
   4  -8  -1   10.30    3.70
   4  -8  -1   10.50    2.70
  -4   8   1    6.40    1.80
   3  -8  -1    1.70    2.90
   3  -8  -1   -1.10    1.40
  -3   8   1    4.00    1.70
  -3   8   1    0.60    1.00
   2  -8  -1    2.10    2.10
   2  -8  -1   -0.20    1.30
   2  -8  -1   -1.10    2.50
  -2   8   1    0.60    1.80
  -2   8   1   -0.20    0.80
   1  -8  -1   -1.40    1.00
   1  -8  -1    2.10    2.10
   1  -8  -1    0.20    1.90
   1  -8  -1    1.10    1.30
  -1   8   1    1.00    1.90
  -1   8   1    1.10    1.00
   0  -8  -1    6.30    1.40
   0  -8  -1    5.10    2.80
   0  -8  -1    7.20    2.50
   0   8   1    4.10    2.60
   0   8   1    6.00    1.50
   0   8   1    7.20    1.50
  -1  -8  -1   44.70    3.40
  -1  -8  -1   49.99    4.00
   1   8   1   40.40    6.30
   1   8   1   46.10    4.60
   1   8   1   33.10    1.60
   1   8   1   41.00    1.70
   1   8   1   45.50    3.30
  -2  -8  -1   76.29    5.10
  -2  -8  -1   70.29    4.60
   2   8   1   80.79    9.10
   2   8   1   73.29    4.80
   2   8   1   65.79    5.90
  -3  -8  -1   29.30    4.10
   3   8   1   28.60    5.00
   3   8   1   23.20    3.30
   3   8   1   14.90    3.80
  -4  -8  -1    0.00    2.10
   4   8   1    0.60    1.80
   4   8   1    2.10    2.20
   4   8   1   -0.40    1.60
  -5  -8  -1    2.30    3.10
  -5  -8  -1    8.60    2.90
   5   8   1    5.80    2.60
   5   8   1    3.90    2.50
  -6  -8  -1   -0.10    2.90
  -6  -8  -1    0.30    2.50
   6   8   1    1.30    2.10
   6   8   1    1.70    2.50
  -7  -8  -1   -1.30    2.40
  -7  -8  -1    0.20    2.50
   7   8   1   -0.50    2.00
   7   8   1   -0.30    2.40
  -8  -8  -1   -1.90    3.60
  -8  -8  -1    1.40    2.40
   8   8   1    1.20    2.90
  -9  -8  -1   -7.90    3.60
  -9  -8  -1    2.20    3.30
   9   8   1    0.40    3.20
  -4   9   1   59.09    6.30
  -4   9   1   50.69    7.00
   3  -9  -1   -1.80    1.40
   3  -9  -1    0.30    3.10
  -3   9   1    2.10    1.60
  -3   9   1    0.40    1.00
   2  -9  -1    0.70    2.90
   2  -9  -1    2.40    2.60
   2  -9  -1    1.40    1.70
  -2   9   1    2.00    1.20
  -2   9   1    4.40    2.40
   1  -9  -1   24.80    4.50
   1  -9  -1   22.60    2.50
   1  -9  -1   19.50    3.80
  -1   9   1   28.90    6.80
  -1   9   1   19.60    3.50
   0  -9  -1    8.90    2.90
   0  -9  -1    8.90    2.30
   0  -9  -1    8.60    3.30
   0   9   1    4.90    1.50
   0   9   1    5.80    2.60
  -1  -9  -1   13.50    3.70
   1   9   1    7.20    3.40
   1   9   1    6.30    1.70
  -2  -9  -1    1.90    2.30
   2   9   1    2.10    1.70
   2   9   1    0.00    2.20
   2   9   1   -1.40    1.20
  -3  -9  -1    1.00    2.00
   3   9   1   -2.10    1.60
   3   9   1    0.70    2.40
   3   9   1   -1.30    1.50
  -4  -9  -1    5.80    2.70
   4   9   1    2.80    2.80
   4   9   1    2.70    2.20
   4   9   1    0.50    1.90
  -5  -9  -1    3.30    2.50
   5   9   1    0.60    2.50
   5   9   1    3.50    2.40
  -6  -9  -1    3.10    2.80
   6   9   1    1.20    2.50
   6   9   1   -1.80    2.20
  -7  -9  -1    2.90    3.00
  -7  -9  -1    1.50    3.50
   7   9   1   -1.80    2.50
   7   9   1   -0.10    2.40
  -8  -9  -1   -3.20    3.60
  -8  -9  -1    0.10    3.00
   8   9   1   -0.20    2.70
   3 -10  -1    6.80    4.20
  -3  10   1   27.10    6.10
   2 -10  -1    2.60    3.40
  -2  10   1    5.70    2.70
   1 -10  -1    2.20    2.50
   1 -10  -1    0.80    1.40
   1 -10  -1   -0.10    2.90
  -1  10   1    5.80    2.90
   0 -10  -1    7.80    2.20
   0 -10  -1    9.40    3.10
   0 -10  -1    6.00    2.80
   0  10   1    6.30    3.20
  -1 -10  -1    5.40    2.50
  -1 -10  -1    0.70    2.90
   1  10   1    0.00    1.30
   1  10   1    1.70    2.20
  -2 -10  -1   -0.10    2.10
   2  10   1   -1.20    1.40
   2  10   1    3.90    2.70
  -3 -10  -1   -0.20    2.10
   3  10   1    0.70    2.90
   3  10   1   -2.70    1.50
  -4 -10  -1   -0.40    2.40
   4  10   1    0.30    2.00
   4  10   1    4.10    3.30
   4  10   1   -2.90    1.70
  -5 -10  -1    3.80    2.80
   5  10   1   -0.60    2.20
   5  10   1    2.00    3.30
  -6 -10  -1    2.80    3.00
   6  10   1   -0.10    2.50
   6  10   1   -0.90    2.80
  -7 -10  -1    2.70    3.20
   7  10   1   -1.70    2.50
   7  10   1   -0.30    2.90
   1 -11  -1    5.00    3.90
  -1  11   1    5.90    2.80
   0 -11  -1    1.10    2.00
   0 -11  -1    2.20    3.30
   0  11   1    4.60    2.60
  -1 -11  -1    6.20    3.70
  -1 -11  -1    5.00    2.60
   1  11   1   10.20    3.90
  -2 -11  -1    6.90    3.90
   2  11   1   10.50    4.20
   3  11   1    0.80    3.20
  -4 -11  -1    1.20    2.80
   4  11   1   -1.50    3.10
  -5 -11  -1    1.40    2.90
   5  11   1    1.00    3.40
  -6 -11  -1   -0.80    3.10
   6  11   1    1.80    3.10
   5  10  -2   11.30    5.10
  -5 -10   2   13.80    4.80
   4  10  -2   -2.70    3.30
  -4 -10   2   -0.80    3.00
   3  10  -2   -0.30    3.30
  -3 -10   2    1.50    3.00
   2  10  -2    0.20    3.70
  -2 -10   2    4.20    3.10
   1  10  -2   -0.10    3.00
  -1 -10   2   -1.40    2.60
  -1 -10   2   -0.70    3.00
   0  10  -2    3.70    3.20
   0 -10   2   -1.40    2.70
   0 -10   2   -3.10    2.10
   0 -10   2   -1.50    2.20
  -1  10  -2    2.10    3.00
   1 -10   2   -1.20    2.10
   1 -10   2   -0.20    3.20
   6   9  -2    1.50    3.00
   5   9  -2   -4.40    3.30
   5   9  -2    4.30    2.80
   4   9  -2    0.20    3.30
   4   9  -2    0.90    2.20
  -4  -9   2   -1.30    2.70
   3   9  -2   34.30    4.40
   3   9  -2   18.80    5.20
  -3  -9   2   34.10    5.10
   2   9  -2   11.20    4.00
  -2  -9   2   15.40    3.70
   1   9  -2   -0.50    2.90
  -1  -9   2    3.20    2.70
  -1  -9   2    2.60    2.40
   0   9  -2    0.80    2.70
   0  -9   2    1.80    2.10
   0  -9   2   -0.10    3.00
   0  -9   2   -0.10    2.20
  -1   9  -2    2.70    2.90
   1  -9   2    0.40    2.00
   1  -9   2    2.00    2.30
   1  -9   2    2.60    2.40
  -2   9  -2    4.70    2.80
   2  -9   2    6.90    3.80
   2  -9   2    3.40    2.70
   2  -9   2    8.40    2.10
  -3   9  -2    2.10    2.70
   3  -9   2    1.80    2.80
   7   8  -2   -1.50    2.80
   7   8  -2   -5.70    3.10
  -7  -8   2   -5.10    3.30
   6   8  -2    1.40    2.90
   6   8  -2   -2.60    3.00
   5   8  -2   -3.10    2.80
   5   8  -2   -0.30    2.30
   4   8  -2   -0.30    2.80
   4   8  -2    3.10    2.50
   3   8  -2    8.90    3.80
   3   8  -2    6.30    2.80
  -3  -8   2    6.20    3.10
   2   8  -2   -0.50    2.70
   2   8  -2    3.00    2.20
  -2  -8   2   -2.10    2.60
   1   8  -2   24.80    3.50
  -1  -8   2   27.60    4.00
   0   8  -2    0.10    1.90
   0  -8   2    0.00    2.00
   0  -8   2    2.70    2.10
  -1   8  -2   -1.30    2.10
   1  -8   2   -1.40    1.70
   1  -8   2    0.70    1.80
   1  -8   2    1.80    2.00
  -2   8  -2    1.50    2.00
   2  -8   2    0.10    2.10
   2  -8   2    3.30    2.90
   2  -8   2    2.10    1.70
  -3   8  -2    2.90    2.40
  -3   8  -2    4.00    1.80
   3  -8   2    0.40    3.00
   3  -8   2    0.60    1.20
  -4   8  -2    0.80    2.40
  -4   8  -2    4.60    1.80
   4  -8   2   -3.00    2.20
  -5   8  -2    8.40    3.00
   5  -8   2   -1.90    3.60
   8   7  -2    2.10    3.10
  -8  -7   2   -1.40    4.10
   7   7  -2    0.80    2.80
  -7  -7   2   -0.30    3.60
   6   7  -2   13.50    3.60
   6   7  -2    4.20    3.40
  -6  -7   2   10.20    3.80
   5   7  -2   -0.90    2.20
   5   7  -2   -0.30    2.70
  -5  -7   2    0.10    1.20
   4   7  -2    4.20    2.90
   4   7  -2    7.40    2.70
  -4  -7   2    1.30    1.20
   3   7  -2   32.50    4.00
   3   7  -2   37.10    8.00
   2   7  -2   30.80    7.50
   2   7  -2   24.60    3.50
  -2  -7   2   20.10    3.60
   1   7  -2    2.90    2.60
   1   7  -2    3.10    1.80
  -1  -7   2    3.80    2.00
  -1  -7   2    5.00    2.50
   0   7  -2   27.30    2.90
   0   7  -2   33.20    3.20
   0  -7   2   35.10    3.90
   0  -7   2   34.80    4.40
  -1   7  -2    4.20    2.60
   1  -7   2    9.90    2.70
   1  -7   2    8.30    2.50
   1  -7   2    7.60    2.20
  -2   7  -2    5.40    1.10
  -2   7  -2    8.40    3.10
   2  -7   2    9.00    3.20
   2  -7   2   10.30    2.10
   2  -7   2   10.00    2.80
  -3   7  -2    0.10    2.00
  -3   7  -2    0.20    1.40
   3  -7   2    0.30    1.10
   3  -7   2    0.40    2.70
  -4   7  -2    0.80    1.90
  -4   7  -2    1.20    1.20
   4  -7   2   -0.60    2.10
  -5   7  -2    3.40    2.10
  -5   7  -2    4.80    2.00
   5  -7   2    0.70    3.20
   6  -7   2    0.20    3.70
   8   6  -2    1.40    3.10
  -8  -6   2   -0.10    1.80
  -8  -6   2   -0.60    4.10
   7   6  -2   -0.50    2.70
  -7  -6   2   -1.80    1.40
  -7  -6   2   -4.20    3.00
  -7  -6   2   -0.30    2.60
   6   6  -2    0.40    2.70
   6   6  -2    9.40    3.30
  -6  -6   2    4.70    1.70
  -6  -6   2   10.10    3.40
  -6  -6   2    5.60    3.60
   5   6  -2    4.40    2.70
   5   6  -2    3.70    2.70
  -5  -6   2    4.00    2.80
  -5  -6   2    6.40    3.40
  -5  -6   2    4.30    1.50
   4   6  -2    4.70    2.60
   4   6  -2    7.50    2.50
  -4  -6   2    4.20    3.00
  -4  -6   2    7.80    2.80
  -4  -6   2    1.70    1.20
   3   6  -2   49.20    7.80
   3   6  -2   47.10    4.30
   3   6  -2   46.70    3.20
  -3  -6   2   42.90    4.10
  -3  -6   2   43.20    3.90
   2   6  -2  126.09   11.00
   2   6  -2  118.19    6.30
   2   6  -2  120.19    5.70
  -2  -6   2  121.69    6.40
   1   6  -2   20.60    2.60
   1   6  -2   11.50    3.20
   1   6  -2   18.70    2.70
   1   6  -2   18.60    2.20
  -1  -6   2   20.90    3.20
  -1  -6   2   16.60    2.60
  -1  -6   2   20.40    2.10
   0   6  -2    7.00    1.70
   0   6  -2    1.80    2.00
   0   6  -2    3.00    0.80
   0   6  -2    1.40    0.90
   0  -6   2    5.10    1.60
   0  -6   2    2.50    2.00
  -1   6  -2   11.80    1.90
  -1   6  -2   11.10    1.80
   1  -6   2   11.70    2.20
   1  -6   2   14.20    2.60
   1  -6   2   11.90    1.90
   1  -6   2   10.10    2.60
  -2   6  -2   23.90    2.50
  -2   6  -2   27.30    2.20
   2  -6   2   27.00    2.80
   2  -6   2   25.20    2.30
   2  -6   2   22.30    3.40
   2  -6   2   23.80    3.30
  -3   6  -2   89.69    9.00
  -3   6  -2   80.09    5.20
  -3   6  -2   87.99    9.00
   3  -6   2   76.89    6.00
   3  -6   2   74.59    3.80
  -4   6  -2   51.99    7.20
  -4   6  -2   49.80    7.00
  -4   6  -2   47.40    4.20
   4  -6   2   37.60    2.10
   4  -6   2   40.60    5.20
  -5   6  -2    0.60    1.10
  -5   6  -2    1.00    1.80
   5  -6   2   -0.40    2.10
  -6   6  -2    9.20    2.80
  -6   6  -2   20.10    4.90
   6  -6   2   10.10    4.00
  -7   6  -2    5.20    2.10
   7  -6   2   -0.80    3.80
   9   5  -2    2.10    3.40
  -9  -5   2   -4.20    4.30
  -9  -5   2    0.40    1.90
   8   5  -2    1.50    2.90
  -8  -5   2   -0.60    1.60
  -8  -5   2   -3.30    2.80
   7   5  -2   -1.30    1.90
  -7  -5   2   -1.90    2.30
  -7  -5   2   -4.70    2.90
  -7  -5   2   -0.60    1.40
   6   5  -2   14.80    3.50
   6   5  -2    6.70    2.90
  -6  -5   2    9.10    2.10
  -6  -5   2   10.90    3.50
  -6  -5   2   15.80    3.60
   5   5  -2    2.30    2.30
   5   5  -2   -0.50    1.90
  -5  -5   2    2.20    2.40
  -5  -5   2    1.90    1.30
  -5  -5   2    0.60    2.10
   4   5  -2   38.10    6.50
   4   5  -2   31.00    3.40
  -4  -5   2   37.20    5.90
  -4  -5   2   33.80    3.70
  -4  -5   2   30.60    3.80
   3   5  -2    7.60    2.40
   3   5  -2   13.00    2.60
   3   5  -2   12.90    1.80
  -3  -5   2    6.70    1.40
  -3  -5   2    7.30    1.40
  -3  -5   2   13.20    2.60
  -3  -5   2   11.00    2.80
   2   5  -2   23.90    5.40
   2   5  -2   21.00    2.50
   2   5  -2   21.30    2.10
  -2  -5   2   21.60    2.80
  -2  -5   2   20.80    2.50
   1   5  -2  101.49    5.20
   1   5  -2   95.79    5.30
   1   5  -2  100.29    8.50
   1   5  -2   99.99    5.00
  -1  -5   2  100.69    4.90
  -1  -5   2  105.09    5.60
  -1  -5   2  109.69    5.30
   0   5  -2   22.30    2.70
   0   5  -2   17.70    1.90
   0   5  -2   22.30    2.20
   0   5  -2   16.70    2.40
   0   5  -2   24.10    5.00
   0  -5   2   22.80    2.30
   0  -5   2   20.10    2.80
  -1   5  -2    6.20    1.30
  -1   5  -2    7.20    1.50
  -1   5  -2    3.70    1.60
  -1   5  -2    2.90    1.10
  -1   5  -2    7.00    2.10
   1  -5   2    6.90    1.50
   1  -5   2    4.60    2.20
   1  -5   2    6.00    1.60
   1  -5   2    5.40    1.70
  -2   5  -2    0.20    0.40
  -2   5  -2   -0.90    1.10
  -2   5  -2   -0.30    0.80
   2  -5   2    0.40    1.00
   2  -5   2   -2.00    1.00
   2  -5   2    0.00    1.80
   2  -5   2   -0.80    1.10
  -3   5  -2    3.60    1.80
  -3   5  -2    4.60    1.00
  -3   5  -2    3.90    1.90
   3  -5   2    3.00    2.40
   3  -5   2    6.90    1.30
   3  -5   2    7.00    1.40
  -4   5  -2    4.00    2.10
  -4   5  -2    4.70    2.00
   4  -5   2    6.20    1.00
   4  -5   2    5.90    2.40
   4  -5   2    6.90    1.10
  -5   5  -2   24.20    5.70
  -5   5  -2    9.60    2.70
   5  -5   2   13.70    3.60
  -6   5  -2    4.40    1.80
  -6   5  -2    2.30    1.70
   6  -5   2    1.30    2.30
  -7   5  -2    9.10    2.80
  -7   5  -2   11.30    3.50
   7  -5   2    7.80    4.00
   9   4  -2   -2.10    2.50
  -9  -4   2    0.30    2.00
  -9  -4   2   -3.00    4.00
   8   4  -2    3.00    2.90
  -8  -4   2    0.60    1.70
  -8  -4   2   -3.30    3.50
   7   4  -2   -1.70    2.40
   7   4  -2   -3.40    1.60
  -7  -4   2   -0.10    2.20
  -7  -4   2    1.10    1.70
  -7  -4   2   -3.00    3.00
   6   4  -2    2.50    2.40
   6   4  -2   -1.30    1.90
  -6  -4   2    2.70    2.40
  -6  -4   2    1.40    2.90
  -6  -4   2    1.80    1.50
   5   4  -2   21.40    3.10
   5   4  -2   12.30    3.00
  -5  -4   2   21.60    3.90
  -5  -4   2   16.20    3.80
  -5  -4   2   22.10    3.70
   4   4  -2   34.70    4.30
   4   4  -2   38.00    3.80
   4   4  -2   42.10    6.30
  -4  -4   2   37.10    3.70
  -4  -4   2   33.10    4.60
  -4  -4   2   34.90    3.90
   3   4  -2   88.29    5.10
   3   4  -2   93.99    7.90
   3   4  -2   85.39    4.70
  -3  -4   2   86.59    5.10
  -3  -4   2   87.99    6.80
  -3  -4   2   83.39    5.50
  -3  -4   2   78.39    4.90
   2   4  -2   92.39    5.00
   2   4  -2   95.19    7.60
   2   4  -2  100.79    4.90
  -2  -4   2  101.29    5.10
  -2  -4   2   95.69    5.30
  -2  -4   2   98.59    5.00
   1   4  -2  102.49    7.90
   1   4  -2  109.09    5.00
   1   4  -2  101.89    5.00
   1   4  -2  108.89    5.10
  -1  -4   2  107.09    4.90
  -1  -4   2  102.79    5.10
  -1  -4   2  106.49    5.00
  -1  -4   2  102.69    5.20
   0   4  -2   66.49    6.50
   0   4  -2   64.89    3.20
   0   4  -2   65.59    3.80
   0   4  -2   67.49    4.00
   0   4  -2   69.89    3.70
   0  -4   2   64.89    3.70
   0  -4   2   64.79    3.80
  -1   4  -2   22.20    1.60
  -1   4  -2   20.10    3.60
  -1   4  -2   22.90    2.60
  -1   4  -2   18.30    2.50
  -1   4  -2   20.90    1.90
   1  -4   2   22.00    2.10
   1  -4   2   22.30    2.70
   1  -4   2   21.40    2.20
  -2   4  -2   17.20    1.70
  -2   4  -2   16.40    3.70
  -2   4  -2   16.50    1.70
   2  -4   2   16.50    2.00
   2  -4   2   17.50    2.30
   2  -4   2   16.20    2.30
   2  -4   2   15.80    1.70
  -3   4  -2   11.50    1.30
  -3   4  -2    6.70    1.90
  -3   4  -2    7.30    2.00
   3  -4   2   12.40    1.70
   3  -4   2   12.80    2.30
   3  -4   2   11.70    2.60
  -4   4  -2    4.30    1.70
  -4   4  -2    6.20    2.00
  -4   4  -2    9.70    1.10
   4  -4   2   13.50    2.80
   4  -4   2    7.50    1.30
   4  -4   2   10.30    1.60
   4  -4   2    9.90    2.60
  -5   4  -2    0.60    1.30
  -5   4  -2    0.30    1.20
   5  -4   2    2.00    2.00
   5  -4   2    0.70    0.90
   5  -4   2    0.70    0.80
   5  -4   2    1.30    2.00
  -6   4  -2    8.60    2.60
  -6   4  -2   17.80    4.20
  -6   4  -2    8.90    3.20
   6  -4   2   11.50    3.20
   6  -4   2   11.20    1.40
   6  -4   2    8.50    3.50
  -7   4  -2    4.00    2.60
  -7   4  -2    1.00    1.60
   7  -4   2   -1.00    3.10
   7  -4   2    0.10    2.00
  -8   4  -2    1.10    2.50
  -8   4  -2    1.80    2.20
   8  -4   2    0.90    2.90
   9   3  -2    1.60    2.90
  -9  -3   2    0.60    1.70
  -9  -3   2   -5.50    3.60
   8   3  -2    2.70    2.70
  -8  -3   2    1.20    1.70
  -8  -3   2   -1.00    3.60
   7   3  -2   17.90    3.10
   7   3  -2   19.00    3.70
  -7  -3   2   12.20    2.60
  -7  -3   2   20.60    3.70
  -7  -3   2   14.80    4.50
   6   3  -2    7.80    2.00
   6   3  -2    9.00    2.80
  -6  -3   2    9.20    2.80
  -6  -3   2    6.30    3.40
  -6  -3   2    4.30    1.70
  -6  -3   2   11.50    2.40
   5   3  -2   -0.90    1.70
   5   3  -2   -0.70    1.00
   5   3  -2   -0.20    1.70
   5   3  -2    0.70    1.20
  -5  -3   2    0.00    0.60
  -5  -3   2   -0.50    2.20
  -5  -3   2   -0.70    1.60
  -5  -3   2    0.00    1.20
   4   3  -2    8.70    2.10
   4   3  -2   13.30    2.50
   4   3  -2   11.10    1.50
   4   3  -2    6.90    1.50
  -4  -3   2   13.60    2.40
  -4  -3   2   11.00    2.50
  -4  -3   2   16.10    2.90
   3   3  -2  152.78    7.30
   3   3  -2  158.58    7.10
   3   3  -2  169.28   10.40
  -3  -3   2  163.28    9.10
  -3  -3   2  160.98    7.30
  -3  -3   2  165.18    9.80
  -3  -3   2  160.48    8.20
  -3  -3   2  173.18    7.70
   2   3  -2   20.90    3.70
   2   3  -2   18.80    2.30
   2   3  -2   13.50    2.10
   2   3  -2   17.70    2.80
   2   3  -2   21.00    2.00
  -2  -3   2   16.60    2.30
  -2  -3   2   19.30    2.20
  -2  -3   2   17.60    2.60
  -2  -3   2   17.10    1.90
  -2  -3   2   16.40    3.30
   1   3  -2    1.90    1.10
   1   3  -2    1.10    0.90
   1   3  -2    1.30    0.60
   1   3  -2    0.80    1.00
   1   3  -2    1.40    1.20
  -1  -3   2    1.00    0.90
  -1  -3   2    2.20    1.10
  -1  -3   2    0.90    0.70
  -1  -3   2    1.40    1.20
  -1  -3   2    0.90    0.50
   0   3  -2   14.10    1.70
   0   3  -2   15.70    1.80
   0   3  -2   17.20    1.80
   0   3  -2   13.00    1.60
   0   3  -2   13.50    2.80
   0  -3   2   14.10    2.60
   0  -3   2   15.50    2.10
   0  -3   2   13.30    1.70
  -1   3  -2   86.99    4.60
  -1   3  -2   79.29    4.50
  -1   3  -2   82.29    3.60
  -1   3  -2   81.59    6.30
  -1   3  -2   81.39    3.60
   1  -3   2   80.49    3.80
   1  -3   2   89.59    3.80
   1  -3   2   87.69    6.20
   1  -3   2   83.59    4.20
  -2   3  -2    2.10    0.80
  -2   3  -2    2.40    0.90
  -2   3  -2    0.70    0.80
  -2   3  -2    1.50    1.10
   2  -3   2    2.80    1.30
   2  -3   2    0.80    0.90
   2  -3   2    2.50    1.20
   2  -3   2    2.20    1.20
   2  -3   2    2.80    1.00
  -3   3  -2  269.57   15.20
  -3   3  -2  267.47   14.90
  -3   3  -2  271.37    8.90
   3  -3   2  293.77   12.00
   3  -3   2  265.77    9.90
   3  -3   2  272.87    9.00
  -4   3  -2    4.80    0.90
  -4   3  -2    5.40    1.00
  -4   3  -2    3.30    1.40
  -4   3  -2    3.10    1.50
  -4   3  -2    2.00    1.20
   4  -3   2    3.70    2.10
   4  -3   2    3.60    1.90
   4  -3   2    3.30    1.10
  -5   3  -2    5.80    2.10
  -5   3  -2   11.50    1.30
  -5   3  -2    6.90    1.80
   5  -3   2   11.60    1.60
   5  -3   2   10.20    2.90
   5  -3   2   10.80    1.70
   5  -3   2   14.50    3.20
  -6   3  -2   -0.50    1.40
  -6   3  -2    1.40    1.70
  -6   3  -2    0.20    1.00
   6  -3   2    1.40    2.10
   6  -3   2   -0.60    1.10
   6  -3   2    0.10    1.40
  -7   3  -2    1.90    1.90
  -7   3  -2    3.70    2.40
   7  -3   2    6.50    2.80
   7  -3   2    3.80    2.60
   7  -3   2    3.90    1.40
  -8   3  -2    6.60    3.20
  -8   3  -2    4.60    2.50
   8  -3   2    9.60    3.40
   8  -3   2    7.00    4.00
   9   2  -2   -0.80    2.80
  -9  -2   2   -3.80    3.60
  -9  -2   2    2.50    2.20
   8   2  -2    3.50    2.50
   8   2  -2    1.20    2.10
   8   2  -2    1.20    2.30
  -8  -2   2    2.20    3.00
  -8  -2   2    1.20    1.80
   7   2  -2   18.60    3.50
   7   2  -2   22.00    3.20
  -7  -2   2   12.20    2.80
  -7  -2   2   22.80    3.60
  -7  -2   2   13.00    4.10
   6   2  -2  128.49    7.10
   6   2  -2  133.49    6.60
   6   2  -2  129.99    7.50
  -6  -2   2  140.19    7.20
  -6  -2   2  130.19    9.40
  -6  -2   2  130.99    8.30
  -6  -2   2  143.79    8.60
   5   2  -2    0.50    1.40
   5   2  -2   -0.40    1.10
   5   2  -2   -0.30    0.70
   5   2  -2    2.50    1.90
  -5  -2   2    0.60    1.10
  -5  -2   2   -0.20    1.60
  -5  -2   2    0.60    0.70
  -5  -2   2    1.10    1.80
   4   2  -2  177.58   10.50
   4   2  -2  165.68    8.40
   4   2  -2  155.68    7.20
   4   2  -2  144.99    7.00
   4   2  -2  155.78    6.30
  -4  -2   2  168.38    9.50
  -4  -2   2  161.88    8.20
  -4  -2   2  166.68    9.60
  -4  -2   2  161.78    7.20
   3   2  -2   26.60    2.70
   3   2  -2   31.90    4.60
   3   2  -2   29.40    2.00
   3   2  -2   28.40    2.80
   3   2  -2   26.40    2.60
  -3  -2   2   26.40    3.70
  -3  -2   2   28.20    3.20
  -3  -2   2   25.70    2.70
  -3  -2   2   27.20    2.90
   2   2  -2  112.49    5.40
   2   2  -2  120.79    6.60
   2   2  -2  118.59    7.70
   2   2  -2  119.89    5.30
   2   2  -2  118.29    5.20
  -2  -2   2  113.29    6.50
  -2  -2   2  114.09    5.10
  -2  -2   2  113.59    5.50
  -2  -2   2  122.29    7.40
   1   2  -2  449.66   15.50
   1   2  -2  410.26   13.70
   1   2  -2  436.36   13.90
   1   2  -2  410.16   20.50
   1   2  -2  429.46   17.00
  -1  -2   2  428.36   13.90
  -1  -2   2  427.26   15.50
  -1  -2   2  411.56   13.60
  -1  -2   2  423.86   16.00
  -1  -2   2  424.16   20.40
   0   2  -2  627.84   21.60
   0   2  -2  618.24   18.90
   0   2  -2  646.84   20.80
   0   2  -2  601.24   28.60
   0  -2   2  607.74   19.00
   0  -2   2  540.95   22.10
   0  -2   2  616.24   21.60
   0  -2   2  646.94   19.00
   0  -2   2  649.04   28.60
  -1   2  -2   52.59    2.60
  -1   2  -2   50.49    2.50
  -1   2  -2   46.80    4.10
  -1   2  -2   49.50    3.10
   1  -2   2   49.80    2.60
   1  -2   2   50.89    3.10
   1  -2   2   47.20    4.00
   1  -2   2   48.60    2.50
  -2   2  -2  547.45   17.30
  -2   2  -2  594.64   26.60
  -2   2  -2  549.15   26.70
  -2   2  -2  580.94   17.40
   2  -2   2  563.34   17.40
   2  -2   2  565.44   17.30
   2  -2   2  574.74   26.70
   2  -2   2  568.64   17.40
   2  -2   2  573.84   17.80
   2  -2   2  616.24   20.60
  -3   2  -2   76.69    5.60
  -3   2  -2   75.39    3.80
  -3   2  -2   70.09    5.90
  -3   2  -2   76.49    3.20
  -3   2  -2   76.59    3.20
   3  -2   2   79.89    4.20
   3  -2   2   75.79    3.40
   3  -2   2   73.59    3.30
   3  -2   2   75.29    4.60
  -4   2  -2    0.60    0.70
  -4   2  -2    1.60    1.10
  -4   2  -2    0.80    0.80
  -4   2  -2    0.40    0.80
  -4   2  -2    0.90    1.10
   4  -2   2    1.50    1.00
   4  -2   2    0.30    1.50
   4  -2   2    0.80    1.00
   4  -2   2   -0.20    1.70
  -5   2  -2   42.80    4.20
  -5   2  -2   36.70    2.30
  -5   2  -2   40.10    4.90
  -5   2  -2   38.70    5.60
   5  -2   2   37.00    2.60
   5  -2   2   31.50    3.50
   5  -2   2   36.30    2.70
   5  -2   2   34.80    3.50
  -6   2  -2   34.00    3.80
  -6   2  -2   39.20    6.30
  -6   2  -2   29.30    5.00
  -6   2  -2   30.70    2.40
   6  -2   2   32.20    2.70
   6  -2   2   28.60    4.00
   6  -2   2   31.80    4.40
   6  -2   2   32.30    2.90
  -7   2  -2    4.70    2.90
  -7   2  -2    2.60    2.00
   7  -2   2    3.70    2.50
   7  -2   2    4.70    1.70
   7  -2   2    8.00    2.80
  -8   2  -2   -1.00    1.90
  -8   2  -2   -0.50    2.60
   8  -2   2    1.50    2.20
   8  -2   2    3.20    1.70
  -9   2  -2   -2.60    2.30
  -9   2  -2    1.00    3.00
   9  -2   2    2.80    1.70
   9   1  -2   -3.00    2.40
   9   1  -2   -0.70    2.50
  -9  -1   2    2.20    2.10
  -9  -1   2   -2.60    3.40
   8   1  -2    0.50    2.10
   8   1  -2   -0.30    1.90
   8   1  -2    0.80    1.60
  -8  -1   2   -0.30    1.60
  -8  -1   2    0.70    3.30
   7   1  -2    7.10    2.20
   7   1  -2    8.80    2.50
   7   1  -2    7.30    2.30
  -7  -1   2    7.40    3.50
  -7  -1   2    4.10    1.90
   6   1  -2    4.70    1.70
   6   1  -2    7.00    2.20
   6   1  -2    2.80    1.60
   6   1  -2    2.80    1.80
  -6  -1   2    4.00    1.50
  -6  -1   2    4.30    2.80
  -6  -1   2    1.20    1.00
  -6  -1   2    4.20    1.90
   5   1  -2    9.70    2.20
   5   1  -2   11.00    1.70
   5   1  -2    9.00    2.00
   5   1  -2    9.30    2.20
  -5  -1   2    7.40    1.70
  -5  -1   2    9.30    2.20
  -5  -1   2    9.30    2.70
   4   1  -2   59.29    3.80
   4   1  -2   48.90    3.40
   4   1  -2   51.99    3.50
   4   1  -2   53.59    3.30
  -4  -1   2   53.19    3.50
  -4  -1   2   49.80    4.60
  -4  -1   2   52.49    4.30
  -4  -1   2   50.99    4.40
   3   1  -2   42.90    2.80
   3   1  -2   44.60    3.80
   3   1  -2   41.40    2.90
   3   1  -2   41.90    2.60
   3   1  -2   42.40    4.30
   3   1  -2   44.10    3.00
  -3  -1   2   42.50    2.80
  -3  -1   2   46.20    4.00
  -3  -1   2   41.40    3.70
  -3  -1   2   41.30    3.00
  -3  -1   2   40.20    3.40
   2   1  -2  159.18    6.20
   2   1  -2  155.88    7.50
   2   1  -2  168.38    6.30
   2   1  -2  161.28    7.00
   2   1  -2  163.18    9.20
  -2  -1   2  160.98    8.90
  -2  -1   2  164.18    7.20
  -2  -1   2  157.88    7.70
  -2  -1   2  162.08    6.10
   1   1  -2  111.29    4.90
   1   1  -2  102.59    6.40
   1   1  -2  107.79    5.40
   1   1  -2  101.59    4.30
   1   1  -2  101.59    4.30
  -1  -1   2  108.79    6.50
  -1  -1   2  110.99    5.40
  -1  -1   2  104.29    4.40
  -1  -1   2  107.89    4.90
  -1  -1   2  102.89    4.20
   0   1  -2  826.12   24.50
   0   1  -2  854.41   28.10
   0   1  -2  775.52   36.50
   0   1  -2  830.82   24.40
   0  -1   2  800.32   26.60
   0  -1   2  805.82   24.40
   0  -1   2  816.92   28.10
   0  -1   2  802.62   24.50
   0  -1   2  863.01   36.60
  -1   1  -2   99.49    3.80
  -1   1  -2  100.59    6.10
  -1   1  -2   99.39    4.60
  -1   1  -2   99.79    3.80
  -1   1  -2   99.89    4.00
  -1   1  -2   94.69    5.90
   1  -1   2  103.49    3.90
   1  -1   2   97.79    5.90
   1  -1   2   98.19    3.80
  -2   1  -2  493.25   15.50
  -2   1  -2  521.75   23.40
  -2   1  -2  513.75   15.50
  -2   1  -2  479.35   23.10
  -2   1  -2  517.75   15.50
   2  -1   2  523.15   23.30
   2  -1   2  507.45   15.50
   2  -1   2  515.55   15.50
  -3   1  -2  123.49    4.60
  -3   1  -2  122.99    4.60
  -3   1  -2  126.79    7.10
  -3   1  -2  121.89    7.90
  -3   1  -2  121.49    5.00
   3  -1   2  124.39    4.70
   3  -1   2  130.39    5.20
   3  -1   2  121.59    4.70
   3  -1   2  121.09    7.60
  -4   1  -2  634.64   29.60
  -4   1  -2  646.04   28.80
  -4   1  -2  634.14   19.40
  -4   1  -2  641.14   19.50
   4  -1   2  628.74   19.60
   4  -1   2  639.14   19.50
   4  -1   2  615.84   19.50
  -5   1  -2    4.80    1.50
  -5   1  -2   10.80    1.70
  -5   1  -2    5.50    2.10
  -5   1  -2    4.70    1.00
   5  -1   2    9.50    1.70
   5  -1   2   10.90    2.60
  -6   1  -2    0.40    1.50
  -6   1  -2   -1.60    1.00
  -6   1  -2    0.20    1.90
  -6   1  -2   -0.20    0.60
   6  -1   2    0.10    1.30
   6  -1   2    0.40    1.80
   6  -1   2    1.80    1.90
   6  -1   2    1.40    1.50
  -7   1  -2    1.50    2.40
  -7   1  -2    0.20    1.60
   7  -1   2    1.40    1.70
   7  -1   2    0.10    1.80
  -8   1  -2    1.20    2.70
  -8   1  -2    0.10    2.20
   8  -1   2    0.30    1.70
   8  -1   2   -1.30    1.70
  -9   1  -2   -2.60    1.90
  -9   1  -2    1.20    3.00
   9  -1   2    1.60    1.90
   9  -1   2   -1.30    2.10
   9   0  -2   -0.70    2.10
   9   0  -2   -1.10    2.10
  -9   0   2   -2.60    3.10
  -9   0   2    1.40    1.90
   8   0  -2   -2.00    2.00
   8   0  -2    1.20    1.70
   8   0  -2    3.40    2.10
  -8   0   2   -0.90    2.90
  -8   0   2    0.60    1.70
   7   0  -2   10.30    2.50
   7   0  -2   11.40    2.60
   7   0  -2   16.60    2.80
  -7   0   2    9.00    2.50
  -7   0   2   10.70    3.40
   6   0  -2   -0.20    1.50
   6   0  -2   -1.30    1.50
   6   0  -2    0.40    1.60
   6   0  -2   -0.30    1.30
  -6   0   2   -0.80    2.20
  -6   0   2   -1.20    1.20
  -6   0   2   -0.30    0.90
   5   0  -2    7.50    2.00
   5   0  -2    7.90    1.80
   5   0  -2    5.90    1.90
   5   0  -2    7.90    1.80
  -5   0   2    4.20    1.10
  -5   0   2    2.90    1.40
  -5   0   2    5.90    1.60
  -5   0   2    4.80    2.20
   4   0  -2  224.38    8.40
   4   0  -2  223.68    8.40
   4   0  -2  223.38    8.80
   4   0  -2  222.88    8.50
  -4   0   2  196.18   10.10
  -4   0   2  226.98   10.90
  -4   0   2  222.18   11.80
  -4   0   2  217.98   10.30
   3   0  -2   21.90    2.50
   3   0  -2   24.10    1.90
   3   0  -2   26.60    2.10
   3   0  -2   24.90    2.20
   3   0  -2   23.20    2.20
  -3   0   2   22.40    3.20
  -3   0   2   23.60    2.80
  -3   0   2   24.70    1.90
  -3   0   2   23.20    2.70
  -3   0   2   26.00    1.90
   2   0  -2    9.90    1.00
   2   0  -2   10.20    1.80
   2   0  -2   10.00    1.30
   2   0  -2   10.20    1.50
   2   0  -2   11.00    1.50
  -2   0   2   11.40    2.40
  -2   0   2   10.30    1.50
  -2   0   2    8.10    1.20
  -2   0   2    8.70    1.50
  -2   0   2   10.90    2.00
   1   0  -2  978.30   34.40
   1   0  -2 1000.30   42.10
   1   0  -2  959.70   32.60
   1   0  -2  929.91   28.20
  -1   0   2  978.00   42.00
  -1   0   2  948.81   32.70
  -1   0   2  964.40   28.10
  -1   0   2  979.40   34.40
  -1   0   2  833.22   28.10
   0   0  -2   11.10    1.40
   0   0  -2   14.10    1.20
   0   0  -2   13.00    1.40
   0   0  -2   18.70    2.50
   0   0  -2   12.90    1.40
   0   0  -2   14.70    1.30
   0   0   2   11.30    1.40
   0   0   2   13.20    1.20
   0   0   2   13.00    1.10
   0   0   2   15.20    2.20
   0   0   2   14.60    1.40
  -1   0  -2  179.68    6.00
  -1   0  -2  187.28    9.10
  -1   0  -2  181.18    7.10
  -1   0  -2  179.48    7.10
  -1   0  -2  177.98    6.00
  -1   0  -2  182.98    8.90
   1   0   2  180.78    6.00
   1   0   2  175.58    8.90
   1   0   2  180.08    6.00
   1   0   2  182.78    8.80
   1   0   2  178.28    7.10
  -2   0  -2   50.29    2.40
  -2   0  -2   53.79    2.40
  -2   0  -2   57.79    3.20
  -2   0  -2   48.30    3.40
  -2   0  -2   43.60    3.70
   2   0   2   51.99    2.50
   2   0   2   46.70    3.20
   2   0   2   52.09    2.50
   2   0   2   54.09    3.90
  -3   0  -2    5.10    1.30
  -3   0  -2    6.90    1.20
  -3   0  -2    8.50    1.50
  -3   0  -2    4.50    1.20
  -3   0  -2    7.70    1.10
  -3   0  -2    9.40    1.90
   3   0   2    7.40    1.30
   3   0   2    9.80    1.50
   3   0   2    9.10    2.10
   3   0   2    8.70    1.30
   3   0   2    8.10    1.30
  -4   0  -2  140.89    8.80
  -4   0  -2  139.19    7.50
  -4   0  -2  145.89    7.70
  -4   0  -2  126.39    5.40
  -4   0  -2  138.69    7.00
  -4   0  -2  141.49    5.40
   4   0   2  146.09    8.60
   4   0   2  138.29    5.60
   4   0   2  137.99    5.50
   4   0   2  138.69    5.70
  -5   0  -2   30.10    4.10
  -5   0  -2   23.70    2.00
  -5   0  -2   27.70    2.30
  -5   0  -2   25.70    4.30
   5   0   2   24.90    2.40
   5   0   2   24.40    2.30
   5   0   2   28.40    3.30
  -6   0  -2   36.70    4.70
  -6   0  -2   43.70    3.30
  -6   0  -2   46.30    6.10
   6   0   2   41.50    3.20
   6   0   2   45.10    3.50
  -7   0  -2    5.10    3.00
  -7   0  -2    7.30    2.00
  -7   0  -2    3.30    2.10
   7   0   2    4.90    1.90
  -8   0  -2   -0.40    1.90
  -8   0  -2    1.20    2.80
   8   0   2   -1.00    1.90
   8   0   2    3.20    2.30
  -9   0  -2   -0.90    2.10
  -9   0  -2   -0.80    3.00
   9   0   2    1.70    2.30
   9   0   2    1.10    2.20
 -10   0  -2   -2.30    2.40
  10   0   2    3.40    2.40
   9  -1  -2    2.30    2.20
   9  -1  -2    0.20    2.70
  -9   1   2   -0.90    3.20
  -9   1   2    2.40    1.90
   8  -1  -2    7.00    2.40
   8  -1  -2    3.90    2.70
   8  -1  -2    7.20    2.50
  -8   1   2    0.70    3.00
  -8   1   2    5.70    2.30
   7  -1  -2    1.80    2.00
   7  -1  -2    3.60    2.40
   7  -1  -2    4.40    2.20
  -7   1   2    2.20    1.80
  -7   1   2    1.30    2.80
   6  -1  -2    1.10    1.50
   6  -1  -2   -0.50    1.30
   6  -1  -2    2.00    1.70
   6  -1  -2    0.10    1.30
  -6   1   2   -0.50    1.20
  -6   1   2   -0.50    1.30
  -6   1   2   -2.50    1.80
  -6   1   2   -0.40    1.00
   5  -1  -2   19.90    2.50
   5  -1  -2   19.10    2.50
   5  -1  -2   19.40    2.70
   5  -1  -2   18.20    2.40
  -5   1   2   19.50    3.10
  -5   1   2   13.20    2.80
   4  -1  -2   83.39    4.70
   4  -1  -2   86.59    4.20
   4  -1  -2   89.09    4.90
   4  -1  -2   85.29    4.20
  -4   1   2   83.89    6.30
  -4   1   2   86.59    5.30
  -4   1   2   87.09    6.10
  -4   1   2   84.49    5.80
   3  -1  -2  116.59    5.30
   3  -1  -2  112.19    6.10
   3  -1  -2  108.19    5.00
   3  -1  -2  119.39    4.70
   3  -1  -2  105.19    4.50
  -3   1   2  123.59    6.50
  -3   1   2  112.89    5.90
  -3   1   2  120.49    7.20
  -3   1   2  113.99    4.50
  -3   1   2  114.79    4.60
  -3   1   2  104.29    6.10
   2  -1  -2  152.08    7.00
   2  -1  -2  151.58    5.50
   2  -1  -2  152.48    5.70
   2  -1  -2  155.98    5.50
  -2   1   2  139.39    6.90
  -2   1   2  150.18    5.30
  -2   1   2  154.28    7.00
  -2   1   2  159.38    7.20
  -2   1   2  158.08    5.50
   1  -1  -2   11.50    1.40
   1  -1  -2   11.10    1.20
   1  -1  -2   10.70    1.30
   1  -1  -2    7.50    1.50
  -1   1   2   13.00    1.50
  -1   1   2    9.90    1.60
  -1   1   2   11.00    1.20
  -1   1   2   11.60    1.30
   0  -1  -2 3552.64  116.39
   0  -1  -2 3445.06  120.99
   0  -1  -2 3433.76  101.29
   0  -1  -2 3374.06  143.49
   0  -1  -2 3298.57  100.99
   0   1   2 3532.55  143.89
   0   1   2 3501.05  126.19
   0   1   2 3465.35  101.49
   0   1   2 3466.45  121.19
   0   1   2 3301.77  115.89
   0   1   2 3373.56  100.99
  -1  -1  -2   36.10    2.80
  -1  -1  -2   32.80    2.00
  -1  -1  -2   30.70    2.00
  -1  -1  -2   31.90    1.70
  -1  -1  -2   28.40    1.70
   1   1   2   32.40    2.00
   1   1   2   30.90    2.10
   1   1   2   32.00    1.80
   1   1   2   33.70    1.80
   1   1   2   34.80    2.70
   1   1   2   32.80    2.60
  -2  -1  -2  253.37    8.20
  -2  -1  -2  253.37   10.00
  -2  -1  -2  250.87   10.20
  -2  -1  -2  255.27    8.20
  -2  -1  -2  224.08   11.80
   2   1   2  242.28    8.10
   2   1   2  261.37   12.00
   2   1   2  252.57   10.30
   2   1   2  246.28   11.40
   2   1   2  249.28    8.20
  -3  -1  -2   69.49    4.30
  -3  -1  -2   69.79    4.40
  -3  -1  -2   80.49    3.50
  -3  -1  -2   77.29    3.40
  -3  -1  -2   76.79    5.40
   3   1   2   70.59    3.70
   3   1   2   76.99    3.50
   3   1   2   73.79    5.00
   3   1   2   73.09    3.40
  -4  -1  -2   69.59    3.50
  -4  -1  -2   72.09    5.00
  -4  -1  -2   73.99    5.80
  -4  -1  -2   65.19    4.80
  -4  -1  -2   70.69    3.60
   4   1   2   65.09    3.60
   4   1   2   68.29    3.60
   4   1   2   73.89    5.50
  -5  -1  -2   29.40    4.30
  -5  -1  -2   25.50    2.50
  -5  -1  -2   20.10    3.20
   5   1   2   21.70    2.70
   5   1   2   20.90    2.60
  -6  -1  -2   44.50    5.50
  -6  -1  -2   44.00    3.60
  -6  -1  -2   49.50    6.00
   6   1   2   46.40    3.60
   6   1   2   40.40    3.40
  -7  -1  -2   -0.10    1.70
  -7  -1  -2    1.80    1.60
  -7  -1  -2    0.50    2.40
   7   1   2    3.00    1.90
   7   1   2    3.30    1.70
  -8  -1  -2    9.10    3.60
   8   1   2    8.20    2.60
  -9  -1  -2    2.40    3.60
  -9  -1  -2    1.80    2.30
   9   1   2   12.30    3.20
 -10  -1  -2   -1.60    2.90
  10   1   2    2.70    2.50
  10   1   2    4.00    2.70
   8  -2  -2    0.80    1.70
   8  -2  -2    1.20    1.90
  -8   2   2   -2.30    2.70
  -8   2   2    2.00    1.80
   7  -2  -2   29.00    4.00
   7  -2  -2   22.40    3.40
   7  -2  -2   27.80    3.20
  -7   2   2   32.40    5.90
  -7   2   2   29.90    5.60
   6  -2  -2   13.80    2.20
   6  -2  -2   13.90    2.90
   6  -2  -2   11.60    2.90
  -6   2   2    8.70    3.10
  -6   2   2    8.50    2.30
  -6   2   2    5.80    1.50
   5  -2  -2    6.80    1.90
   5  -2  -2    9.30    2.20
   5  -2  -2    7.20    1.60
   5  -2  -2    7.30    1.60
  -5   2   2    6.00    2.40
  -5   2   2    8.10    1.40
  -5   2   2    4.60    1.70
  -5   2   2    4.70    1.30
   4  -2  -2   17.00    2.50
   4  -2  -2   15.70    1.80
   4  -2  -2   14.20    2.40
   4  -2  -2   14.90    2.30
   4  -2  -2   14.30    1.80
  -4   2   2   14.20    2.70
  -4   2   2   14.90    2.60
  -4   2   2   18.00    1.70
   3  -2  -2  167.88    7.00
   3  -2  -2  182.28    7.00
   3  -2  -2  171.18    6.10
  -3   2   2  175.58    9.00
  -3   2   2  174.68    8.60
  -3   2   2  172.58    6.00
  -3   2   2  172.98    8.50
  -3   2   2  174.58    5.90
   2  -2  -2  323.97   10.20
   2  -2  -2  308.77   10.30
   2  -2  -2  313.07    9.70
  -2   2   2  310.67    9.60
  -2   2   2  319.87   12.80
  -2   2   2  322.57    9.70
  -2   2   2  317.27   11.70
  -2   2   2  291.37   12.30
   1  -2  -2    1.40    0.60
   1  -2  -2    1.00    0.50
   1  -2  -2    1.90    0.80
  -1   2   2    1.40    0.50
  -1   2   2    1.80    0.80
  -1   2   2    0.30    0.60
  -1   2   2    2.00    0.60
  -1   2   2    1.00    0.70
   0  -2  -2 2669.63   75.19
   0  -2  -2 2681.53   86.39
   0  -2  -2 2174.88   74.99
   0  -2  -2 2571.64   74.89
   0   2   2 2640.34   88.09
   0   2   2 2457.35   93.49
   0   2   2 2489.15   74.29
   0   2   2 2523.05   74.99
   0   2   2 2606.04   75.09
  -1  -2  -2    1.40    0.50
  -1  -2  -2    0.30    0.70
  -1  -2  -2    0.30    0.60
  -1  -2  -2    0.50    0.40
  -1  -2  -2    0.10    0.40
  -1  -2  -2   -0.10    0.50
   1   2   2    0.70    0.70
   1   2   2    1.50    0.60
   1   2   2    1.00    0.40
   1   2   2    0.40    0.60
   1   2   2    0.10    0.40
  -2  -2  -2 1680.53   45.90
  -2  -2  -2 1647.14   45.90
  -2  -2  -2 1444.06   56.99
  -2  -2  -2 1467.95   55.69
   2   2   2 1450.85   56.99
   2   2   2 1539.25   55.79
   2   2   2 1628.44   45.90
   2   2   2 1619.04   45.80
   2   2   2 1639.94   65.89
  -3  -2  -2  195.48    8.70
  -3  -2  -2  198.88    7.10
  -3  -2  -2  188.48    6.90
  -3  -2  -2  178.78   10.00
  -3  -2  -2  197.08    8.90
   3   2   2  187.88    7.00
   3   2   2  198.08   10.30
   3   2   2  183.18    8.90
   3   2   2  192.48    7.00
   3   2   2  193.18    8.60
  -4  -2  -2  334.37   16.30
  -4  -2  -2  305.47   14.10
  -4  -2  -2  325.27   11.10
  -4  -2  -2  326.77   11.30
  -4  -2  -2  340.47   14.20
   4   2   2  343.07   16.30
   4   2   2  316.07   13.80
   4   2   2  314.77   11.20
   4   2   2  316.37   11.20
  -5  -2  -2   41.30    5.10
  -5  -2  -2   34.50    4.30
  -5  -2  -2   38.00    3.10
   5   2   2   37.30    3.10
   5   2   2   38.70    3.10
   5   2   2   30.50    4.60
  -6  -2  -2    3.60    1.70
  -6  -2  -2    3.90    2.40
  -6  -2  -2    5.10    1.90
   6   2   2    6.20    1.90
   6   2   2    3.50    1.80
  -7  -2  -2   45.70    6.60
  -7  -2  -2   47.30    4.20
  -7  -2  -2   41.10    6.60
   7   2   2   46.60    4.20
  -8  -2  -2    1.30    1.90
  -8  -2  -2   -0.70    1.80
  -8  -2  -2    2.50    3.20
   8   2   2    3.70    2.30
  -9  -2  -2   -2.30    2.00
  -9  -2  -2   -1.20    3.00
   9   2   2    2.60    2.30
 -10  -2  -2   15.50    5.30
  10   2   2   21.50    4.30
   8  -3  -2    0.30    1.90
  -8   3   2    0.40    1.60
  -8   3   2   -1.10    2.50
   7  -3  -2    1.60    1.80
   7  -3  -2    3.30    1.40
  -7   3   2    4.70    1.90
  -7   3   2    4.30    2.70
   6  -3  -2  256.87    8.70
   6  -3  -2  238.78   11.00
  -6   3   2  236.68   13.90
  -6   3   2  243.38   13.00
  -6   3   2  245.08   13.60
   5  -3  -2   55.99    4.40
   5  -3  -2   56.19    3.00
   5  -3  -2   53.99    4.50
   5  -3  -2   59.19    3.00
  -5   3   2   58.79    5.70
  -5   3   2   55.99    2.60
  -5   3   2   63.09    5.70
  -5   3   2   57.89    5.90
   4  -3  -2    6.40    2.40
   4  -3  -2    5.00    1.10
   4  -3  -2    6.40    1.90
   4  -3  -2    5.30    1.00
  -4   3   2    5.30    0.80
  -4   3   2    5.60    1.90
  -4   3   2    5.10    0.70
  -4   3   2    3.50    1.10
   3  -3  -2  182.88    7.50
   3  -3  -2  184.28    5.80
   3  -3  -2  183.88    7.40
   3  -3  -2  180.78    5.80
  -3   3   2  162.78    8.00
  -3   3   2  183.28    8.90
  -3   3   2  180.38    5.50
  -3   3   2  181.48    5.60
  -3   3   2  161.58    7.40
   2  -3  -2   55.49    2.10
   2  -3  -2   55.29    3.20
   2  -3  -2   53.09    3.10
   2  -3  -2   57.09    2.20
  -2   3   2   59.89    4.00
  -2   3   2   57.89    2.00
  -2   3   2   62.89    3.70
  -2   3   2   53.39    1.90
  -2   3   2   57.09    3.90
  -2   3   2   59.09    3.50
   1  -3  -2    7.10    1.10
   1  -3  -2    8.50    1.50
   1  -3  -2    6.20    0.70
   1  -3  -2    7.60    0.80
  -1   3   2    3.80    0.80
  -1   3   2    6.60    0.70
  -1   3   2    7.20    1.40
  -1   3   2    6.60    0.70
   0  -3  -2   66.49    2.70
   0  -3  -2   66.39    2.70
   0  -3  -2   61.39    3.10
   0   3   2   72.09    3.30
   0   3   2   71.49    4.10
   0   3   2   66.59    2.60
   0   3   2   67.59    2.70
  -1  -3  -2   15.00    1.20
  -1  -3  -2   15.20    1.40
  -1  -3  -2   16.60    1.50
  -1  -3  -2   15.20    1.90
   1   3   2   14.70    1.50
   1   3   2   18.80    1.70
   1   3   2   17.30    1.20
   1   3   2   15.80    2.00
   1   3   2   15.90    1.40
  -2  -3  -2 1040.70   30.50
  -2  -3  -2 1060.59   38.00
  -2  -3  -2 1032.30   34.10
  -2  -3  -2  994.30   36.90
  -2  -3  -2 1069.09   30.50
   2   3   2 1013.30   38.00
   2   3   2 1026.00   36.90
   2   3   2  997.60   30.40
   2   3   2  942.21   43.70
   2   3   2 1014.00   30.40
  -3  -3  -2   42.90    2.90
  -3  -3  -2   43.90    2.70
  -3  -3  -2   40.30    3.40
  -3  -3  -2   43.10    4.30
  -3  -3  -2   43.00    3.50
   3   3   2   41.30    2.80
   3   3   2   45.70    4.40
   3   3   2   43.10    3.30
   3   3   2   42.30    2.80
   3   3   2   48.20    3.90
  -4  -3  -2    5.50    1.60
  -4  -3  -2    3.40    1.10
  -4  -3  -2    5.10    1.70
   4   3   2    6.90    1.60
   4   3   2    6.70    1.60
   4   3   2    2.80    0.70
   4   3   2    2.30    1.30
   4   3   2    3.80    1.30
   4   3   2    3.60    1.30
  -5  -3  -2   18.60    4.00
  -5  -3  -2   18.90    3.30
  -5  -3  -2   15.60    2.20
   5   3   2   17.40    1.70
   5   3   2   17.30    2.60
   5   3   2   19.20    2.60
  -6  -3  -2   46.60    5.70
  -6  -3  -2   42.40    4.00
  -6  -3  -2   44.30    5.80
   6   3   2   43.60    3.90
  -7  -3  -2   49.70    4.60
  -7  -3  -2   41.50    5.70
  -7  -3  -2   51.39    6.80
   7   3   2   39.30    4.40
  -8  -3  -2    1.00    2.10
  -8  -3  -2    0.20    2.80
  -8  -3  -2    1.30    2.00
   8   3   2   -0.80    2.10
  -9  -3  -2   -0.50    2.00
  -9  -3  -2   -2.30    3.20
   9   3   2    2.40    2.60
 -10  -3  -2   -2.10    4.00
  10   3   2    1.50    2.50
   8  -4  -2   -2.10    2.20
  -8   4   2    1.20    1.70
  -8   4   2    0.90    2.40
   7  -4  -2   -2.70    3.10
   7  -4  -2    0.90    1.80
  -7   4   2   -0.20    2.00
  -7   4   2   -1.00    1.30
   6  -4  -2    1.20    1.70
   6  -4  -2    0.40    3.00
  -6   4   2   -0.70    1.20
  -6   4   2    0.70    1.20
  -6   4   2    1.40    2.10
   5  -4  -2    3.10    2.20
   5  -4  -2    3.70    2.90
  -5   4   2    2.30    1.20
  -5   4   2    3.00    2.10
  -5   4   2    2.90    1.40
   4  -4  -2  268.87   10.90
   4  -4  -2  280.57   11.00
  -4   4   2  259.17   13.20
  -4   4   2  293.87   15.20
   3  -4  -2    3.00    1.50
   3  -4  -2    1.70    2.10
  -3   4   2    1.40    1.10
  -3   4   2    2.50    1.30
   2  -4  -2   16.40    1.90
   2  -4  -2   18.00    2.50
  -2   4   2   18.30    2.10
  -2   4   2   19.40    2.30
   1  -4  -2   31.10    2.50
   1  -4  -2   31.80    1.50
   1  -4  -2   32.90    2.70
   1  -4  -2   31.20    1.60
   1  -4  -2   35.30    2.40
  -1   4   2   31.30    1.40
  -1   4   2   30.00    3.10
  -1   4   2   31.70    2.60
  -1   4   2   32.50    1.40
   0  -4  -2    3.90    1.10
   0  -4  -2    2.70    0.90
   0  -4  -2    4.70    1.20
   0  -4  -2    4.00    0.90
   0  -4  -2    3.20    0.80
   0   4   2    4.30    0.80
   0   4   2    2.10    0.60
   0   4   2    3.10    0.90
   0   4   2    4.20    0.80
  -1  -4  -2    1.10    0.70
  -1  -4  -2    0.20    0.80
  -1  -4  -2    0.20    0.50
   1   4   2    0.30    0.30
   1   4   2    0.10    0.80
   1   4   2    0.20    0.60
   1   4   2    0.70    0.70
   1   4   2    0.40    0.70
  -2  -4  -2   34.70    3.00
  -2  -4  -2   33.50    2.50
  -2  -4  -2   38.90    2.50
  -2  -4  -2   34.30    3.00
  -2  -4  -2   35.50    1.60
   2   4   2   36.30    2.50
   2   4   2   37.60    3.30
   2   4   2   38.20    3.10
   2   4   2   34.80    2.40
   2   4   2   35.40    3.60
  -3  -4  -2   62.19    3.50
  -3  -4  -2   58.79    4.30
  -3  -4  -2   56.49    3.40
  -3  -4  -2   60.99    4.30
   3   4   2   55.89    3.50
   3   4   2   57.99    4.60
   3   4   2   61.39    3.50
   3   4   2   57.49    5.20
   3   4   2   61.99    4.30
  -4  -4  -2 1253.97   44.00
  -4  -4  -2 1210.58   36.00
   4   4   2 1098.49   51.99
   4   4   2 1163.48   44.30
   4   4   2 1197.18   51.59
   4   4   2 1169.58   35.80
   4   4   2 1085.99   44.50
  -5  -4  -2   52.89    4.20
  -5  -4  -2   55.69    5.90
  -5  -4  -2   60.29    5.60
   5   4   2   53.29    4.10
   5   4   2   53.59    4.30
  -6  -4  -2   10.10    3.00
  -6  -4  -2    7.40    2.40
  -6  -4  -2    6.90    2.10
   6   4   2   14.00    2.70
   6   4   2   10.30    2.40
  -7  -4  -2   -1.70    2.60
  -7  -4  -2    0.90    1.60
  -7  -4  -2    2.50    2.30
   7   4   2    1.50    2.20
  -8  -4  -2   -0.60    3.00
  -8  -4  -2    0.30    2.20
  -8  -4  -2    0.40    1.60
   8   4   2    2.00    2.50
  -9  -4  -2   -0.60    3.60
  -9  -4  -2    1.20    1.70
  -9  -4  -2    0.80    2.30
   9   4   2   -0.60    2.50
 -10  -4  -2    2.40    1.90
 -10  -4  -2   -6.30    3.40
  10   4   2    2.10    3.20
   7  -5  -2   -1.70    2.00
   7  -5  -2    1.50    3.80
  -7   5   2    0.40    1.30
  -7   5   2    1.70    2.20
   6  -5  -2   -0.80    2.00
   6  -5  -2   -0.90    3.10
  -6   5   2    4.20    2.40
  -6   5   2    3.50    1.30
  -6   5   2    1.90    1.60
   5  -5  -2   19.00    4.00
   5  -5  -2   17.10    3.20
  -5   5   2   21.80    4.10
  -5   5   2   16.30    3.50
  -5   5   2   22.70    4.40
   4  -5  -2  342.57   13.30
   4  -5  -2  343.47   13.30
  -4   5   2  352.16   18.60
  -4   5   2  339.17   16.10
   3  -5  -2    9.50    2.20
   3  -5  -2   14.10    3.00
   2  -5  -2   50.99    3.50
   2  -5  -2   46.50    3.90
  -2   5   2   53.19    4.60
   1  -5  -2   19.10    1.40
   1  -5  -2   23.00    2.50
   1  -5  -2   20.40    2.60
   1  -5  -2   19.20    1.40
   1  -5  -2   22.30    2.10
  -1   5   2   18.40    2.30
  -1   5   2   19.00    1.10
  -1   5   2   24.50    3.00
  -1   5   2   19.30    2.30
  -1   5   2   20.80    1.10
   0  -5  -2   57.29    2.80
   0  -5  -2   61.19    3.20
   0  -5  -2   55.79    3.30
   0  -5  -2   62.19    3.70
   0  -5  -2   56.59    2.90
   0   5   2   55.19    2.70
   0   5   2   58.39    2.70
   0   5   2   58.79    3.20
   0   5   2   59.59    4.30
  -1  -5  -2    7.60    1.50
  -1  -5  -2    8.90    1.40
   1   5   2    8.80    1.60
   1   5   2    4.60    1.10
   1   5   2    9.40    1.50
   1   5   2    9.40    1.40
   1   5   2    8.00    0.90
  -2  -5  -2  187.58    9.00
  -2  -5  -2  186.98    7.10
  -2  -5  -2  185.48    7.30
   2   5   2  176.78    9.00
   2   5   2  195.18    8.80
   2   5   2  177.48    7.10
  -3  -5  -2   98.19    3.80
  -3  -5  -2  106.79    6.40
  -3  -5  -2  101.49    4.90
  -3  -5  -2   95.09    3.80
  -3  -5  -2   92.29    4.90
   3   5   2   99.29    7.20
   3   5   2  106.09    5.10
   3   5   2   98.69    6.00
   3   5   2  103.39    6.40
  -4  -5  -2  222.08    9.30
  -4  -5  -2  239.38   11.60
   4   5   2  235.88   11.90
   4   5   2  244.18   13.10
   4   5   2  237.08    9.40
  -5  -5  -2    7.80    2.60
  -5  -5  -2    9.80    2.50
   5   5   2    9.60    2.40
   5   5   2    4.70    1.50
  -6  -5  -2   16.40    3.80
  -6  -5  -2   25.90    3.90
   6   5   2   20.90    3.40
   6   5   2   20.30    3.50
  -7  -5  -2    5.20    3.40
  -7  -5  -2   10.40    3.10
   7   5   2   10.20    2.90
  -8  -5  -2   -0.50    3.20
  -8  -5  -2    1.40    2.40
   8   5   2    2.10    2.70
  -9  -5  -2    3.00    1.80
  -9  -5  -2    3.60    2.70
  -9  -5  -2   -0.30    3.80
   9   5   2    3.20    3.00
 -10  -5  -2    3.10    4.70
 -10  -5  -2    1.80    1.60
  10   5   2    1.10    2.90
   7  -6  -2   -0.80    2.40
   7  -6  -2    0.00    3.00
  -7   6   2    1.40    1.70
  -7   6   2    6.30    2.60
   6  -6  -2    0.00    2.20
   6  -6  -2   -0.60    3.10
  -6   6   2    2.00    1.50
  -6   6   2    7.00    2.50
   5  -6  -2    4.40    2.70
   5  -6  -2    1.10    1.60
  -5   6   2    5.70    2.20
  -5   6   2    2.50    1.40
   4  -6  -2   32.80    4.80
   4  -6  -2   36.40    3.90
  -4   6   2   43.80    5.10
  -4   6   2   40.10    4.50
   3  -6  -2    1.50    1.40
   3  -6  -2    1.60    2.50
  -3   6   2    0.50    1.10
   2  -6  -2  163.28    7.80
   2  -6  -2  173.78    7.40
  -2   6   2  164.98    9.40
   1  -6  -2   15.90    1.90
   1  -6  -2   15.80    2.80
   1  -6  -2   17.90    1.40
   1  -6  -2   18.30    2.40
   1  -6  -2   17.10    1.60
  -1   6   2   14.60    2.80
  -1   6   2   15.80    1.10
  -1   6   2   15.40    1.10
  -1   6   2   16.90    2.30
   0  -6  -2    3.30    1.90
   0  -6  -2    4.10    1.60
   0  -6  -2    5.60    1.20
   0  -6  -2    5.90    1.30
   0  -6  -2    4.10    1.30
   0   6   2    3.40    0.80
   0   6   2    2.30    1.00
   0   6   2    5.90    1.10
  -1  -6  -2    4.90    1.60
  -1  -6  -2    5.60    1.10
  -1  -6  -2    5.60    1.50
   1   6   2    4.20    1.50
   1   6   2    3.20    1.00
   1   6   2    4.30    0.80
   1   6   2    6.70    1.40
  -2  -6  -2   14.00    2.10
  -2  -6  -2   12.90    2.10
   2   6   2   10.00    2.20
   2   6   2   11.60    1.90
   2   6   2   13.90    2.60
  -3  -6  -2   61.29    3.90
  -3  -6  -2   52.49    5.10
  -3  -6  -2   65.09    4.30
   3   6   2   66.29    5.20
   3   6   2   61.09    4.00
   3   6   2   55.39    6.10
  -4  -6  -2   28.30    1.80
  -4  -6  -2   34.90    4.70
  -4  -6  -2   32.40    3.60
   4   6   2   43.00    5.00
   4   6   2   30.60    4.70
   4   6   2   33.40    3.40
  -5  -6  -2    5.50    1.10
  -5  -6  -2    7.90    2.60
  -5  -6  -2    5.00    2.60
   5   6   2    8.90    2.50
   5   6   2    3.80    1.80
   5   6   2    4.70    1.80
  -6  -6  -2  177.88    8.30
  -6  -6  -2  174.08   11.10
  -6  -6  -2  172.58    8.90
   6   6   2  176.28    8.80
   6   6   2  163.38   10.80
  -7  -6  -2    2.70    3.30
  -7  -6  -2    3.50    1.30
  -7  -6  -2    3.40    2.50
   7   6   2    1.30    1.40
   7   6   2    2.00    2.50
  -8  -6  -2    3.00    2.70
  -8  -6  -2    4.60    1.60
  -8  -6  -2   -0.90    3.40
   8   6   2    4.40    2.80
  -9  -6  -2    4.00    1.80
  -9  -6  -2   -1.00    2.50
  -9  -6  -2   -1.40    3.80
   9   6   2    1.60    2.70
 -10  -6  -2    2.90    3.20
 -10  -6  -2    5.60    2.00
 -10  -6  -2   -5.40    3.80
  10   6   2   -0.90    2.70
   6  -7  -2    1.80    2.40
   6  -7  -2   -1.50    3.40
  -6   7   2    3.60    1.60
   5  -7  -2    0.80    2.40
   5  -7  -2    0.10    2.00
  -5   7   2    1.60    1.30
  -5   7   2    4.70    1.90
   4  -7  -2    7.00    3.40
   4  -7  -2    4.60    2.10
  -4   7   2    4.50    1.60
  -4   7   2    3.90    1.70
   3  -7  -2   57.09    4.60
   3  -7  -2   64.59    5.20
  -3   7   2   69.29    6.20
  -3   7   2   71.99    5.50
   2  -7  -2    7.60    2.90
   2  -7  -2    8.60    2.10
  -2   7   2    4.40    1.40
  -2   7   2    5.70    1.60
   1  -7  -2   24.40    3.20
   1  -7  -2   27.20    3.50
   1  -7  -2   24.90    1.90
   1  -7  -2   27.90    2.60
  -1   7   2   26.40    1.50
  -1   7   2   27.50    1.60
  -1   7   2   28.00    3.60
  -1   7   2   26.40    2.90
   0  -7  -2    9.10    2.20
   0  -7  -2    8.80    2.10
   0  -7  -2    8.20    1.60
   0  -7  -2    8.80    1.70
   0  -7  -2    9.00    1.60
   0   7   2    5.40    1.40
   0   7   2   10.10    1.40
   0   7   2   10.90    1.80
  -1  -7  -2   45.60    2.70
  -1  -7  -2   42.80    3.40
  -1  -7  -2   42.90    3.00
   1   7   2   43.60    4.30
   1   7   2   40.20    2.90
   1   7   2   38.20    2.00
  -2  -7  -2  104.69    5.50
  -2  -7  -2   99.99    5.00
   2   7   2   89.69    8.10
   2   7   2   95.19    6.50
   2   7   2   99.09    5.10
  -3  -7  -2    2.60    1.90
  -3  -7  -2    5.00    1.80
   3   7   2    1.10    1.60
   3   7   2    4.40    1.50
   3   7   2    2.90    1.70
  -4  -7  -2   12.10    2.80
  -4  -7  -2   10.10    3.10
   4   7   2    8.10    2.40
   4   7   2    7.40    2.10
   4   7   2   13.00    2.70
  -5  -7  -2    2.80    0.60
  -5  -7  -2    4.30    2.00
  -5  -7  -2    4.20    2.80
   5   7   2    3.00    2.10
   5   7   2    7.50    2.50
   5   7   2    2.90    1.90
  -6  -7  -2   17.50    2.60
  -6  -7  -2   10.30    3.50
  -6  -7  -2   16.70    3.60
   6   7   2   13.90    3.00
   6   7   2    7.90    2.30
  -7  -7  -2    5.50    1.40
  -7  -7  -2    8.10    3.10
  -7  -7  -2    5.10    3.30
   7   7   2    4.60    2.70
   7   7   2    1.80    1.70
  -8  -7  -2   14.40    3.80
  -8  -7  -2    9.10    4.30
   8   7   2   11.70    3.60
  -9  -7  -2   -2.40    2.50
  -9  -7  -2   -7.40    3.30
   9   7   2    2.40    2.90
   5  -8  -2   13.70    3.60
   5  -8  -2   15.90    4.80
  -5   8   2   24.20    4.20
  -5   8   2   26.00    4.90
   4  -8  -2    0.00    2.30
   4  -8  -2    0.70    1.90
  -4   8   2    1.80    1.20
  -4   8   2    1.20    1.20
   3  -8  -2    5.30    2.10
   3  -8  -2    5.60    3.40
  -3   8   2    4.10    1.40
  -3   8   2    2.70    1.40
   2  -8  -2    0.00    1.60
   2  -8  -2   -0.50    2.60
  -2   8   2    1.90    1.00
  -2   8   2    1.60    1.70
  -2   8   2    0.30    0.90
   1  -8  -2   -1.00    1.10
   1  -8  -2    1.00    1.00
   1  -8  -2   -1.20    0.70
   1  -8  -2    0.30    2.50
   1  -8  -2   -0.80    1.30
  -1   8   2    0.20    0.90
  -1   8   2    0.70    0.80
  -1   8   2   -0.10    1.70
   0  -8  -2   38.90    3.30
   0  -8  -2   34.70    4.10
   0  -8  -2   34.30    2.80
   0  -8  -2   40.20    4.40
   0  -8  -2   40.20    3.00
   0   8   2   37.80    6.10
   0   8   2   38.20    2.60
   0   8   2   43.30    4.60
   0   8   2   39.80    3.00
  -1  -8  -2    7.90    1.50
  -1  -8  -2    8.70    2.20
  -1  -8  -2    8.30    2.50
  -1  -8  -2    9.50    1.90
   1   8   2    7.30    0.90
   1   8   2    4.90    1.40
   1   8   2    5.60    0.80
   1   8   2    3.20    2.20
   1   8   2    6.40    1.60
  -2  -8  -2    7.90    2.40
  -2  -8  -2   13.70    1.60
  -2  -8  -2   10.70    2.30
   2   8   2    6.00    1.80
   2   8   2   14.20    2.40
   2   8   2    7.90    2.70
  -3  -8  -2   49.80    4.40
   3   8   2   58.39    7.70
   3   8   2   45.80    4.00
   3   8   2   50.49    5.50
  -4  -8  -2    1.50    2.00
   4   8   2    0.90    2.00
   4   8   2   -0.30    1.50
   4   8   2    0.50    1.80
  -5  -8  -2    5.50    3.10
  -5  -8  -2    9.60    2.60
   5   8   2    7.80    2.60
   5   8   2    3.30    2.20
   5   8   2    7.70    2.70
  -6  -8  -2   -0.40    2.90
  -6  -8  -2    1.20    2.40
   6   8   2    0.10    2.00
   6   8   2    0.60    2.20
  -7  -8  -2   -0.30    3.20
  -7  -8  -2    1.00    2.50
   7   8   2    1.20    2.50
   7   8   2   -1.50    1.80
  -8  -8  -2   -0.80    2.80
  -8  -8  -2   -3.40    3.30
   8   8   2    5.90    3.20
  -9  -8  -2   -4.20    3.80
  -9  -8  -2    0.70    3.10
   9   8   2    0.10    2.90
   4  -9  -2    7.40    4.10
   4  -9  -2    6.90    2.90
  -4   9   2    4.90    1.80
   3  -9  -2    1.40    3.20
   3  -9  -2    0.40    1.90
  -3   9   2    0.40    1.10
  -3   9   2    5.80    2.00
   2  -9  -2   10.00    3.40
   2  -9  -2    7.90    2.30
  -2   9   2    5.20    1.60
  -2   9   2    7.40    2.70
   1  -9  -2    2.00    1.20
   1  -9  -2    1.50    2.60
   1  -9  -2    2.50    1.60
   1  -9  -2   -2.00    1.90
  -1   9   2    0.40    1.00
  -1   9   2    2.40    2.20
   0  -9  -2    7.60    1.70
   0  -9  -2    3.80    2.80
   0  -9  -2    5.90    2.70
   0   9   2    6.10    2.90
   0   9   2    4.50    1.50
  -1  -9  -2   31.10    4.10
  -1  -9  -2   26.50    4.30
  -1  -9  -2   30.00    3.60
   1   9   2   26.80    4.30
   1   9   2   16.90    4.30
  -2  -9  -2    3.20    2.20
   2   9   2    6.00    2.00
   2   9   2    2.50    2.40
   2   9   2    1.40    1.50
  -3  -9  -2   -0.50    1.80
   3   9   2   -0.10    1.50
   3   9   2   -1.20    1.60
   3   9   2    0.90    1.80
  -4  -9  -2   29.00    4.20
   4   9   2   40.40    7.40
   4   9   2   27.00    3.80
   4   9   2   27.90    5.50
  -5  -9  -2   16.80    3.60
   5   9   2    7.70    2.70
   5   9   2   11.10    3.40
   5   9   2   15.00    3.30
  -6  -9  -2    0.50    2.40
  -6  -9  -2    3.40    3.30
   6   9   2   -2.30    2.00
   6   9   2    0.30    2.40
  -7  -9  -2    0.90    2.80
  -7  -9  -2   -3.20    2.90
   7   9   2    0.10    2.00
   7   9   2   -0.40    2.30
  -8  -9  -2   -1.40    2.80
  -8  -9  -2   -4.50    3.40
   8   9   2    2.80    3.00
   3 -10  -2    3.50    3.80
   2 -10  -2    5.50    2.10
   2 -10  -2    3.40    3.30
  -2  10   2    8.40    2.80
  -2  10   2    2.60    1.40
   1 -10  -2    4.50    3.30
   1 -10  -2    2.60    2.60
  -1  10   2    3.60    1.60
  -1  10   2    6.30    2.70
   0 -10  -2    5.80    2.80
   0 -10  -2    5.00    1.90
   0 -10  -2    6.20    3.10
   0  10   2    2.90    1.50
   0  10   2    6.70    3.00
  -1 -10  -2    1.70    2.10
  -1 -10  -2    0.70    1.70
  -1 -10  -2    1.90    2.30
   1  10   2   -1.40    1.10
   1  10   2    1.40    2.40
  -2 -10  -2    1.20    2.30
   2  10   2   -2.20    1.20
   2  10   2    1.30    2.00
  -3 -10  -2    1.80    2.30
   3  10   2    1.50    2.80
   3  10   2   -1.20    1.60
  -4 -10  -2    7.00    2.90
   4  10   2    8.30    2.70
   4  10   2    8.20    3.60
   4  10   2    2.90    2.20
  -5 -10  -2    0.80    2.80
   5  10   2   -3.30    2.00
   5  10   2    3.60    3.10
   5  10   2    1.70    2.30
  -6 -10  -2   -0.20    2.40
   6  10   2    0.40    2.70
   6  10   2    0.00    2.30
  -7 -10  -2   -2.60    2.70
   7  10   2    3.30    3.00
   7  10   2    0.30    2.90
  -8 -10  -2   -0.30    4.00
  -8 -10  -2    1.70    3.30
   8  10   2    0.10    2.90
   1 -11  -2    0.70    3.50
  -1  11   2    6.00    2.70
   0 -11  -2    1.90    2.70
   0 -11  -2    0.00    1.70
   0  11   2    6.00    2.60
  -1 -11  -2    0.40    3.00
  -1 -11  -2    2.00    2.50
   1  11   2    6.10    2.90
  -2 -11  -2   -1.10    2.30
  -2 -11  -2    2.00    2.30
  -2 -11  -2    0.20    1.70
   2  11   2    2.60    2.80
   2  11   2   -2.80    1.40
  -3 -11  -2    4.40    3.00
   3  11   2    0.20    1.90
   3  11   2    1.00    3.00
  -4 -11  -2   -2.40    2.20
   4  11   2   -3.60    1.90
   4  11   2   -0.50    3.00
  -5 -11  -2   -0.50    2.60
   5  11   2    0.40    2.90
  -6 -11  -2    7.20    3.60
   6  11   2    5.20    3.70
  -2 -12  -2    4.90    3.80
   2  12   2    5.90    3.20
   3  12   2    6.20    3.30
  -4 -12  -2   -2.80    2.80
   4  12   2    3.30    3.20
   3  10  -3   -4.80    3.40
  -3 -10   3    0.50    3.10
   2  10  -3   -0.20    2.80
  -2 -10   3   -4.60    2.40
   1  10  -3   -0.70    2.40
  -1 -10   3   -0.10    2.80
  -1 -10   3    5.60    3.80
   0  10  -3   -0.10    3.10
   0 -10   3   -5.10    2.30
   0 -10   3    0.60    2.30
   5   9  -3   -2.90    3.80
   5   9  -3    4.30    3.20
  -5  -9   3   -4.10    2.90
   4   9  -3    1.10    2.60
   4   9  -3   -3.70    3.50
  -4  -9   3    0.10    3.10
   3   9  -3   19.50    5.70
  -3  -9   3   33.30    5.30
   2   9  -3   -0.90    2.90
  -2  -9   3    3.30    3.20
   1   9  -3    0.10    3.10
  -1  -9   3    3.10    2.50
  -1  -9   3   -1.00    2.30
   0   9  -3    1.00    3.10
   0  -9   3    1.00    2.10
   0  -9   3    0.80    3.00
   0  -9   3   -0.50    2.40
  -1   9  -3   -0.80    2.10
   1  -9   3   -3.60    1.70
   1  -9   3   -3.40    1.90
   1  -9   3    0.00    2.10
  -2   9  -3    1.20    3.00
   2  -9   3    2.70    3.30
   2  -9   3   -1.20    1.80
   2  -9   3   -0.10    2.20
  -3   9  -3    0.80    3.00
   3  -9   3    7.40    4.00
   6   8  -3    1.60    2.40
  -6  -8   3   -5.40    2.60
   5   8  -3   -6.30    3.10
   5   8  -3    6.20    3.30
  -5  -8   3   -1.40    2.90
   4   8  -3   -2.20    3.10
   4   8  -3    2.40    2.40
  -4  -8   3    0.70    2.90
   3   8  -3   21.50    5.40
   3   8  -3   33.60    4.50
  -3  -8   3   31.80    5.00
   2   8  -3    6.50    2.60
   2   8  -3    2.10    3.20
  -2  -8   3    3.00    2.80
   1   8  -3    0.30    2.10
  -1  -8   3   -2.20    2.00
   0   8  -3    2.90    2.50
   0  -8   3    5.70    2.60
   0  -8   3    3.90    2.50
  -1   8  -3    3.20    3.10
   1  -8   3    6.60    2.60
   1  -8   3    7.20    2.70
   1  -8   3    7.80    3.30
  -2   8  -3   -0.60    1.70
   2  -8   3   -0.20    2.70
   2  -8   3    0.30    2.00
   2  -8   3    0.90    2.00
  -3   8  -3    1.10    2.00
  -3   8  -3    2.70    1.40
   3  -8   3    1.70    1.60
   3  -8   3    0.70    2.40
  -4   8  -3    1.80    2.60
   4  -8   3    0.50    3.30
   7   7  -3    1.30    2.40
  -7  -7   3   -2.70    2.80
  -7  -7   3   -4.90    3.30
   6   7  -3   -0.50    2.00
  -6  -7   3    2.90    3.80
   5   7  -3    4.90    3.00
   5   7  -3   -2.70    3.10
  -5  -7   3    3.40    3.20
   4   7  -3    9.00    3.00
   4   7  -3    4.30    3.50
  -4  -7   3    1.30    1.30
  -4  -7   3    6.30    3.20
   3   7  -3    3.60    2.30
   3   7  -3    3.00    3.10
  -3  -7   3    3.20    2.80
   2   7  -3   35.00    4.20
  -2  -7   3   31.50    4.60
   1   7  -3  103.79   10.90
   1   7  -3  104.89    6.20
  -1  -7   3  117.19    7.10
   0   7  -3   87.19   10.80
   0   7  -3   92.99    5.30
   0  -7   3   79.79    5.50
   0  -7   3   84.69    6.30
  -1   7  -3    1.00    1.90
   1  -7   3    1.80    2.60
   1  -7   3    1.80    2.00
   1  -7   3    2.80    2.20
  -2   7  -3   10.00    3.50
   2  -7   3   19.30    3.40
   2  -7   3   13.40    3.60
   2  -7   3   18.00    2.80
  -3   7  -3   11.00    3.50
  -3   7  -3    8.70    2.70
   3  -7   3   11.20    3.00
   3  -7   3   10.60    2.10
   3  -7   3   10.10    3.40
  -4   7  -3   10.40    3.50
  -4   7  -3    9.90    3.00
   4  -7   3   13.70    4.10
   4  -7   3   13.60    2.00
  -5   7  -3    0.80    2.20
  -5   7  -3    2.90    1.80
   5  -7   3   -0.90    2.90
   8   6  -3    3.10    3.40
  -8  -6   3   -5.80    3.70
  -8  -6   3   -2.00    3.00
   7   6  -3    4.10    3.30
  -7  -6   3   -1.00    3.60
  -7  -6   3   -1.60    1.60
   6   6  -3    2.60    3.30
   6   6  -3   16.10    3.90
  -6  -6   3   11.40    3.90
  -6  -6   3    7.30    2.10
   5   6  -3   -2.90    2.40
   5   6  -3   -0.20    2.40
  -5  -6   3   -0.80    1.30
  -5  -6   3   -0.20    2.80
   4   6  -3    1.10    2.60
   4   6  -3    8.30    2.80
  -4  -6   3    4.80    1.60
   3   6  -3    3.30    2.80
   3   6  -3    4.60    2.40
   3   6  -3    3.90    1.50
  -3  -6   3    1.50    1.30
  -3  -6   3    1.50    1.10
  -3  -6   3    6.40    2.70
   2   6  -3    0.20    1.80
   2   6  -3    0.20    1.30
   2   6  -3    0.40    1.70
   2   6  -3    1.70    0.80
  -2  -6   3    0.80    0.70
  -2  -6   3   -0.90    2.10
   1   6  -3   25.60    3.40
   1   6  -3   27.40    3.20
   1   6  -3   30.20    3.10
   1   6  -3   33.40    7.30
  -1  -6   3   34.60    4.40
   0   6  -3   -0.90    1.50
   0   6  -3    0.50    2.10
   0  -6   3   -0.40    1.60
   0  -6   3   -0.60    1.80
  -1   6  -3   14.90    2.40
  -1   6  -3    8.50    3.10
   1  -6   3   14.20    2.80
   1  -6   3   17.70    3.40
   1  -6   3   15.30    2.60
   1  -6   3   19.50    2.60
  -2   6  -3    8.00    3.00
  -2   6  -3   13.40    1.60
   2  -6   3   15.60    2.90
   2  -6   3   16.70    2.60
   2  -6   3   15.40    3.40
  -3   6  -3    5.20    2.30
  -3   6  -3    6.10    2.40
   3  -6   3   12.10    2.80
   3  -6   3    6.50    1.80
   3  -6   3    7.20    3.10
  -4   6  -3    1.30    2.10
  -4   6  -3    1.90    1.80
   4  -6   3    0.60    2.80
   4  -6   3    2.90    1.30
  -5   6  -3    1.70    2.00
  -5   6  -3    3.90    2.00
   5  -6   3    2.60    3.00
  -6   6  -3    3.90    2.10
  -6   6  -3    2.10    2.00
   6  -6   3    0.70    3.30
   8   5  -3    2.90    3.30
  -8  -5   3   -5.30    2.50
  -8  -5   3    0.50    1.90
   7   5  -3    2.60    2.90
  -7  -5   3    2.70    1.90
  -7  -5   3   -0.90    3.40
   6   5  -3    1.00    2.60
   6   5  -3   -3.80    2.30
  -6  -5   3    1.00    1.60
  -6  -5   3    1.40    2.60
   5   5  -3   35.90    8.40
   5   5  -3   47.00    5.00
  -5  -5   3   42.70    5.00
  -5  -5   3   33.60    5.60
   4   5  -3   63.69    5.30
   4   5  -3   60.79    8.50
  -4  -5   3   56.09    7.20
  -4  -5   3   66.79    5.40
   3   5  -3    3.20    2.00
   3   5  -3    3.10    2.10
   3   5  -3    2.50    0.90
  -3  -5   3    3.40    1.40
  -3  -5   3    5.70    2.50
  -3  -5   3    2.00    1.10
   2   5  -3    0.00    1.00
   2   5  -3    0.00    0.60
   2   5  -3    0.50    1.50
   2   5  -3    1.60    1.60
  -2  -5   3    2.90    2.00
  -2  -5   3   -0.10    0.70
  -2  -5   3   -0.40    1.00
   1   5  -3   17.20    2.70
   1   5  -3   19.50    2.50
   1   5  -3   11.10    2.80
   1   5  -3   16.80    2.20
  -1  -5   3   16.00    2.80
  -1  -5   3   19.80    2.60
  -1  -5   3   17.70    1.60
   0   5  -3    8.50    2.00
   0   5  -3    5.50    2.10
   0   5  -3    8.30    1.90
   0  -5   3   11.90    2.30
   0  -5   3    9.60    2.40
  -1   5  -3    3.00    1.80
  -1   5  -3    7.50    1.80
   1  -5   3    7.00    2.10
   1  -5   3    2.00    2.00
   1  -5   3    6.90    1.90
  -2   5  -3   29.50    2.10
  -2   5  -3   26.10    5.00
  -2   5  -3   31.50    2.60
   2  -5   3   31.30    3.10
   2  -5   3   31.00    2.70
   2  -5   3   26.50    3.10
   2  -5   3   31.20    3.30
  -3   5  -3    1.90    1.90
  -3   5  -3    2.70    0.80
  -3   5  -3    1.40    1.80
  -3   5  -3    3.20    1.10
   3  -5   3    3.30    1.30
   3  -5   3    2.00    1.80
   3  -5   3    1.30    1.40
   3  -5   3    3.10    2.40
  -4   5  -3   26.30    5.70
  -4   5  -3   25.00    5.30
   4  -5   3   24.60    2.50
   4  -5   3   23.20    3.50
  -5   5  -3    1.00    1.70
  -5   5  -3   -0.50    1.60
   5  -5   3    1.20    1.60
   5  -5   3    0.00    1.00
   5  -5   3    4.50    2.90
  -6   5  -3   -0.40    1.50
  -6   5  -3    0.70    1.80
   6  -5   3    2.00    1.90
   6  -5   3   -0.20    2.80
  -7   5  -3    5.10    2.60
  -7   5  -3    2.40    2.00
   7  -5   3   -1.90    3.20
   8   4  -3   -0.10    2.70
  -8  -4   3    0.10    1.90
  -8  -4   3   -4.60    3.60
   7   4  -3    2.40    3.00
   7   4  -3   -2.80    2.00
  -7  -4   3    1.50    2.90
  -7  -4   3    0.20    1.70
   6   4  -3    0.50    2.40
   6   4  -3   -2.70    2.30
  -6  -4   3   -2.40    2.70
  -6  -4   3    1.50    1.50
   5   4  -3    7.40    3.00
   5   4  -3   16.10    3.30
   5   4  -3   14.00    2.10
  -5  -4   3    9.80    3.50
  -5  -4   3   10.20    2.10
   4   4  -3    0.10    1.00
   4   4  -3   -0.20    1.90
   4   4  -3    0.90    2.00
   4   4  -3    0.70    0.90
  -4  -4   3    0.20    2.30
  -4  -4   3   -0.80    1.10
   3   4  -3  139.09    7.00
   3   4  -3  133.99    6.80
   3   4  -3  146.69   11.00
  -3  -4   3  153.08    7.70
  -3  -4   3  139.59    7.70
  -3  -4   3  144.49    9.40
   2   4  -3   13.70    2.40
   2   4  -3   12.70    1.60
   2   4  -3   15.40    2.20
   2   4  -3    9.00    2.30
  -2  -4   3   12.40    2.40
  -2  -4   3   15.90    2.70
   1   4  -3    0.10    0.60
   1   4  -3    0.10    0.90
   1   4  -3    0.40    1.20
   1   4  -3   -0.40    1.40
  -1  -4   3    0.20    1.00
  -1  -4   3   -0.70    1.10
  -1  -4   3    0.20    0.40
  -1  -4   3    0.80    1.20
   0   4  -3   75.99    4.30
   0   4  -3   75.39    4.60
   0   4  -3   82.99    4.70
   0   4  -3   82.29    7.30
   0  -4   3   84.89    4.40
   0  -4   3   83.59    4.60
  -1   4  -3   14.10    2.00
  -1   4  -3    8.60    2.30
  -1   4  -3    8.20    1.50
   1  -4   3   13.90    2.10
   1  -4   3   14.20    2.10
   1  -4   3   13.80    2.20
  -2   4  -3    1.90    1.40
  -2   4  -3    7.50    1.50
  -2   4  -3    1.80    1.50
  -2   4  -3    4.70    1.00
   2  -4   3    3.90    1.50
   2  -4   3    8.20    1.70
   2  -4   3    2.80    1.50
   2  -4   3    5.50    1.60
  -3   4  -3    0.10    0.90
  -3   4  -3   -0.30    1.20
  -3   4  -3   -0.60    1.30
   3  -4   3    1.80    1.20
   3  -4   3   -0.80    1.30
   3  -4   3   -2.20    1.70
   3  -4   3    0.80    1.20
  -4   4  -3   77.59    3.60
  -4   4  -3   86.89    8.00
  -4   4  -3   68.79    7.60
   4  -4   3   88.89    6.40
   4  -4   3   87.39    5.80
   4  -4   3   84.29    4.10
  -5   4  -3  126.99   10.70
  -5   4  -3  112.39    9.30
   5  -4   3  106.39    4.70
   5  -4   3   88.59    6.80
   5  -4   3  100.49    6.70
  -6   4  -3    9.60    2.50
  -6   4  -3   10.60    3.00
   6  -4   3   16.70    2.10
   6  -4   3   18.80    4.00
   6  -4   3   12.50    3.70
  -7   4  -3    4.50    2.50
  -7   4  -3    6.10    2.60
   7  -4   3    5.40    3.60
   7  -4   3    3.80    2.60
  -8   4  -3    0.30    2.00
  -8   4  -3    2.80    2.00
   8  -4   3    1.80    3.90
   9   3  -3    6.20    3.50
  -9  -3   3    4.10    2.40
  -9  -3   3   -3.90    3.80
   8   3  -3   -1.20    2.70
  -8  -3   3   -0.20    1.70
  -8  -3   3   -4.30    3.10
   7   3  -3   13.70    3.50
   7   3  -3   11.10    2.70
  -7  -3   3    9.00    2.50
  -7  -3   3    4.10    3.80
   6   3  -3   -1.60    2.00
   6   3  -3   -1.30    1.80
   6   3  -3   -0.60    1.30
  -6  -3   3   -0.20    1.30
  -6  -3   3    0.50    2.20
   5   3  -3   -1.00    1.90
   5   3  -3    0.00    1.10
   5   3  -3   -1.40    1.80
   5   3  -3   -1.10    0.90
  -5  -3   3    0.40    2.60
  -5  -3   3   -0.20    1.30
   4   3  -3    2.00    1.00
   4   3  -3   -0.30    1.60
   4   3  -3   -0.20    0.90
   4   3  -3    1.80    1.90
  -4  -3   3    2.60    2.30
  -4  -3   3   -0.40    1.00
   3   3  -3   54.69    4.10
   3   3  -3   49.00    2.60
   3   3  -3   55.99    6.60
   3   3  -3   48.60    3.70
  -3  -3   3   48.20    4.10
  -3  -3   3   49.20    4.80
  -3  -3   3   51.59    4.30
   2   3  -3  119.19    5.00
   2   3  -3  131.29    9.40
   2   3  -3  119.99    6.00
   2   3  -3  134.59    6.40
  -2  -3   3  135.69    6.70
  -2  -3   3  121.19    6.30
  -2  -3   3  125.49    7.80
  -2  -3   3  126.59    6.20
   1   3  -3    6.80    1.20
   1   3  -3    8.90    1.80
   1   3  -3    2.20    1.50
   1   3  -3    4.20    0.90
  -1  -3   3    5.00    1.20
  -1  -3   3    7.20    1.40
  -1  -3   3    8.90    1.90
  -1  -3   3    9.50    1.80
   0   3  -3  158.68    6.70
   0   3  -3  154.38    7.00
   0   3  -3  159.18    6.40
   0   3  -3  140.19    9.80
   0  -3   3  161.48    6.40
   0  -3   3  151.88    7.10
   0  -3   3  158.68    6.60
  -1   3  -3  653.03   20.20
  -1   3  -3  607.94   31.00
   1  -3   3  663.03   19.80
   1  -3   3  646.94   20.20
   1  -3   3  629.74   20.30
   1  -3   3  671.43   22.90
  -2   3  -3   -0.70    0.90
  -2   3  -3   -0.10    0.80
  -2   3  -3    0.00    0.80
   2  -3   3    0.00    1.00
   2  -3   3   -0.80    1.20
   2  -3   3   -0.50    0.90
   2  -3   3   -1.40    1.00
   2  -3   3   -0.60    1.00
  -3   3  -3   28.60    2.20
  -3   3  -3   34.80    5.10
  -3   3  -3   27.00    4.20
   3  -3   3   31.60    2.50
   3  -3   3   30.10    3.30
   3  -3   3   30.50    2.30
   3  -3   3   29.20    3.20
  -4   3  -3    6.30    2.10
  -4   3  -3   10.40    1.60
  -4   3  -3    7.00    2.00
   4  -3   3   11.40    1.70
   4  -3   3   10.70    1.70
   4  -3   3    8.70    2.50
   4  -3   3   10.50    2.60
  -5   3  -3   36.70    6.40
  -5   3  -3   36.30    5.20
  -5   3  -3   36.50    2.40
   5  -3   3   36.90    2.90
   5  -3   3   36.20    4.30
   5  -3   3   36.50    4.00
  -6   3  -3   21.10    4.20
  -6   3  -3   22.20    4.20
   6  -3   3   17.20    3.60
   6  -3   3   25.80    4.00
   6  -3   3   22.80    2.60
  -7   3  -3    1.00    1.80
  -7   3  -3    3.00    2.50
   7  -3   3    1.60    2.30
   7  -3   3    2.10    1.40
   7  -3   3    1.40    1.90
  -8   3  -3    1.40    2.30
  -8   3  -3    4.40    2.60
   8  -3   3    2.10    3.60
   8  -3   3    2.20    1.40
   8  -3   3    5.40    3.20
   9   2  -3    6.20    3.50
  -9  -2   3   -4.30    3.90
  -9  -2   3    2.90    2.20
   8   2  -3    1.10    2.10
   8   2  -3    5.00    2.90
  -8  -2   3    2.80    2.10
  -8  -2   3   -1.90    3.60
   7   2  -3    2.30    1.90
   7   2  -3    2.60    2.60
  -7  -2   3    2.20    3.50
  -7  -2   3    2.10    1.70
   6   2  -3    1.00    1.20
   6   2  -3   -0.80    1.60
   6   2  -3    0.70    2.20
  -6  -2   3    0.60    1.50
  -6  -2   3    1.20    2.80
   5   2  -3    7.90    2.60
   5   2  -3    3.60    0.80
   5   2  -3    4.60    2.10
   5   2  -3    8.40    2.00
  -5  -2   3    4.90    2.40
  -5  -2   3    4.40    1.70
   4   2  -3    1.50    1.90
   4   2  -3    1.80    1.70
   4   2  -3    0.80    1.10
   4   2  -3    0.60    0.70
  -4  -2   3    0.10    1.00
  -4  -2   3    0.90    2.00
  -4  -2   3    0.00    0.80
   3   2  -3   15.40    1.70
   3   2  -3   13.90    2.30
   3   2  -3   14.90    2.40
  -3  -2   3   17.10    2.30
  -3  -2   3   10.80    2.30
  -3  -2   3   17.00    3.10
  -3  -2   3   16.50    2.70
   2   2  -3   18.00    3.00
   2   2  -3   17.90    3.40
   2   2  -3   16.90    1.00
   2   2  -3   17.10    2.30
   2   2  -3   16.80    2.10
   2   2  -3   18.40    2.30
  -2  -2   3   17.40    2.50
  -2  -2   3   16.80    3.20
  -2  -2   3   18.60    2.00
  -2  -2   3   20.00    3.10
  -2  -2   3   18.60    2.50
   1   2  -3  130.49    5.60
   1   2  -3  125.49    8.60
   1   2  -3  130.19    6.10
   1   2  -3  126.99    5.70
   1   2  -3  127.29    6.90
  -1  -2   3  130.19    5.50
  -1  -2   3  114.99    5.50
  -1  -2   3  128.09    6.20
  -1  -2   3  133.99    8.40
   0   2  -3   80.39    6.20
   0   2  -3   84.69    4.40
   0   2  -3   82.69    4.00
   0  -2   3   86.29    4.00
   0  -2   3   81.79    4.60
   0  -2   3   79.59    3.10
   0  -2   3   81.39    4.10
   0  -2   3   73.79    3.10
   0  -2   3   82.69    6.00
  -1   2  -3   23.40    2.00
  -1   2  -3   24.10    2.00
  -1   2  -3   24.00    3.70
  -1   2  -3   18.20    3.20
  -1   2  -3   20.40    2.30
   1  -2   3   18.40    2.00
   1  -2   3   23.80    3.20
   1  -2   3   22.10    2.00
   1  -2   3   24.00    2.20
   1  -2   3   23.90    2.20
  -2   2  -3   79.39    3.60
  -2   2  -3   73.19    3.50
  -2   2  -3   79.89    6.40
  -2   2  -3   76.69    3.70
  -2   2  -3   78.29    6.20
   2  -2   3   78.19    5.80
   2  -2   3   82.19    4.60
   2  -2   3   78.09    3.60
   2  -2   3   69.79    3.50
   2  -2   3   73.99    3.70
   2  -2   3   79.79    3.80
  -3   2  -3   -0.70    0.60
  -3   2  -3   -0.30    1.00
  -3   2  -3   -0.30    0.80
  -3   2  -3   -1.20    0.70
  -3   2  -3   -0.30    0.90
   3  -2   3    0.40    1.30
   3  -2   3    0.40    1.20
   3  -2   3    0.20    1.00
   3  -2   3   -0.40    0.50
   3  -2   3   -0.70    0.90
  -4   2  -3   32.70    2.50
  -4   2  -3   29.70    4.40
  -4   2  -3   34.80    4.20
   4  -2   3   34.90    2.60
   4  -2   3   30.90    3.20
   4  -2   3   34.20    2.60
   4  -2   3   33.30    3.40
  -5   2  -3   90.09    4.30
  -5   2  -3   92.59    7.10
  -5   2  -3  103.39    9.00
  -5   2  -3   91.79    5.00
   5  -2   3  104.29    6.70
   5  -2   3   94.59    5.80
   5  -2   3   97.99    4.60
   5  -2   3  100.99    4.60
  -6   2  -3    0.30    1.00
  -6   2  -3   -0.90    1.90
  -6   2  -3   -1.20    1.50
  -6   2  -3    0.20    1.10
   6  -2   3    2.80    1.50
   6  -2   3    0.90    1.40
   6  -2   3    2.80    2.20
   6  -2   3    2.30    1.70
  -7   2  -3   12.20    3.60
  -7   2  -3    9.80    2.90
   7  -2   3   17.40    2.70
   7  -2   3   18.10    3.90
   7  -2   3   13.40    3.60
  -8   2  -3    1.20    2.10
  -8   2  -3    2.80    3.00
   8  -2   3    2.80    2.20
   8  -2   3    2.30    1.80
   8  -2   3    2.70    3.40
  -9   2  -3   -2.10    2.20
  -9   2  -3    4.30    2.90
   9  -2   3    2.90    1.70
   9   1  -3   -2.70    2.50
   9   1  -3   -2.70    2.10
  -9  -1   3   -7.30    3.30
  -9  -1   3    0.40    2.00
   8   1  -3    0.80    2.30
   8   1  -3    1.00    2.20
  -8  -1   3   -0.30    1.70
  -8  -1   3   -3.70    2.90
   7   1  -3    2.50    2.20
   7   1  -3    2.20    2.10
   7   1  -3    1.20    1.50
  -7  -1   3    0.70    2.10
  -7  -1   3   -0.10    1.50
  -7  -1   3    2.50    3.20
   6   1  -3    2.80    2.20
   6   1  -3    1.00    1.70
   6   1  -3    0.20    1.30
  -6  -1   3    1.40    1.70
  -6  -1   3    1.40    1.50
  -6  -1   3    3.80    2.90
   5   1  -3   -0.50    1.40
   5   1  -3    2.20    1.70
   5   1  -3    0.90    1.70
   5   1  -3    2.00    1.10
  -5  -1   3    2.10    2.30
  -5  -1   3    1.00    1.10
  -5  -1   3   -0.10    1.10
   4   1  -3    2.10    1.60
   4   1  -3    1.70    1.50
   4   1  -3    1.90    0.90
   4   1  -3    0.80    1.10
   4   1  -3    0.80    0.30
   4   1  -3    0.80    1.30
  -4  -1   3    1.00    1.50
  -4  -1   3    0.50    1.00
  -4  -1   3   -0.10    0.90
  -4  -1   3    2.80    2.10
   3   1  -3    9.10    1.90
   3   1  -3    8.60    0.90
   3   1  -3    7.80    1.80
   3   1  -3    5.50    1.80
   3   1  -3   11.50    1.50
   3   1  -3    9.60    1.20
  -3  -1   3    6.00    1.40
  -3  -1   3    8.80    2.00
  -3  -1   3    7.40    2.00
  -3  -1   3    4.80    1.40
   2   1  -3  119.69    4.50
   2   1  -3  116.19    8.00
   2   1  -3  116.19    5.30
   2   1  -3  110.29    5.80
   2   1  -3  111.49    5.20
   2   1  -3  119.29    6.40
  -2  -1   3  113.39    6.00
  -2  -1   3  113.99    5.10
  -2  -1   3  118.89    6.50
  -2  -1   3  121.29    7.70
  -2  -1   3  107.49    5.10
   1   1  -3    7.80    1.50
   1   1  -3   11.20    2.70
   1   1  -3   12.40    1.80
   1   1  -3   11.70    1.80
  -1  -1   3   12.60    1.90
  -1  -1   3   10.90    1.60
  -1  -1   3    9.00    1.70
  -1  -1   3   10.70    2.60
  -1  -1   3   14.00    2.00
   0   1  -3  103.99    5.10
   0   1  -3  103.49    4.50
   0   1  -3  101.69    4.40
   0   1  -3  100.39    6.00
   0   1  -3  110.59    7.20
   0  -1   3  105.19    4.50
   0  -1   3  107.49    5.20
   0  -1   3   99.09    4.10
   0  -1   3  104.19    6.70
   0  -1   3  105.09    4.40
  -1   1  -3   30.00    3.10
  -1   1  -3   32.40    1.60
  -1   1  -3   30.20    2.10
  -1   1  -3   31.90    2.10
  -1   1  -3   34.20    2.70
  -1   1  -3   31.20    3.70
   1  -1   3   32.10    2.30
   1  -1   3   33.10    1.80
   1  -1   3   34.00    3.40
   1  -1   3   34.00    2.20
  -2   1  -3  316.57   10.90
  -2   1  -3  363.66   11.10
  -2   1  -3  339.27   13.00
  -2   1  -3  359.26   16.80
  -2   1  -3  315.97   16.60
   2  -1   3  336.37   16.50
   2  -1   3  337.07   11.00
   2  -1   3  349.27   11.00
   2  -1   3  308.47   16.20
  -3   1  -3    0.80    0.80
  -3   1  -3    2.50    1.00
  -3   1  -3    2.10    0.80
  -3   1  -3    0.40    0.80
  -3   1  -3    0.00    0.60
  -3   1  -3    1.20    0.80
   3  -1   3    1.30    0.80
   3  -1   3    2.10    1.00
   3  -1   3    1.50    0.80
   3  -1   3    1.60    1.20
   3  -1   3    2.00    1.10
  -4   1  -3    0.10    0.80
  -4   1  -3    0.80    0.80
  -4   1  -3    0.80    0.90
  -4   1  -3    0.50    1.20
  -4   1  -3   -0.10    0.90
   4  -1   3   -0.30    1.10
   4  -1   3    0.30    1.10
   4  -1   3   -0.10    1.10
  -5   1  -3  133.29    5.80
  -5   1  -3  150.48   10.50
  -5   1  -3  145.39    6.30
  -5   1  -3  145.99    8.40
  -5   1  -3  135.19    8.60
   5  -1   3  137.09    5.90
   5  -1   3  141.69    6.70
   5  -1   3  138.29    5.90
  -6   1  -3   34.30    2.90
  -6   1  -3   34.60    6.20
  -6   1  -3   37.30    5.40
  -6   1  -3   35.60    3.80
   6  -1   3   37.00    3.40
   6  -1   3   39.10    4.40
   6  -1   3   37.00    3.10
  -7   1  -3    1.30    2.30
  -7   1  -3   -1.20    1.60
   7  -1   3    0.60    2.50
   7  -1   3    0.50    2.00
   7  -1   3    2.10    1.80
  -8   1  -3   -1.30    2.10
  -8   1  -3    1.90    2.80
   8  -1   3    0.30    2.20
   8  -1   3   -1.20    1.80
  -9   1  -3   -1.00    2.40
  -9   1  -3    4.70    3.50
   9  -1   3    1.90    2.20
   9  -1   3    1.90    2.80
   9   0  -3    1.00    2.40
   9   0  -3   -1.20    2.40
  -9   0   3   -3.30    3.70
  -9   0   3    1.90    2.20
   8   0  -3    0.90    2.30
   8   0  -3   -2.20    2.10
  -8   0   3   -1.60    1.60
  -8   0   3   -2.40    3.10
   7   0  -3    0.30    2.10
   7   0  -3    0.60    2.00
   7   0  -3    0.70    1.60
  -7   0   3   -4.90    2.20
  -7   0   3   -0.20    1.50
   6   0  -3    1.30    1.80
   6   0  -3    0.70    1.40
   6   0  -3   -0.90    1.20
  -6   0   3   -3.30    2.20
  -6   0   3   -0.70    1.50
  -6   0   3   -0.30    1.40
   5   0  -3   13.00    2.50
   5   0  -3   14.00    2.50
   5   0  -3   13.10    2.60
   5   0  -3   11.90    2.10
  -5   0   3    9.40    2.00
  -5   0   3   10.90    3.00
  -5   0   3   13.30    2.40
   4   0  -3  259.57   10.30
   4   0  -3  294.57   10.80
   4   0  -3  284.67   10.60
   4   0  -3  306.27   10.70
  -4   0   3  288.27   12.80
  -4   0   3  282.27   10.50
  -4   0   3  284.67   13.60
  -4   0   3  285.17   15.40
   3   0  -3   10.20    1.80
   3   0  -3    6.60    1.60
   3   0  -3   11.30    1.80
   3   0  -3    8.40    1.70
  -3   0   3    6.00    1.80
  -3   0   3   11.20    2.00
  -3   0   3    5.40    1.20
  -3   0   3    4.90    1.60
   2   0  -3  412.56   13.60
   2   0  -3  442.26   13.00
   2   0  -3  409.66   20.20
   2   0  -3  397.16   15.80
   2   0  -3  425.26   13.70
   2   0  -3  407.26   16.60
  -2   0   3  402.26   20.10
  -2   0   3  413.76   16.00
  -2   0   3  410.06   16.60
  -2   0   3  416.56   13.50
  -2   0   3  419.36   13.70
   1   0  -3   62.89    3.30
   1   0  -3   62.39    3.80
   1   0  -3   61.09    3.70
   1   0  -3   58.69    3.10
   1   0  -3   69.39    5.40
   1   0  -3   60.09    3.20
  -1   0   3   60.09    3.30
  -1   0   3   60.59    3.70
  -1   0   3   60.79    3.10
  -1   0   3   62.79    5.10
  -1   0   3   65.79    3.80
   0   0  -3 1203.58   52.49
   0   0  -3 1195.98   49.70
   0   0  -3 1172.28   42.60
   0   0  -3 1226.58   40.60
   0   0  -3 1210.98   35.10
   0   0  -3 1201.68   35.10
   0   0   3 1182.28   40.60
   0   0   3 1163.78   43.10
   0   0   3 1176.08   35.00
   0   0   3 1209.98   49.60
   0   0   3 1107.69   35.10
   0   0   3 1190.28   52.39
  -1   0  -3  881.91   39.60
  -1   0  -3  907.41   26.60
  -1   0  -3  870.61   38.10
  -1   0  -3  900.01   32.30
  -1   0  -3  889.51   26.50
  -1   0  -3  895.51   30.70
   1   0   3  878.71   26.50
   1   0   3  871.41   26.60
   1   0   3  858.61   30.70
   1   0   3  874.01   32.30
   1   0   3  882.71   38.00
   1   0   3  940.91   39.70
  -2   0  -3   63.69    3.50
  -2   0  -3   68.39    4.90
  -2   0  -3   62.49    2.30
  -2   0  -3   58.39    4.70
  -2   0  -3   65.69    3.10
  -2   0  -3   61.49    3.00
   2   0   3   66.69    4.80
   2   0   3   66.39    3.20
   2   0   3   64.49    3.60
   2   0   3   65.79    4.50
   2   0   3   61.49    3.10
  -3   0  -3   98.39    4.20
  -3   0  -3  100.69    4.20
  -3   0  -3   95.79    6.90
  -3   0  -3   87.89    5.80
  -3   0  -3  100.89    5.30
   3   0   3   94.79    5.70
   3   0   3  101.59    4.30
   3   0   3   96.99    6.50
   3   0   3   91.89    4.10
   3   0   3   97.39    4.30
  -4   0  -3   19.30    3.10
  -4   0  -3   17.80    3.30
  -4   0  -3   14.50    2.60
  -4   0  -3   19.70    2.60
  -4   0  -3   20.00    2.10
   4   0   3   19.60    2.20
   4   0   3   19.70    2.10
   4   0   3   20.20    2.20
   4   0   3   19.50    2.00
  -5   0  -3   29.10    2.90
  -5   0  -3   31.30    4.20
  -5   0  -3   31.10    4.90
  -5   0  -3   35.20    2.80
   5   0   3   31.10    2.80
   5   0   3   38.00    3.50
   5   0   3   32.00    2.70
  -6   0  -3    0.70    1.60
  -6   0  -3    1.40    1.40
  -6   0  -3    0.70    2.00
  -6   0  -3    0.80    0.60
   6   0   3    3.50    1.80
   6   0   3    2.30    1.50
   6   0   3    1.70    1.60
  -7   0  -3    8.20    2.60
  -7   0  -3   16.00    3.60
  -7   0  -3   13.40    2.30
   7   0   3   20.10    3.20
  -8   0  -3    9.40    3.70
   8   0   3    8.50    2.60
  -9   0  -3   -0.10    3.00
  -9   0  -3   -2.90    2.00
   9   0   3    0.60    2.20
   9   0   3    0.20    2.30
 -10   0  -3   -0.30    3.40
 -10   0  -3   -3.80    2.40
  10   0   3    1.50    2.30
   8  -1  -3   -0.40    1.60
   8  -1  -3   -1.30    1.90
  -8   1   3    2.10    1.90
  -8   1   3   -3.30    2.90
   7  -1  -3    2.70    2.40
   7  -1  -3    0.20    1.90
  -7   1   3    0.00    2.60
  -7   1   3    2.00    1.60
   6  -1  -3    3.30    1.70
   6  -1  -3    5.90    2.10
   6  -1  -3    4.90    2.20
  -6   1   3    2.90    1.50
  -6   1   3    0.50    0.80
  -6   1   3   -0.80    2.20
  -6   1   3    1.90    1.70
   5  -1  -3    8.80    2.00
   5  -1  -3    4.90    2.00
   5  -1  -3    5.20    1.90
   5  -1  -3    6.20    2.00
  -5   1   3    2.90    0.90
  -5   1   3    5.20    2.40
  -5   1   3    3.20    1.60
  -5   1   3    2.00    1.70
  -5   1   3    5.70    1.70
   4  -1  -3   -0.40    1.30
   4  -1  -3   -0.10    1.20
   4  -1  -3    0.70    1.20
  -4   1   3   -0.10    1.50
  -4   1   3    2.30    1.20
  -4   1   3   -0.80    0.90
  -4   1   3    0.00    0.50
  -4   1   3   -1.00    1.30
   3  -1  -3   -0.40    1.00
   3  -1  -3    1.10    0.90
   3  -1  -3    0.00    1.00
   3  -1  -3    0.40    1.00
  -3   1   3    0.40    0.90
  -3   1   3   -0.30    1.00
  -3   1   3    0.40    1.20
  -3   1   3   -0.50    1.10
  -3   1   3    0.10    0.30
   2  -1  -3  188.08    8.40
   2  -1  -3  195.38    7.00
   2  -1  -3  202.88    7.10
   2  -1  -3  203.78    8.60
  -2   1   3  185.18    7.10
  -2   1   3  184.08    8.60
  -2   1   3  190.68   10.70
  -2   1   3  163.88    8.00
  -2   1   3  197.48    8.60
  -2   1   3  196.68    6.80
  -2   1   3  202.88    7.00
  -2   1   3  179.18    8.00
   1  -1  -3  157.18    5.80
   1  -1  -3  158.28    5.80
   1  -1  -3  151.98    5.70
   1  -1  -3  153.08    6.70
   1  -1  -3  160.48    7.00
  -1   1   3  160.38    5.70
  -1   1   3  150.38    5.80
  -1   1   3  167.48    9.20
  -1   1   3  161.58    6.80
  -1   1   3  151.18    7.00
  -1   1   3  156.48    7.00
   0  -1  -3 3819.32  160.58
   0  -1  -3 3779.72  131.09
   0  -1  -3 3859.41  135.89
   0  -1  -3 3836.12  111.69
   0  -1  -3 3836.62  110.69
   0   1   3 3932.31  139.99
   0   1   3 3647.03  112.09
   0   1   3 3851.01  159.78
   0   1   3 3612.64  131.29
   0   1   3 4017.50  167.08
   0   1   3 3613.24  112.69
  -1  -1  -3 1149.19   33.30
  -1  -1  -3 1155.98   49.50
  -1  -1  -3 1102.79   47.60
  -1  -1  -3 1137.19   33.30
  -1  -1  -3 1146.79   41.20
  -1  -1  -3 1119.59   38.40
   1   1   3 1133.59   41.20
   1   1   3 1154.18   33.40
   1   1   3 1057.49   49.40
   1   1   3 1139.59   38.50
   1   1   3 1083.59   33.20
   1   1   3 1171.78   47.70
  -2  -1  -3  141.89    7.50
  -2  -1  -3  134.19    5.20
  -2  -1  -3  139.79    5.30
  -2  -1  -3  140.39    6.20
  -2  -1  -3  137.79    6.30
  -2  -1  -3  124.59    7.60
   2   1   3  144.49    7.50
   2   1   3  135.49    6.40
   2   1   3  134.29    5.20
   2   1   3  142.19    7.80
   2   1   3  134.79    5.30
  -3  -1  -3    0.00    0.60
  -3  -1  -3    0.10    0.70
  -3  -1  -3    0.10    0.80
  -3  -1  -3   -0.10    0.90
  -3  -1  -3    0.60    0.60
  -3  -1  -3   -1.30    0.80
   3   1   3   -0.30    0.80
   3   1   3    0.30    0.60
   3   1   3   -0.50    0.70
   3   1   3   -0.10    0.60
   3   1   3   -0.20    0.80
  -4  -1  -3    1.10    0.90
  -4  -1  -3    1.20    0.90
  -4  -1  -3    1.50    1.00
  -4  -1  -3    0.80    1.00
   4   1   3    1.00    0.90
   4   1   3    1.90    1.10
   4   1   3    0.90    0.40
   4   1   3    2.20    1.20
  -5  -1  -3  169.08   10.60
  -5  -1  -3  157.38    9.00
  -5  -1  -3  161.28    6.70
   5   1   3  149.39    6.60
   5   1   3  154.68    6.60
  -6  -1  -3   64.39    4.30
  -6  -1  -3   64.79    7.10
  -6  -1  -3   62.89    6.20
   6   1   3   62.39    4.10
   6   1   3   59.79    4.10
  -7  -1  -3    8.80    3.30
  -7  -1  -3   12.10    2.50
   7   1   3   11.10    2.30
   7   1   3   12.90    2.70
  -8  -1  -3   -2.90    1.80
  -8  -1  -3    1.80    2.90
   8   1   3    0.30    2.00
  -9  -1  -3   -1.90    2.10
  -9  -1  -3    3.20    3.50
   9   1   3    2.90    2.70
 -10  -1  -3    0.40    3.60
 -10  -1  -3   -3.20    2.40
  10   1   3    0.20    2.80
  10   1   3    1.40    2.40
   8  -2  -3    0.00    1.80
   8  -2  -3   -1.30    2.30
  -8   2   3    0.10    1.30
  -8   2   3   -2.00    2.90
   7  -2  -3   -1.80    2.10
   7  -2  -3   -0.50    1.70
  -7   2   3   -1.50    2.30
  -7   2   3    1.50    1.80
   6  -2  -3    0.80    1.60
   6  -2  -3    2.50    1.80
  -6   2   3   -1.10    0.90
  -6   2   3    0.80    1.60
  -6   2   3   -0.70    2.30
   5  -2  -3   11.80    2.10
   5  -2  -3    9.10    1.90
   5  -2  -3    8.80    2.20
  -5   2   3    5.90    1.30
  -5   2   3    7.40    2.60
  -5   2   3   10.10    1.80
  -5   2   3    3.80    1.70
   4  -2  -3   16.10    2.10
   4  -2  -3   14.20    2.20
   4  -2  -3   14.10    2.40
  -4   2   3   14.40    1.90
  -4   2   3    8.40    2.00
  -4   2   3   12.10    2.50
  -4   2   3   13.70    2.30
   3  -2  -3   66.69    3.90
   3  -2  -3   62.79    3.30
   3  -2  -3   66.49    3.40
   3  -2  -3   69.39    4.00
  -3   2   3   63.59    4.90
  -3   2   3   60.89    4.00
  -3   2   3   68.29    3.30
  -3   2   3   64.99    4.70
  -3   2   3   65.69    3.10
   2  -2  -3  606.84   22.70
   2  -2  -3  612.14   18.40
   2  -2  -3  609.04   17.90
   2  -2  -3  572.54   18.20
  -2   2   3  611.64   22.80
  -2   2   3  586.04   18.20
  -2   2   3  585.24   22.20
  -2   2   3  595.84   20.60
  -2   2   3  607.34   18.30
   1  -2  -3   77.89    3.80
   1  -2  -3   77.79    3.30
   1  -2  -3   74.99    3.20
   1  -2  -3   79.19    3.70
   1  -2  -3   76.99    4.30
  -1   2   3   76.79    3.30
  -1   2   3   83.29    3.90
  -1   2   3   78.79    3.20
  -1   2   3   73.19    4.20
   0  -2  -3  233.78    9.50
   0  -2  -3  242.28    8.00
   0  -2  -3  240.28    8.00
   0   2   3  245.38    8.00
   0   2   3  247.78   11.40
   0   2   3  251.47    9.60
   0   2   3  251.67   10.50
   0   2   3  247.58    8.00
   0   2   3  235.08    8.00
   0   2   3  243.08    8.90
  -1  -2  -3  219.68    7.00
  -1  -2  -3  204.98    8.00
  -1  -2  -3  227.18   10.90
  -1  -2  -3  216.58    8.50
  -1  -2  -3  227.48    9.40
  -1  -2  -3  210.68    7.40
  -1  -2  -3  222.88    7.50
   1   2   3  226.28    7.50
   1   2   3  234.48   10.90
   1   2   3  219.68    9.50
   1   2   3  215.88    7.40
   1   2   3  222.88    8.60
  -2  -2  -3   90.99    4.80
  -2  -2  -3   92.39    3.90
  -2  -2  -3   86.79    3.90
  -2  -2  -3   89.49    4.30
  -2  -2  -3   88.99    6.00
  -2  -2  -3   85.89    4.20
   2   2   3   93.59    5.00
   2   2   3   87.69    4.00
   2   2   3   88.89    3.90
   2   2   3   95.29    6.00
  -3  -2  -3  214.98    7.60
  -3  -2  -3  206.68    9.40
  -3  -2  -3  191.38    9.00
  -3  -2  -3  219.68   11.30
  -3  -2  -3  204.28    7.50
   3   2   3  203.88   11.10
   3   2   3  207.28    7.50
   3   2   3  201.98    7.50
   3   2   3  210.78   10.10
   3   2   3  204.18    9.60
  -4  -2  -3   70.79    6.00
  -4  -2  -3   69.09    3.80
  -4  -2  -3   70.89    4.90
  -4  -2  -3   63.19    4.70
   4   2   3   69.89    5.20
   4   2   3   68.89    3.80
   4   2   3   78.29    5.90
   4   2   3   63.89    3.70
   4   2   3   65.49    3.90
  -5  -2  -3    2.60    1.50
  -5  -2  -3    4.00    1.90
  -5  -2  -3    5.10    1.60
   5   2   3    4.10    1.60
   5   2   3    5.80    1.70
  -6  -2  -3   31.50    5.60
  -6  -2  -3   32.70    3.30
  -6  -2  -3   31.30    4.90
   6   2   3   28.10    3.30
   6   2   3   31.70    3.30
  -7  -2  -3    1.20    1.80
  -7  -2  -3    0.30    1.90
  -7  -2  -3    1.30    1.90
   7   2   3    4.20    2.30
  -8  -2  -3    0.20    1.80
  -8  -2  -3    1.50    2.90
  -8  -2  -3   -1.70    1.80
   8   2   3    1.70    2.40
  -9  -2  -3   -1.00    3.20
  -9  -2  -3   -3.20    2.40
   9   2   3    0.00    2.50
 -10  -2  -3   -2.20    3.60
  10   2   3    1.70    3.00
   8  -3  -3    1.70    2.70
  -8   3   3    2.20    2.00
  -8   3   3   -2.50    2.80
   7  -3  -3    1.00    1.50
   7  -3  -3    0.70    2.20
  -7   3   3   -0.40    2.30
  -7   3   3    1.20    1.70
   6  -3  -3    4.90    1.60
   6  -3  -3    5.20    2.20
  -6   3   3    1.90    1.70
  -6   3   3    7.10    2.90
   5  -3  -3    7.70    2.40
   5  -3  -3    7.40    3.10
   5  -3  -3   10.10    1.70
  -5   3   3    5.90    2.50
  -5   3   3    4.50    1.20
  -5   3   3    4.50    1.80
   4  -3  -3   13.80    2.60
   4  -3  -3   16.00    1.90
   4  -3  -3   15.50    2.30
  -4   3   3    8.20    1.90
  -4   3   3   15.10    2.60
  -4   3   3   14.80    1.60
  -4   3   3   13.30    2.70
   3  -3  -3   14.50    2.20
   3  -3  -3   11.20    2.10
   3  -3  -3   10.20    1.40
  -3   3   3   11.10    1.10
  -3   3   3   10.30    1.30
  -3   3   3    6.60    1.70
  -3   3   3   11.50    1.90
  -3   3   3    7.00    1.60
   2  -3  -3   37.50    2.90
   2  -3  -3   37.70    2.10
   2  -3  -3   33.60    2.60
  -2   3   3   36.00    1.90
  -2   3   3   36.10    2.80
  -2   3   3   38.80    1.90
  -2   3   3   39.50    3.20
  -2   3   3   31.90    3.20
  -2   3   3   37.00    2.90
   1  -3  -3   17.00    1.50
   1  -3  -3   18.20    1.90
   1  -3  -3   16.40    1.40
  -1   3   3   15.70    2.10
  -1   3   3   15.40    1.70
  -1   3   3   17.10    1.30
  -1   3   3   16.60    1.30
  -1   3   3   16.20    1.70
   0  -3  -3   36.10    2.30
   0  -3  -3   33.70    2.00
   0  -3  -3   31.80    1.90
   0  -3  -3   33.40    2.40
   0   3   3   34.90    1.90
   0   3   3   33.40    3.00
   0   3   3   31.10    2.40
   0   3   3   33.00    2.20
   0   3   3   34.50    2.00
  -1  -3  -3    0.80    0.80
  -1  -3  -3    1.10    0.80
  -1  -3  -3   -0.10    0.50
  -1  -3  -3    0.40    0.40
   1   3   3    0.70    0.50
   1   3   3    1.20    0.40
   1   3   3    0.50    0.70
   1   3   3    1.50    0.90
   1   3   3    0.40    0.70
   1   3   3    0.40    0.60
  -2  -3  -3  294.57   12.60
  -2  -3  -3  317.07   10.10
  -2  -3  -3  301.87   11.10
  -2  -3  -3  286.37   11.60
  -2  -3  -3  313.67   14.90
  -2  -3  -3  315.87   10.20
   2   3   3  291.27   10.10
   2   3   3  304.97   12.80
   2   3   3  308.87   11.60
   2   3   3  280.37   10.00
   2   3   3  291.57   14.70
  -3  -3  -3  196.88    7.40
  -3  -3  -3  179.48   10.50
  -3  -3  -3  202.58    7.30
  -3  -3  -3  201.78    9.20
  -3  -3  -3  178.18    8.50
   3   3   3  192.98    7.30
   3   3   3  208.08    8.70
   3   3   3  198.78    9.40
   3   3   3  193.58    7.30
   3   3   3  179.38   10.40
  -4  -3  -3   63.99    5.80
  -4  -3  -3   60.09    4.60
  -4  -3  -3   65.99    3.80
   4   3   3   61.39    4.30
   4   3   3   56.19    3.40
   4   3   3   65.39    5.10
   4   3   3   54.59    3.60
   4   3   3   54.69    5.40
  -5  -3  -3   -0.40    1.60
  -5  -3  -3    0.40    1.30
  -5  -3  -3    0.20    1.40
   5   3   3    0.30    1.30
   5   3   3    0.00    0.30
   5   3   3    0.00    0.50
   5   3   3    0.00    1.30
  -6  -3  -3    2.20    1.80
  -6  -3  -3    3.20    1.90
  -6  -3  -3    4.40    2.10
   6   3   3    3.00    1.80
  -7  -3  -3   39.50    7.00
  -7  -3  -3   29.50    4.10
  -7  -3  -3   39.60    6.30
   7   3   3   29.30    4.20
  -8  -3  -3   21.90    3.60
  -8  -3  -3   16.60    4.50
   8   3   3   20.60    3.70
  -9  -3  -3   -1.40    3.10
  -9  -3  -3   -2.00    2.00
   9   3   3    0.90    2.30
 -10  -3  -3   -1.20    2.60
 -10  -3  -3   -2.00    3.70
  10   3   3   10.30    3.50
   8  -4  -3    3.80    2.90
  -8   4   3    4.00    2.30
  -8   4   3    4.20    3.20
   7  -4  -3   -1.00    2.10
  -7   4   3    0.20    1.60
  -7   4   3    0.10    2.10
   6  -4  -3    0.10    3.10
   6  -4  -3   -0.40    0.90
   6  -4  -3    1.20    1.70
  -6   4   3   -0.50    1.30
  -6   4   3    0.80    1.10
  -6   4   3    1.20    2.00
   5  -4  -3   40.70    2.30
   5  -4  -3   47.50    5.10
   5  -4  -3   42.30    4.40
   5  -4  -3   35.70    2.20
  -5   4   3   42.20    5.00
  -5   4   3   38.60    5.10
  -5   4   3   41.00    5.30
   4  -4  -3   30.00    3.40
   4  -4  -3   25.50    1.80
   4  -4  -3   24.60    1.80
   4  -4  -3   27.20    4.00
  -4   4   3   25.30    3.80
  -4   4   3   23.70    4.00
  -4   4   3   23.70    3.90
   3  -4  -3   45.00    3.80
   3  -4  -3   36.90    1.90
   3  -4  -3   40.00    3.30
   3  -4  -3   36.60    1.90
  -3   4   3   40.80    4.00
  -3   4   3   35.80    1.40
  -3   4   3   37.30    1.40
  -3   4   3   39.10    3.80
  -3   4   3   33.30    3.10
   2  -4  -3    3.50    1.70
   2  -4  -3    4.70    1.30
   2  -4  -3    4.70    0.90
  -2   4   3    2.80    1.00
  -2   4   3    1.90    1.10
  -2   4   3    4.10    0.60
  -2   4   3    5.70    1.70
  -2   4   3    4.50    0.60
  -2   4   3    4.20    1.50
   1  -4  -3    7.00    1.50
   1  -4  -3    7.00    1.60
   1  -4  -3    7.40    1.20
  -1   4   3    6.90    0.90
  -1   4   3    3.90    1.20
  -1   4   3    7.80    1.00
  -1   4   3    4.30    1.00
  -1   4   3    9.00    1.70
   0  -4  -3   52.09    2.60
   0  -4  -3   50.59    2.60
   0  -4  -3   53.39    2.80
   0  -4  -3   50.69    3.10
   0   4   3   48.50    2.40
   0   4   3   49.99    2.50
   0   4   3   55.29    3.20
   0   4   3   51.39    4.00
  -1  -4  -3   10.90    1.40
  -1  -4  -3   10.10    1.40
  -1  -4  -3    8.50    1.60
  -1  -4  -3   11.10    1.50
   1   4   3   10.10    1.30
   1   4   3   12.50    2.20
   1   4   3   11.50    1.40
   1   4   3   12.40    1.40
   1   4   3   11.30    1.50
  -2  -4  -3   72.19    3.60
  -2  -4  -3   72.29    4.60
  -2  -4  -3   68.19    3.90
  -2  -4  -3   71.29    3.40
  -2  -4  -3   65.89    3.50
   2   4   3   71.09    3.60
   2   4   3   70.19    3.50
   2   4   3   72.49    3.90
   2   4   3   65.79    5.20
   2   4   3   72.09    4.80
  -3  -4  -3    2.40    1.10
  -3  -4  -3    3.40    1.40
  -3  -4  -3    2.10    0.60
  -3  -4  -3    4.20    1.20
  -3  -4  -3    1.80    0.80
   3   4   3    2.40    1.20
   3   4   3    2.10    1.00
   3   4   3    4.00    1.40
   3   4   3    3.80    1.30
   3   4   3    3.30    1.20
  -4  -4  -3  415.86   21.90
  -4  -4  -3  469.95   18.70
  -4  -4  -3  470.15   15.60
   4   4   3  475.05   19.70
   4   4   3  447.26   15.40
  -5  -4  -3   19.60    4.50
  -5  -4  -3   13.50    2.30
  -5  -4  -3    8.70    2.40
   5   4   3    9.00    2.00
   5   4   3   19.60    2.80
   5   4   3   10.90    2.30
  -6  -4  -3   56.49    4.50
  -6  -4  -3   51.09    5.90
  -6  -4  -3   56.49    6.80
   6   4   3   50.59    3.30
   6   4   3   51.79    4.00
  -7  -4  -3   12.40    2.90
  -7  -4  -3    6.10    2.30
  -7  -4  -3    9.10    3.40
   7   4   3    6.90    2.60
  -8  -4  -3    4.70    2.60
  -8  -4  -3    6.10    3.50
  -8  -4  -3    2.10    2.10
   8   4   3    1.30    2.50
  -9  -4  -3    4.40    2.50
  -9  -4  -3    6.40    4.10
  -9  -4  -3   10.30    3.20
   9   4   3   11.60    3.50
 -10  -4  -3   -4.40    3.70
 -10  -4  -3   -0.20    2.10
  10   4   3    1.20    3.10
   7  -5  -3    1.90    3.10
   7  -5  -3    2.30    2.00
  -7   5   3    0.10    1.40
  -7   5   3    0.80    2.00
   6  -5  -3   -4.40    2.90
   6  -5  -3    0.90    2.10
  -6   5   3    0.70    1.40
  -6   5   3    3.10    2.10
  -6   5   3    2.70    1.20
   5  -5  -3   22.40    3.20
   5  -5  -3   30.80    4.70
  -5   5   3   28.00    4.50
  -5   5   3   33.20    5.00
  -5   5   3   30.60    4.60
   4  -5  -3  117.69    7.10
   4  -5  -3  121.89    7.00
  -4   5   3  139.89    8.40
  -4   5   3  126.19    8.10
   3  -5  -3  164.78    7.90
   3  -5  -3  163.28    7.80
  -3   5   3  183.78    9.30
  -3   5   3  179.08    9.30
   2  -5  -3    1.30    0.50
   2  -5  -3    0.10    1.70
   2  -5  -3    0.50    1.20
  -2   5   3    1.70    0.90
  -2   5   3    1.90    1.10
   1  -5  -3  373.26   12.20
   1  -5  -3  354.16   11.10
   1  -5  -3  380.86   12.30
   1  -5  -3  340.57   11.10
   1  -5  -3  376.46   13.10
  -1   5   3  338.97   10.90
  -1   5   3  365.06   14.20
  -1   5   3  347.97   10.90
  -1   5   3  359.76   16.00
   0  -5  -3   30.60    2.10
   0  -5  -3   34.80    2.70
   0  -5  -3   34.10    2.50
   0  -5  -3   31.90    2.10
   0  -5  -3   35.20    2.80
   0   5   3   34.00    2.60
   0   5   3   33.00    3.40
   0   5   3   31.00    1.90
   0   5   3   31.10    1.90
  -1  -5  -3   19.40    2.60
  -1  -5  -3   18.20    2.00
  -1  -5  -3   20.30    2.00
   1   5   3   19.50    2.20
   1   5   3   22.00    1.90
   1   5   3   18.80    1.80
   1   5   3   18.40    2.70
   1   5   3   19.00    1.70
  -2  -5  -3   10.20    1.10
  -2  -5  -3   12.70    1.90
  -2  -5  -3   12.40    1.80
  -2  -5  -3   10.20    1.90
   2   5   3    6.40    1.40
   2   5   3   12.80    2.00
   2   5   3   12.30    1.70
  -3  -5  -3  400.76   13.80
  -3  -5  -3  415.06   13.60
  -3  -5  -3  389.06   13.60
  -3  -5  -3  400.46   16.20
   3   5   3  400.16   16.10
   3   5   3  379.76   17.00
   3   5   3  369.76   13.30
  -4  -5  -3  165.38    8.80
  -4  -5  -3  163.38    7.30
   4   5   3  170.08    8.60
   4   5   3  154.48    9.00
   4   5   3  169.08    7.30
  -5  -5  -3   39.80    4.90
  -5  -5  -3   37.30    3.70
   5   5   3   43.90    5.40
   5   5   3   36.80    3.30
   5   5   3   35.90    4.00
  -6  -5  -3    2.10    1.80
  -6  -5  -3    2.80    2.60
   6   5   3    4.50    2.20
   6   5   3    1.50    1.00
  -7  -5  -3   36.80    6.50
  -7  -5  -3   35.40    6.60
  -7  -5  -3   45.50    4.70
   7   5   3   30.30    3.10
   7   5   3   37.50    4.40
  -8  -5  -3    1.50    2.40
  -8  -5  -3    0.40    1.80
  -8  -5  -3   -1.00    3.30
   8   5   3   -2.00    2.30
  -9  -5  -3   -2.80    2.00
  -9  -5  -3   -4.20    3.40
   9   5   3   -0.20    2.60
 -10  -5  -3   -4.90    3.70
  10   5   3    1.10    2.80
  -7   6   3    3.20    1.90
   6  -6  -3   -0.90    2.10
   6  -6  -3    0.70    3.40
  -6   6   3    2.10    2.00
  -6   6   3   -0.10    1.10
   5  -6  -3    8.20    2.50
   5  -6  -3    7.90    3.00
  -5   6   3    8.00    2.10
  -5   6   3   10.90    2.80
   4  -6  -3   42.20    4.20
   4  -6  -3   46.80    5.10
  -4   6   3   46.00    5.10
  -4   6   3   49.00    5.10
   3  -6  -3    1.60    1.80
   3  -6  -3    4.80    2.00
  -3   6   3    3.00    1.20
  -3   6   3    1.40    1.30
  -3   6   3    3.70    1.70
   2  -6  -3  174.18    8.00
   2  -6  -3  196.58    8.50
  -2   6   3  191.28   10.70
  -2   6   3  198.48    9.40
   1  -6  -3   17.50    2.60
   1  -6  -3   12.00    2.60
   1  -6  -3   12.10    1.60
   1  -6  -3   13.00    1.30
   1  -6  -3   10.80    2.00
  -1   6   3   12.40    1.00
  -1   6   3   13.30    2.30
  -1   6   3   12.20    1.00
  -1   6   3    6.90    1.60
   0  -6  -3    5.50    1.40
   0  -6  -3    5.10    1.20
   0  -6  -3    6.60    2.00
   0  -6  -3    4.10    1.30
   0  -6  -3    3.30    1.40
   0   6   3    5.20    1.10
   0   6   3    3.90    0.90
   0   6   3    2.40    1.10
  -1  -6  -3   -0.50    1.00
  -1  -6  -3   -0.70    1.20
   1   6   3    0.60    0.90
   1   6   3   -0.30    0.40
   1   6   3   -0.60    0.90
   1   6   3   -0.40    0.70
  -2  -6  -3   15.80    2.50
  -2  -6  -3   13.30    2.10
   2   6   3    9.00    1.90
   2   6   3    6.70    1.60
   2   6   3   11.60    1.80
  -3  -6  -3   16.60    2.20
  -3  -6  -3   16.00    2.60
  -3  -6  -3   17.10    3.30
   3   6   3   14.00    2.30
   3   6   3   10.30    2.10
   3   6   3   21.50    3.50
  -4  -6  -3    8.00    1.50
  -4  -6  -3    7.40    2.20
  -4  -6  -3    8.10    2.30
   4   6   3    9.00    2.10
   4   6   3    5.50    1.80
  -5  -6  -3   81.69    6.70
  -5  -6  -3   82.49    5.40
   5   6   3   77.19    5.20
   5   6   3   78.99    6.80
   5   6   3   77.39    7.00
  -6  -6  -3  143.89    9.70
  -6  -6  -3  147.09    7.90
   6   6   3  134.59    7.60
   6   6   3  144.29    9.40
  -7  -6  -3   -0.40    2.90
  -7  -6  -3    1.20    2.40
   7   6   3   -0.30    1.00
   7   6   3    0.90    2.20
  -8  -6  -3   -0.90    2.20
  -8  -6  -3   -0.90    3.20
   8   6   3    1.10    2.60
  -9  -6  -3    1.10    2.60
  -9  -6  -3   -5.60    3.40
   9   6   3    1.00    2.80
 -10  -6  -3    3.20    1.60
 -10  -6  -3    1.90    2.90
 -10  -6  -3   -5.60    4.10
  10   6   3   -1.80    2.80
   6  -7  -3   -3.40    3.70
   6  -7  -3    1.30    2.50
  -6   7   3    1.90    1.50
   5  -7  -3   -2.00    3.10
   5  -7  -3    1.10    1.90
  -5   7   3    7.60    2.10
   4  -7  -3   11.10    3.60
   4  -7  -3   10.30    2.70
  -4   7   3    7.40    2.20
   3  -7  -3   -0.60    1.40
   3  -7  -3    0.00    2.40
  -3   7   3    0.90    1.10
  -3   7   3    0.00    1.10
   2  -7  -3  266.27   11.00
   2  -7  -3  252.57   10.50
  -2   7   3  279.87   12.30
  -2   7   3  252.57   13.60
   1  -7  -3   55.79    4.30
   1  -7  -3   49.70    3.70
   1  -7  -3   52.59    2.60
   1  -7  -3   60.39    4.80
   1  -7  -3   58.59    2.90
  -1   7   3   55.39    2.30
  -1   7   3   61.59    5.40
  -1   7   3   61.29    4.40
  -1   7   3   55.59    2.20
   0  -7  -3   13.60    1.80
   0  -7  -3   12.60    2.40
   0  -7  -3   13.80    1.90
   0  -7  -3   13.70    2.00
   0  -7  -3   14.20    2.80
   0   7   3   11.90    1.50
   0   7   3    8.80    1.90
   0   7   3   15.90    2.20
  -1  -7  -3    4.40    1.30
  -1  -7  -3    3.90    1.70
  -1  -7  -3    0.40    1.70
  -1  -7  -3    6.20    1.70
  -1  -7  -3    3.70    1.30
   1   7   3    2.10    0.60
   1   7   3    3.20    1.20
   1   7   3    2.20    1.40
   1   7   3    2.50    1.20
  -2  -7  -3    1.90    1.30
  -2  -7  -3    0.50    1.70
   2   7   3   -0.90    1.30
   2   7   3    1.80    1.30
   2   7   3    1.00    1.00
  -3  -7  -3    4.50    2.20
  -3  -7  -3    6.90    1.90
   3   7   3    4.70    1.80
   3   7   3    5.10    1.70
  -4  -7  -3   25.80    4.60
  -4  -7  -3   29.70    3.70
   4   7   3   27.40    5.10
   4   7   3   36.60    5.10
   4   7   3   27.20    3.40
  -5  -7  -3   18.70    1.90
  -5  -7  -3   15.80    3.50
  -5  -7  -3   21.50    3.50
  -5  -7  -3   22.40    1.80
   5   7   3   24.50    3.60
   5   7   3   28.60    5.30
   5   7   3   27.90    5.30
  -6  -7  -3   41.20    3.40
  -6  -7  -3   43.10    4.90
  -6  -7  -3   40.70    6.30
   6   7   3   42.50    4.60
   6   7   3   37.10    6.50
   6   7   3   35.30    5.80
  -7  -7  -3    5.30    2.90
  -7  -7  -3    3.00    1.10
  -7  -7  -3    0.20    3.10
   7   7   3    1.90    1.40
   7   7   3    3.60    2.60
  -8  -7  -3    1.40    2.60
  -8  -7  -3    0.80    3.40
  -8  -7  -3    4.40    1.40
   8   7   3    2.80    2.60
  -9  -7  -3   -6.70    3.20
  -9  -7  -3   -0.30    2.80
   9   7   3   -0.50    2.80
 -10  -7  -3    0.30    3.00
 -10  -7  -3   -2.50    4.10
  10   7   3    3.10    3.30
  -5   8   3   37.50    4.60
  -5   8   3   43.70    5.20
   4  -8  -3    3.60    3.30
   4  -8  -3    0.30    1.80
  -4   8   3    1.50    1.50
  -4   8   3    1.30    1.20
   3  -8  -3    0.70    2.70
   3  -8  -3    0.50    1.70
  -3   8   3    2.10    1.30
  -3   8   3    0.30    1.20
   2  -8  -3    4.90    2.00
   2  -8  -3    1.30    2.70
  -2   8   3    3.90    1.30
  -2   8   3    1.30    1.30
   1  -8  -3   16.80    3.20
   1  -8  -3   17.30    2.50
   1  -8  -3   12.70    3.10
   1  -8  -3   14.50    1.60
  -1   8   3   16.90    2.90
  -1   8   3   11.80    2.40
   0  -8  -3  125.99    5.40
   0  -8  -3  133.89    7.40
   0  -8  -3  133.39    6.10
   0  -8  -3  133.09    5.70
   0  -8  -3  120.49    6.90
   0   8   3  129.89    8.50
   0   8   3  122.39    5.10
   0   8   3  132.59    6.30
  -1  -8  -3    0.40    1.20
  -1  -8  -3   -0.40    1.10
  -1  -8  -3   -1.40    0.90
  -1  -8  -3   -1.20    1.50
  -1  -8  -3   -0.70    2.10
   1   8   3   -0.40    1.10
   1   8   3   -0.20    0.40
   1   8   3   -1.30    0.90
  -2  -8  -3    0.00    1.20
  -2  -8  -3   -1.60    1.50
   2   8   3    0.40    1.30
   2   8   3   -1.20    1.00
  -3  -8  -3    8.20    2.70
  -3  -8  -3    7.40    2.10
   3   8   3    5.90    2.10
   3   8   3    5.30    2.40
   3   8   3    3.00    1.60
  -4  -8  -3   14.40    3.10
   4   8   3    5.60    2.10
   4   8   3    9.10    2.70
   4   8   3   15.00    3.00
  -5  -8  -3    1.80    2.30
  -5  -8  -3    0.40    2.60
   5   8   3    3.60    2.20
   5   8   3    2.70    2.00
   5   8   3    3.70    2.00
  -6  -8  -3   13.00    3.80
  -6  -8  -3   17.70    3.70
   6   8   3    7.60    2.80
   6   8   3   11.60    3.00
   6   8   3   16.30    3.40
  -7  -8  -3    1.70    3.20
  -7  -8  -3    2.30    2.70
   7   8   3    5.30    2.80
   7   8   3    5.50    2.10
  -8  -8  -3   13.50    4.60
  -8  -8  -3   18.60    4.40
   8   8   3   18.50    4.10
  -9  -8  -3   -0.80    3.90
  -9  -8  -3    0.20    2.90
   9   8   3    4.60    3.30
   4  -9  -3    0.10    3.50
   3  -9  -3    2.90    2.00
   3  -9  -3    4.10    3.50
  -3   9   3    2.20    1.50
  -3   9   3    3.70    1.40
   2  -9  -3    7.50    3.40
   2  -9  -3    4.10    2.10
  -2   9   3    3.00    1.50
  -2   9   3    4.70    1.40
  -2   9   3    5.60    2.20
   1  -9  -3    7.00    2.20
   1  -9  -3    6.60    2.40
   1  -9  -3    5.10    3.10
  -1   9   3    4.30    1.60
  -1   9   3    3.70    1.20
   0  -9  -3   -1.10    1.40
   0  -9  -3    1.00    1.70
   0  -9  -3   -0.20    1.80
   0  -9  -3   -0.10    1.20
   0   9   3    0.50    1.00
  -1  -9  -3   10.70    2.30
  -1  -9  -3    8.50    2.60
  -1  -9  -3    9.80    3.10
  -1  -9  -3   11.90    2.00
   1   9   3    7.00    1.90
   1   9   3    6.70    2.90
  -2  -9  -3   33.50    4.00
  -2  -9  -3   29.50    2.50
   2   9   3   31.30    3.20
   2   9   3   26.40    4.60
   2   9   3   34.40    6.80
  -3  -9  -3    9.50    2.90
   3   9   3    8.10    2.90
   3   9   3    4.90    2.10
   3   9   3   11.50    2.60
  -4  -9  -3    0.00    2.10
   4   9   3    0.10    1.80
   4   9   3    0.90    1.90
   4   9   3   -1.30    1.60
  -5  -9  -3    1.00    2.30
   5   9   3    0.10    2.00
   5   9   3   -1.60    1.80
   5   9   3    1.80    2.20
  -6  -9  -3    1.60    2.50
  -6  -9  -3   -2.30    2.70
   6   9   3   -1.10    2.00
   6   9   3    3.20    2.30
   6   9   3   -1.70    2.10
  -7  -9  -3    0.00    2.00
  -7  -9  -3   -3.20    3.20
   7   9   3    1.00    1.90
   7   9   3   -1.00    2.20
  -8  -9  -3   -2.40    2.50
  -8  -9  -3   -2.70    3.30
   8   9   3   -0.90    2.30
  -9  -9  -3    2.40    3.30
  -9  -9  -3   -3.10    3.50
   9   9   3    2.30    3.10
   3 -10  -3   10.50    4.40
   3 -10  -3    7.70    2.70
  -3  10   3    5.40    2.00
   2 -10  -3    2.00    3.60
   2 -10  -3   -0.50    1.70
  -2  10   3    0.60    1.30
  -2  10   3    2.50    1.30
   1 -10  -3    0.70    2.90
   1 -10  -3   -1.60    2.20
   1 -10  -3    1.50    1.60
  -1  10   3    1.20    1.30
  -1  10   3    4.20    2.20
   0 -10  -3    0.90    2.10
   0 -10  -3    1.20    1.40
   0 -10  -3    1.20    2.20
   0  10   3    3.60    2.00
   0  10   3    1.40    1.30
  -1 -10  -3    3.10    2.10
  -1 -10  -3    0.60    2.10
  -1 -10  -3    2.20    2.20
   1  10   3    0.60    1.30
   1  10   3    5.00    2.70
  -2 -10  -3   23.20    3.60
  -2 -10  -3   20.60    3.80
   2  10   3   27.30    6.10
  -3 -10  -3   -0.20    2.40
   3  10   3   -2.90    1.50
   3  10   3    0.00    2.30
  -4 -10  -3    8.40    2.90
   4  10   3   10.90    2.70
   4  10   3    2.60    2.30
   4  10   3    9.00    3.20
  -5 -10  -3    7.40    3.30
   5  10   3    7.90    2.70
   5  10   3    1.40    2.40
   5  10   3    8.40    3.40
  -6 -10  -3   -1.10    2.50
   6  10   3    2.90    2.40
   6  10   3    2.60    2.50
  -7 -10  -3   -1.50    3.40
  -7 -10  -3    2.80    3.10
   7  10   3    1.40    2.40
   7  10   3    0.80    2.50
  -8 -10  -3   -1.30    3.00
  -8 -10  -3   -4.50    3.40
   8  10   3    3.80    3.20
   1 -11  -3    3.20    3.60
  -1  11   3    6.60    2.70
  -1  11   3    2.10    1.60
   0 -11  -3    2.20    3.10
   0 -11  -3   -1.20    1.40
   0  11   3   -0.60    1.20
   0  11   3    5.30    2.50
  -1 -11  -3    4.60    2.20
  -1 -11  -3    0.70    3.00
  -1 -11  -3    3.30    2.60
   1  11   3    5.50    2.70
  -2 -11  -3    0.90    2.40
  -2 -11  -3    1.50    1.80
  -2 -11  -3    1.80    3.00
   2  11   3   -0.30    1.60
   2  11   3    4.80    2.40
  -3 -11  -3    6.50    3.10
   3  11   3    6.20    3.00
   3  11   3    0.90    2.00
  -4 -11  -3    1.40    2.50
   4  11   3    6.60    3.20
   4  11   3   -3.50    2.00
  -5 -11  -3    1.40    2.80
   5  11   3    5.50    3.40
   5  11   3   -3.70    1.90
  -6 -11  -3   -0.30    2.80
   6  11   3    7.20    3.50
  -7 -11  -3    4.20    3.50
   7  11   3    2.50    3.00
   7  11   3    5.60    3.00
  -1 -12  -3    2.90    3.30
   1  12   3    6.40    2.50
  -2 -12  -3    0.50    2.30
  -2 -12  -3    4.70    3.70
   2  12   3    6.70    3.00
  -3 -12  -3    0.50    2.80
  -3 -12  -3   -3.00    3.20
   3  12   3    7.00    3.20
  -4 -12  -3    1.70    2.70
   4  12   3   -5.00    2.10
   4  12   3    1.10    2.10
  -5 -12  -3    0.00    2.70
   5  12   3    6.20    3.50
   4   9  -4   -5.50    3.80
  -4  -9   4   -3.00    3.20
   3   9  -4   -3.80    3.50
  -3  -9   4    0.20    3.20
   2   9  -4   -3.00    3.40
  -2  -9   4    0.60    3.00
   1   9  -4    0.20    2.60
  -1  -9   4    7.00    3.50
  -1  -9   4    2.50    3.30
   0   9  -4   -0.30    2.30
   0  -9   4    4.70    3.40
   0  -9   4   -1.10    2.00
   0  -9   4   -3.70    2.40
  -1   9  -4    2.40    3.50
   1  -9   4    0.60    2.30
   1  -9   4    0.00    2.60
   1  -9   4    6.80    2.80
  -2   9  -4    2.20    3.50
   2  -9   4    4.20    3.70
   2  -9   4    2.00    2.40
   5   8  -4    5.70    3.30
  -5  -8   4    4.60    3.90
   4   8  -4   -5.40    3.40
   4   8  -4    3.80    3.00
  -4  -8   4   -2.80    2.80
   3   8  -4   32.30    4.80
  -3  -8   4   24.30    4.70
   2   8  -4   22.70    3.80
   2   8  -4   12.70    4.80
  -2  -8   4   22.30    4.50
   1   8  -4   -0.50    2.20
  -1  -8   4   -0.80    2.40
   0   8  -4    6.00    3.50
   0  -8   4   12.70    3.50
   0  -8   4   14.00    3.60
  -1   8  -4   -0.20    2.10
   1  -8   4    0.10    1.90
   1  -8   4    0.30    2.50
   1  -8   4    1.00    2.70
  -2   8  -4    0.30    2.70
   2  -8   4    1.40    2.30
   2  -8   4    0.20    2.00
   2  -8   4    5.50    3.20
  -3   8  -4   -2.60    2.60
   3  -8   4   -0.30    1.80
   3  -8   4    0.40    2.90
   3  -8   4   -0.60    2.10
  -4   8  -4   -1.20    2.50
  -4   8  -4    4.80    2.30
   4  -8   4   -3.90    3.10
   6   7  -4   -1.00    2.90
  -6  -7   4   -1.50    3.10
   5   7  -4    3.00    2.40
   5   7  -4   -6.90    3.30
  -5  -7   4   -1.20    3.00
   4   7  -4   -1.90    3.20
   4   7  -4    3.20    2.80
  -4  -7   4    1.40    3.10
   3   7  -4    0.00    2.10
   3   7  -4   -1.00    3.30
  -3  -7   4    3.50    3.10
   2   7  -4    1.20    2.10
   2   7  -4    2.60    3.20
  -2  -7   4    2.70    2.80
   1   7  -4   98.79   11.20
   1   7  -4   99.19    6.30
  -1  -7   4   99.79    6.90
   0   7  -4    0.00    1.80
   0   7  -4   -0.30    2.60
   0  -7   4   -1.80    2.10
   0  -7   4    1.70    2.60
  -1   7  -4    4.10    2.50
   1  -7   4    8.60    2.90
   1  -7   4    4.50    2.30
   1  -7   4    7.50    3.00
  -2   7  -4   -0.20    2.60
  -2   7  -4    3.90    2.20
   2  -7   4    2.50    2.20
   2  -7   4    2.40    2.60
   2  -7   4    3.60    2.20
  -3   7  -4   -0.10    2.50
  -3   7  -4    7.30    2.70
   3  -7   4    0.50    2.90
   3  -7   4    0.10    1.80
   3  -7   4    0.40    2.00
  -4   7  -4   -0.40    2.40
  -4   7  -4    4.40    2.30
   4  -7   4    0.90    1.50
   4  -7   4   -0.70    2.10
  -5   7  -4    4.60    2.40
  -5   7  -4    1.40    2.60
   5  -7   4   -3.10    3.10
   7   6  -4    4.70    3.30
  -7  -6   4    2.10    3.40
  -7  -6   4   -0.40    4.00
   6   6  -4    0.50    2.80
  -6  -6   4   -3.80    1.60
  -6  -6   4    0.40    3.50
  -6  -6   4    0.50    2.40
   5   6  -4    1.70    2.60
   5   6  -4   -5.30    2.90
  -5  -6   4   -0.20    2.90
  -5  -6   4   -2.10    1.50
   4   6  -4    2.40    2.10
   4   6  -4   -2.50    2.60
  -4  -6   4   -0.90    1.40
  -4  -6   4    1.00    2.70
   3   6  -4   12.40    3.20
   3   6  -4    5.80    3.30
  -3  -6   4   12.70    3.50
  -3  -6   4    5.10    1.80
   2   6  -4   -0.30    2.70
   2   6  -4    0.50    2.00
   2   6  -4    1.20    1.40
  -2  -6   4   -0.30    2.20
   1   6  -4   43.40    8.70
   1   6  -4   32.50    3.50
   1   6  -4   38.60    4.10
  -1  -6   4   34.30    4.40
   0   6  -4   35.20    3.70
   0   6  -4   34.40    6.90
   0  -6   4   44.70    4.80
  -1   6  -4    2.30    1.70
  -1   6  -4    2.00    2.00
   1  -6   4    2.10    1.80
   1  -6   4    0.50    2.10
   1  -6   4    3.20    2.50
  -2   6  -4    1.80    1.90
  -2   6  -4    1.00    2.30
   2  -6   4    2.60    2.10
   2  -6   4    0.50    1.60
   2  -6   4    0.20    1.70
  -3   6  -4    0.80    1.90
  -3   6  -4   -2.00    1.90
   3  -6   4    0.10    1.90
   3  -6   4    1.10    1.80
   3  -6   4   -1.20    2.20
  -4   6  -4    4.90    2.50
  -4   6  -4    0.70    2.40
   4  -6   4    3.80    2.40
   4  -6   4    3.70    1.80
  -5   6  -4    0.30    2.50
  -5   6  -4    1.40    1.70
   5  -6   4    2.40    1.30
   5  -6   4   -1.80    2.70
  -6   6  -4    1.90    2.10
  -6   6  -4   -0.70    1.80
   6  -6   4    3.40    2.80
   8   5  -4   -0.90    3.00
  -8  -5   4   -0.30    3.30
  -8  -5   4   -1.90    3.20
  -8  -5   4   -2.30    1.70
   7   5  -4   12.20    4.00
  -7  -5   4    3.20    3.30
  -7  -5   4    4.40    4.20
  -7  -5   4    2.90    2.10
   6   5  -4   20.50    4.30
  -6  -5   4   13.60    2.90
  -6  -5   4   16.20    4.70
  -6  -5   4   22.10    4.40
   5   5  -4    4.50    2.80
   5   5  -4   -1.00    2.80
  -5  -5   4    0.70    1.70
  -5  -5   4    1.40    3.10
  -5  -5   4   -0.10    2.60
   4   5  -4   -1.00    2.50
   4   5  -4   -1.20    2.10
  -4  -5   4   -0.70    1.30
  -4  -5   4    1.20    2.40
   3   5  -4   12.80    3.70
   3   5  -4   18.60    3.40
   3   5  -4   19.40    2.10
  -3  -5   4   12.80    2.20
  -3  -5   4   25.70    4.10
  -3  -5   4   14.60    3.00
   2   5  -4   12.90    2.00
   2   5  -4   16.60    3.20
   2   5  -4    8.80    3.30
  -2  -5   4   11.40    2.20
  -2  -5   4    7.50    1.90
  -2  -5   4   18.30    3.40
   1   5  -4   46.70    3.60
   1   5  -4   42.30    4.00
   1   5  -4   53.69    8.20
  -1  -5   4   47.80    4.50
   0   5  -4    6.20    2.70
   0   5  -4    8.10    2.20
   0  -5   4    6.50    2.50
   0  -5   4   11.70    2.50
  -1   5  -4  181.08    7.80
  -1   5  -4  191.58   14.30
   1  -5   4  197.98    8.60
   1  -5   4  179.18    8.40
   1  -5   4  174.58    7.90
  -2   5  -4   20.80    2.70
  -2   5  -4   12.40    3.30
   2  -5   4   18.60    3.10
   2  -5   4   24.50    2.80
   2  -5   4   24.50    3.30
   2  -5   4   18.50    3.30
  -3   5  -4   41.70    7.20
  -3   5  -4   36.70    6.30
  -3   5  -4   42.20    2.70
   3  -5   4   34.90    4.30
   3  -5   4   42.00    3.60
   3  -5   4   43.00    4.10
  -4   5  -4    9.00    3.00
  -4   5  -4    7.80    2.80
   4  -5   4   13.10    3.40
   4  -5   4   16.60    2.50
  -5   5  -4    0.90    1.90
  -5   5  -4    1.00    1.80
   5  -5   4    3.30    2.90
   5  -5   4    1.10    1.40
   5  -5   4    2.50    2.30
  -6   5  -4    1.80    1.60
  -6   5  -4    0.40    1.70
   6  -5   4    2.90    2.40
   6  -5   4    1.20    1.20
   6  -5   4    1.50    3.10
  -7   5  -4    7.10    2.60
  -7   5  -4    3.80    2.50
   7  -5   4    1.70    3.50
   8   4  -4    6.10    3.50
  -8  -4   4    1.70    2.30
  -8  -4   4   -7.10    3.50
  -8  -4   4    0.90    3.10
   7   4  -4    5.00    3.30
   7   4  -4   -3.10    2.60
  -7  -4   4    4.00    3.10
  -7  -4   4    2.10    4.00
  -7  -4   4    3.20    2.20
   6   4  -4   -2.60    2.40
   6   4  -4   -1.40    1.40
   6   4  -4    2.50    2.60
  -6  -4   4    0.10    3.20
  -6  -4   4    0.30    1.50
  -6  -4   4    0.60    2.60
   5   4  -4   -2.70    2.60
   5   4  -4    0.30    1.20
   5   4  -4    3.30    2.40
  -5  -4   4    0.30    2.10
  -5  -4   4    1.10    1.60
  -5  -4   4    0.00    2.30
   4   4  -4   25.10    3.40
   4   4  -4   23.50    2.10
   4   4  -4   21.30    1.30
   4   4  -4   16.60    3.90
  -4  -4   4   27.30    4.60
  -4  -4   4   15.30    3.80
  -4  -4   4   26.80    3.60
   3   4  -4    1.60    1.90
   3   4  -4    2.00    0.80
   3   4  -4    4.40    2.20
  -3  -4   4   -0.60    1.10
  -3  -4   4    1.80    1.80
  -3  -4   4    2.90    1.50
   2   4  -4   24.50    5.20
   2   4  -4   22.90    2.00
   2   4  -4   23.50    2.90
  -2  -4   4   21.60    2.90
  -2  -4   4   26.20    4.00
  -2  -4   4   29.90    3.70
   1   4  -4    2.50    1.70
   1   4  -4    1.10    1.90
  -1  -4   4   -0.10    1.60
  -1  -4   4    0.60    1.10
  -1  -4   4    0.20    0.40
   0   4  -4   29.00    3.00
   0   4  -4   27.80    5.80
   0  -4   4   29.40    3.30
   0  -4   4   28.20    2.90
  -1   4  -4    3.90    1.70
  -1   4  -4    8.80    1.80
  -1   4  -4    5.60    2.20
   1  -4   4    7.00    1.80
   1  -4   4    4.80    2.10
   1  -4   4    8.60    2.20
  -2   4  -4   23.70    5.50
  -2   4  -4   25.30    2.80
   2  -4   4   23.60    2.80
   2  -4   4   20.40    3.00
   2  -4   4   20.60    3.20
   2  -4   4   19.00    3.00
   2  -4   4   22.20    2.60
  -3   4  -4   -1.00    0.60
  -3   4  -4    1.10    1.70
  -3   4  -4    0.70    1.60
  -3   4  -4    2.70    1.40
   3  -4   4    0.60    1.30
   3  -4   4    2.40    2.30
   3  -4   4   -0.20    1.40
   3  -4   4    1.50    1.60
   3  -4   4    1.80    1.60
  -4   4  -4   61.49    8.10
  -4   4  -4   68.99    8.10
   4  -4   4   68.89    4.30
   4  -4   4   57.09    5.10
   4  -4   4   56.69    4.60
   4  -4   4   63.49    4.10
  -5   4  -4    0.90    1.80
  -5   4  -4   -0.40    1.40
   5  -4   4   -0.90    1.60
   5  -4   4    0.60    1.40
   5  -4   4    0.20    1.70
  -6   4  -4    1.40    1.60
  -6   4  -4    1.30    1.80
   6  -4   4   -0.80    2.60
   6  -4   4    4.20    2.40
   6  -4   4    2.60    1.50
  -7   4  -4    5.10    2.60
  -7   4  -4    1.50    2.20
   7  -4   4    2.40    2.30
   7  -4   4    3.40    3.20
   7  -4   4    0.50    1.30
  -8   4  -4    5.00    3.00
  -8   4  -4   -0.30    2.00
   8  -4   4    1.00    3.80
   8   3  -4   -2.10    2.10
   8   3  -4    3.10    3.20
  -8  -3   4   -4.20    3.70
  -8  -3   4    0.00    1.80
   7   3  -4    1.80    2.00
   7   3  -4    3.50    2.90
  -7  -3   4    0.70    2.60
  -7  -3   4    0.50    3.60
  -7  -3   4    1.90    2.00
   6   3  -4    0.90    2.50
   6   3  -4    0.00    1.60
   6   3  -4   -3.40    2.10
  -6  -3   4   -0.50    1.40
  -6  -3   4   -1.20    2.20
  -6  -3   4    2.30    3.40
   5   3  -4    4.10    2.50
   5   3  -4    4.00    1.60
   5   3  -4   -0.70    2.20
  -5  -3   4    1.20    1.50
  -5  -3   4    2.00    2.30
  -5  -3   4    0.90    2.30
   4   3  -4    4.20    2.60
   4   3  -4    6.30    2.60
   4   3  -4    1.90    1.00
   4   3  -4    5.30    1.50
  -4  -3   4    7.40    2.60
  -4  -3   4    3.50    2.70
  -4  -3   4    2.80    1.60
   3   3  -4  102.19    9.00
   3   3  -4  101.49    5.80
   3   3  -4  104.09    4.40
  -3  -3   4  108.29    7.90
  -3  -3   4   97.59    5.80
  -3  -3   4  108.99    6.70
   2   3  -4  261.87   10.80
   2   3  -4  295.97   17.00
  -2  -3   4  289.27   12.40
  -2  -3   4  281.27   11.20
   1   3  -4    5.10    1.20
   1   3  -4    5.30    1.80
   1   3  -4    8.80    2.00
  -1  -3   4    6.90    1.50
  -1  -3   4    9.30    1.70
  -1  -3   4    9.60    2.30
   0   3  -4   31.70    2.80
   0   3  -4   28.70    3.00
   0   3  -4   32.80    5.40
   0  -3   4   34.80    3.10
   0  -3   4   32.60    3.80
   0  -3   4   30.30    2.80
  -1   3  -4   -0.60    1.10
  -1   3  -4    0.50    1.10
  -1   3  -4   -0.20    1.00
   1  -3   4    0.50    1.00
   1  -3   4    1.90    1.40
   1  -3   4    1.10    1.10
   1  -3   4    1.10    1.40
  -2   3  -4   23.60    4.70
  -2   3  -4   20.00    3.90
  -2   3  -4   24.80    2.50
   2  -3   4   23.80    2.30
   2  -3   4   25.70    2.80
   2  -3   4   23.80    2.80
   2  -3   4   29.50    2.70
   2  -3   4   25.00    2.80
  -3   3  -4   88.99    8.00
  -3   3  -4   92.29    4.50
  -3   3  -4   86.89    4.80
  -3   3  -4   97.99    8.50
   3  -3   4   91.69    4.70
   3  -3   4   98.69    4.70
   3  -3   4   96.29    5.90
   3  -3   4   89.49    5.20
  -4   3  -4   42.70    5.90
  -4   3  -4   48.60    3.20
  -4   3  -4   53.89    7.20
   4  -3   4   53.19    4.70
   4  -3   4   52.59    3.70
   4  -3   4   44.40    3.20
   4  -3   4   49.60    4.40
  -5   3  -4   23.30    5.10
  -5   3  -4   20.10    2.20
   5  -3   4   19.80    2.70
   5  -3   4   17.00    3.40
   5  -3   4   22.90    3.70
  -6   3  -4    3.00    2.30
  -6   3  -4    3.00    1.70
   6  -3   4    4.70    1.70
   6  -3   4    6.50    2.80
   6  -3   4    4.30    2.30
  -7   3  -4    2.40    2.20
  -7   3  -4    6.80    3.10
   7  -3   4    4.60    1.70
   7  -3   4    5.70    2.80
   7  -3   4    5.70    2.70
  -8   3  -4    6.00    3.20
  -8   3  -4   -0.30    2.40
   8  -3   4   -0.30    3.30
   8  -3   4    1.80    1.60
   8   2  -4    0.80    2.20
   8   2  -4    0.30    2.70
  -8  -2   4   -5.20    3.20
  -8  -2   4   -1.40    1.80
   7   2  -4    0.40    2.30
   7   2  -4   -1.20    1.80
  -7  -2   4    2.20    2.10
  -7  -2   4    1.10    2.30
  -7  -2   4    1.40    2.70
   6   2  -4    0.60    1.60
   6   2  -4   -0.60    2.20
  -6  -2   4    0.70    2.30
  -6  -2   4    1.00    3.10
  -6  -2   4   -0.70    1.60
   5   2  -4   -1.60    1.80
   5   2  -4   -0.90    1.30
   5   2  -4   -4.60    1.80
  -5  -2   4    0.40    1.40
  -5  -2   4    0.30    2.60
  -5  -2   4   -1.80    2.10
   4   2  -4   15.40    2.90
   4   2  -4   14.70    2.20
   4   2  -4   12.20    3.00
   4   2  -4   16.00    2.00
  -4  -2   4   17.80    3.10
  -4  -2   4   11.10    2.10
  -4  -2   4   15.80    3.40
   3   2  -4    0.50    1.80
   3   2  -4    0.00    0.70
   3   2  -4   -1.40    1.40
  -3  -2   4    0.20    1.70
  -3  -2   4    0.30    1.10
  -3  -2   4   -1.50    1.50
   2   2  -4    2.40    1.60
   2   2  -4    1.30    1.70
   2   2  -4    0.60    0.70
  -2  -2   4    1.00    1.60
  -2  -2   4    0.20    1.60
  -2  -2   4    0.30    0.90
   1   2  -4  306.17   11.20
   1   2  -4  311.17   12.60
   1   2  -4  308.57   17.10
  -1  -2   4  287.57   11.20
  -1  -2   4  314.97   12.80
  -1  -2   4  314.77   11.10
   0   2  -4   91.09    6.50
   0   2  -4   90.29    6.20
   0   2  -4   88.69    7.50
   0   2  -4   96.79    4.70
   0   2  -4   89.39    5.10
   0  -2   4   87.79    4.10
   0  -2   4   86.69    3.80
   0  -2   4   87.89    5.40
   0  -2   4   90.29    4.60
   0  -2   4   93.89    4.60
  -1   2  -4   13.30    1.90
   1  -2   4   12.90    2.10
   1  -2   4   14.40    1.70
   1  -2   4   14.10    1.90
   1  -2   4   15.90    2.00
  -2   2  -4    0.80    1.10
  -2   2  -4    0.90    1.20
  -2   2  -4    2.30    1.20
   2  -2   4    2.20    1.40
   2  -2   4    2.10    1.30
   2  -2   4    2.30    0.90
   2  -2   4    2.20    1.30
   2  -2   4    2.50    1.30
  -3   2  -4    1.90    1.40
  -3   2  -4    3.80    1.50
  -3   2  -4    3.50    0.80
  -3   2  -4    5.20    1.40
   3  -2   4    4.80    1.50
   3  -2   4    3.60    1.60
   3  -2   4    5.40    1.50
   3  -2   4    7.50    2.00
  -4   2  -4   19.30    2.20
  -4   2  -4   17.60    3.70
  -4   2  -4   15.00    2.80
   4  -2   4   18.40    2.90
   4  -2   4   21.20    3.10
   4  -2   4   16.20    2.10
   4  -2   4   17.90    2.50
  -5   2  -4   -0.20    1.50
  -5   2  -4    0.40    1.20
  -5   2  -4    0.10    1.30
  -5   2  -4    0.80    1.00
   5  -2   4    0.20    2.10
   5  -2   4    0.20    1.30
   5  -2   4    1.40    1.40
   5  -2   4    2.90    1.50
  -6   2  -4   -0.10    1.20
  -6   2  -4    0.90    1.80
   6  -2   4    0.00    1.80
   6  -2   4   -1.70    2.00
   6  -2   4   -0.50    1.40
  -7   2  -4   11.40    3.20
  -7   2  -4   12.20    3.40
   7  -2   4   15.90    2.60
   7  -2   4   16.10    3.90
   7  -2   4   16.40    3.80
  -8   2  -4    4.30    2.70
  -8   2  -4    6.80    3.40
   8  -2   4    7.00    3.20
   8  -2   4    6.10    3.70
   8  -2   4    6.70    2.20
  -9   2  -4    8.20    3.70
  -9   2  -4   -2.50    2.40
   9  -2   4   -0.60    1.80
   8   1  -4    5.50    2.80
   8   1  -4    4.30    2.70
  -8  -1   4    4.30    2.30
  -8  -1   4    0.90    3.90
   7   1  -4   45.30    4.90
   7   1  -4   39.20    4.40
  -7  -1   4   43.90    8.00
  -7  -1   4   47.40    6.60
   6   1  -4   19.20    3.40
   6   1  -4   17.30    3.10
  -6  -1   4    9.30    2.50
  -6  -1   4   10.10    3.60
  -6  -1   4   18.50    3.30
   5   1  -4    0.20    1.90
   5   1  -4    1.00    1.50
  -5  -1   4    2.00    1.60
  -5  -1   4    4.00    2.70
  -5  -1   4   -1.00    1.70
   4   1  -4    3.00    1.90
   4   1  -4    1.00    1.30
   4   1  -4    1.20    1.70
  -4  -1   4    1.70    2.10
  -4  -1   4    1.70    1.80
  -4  -1   4    2.20    1.40
   3   1  -4    7.90    0.70
   3   1  -4   12.00    2.40
   3   1  -4   10.20    0.90
   3   1  -4   13.10    2.40
   3   1  -4   11.90    1.80
   3   1  -4    6.10    2.30
  -3  -1   4    7.20    1.60
  -3  -1   4   11.20    2.30
  -3  -1   4   13.00    2.40
   2   1  -4   73.29    4.30
   2   1  -4   81.69    3.70
   2   1  -4   77.19    5.40
   2   1  -4   74.29    4.40
   2   1  -4   79.79    7.30
   2   1  -4   82.79    4.60
  -2  -1   4   81.09    6.60
  -2  -1   4   76.79    5.40
  -2  -1   4   76.49    5.10
  -2  -1   4   81.09    4.60
   1   1  -4  106.79    5.70
   1   1  -4   99.89    5.90
   1   1  -4  103.29    5.90
   1   1  -4  101.29    5.00
   1   1  -4  108.69    8.10
  -1  -1   4  111.29    7.70
  -1  -1   4  104.29    4.90
  -1  -1   4   98.49    5.70
  -1  -1   4  102.29    5.20
   0   1  -4  293.07   13.80
   0   1  -4  267.47    9.90
   0   1  -4  280.87   10.00
   0   1  -4  287.37   11.50
   0   1  -4  276.07   15.30
   0   1  -4  287.17   12.10
   0  -1   4  279.07    9.90
   0  -1   4  287.47   10.00
   0  -1   4  284.87   11.60
   0  -1   4  285.67   11.00
   0  -1   4  262.57   14.80
   0  -1   4  269.97   10.00
  -1   1  -4  112.39    4.90
  -1   1  -4  109.39    4.80
  -1   1  -4  110.79    7.20
  -1   1  -4   94.09    7.30
  -1   1  -4  105.79    5.50
   1  -1   4  102.09    4.90
   1  -1   4  118.39    7.50
   1  -1   4  110.09    4.80
   1  -1   4  110.09    5.70
   1  -1   4  110.09    4.60
  -2   1  -4    1.10    0.40
  -2   1  -4    0.90    0.80
  -2   1  -4    0.20    0.90
  -2   1  -4   -0.50    1.00
  -2   1  -4   -0.50    0.70
  -2   1  -4    1.70    1.10
   2  -1   4    1.10    1.10
   2  -1   4    0.60    0.80
   2  -1   4    1.40    0.60
   2  -1   4    0.00    1.00
   2  -1   4    0.60    1.00
  -3   1  -4  284.57   16.70
  -3   1  -4  337.27   11.10
  -3   1  -4  307.17   16.70
  -3   1  -4  328.67   13.20
   3  -1   4  341.87   16.70
   3  -1   4  324.27   11.30
   3  -1   4  334.27   10.80
   3  -1   4  336.77   11.20
  -4   1  -4   13.20    2.00
  -4   1  -4   11.60    1.50
   4  -1   4   14.10    2.30
   4  -1   4   14.20    2.50
   4  -1   4   12.80    2.10
   4  -1   4   16.60    2.30
  -5   1  -4   -0.20    1.00
  -5   1  -4   -0.10    1.10
  -5   1  -4    0.20    0.90
  -5   1  -4   -0.40    1.00
   5  -1   4    0.50    1.20
   5  -1   4    0.80    1.90
   5  -1   4   -0.40    1.30
  -6   1  -4   55.09    3.80
  -6   1  -4   54.89    6.90
  -6   1  -4   59.99    5.50
  -6   1  -4   58.59    6.40
  -6   1  -4   55.09    3.70
   6  -1   4   58.39    4.10
   6  -1   4   59.29    5.00
   6  -1   4   56.89    4.00
  -7   1  -4    0.40    1.90
  -7   1  -4    0.20    2.30
   7  -1   4   -0.30    1.60
   7  -1   4    0.60    2.00
   7  -1   4   -0.10    2.50
  -8   1  -4    4.60    2.80
  -8   1  -4   10.00    3.70
   8  -1   4    9.60    2.50
   8  -1   4    9.10    3.40
  -9   1  -4   -3.50    2.30
  -9   1  -4    5.10    3.30
   9  -1   4    1.20    2.40
   9  -1   4    1.10    2.10
   8   0  -4    1.30    2.60
   8   0  -4   -0.90    2.20
  -8   0   4    0.80    1.90
  -8   0   4   -0.80    3.60
   7   0  -4   13.90    3.30
   7   0  -4   12.40    3.10
  -7   0   4   10.90    4.10
  -7   0   4    7.10    2.40
   6   0  -4    6.10    2.40
   6   0  -4    8.90    2.60
  -6   0   4    7.90    2.50
  -6   0   4    5.40    3.10
  -6   0   4    4.30    2.00
   5   0  -4    8.00    2.30
   5   0  -4    3.90    1.90
   5   0  -4    9.50    2.40
  -5   0   4    4.20    2.60
  -5   0   4    4.10    1.80
  -5   0   4   10.40    2.50
   4   0  -4    4.10    1.60
   4   0  -4    6.70    2.10
   4   0  -4    4.00    1.80
  -4   0   4    2.40    1.20
  -4   0   4    4.20    2.30
  -4   0   4    3.10    1.70
   3   0  -4   85.89    4.50
   3   0  -4   86.39    4.80
   3   0  -4   84.79    4.70
  -3   0   4   84.19    4.70
  -3   0   4   85.09    6.00
  -3   0   4   80.39    6.90
  -3   0   4   83.89    5.80
   2   0  -4   22.80    2.00
   2   0  -4   21.20    2.20
   2   0  -4   23.70    2.50
   2   0  -4   18.00    3.40
   2   0  -4   20.80    2.70
  -2   0   4   22.40    3.00
  -2   0   4   23.20    2.90
  -2   0   4   20.40    2.50
  -2   0   4   20.70    3.80
   1   0  -4   16.50    2.40
   1   0  -4   13.20    1.90
   1   0  -4   15.60    2.10
   1   0  -4   15.40    1.90
   1   0  -4   15.50    2.30
   1   0  -4   18.40    4.10
  -1   0   4   13.30    1.60
  -1   0   4   16.10    2.30
  -1   0   4   15.20    3.30
  -1   0   4   12.80    2.10
  -1   0   4   16.20    2.50
   0   0  -4  337.67   11.10
   0   0  -4  322.97   15.00
   0   0  -4  324.17   12.80
   0   0  -4  337.67   16.90
   0   0  -4  318.17   12.90
   0   0  -4  311.57   10.90
   0   0   4  319.87   10.90
   0   0   4  335.17   16.70
   0   0   4  311.37   14.80
   0   0   4  312.87   11.00
   0   0   4  324.97   12.90
   0   0   4  321.67   12.80
  -1   0  -4  196.38   10.40
  -1   0  -4  194.88    7.30
  -1   0  -4  197.08    8.10
  -1   0  -4  194.58    7.30
  -1   0  -4  192.98    8.40
  -1   0  -4  199.28   11.30
   1   0   4  186.28    7.20
   1   0   4  205.58   10.30
   1   0   4  200.08    8.20
   1   0   4  207.78   11.20
   1   0   4  200.68    8.70
   1   0   4  193.98    7.40
  -2   0  -4   13.60    1.70
  -2   0  -4   14.50    1.60
  -2   0  -4   14.50    1.80
  -2   0  -4   13.70    2.30
  -2   0  -4   15.50    3.10
  -2   0  -4   18.30    3.40
   2   0   4   15.40    2.10
   2   0   4   14.50    1.80
   2   0   4   13.00    1.80
   2   0   4   14.50    2.70
   2   0   4   12.90    2.50
  -3   0  -4  196.08    6.70
  -3   0  -4  201.88    7.60
  -3   0  -4  194.38   11.20
  -3   0  -4  216.88   12.10
  -3   0  -4  205.48    7.70
  -3   0  -4  202.38    9.10
   3   0   4  203.18    7.80
   3   0   4  210.68    7.10
   3   0   4  219.28   11.80
   3   0   4  201.08    7.60
   3   0   4  219.88   11.20
  -4   0  -4  235.28   14.20
  -4   0  -4  267.27   13.50
  -4   0  -4  260.07   11.60
  -4   0  -4  265.27    9.30
   4   0   4  250.77    9.40
   4   0   4  267.97   13.20
   4   0   4  257.87    9.40
   4   0   4  250.37    9.00
  -5   0  -4    0.30    1.10
  -5   0  -4    0.20    1.20
  -5   0  -4   -0.40    1.30
  -5   0  -4    0.50    1.00
   5   0   4    2.70    1.80
   5   0   4   -1.60    1.30
   5   0   4    0.60    1.40
  -6   0  -4   11.50    2.80
  -6   0  -4   19.40    3.20
  -6   0  -4   12.80    3.20
  -6   0  -4   21.20    2.70
   6   0   4   19.20    2.70
   6   0   4   20.80    2.80
   6   0   4   20.70    3.30
  -7   0  -4   63.59    4.40
  -7   0  -4   58.39    6.30
  -7   0  -4   59.99    8.20
   7   0   4   62.09    4.60
  -8   0  -4   -1.20    1.90
  -8   0  -4    0.00    2.50
   8   0   4   -0.90    1.80
  -9   0  -4   -1.10    2.40
  -9   0  -4    5.60    3.50
   9   0   4    5.10    2.60
   9   0   4    3.20    3.00
 -10   0  -4   -4.80    2.50
 -10   0  -4    2.00    3.10
  10   0   4   -1.60    2.20
   8  -1  -4    3.30    2.40
   8  -1  -4    0.70    1.90
  -8   1   4   -1.50    3.60
  -8   1   4    2.10    2.10
   7  -1  -4    2.30    2.30
   7  -1  -4    7.20    2.70
  -7   1   4    4.50    2.30
  -7   1   4    2.70    3.20
   6  -1  -4    0.20    1.80
   6  -1  -4   -0.10    1.60
  -6   1   4   -2.20    2.20
  -6   1   4   -0.10    1.40
   5  -1  -4    9.10    2.20
   5  -1  -4   10.00    2.30
   5  -1  -4   11.30    2.40
  -5   1   4    9.10    2.90
  -5   1   4   13.20    2.30
  -5   1   4    7.10    2.00
   4  -1  -4   19.20    2.60
   4  -1  -4   18.40    2.60
   4  -1  -4   20.20    2.80
  -4   1   4   13.80    2.80
  -4   1   4   16.60    3.10
  -4   1   4   17.90    2.60
   3  -1  -4   -0.10    1.20
   3  -1  -4    0.20    0.90
   3  -1  -4   -0.10    0.80
   3  -1  -4    0.20    1.40
  -3   1   4   -1.20    1.30
  -3   1   4    1.80    1.50
  -3   1   4   -0.70    1.10
  -3   1   4   -0.60    0.90
   2  -1  -4    5.50    1.40
   2  -1  -4    5.90    1.50
   2  -1  -4    3.50    1.20
  -2   1   4    4.60    1.50
  -2   1   4    2.40    1.50
  -2   1   4    5.20    0.90
  -2   1   4    5.60    1.60
  -2   1   4    3.00    1.10
   1  -1  -4  131.69    5.50
   1  -1  -4  139.09    6.30
   1  -1  -4  130.59    6.30
   1  -1  -4  132.39    5.50
   1  -1  -4  132.49    6.60
  -1   1   4  144.69    8.90
  -1   1   4  127.49    5.50
  -1   1   4  133.09    5.40
  -1   1   4  127.89    6.30
  -1   1   4  137.39    6.30
  -1   1   4  126.29    6.60
   0  -1  -4 1580.64   68.69
   0  -1  -4 1513.35   46.00
   0  -1  -4 1575.44   55.49
   0  -1  -4 1588.84   53.39
   0  -1  -4 1569.34   46.00
   0  -1  -4 1518.05   64.99
   0   1   4 1524.15   45.90
   0   1   4 1547.25   46.10
   0   1   4 1630.24   68.89
   0   1   4 1561.04   65.09
   0   1   4 1555.04   57.09
   0   1   4 1569.84   53.39
  -1  -1  -4    8.60    1.40
  -1  -1  -4    4.30    0.80
  -1  -1  -4    5.80    1.50
  -1  -1  -4    4.20    1.00
  -1  -1  -4    7.10    1.40
  -1  -1  -4    4.20    1.00
   1   1   4    6.70    1.30
   1   1   4    6.70    0.60
   1   1   4    8.00    1.50
   1   1   4    5.60    1.50
   1   1   4    3.90    0.80
   1   1   4    5.20    1.00
   1   1   4    3.80    0.90
  -2  -1  -4   17.70    1.90
  -2  -1  -4   16.60    2.70
  -2  -1  -4   17.20    1.70
  -2  -1  -4   17.60    2.30
  -2  -1  -4   20.00    2.00
  -2  -1  -4   19.50    3.10
   2   1   4   19.20    2.90
   2   1   4   19.70    2.00
   2   1   4   19.60    2.40
   2   1   4   20.20    2.00
   2   1   4   18.50    2.90
  -3  -1  -4    3.50    0.90
  -3  -1  -4    5.70    1.30
  -3  -1  -4    5.80    1.40
  -3  -1  -4    2.20    1.30
  -3  -1  -4    2.80    1.10
  -3  -1  -4    4.20    1.20
   3   1   4    3.60    1.10
   3   1   4    2.20    0.90
   3   1   4    4.80    1.30
   3   1   4    2.80    1.10
   3   1   4    2.70    1.00
  -4  -1  -4  241.08   14.10
  -4  -1  -4  272.87   12.00
  -4  -1  -4  266.07    9.50
  -4  -1  -4  255.17   12.80
  -4  -1  -4  267.77   11.80
   4   1   4  260.77    9.50
   4   1   4  255.57    8.80
   4   1   4  253.87    9.50
   4   1   4  269.17   12.90
  -5  -1  -4    3.00    1.40
  -5  -1  -4    4.30    1.60
  -5  -1  -4    3.30    1.80
   5   1   4    2.70    0.70
   5   1   4    6.50    1.80
   5   1   4    3.60    1.60
  -6  -1  -4   19.80    2.70
  -6  -1  -4   17.20    3.40
   6   1   4   21.50    2.80
   6   1   4   17.20    2.70
  -7  -1  -4   30.50    5.80
  -7  -1  -4   35.20    7.10
  -7  -1  -4   29.00    3.30
   7   1   4   32.40    3.90
   7   1   4   28.70    3.50
  -8  -1  -4   -0.70    2.10
  -8  -1  -4    4.10    3.10
   8   1   4    0.00    2.10
  -9  -1  -4    2.30    3.20
  -9  -1  -4   -2.00    2.50
   9   1   4    1.20    2.20
 -10  -1  -4   -5.00    2.70
 -10  -1  -4   -0.80    3.20
  10   1   4    2.00    2.70
   8  -2  -4    0.20    2.00
   8  -2  -4    1.50    2.70
  -8   2   4    2.00    2.10
  -8   2   4   -4.90    3.00
   7  -2  -4    0.80    2.30
   7  -2  -4   -0.30    1.70
  -7   2   4   -0.10    1.60
  -7   2   4   -2.50    2.40
   6  -2  -4    7.60    2.70
   6  -2  -4    6.50    2.10
  -6   2   4    4.10    2.00
  -6   2   4    5.20    3.00
   5  -2  -4   31.60    3.10
   5  -2  -4   32.30    3.30
   5  -2  -4   34.70    3.80
  -5   2   4   31.90    5.20
  -5   2   4   31.00    4.90
  -5   2   4   27.80    2.60
  -5   2   4   32.80    2.90
   4  -2  -4   28.40    2.80
   4  -2  -4   24.70    2.80
   4  -2  -4   27.90    2.90
  -4   2   4   24.70    4.10
  -4   2   4   28.40    4.50
  -4   2   4   24.40    2.20
  -4   2   4   30.80    2.70
   3  -2  -4   30.10    2.70
   3  -2  -4   34.60    2.80
   3  -2  -4   34.00    3.20
   3  -2  -4   35.70    2.80
  -3   2   4   31.40    3.80
  -3   2   4   32.60    3.60
  -3   2   4   31.00    2.20
  -3   2   4   33.80    2.70
   2  -2  -4  480.35   15.00
   2  -2  -4  456.45   18.00
   2  -2  -4  420.46   14.80
   2  -2  -4  459.55   14.90
  -2   2   4  487.35   18.30
  -2   2   4  473.75   18.30
  -2   2   4  456.55   16.20
  -2   2   4  467.95   23.10
  -2   2   4  469.75   15.00
  -2   2   4  462.85   19.90
  -2   2   4  450.15   14.70
   1  -2  -4   -0.30    0.70
   1  -2  -4    0.70    1.10
   1  -2  -4   -0.10    0.90
   1  -2  -4    0.10    0.60
  -1   2   4    0.40    0.70
  -1   2   4   -0.20    0.50
  -1   2   4    0.10    0.90
  -1   2   4    0.90    0.80
  -1   2   4    0.90    0.90
  -1   2   4   -0.50    0.70
   0  -2  -4  156.78    8.10
   0  -2  -4  156.18    5.90
   0  -2  -4  143.29    6.10
   0  -2  -4  139.49    6.90
   0  -2  -4  160.68    6.00
   0   2   4  161.58    5.90
   0   2   4  160.28    7.70
   0   2   4  162.58    8.10
   0   2   4  153.08    5.90
   0   2   4  166.48    7.30
   0   2   4  150.78    5.60
   0   2   4  162.78    9.30
  -1  -2  -4  323.57   10.40
  -1  -2  -4  277.77   14.50
  -1  -2  -4  299.77   10.30
  -1  -2  -4  319.67   12.90
  -1  -2  -4  327.07   12.10
   1   2   4  325.17   14.80
   1   2   4  286.17   10.20
   1   2   4  318.77   13.00
   1   2   4  309.67   10.40
   1   2   4  312.57   15.60
   1   2   4  312.47   12.10
  -2  -2  -4  215.18    8.50
  -2  -2  -4  206.48    9.30
  -2  -2  -4  212.08   11.10
  -2  -2  -4  210.08    7.70
  -2  -2  -4  205.28    8.60
  -2  -2  -4  212.18    7.60
   2   2   4  203.68    7.60
   2   2   4  212.58   11.10
   2   2   4  198.08    9.30
   2   2   4  204.08    8.70
   2   2   4  218.48   11.20
   2   2   4  209.78    7.70
  -3  -2  -4   73.09    4.60
  -3  -2  -4   73.89    3.90
  -3  -2  -4   70.09    3.70
  -3  -2  -4   69.29    4.30
  -3  -2  -4   74.69    4.30
  -3  -2  -4   74.69    6.00
   3   2   4   72.39    4.90
   3   2   4   73.99    3.90
   3   2   4   65.39    4.90
   3   2   4   67.89    3.70
   3   2   4   77.29    5.80
  -4  -2  -4   31.60    3.20
  -4  -2  -4   28.40    4.00
  -4  -2  -4   29.20    3.40
  -4  -2  -4   29.20    2.60
   4   2   4   31.00    3.10
   4   2   4   29.20    3.80
   4   2   4   29.80    2.70
   4   2   4   29.40    2.40
  -5  -2  -4   14.50    2.30
  -5  -2  -4   11.30    2.60
  -5  -2  -4    7.40    1.80
   5   2   4   10.90    2.10
   5   2   4   11.90    1.60
   5   2   4   14.20    2.20
  -6  -2  -4   45.70    3.80
  -6  -2  -4   53.19    6.90
  -6  -2  -4   42.20    4.80
   6   2   4   46.70    3.80
   6   2   4   49.70    4.00
  -7  -2  -4    0.00    2.40
  -7  -2  -4    1.20    2.10
  -7  -2  -4   -1.30    1.60
   7   2   4    1.70    2.20
  -8  -2  -4    1.90    2.90
  -8  -2  -4   -1.20    2.00
  -8  -2  -4    0.40    1.80
   8   2   4    0.80    2.10
  -9  -2  -4   -1.90    2.40
  -9  -2  -4    2.00    2.60
   9   2   4    1.70    2.20
 -10  -2  -4   -5.40    2.80
 -10  -2  -4   -0.60    3.70
  10   2   4    0.40    2.70
   8  -3  -4    1.80    2.80
  -8   3   4   -0.60    1.70
  -8   3   4    1.00    3.20
   7  -3  -4    0.40    1.80
   7  -3  -4    0.20    1.60
  -7   3   4    0.00    1.80
  -7   3   4   -1.30    2.50
   6  -3  -4    3.10    2.50
   6  -3  -4    5.20    1.80
  -6   3   4    1.90    1.70
  -6   3   4    0.30    2.40
   5  -3  -4    0.00    1.80
   5  -3  -4    2.00    1.50
  -5   3   4   -2.70    1.60
  -5   3   4   -1.40    0.90
  -5   3   4   -0.20    0.70
   4  -3  -4   47.00    3.20
   4  -3  -4   36.80    3.70
   4  -3  -4   42.50    3.10
   4  -3  -4   43.50    3.70
  -4   3   4   44.30    2.90
  -4   3   4   43.90    3.70
  -4   3   4   46.10    4.90
  -4   3   4   33.90    4.60
   3  -3  -4    0.50    1.30
   3  -3  -4    1.50    1.10
   3  -3  -4    1.00    1.80
   3  -3  -4    1.00    1.20
  -3   3   4    0.60    1.00
  -3   3   4    0.90    1.00
  -3   3   4    1.00    1.20
  -3   3   4    1.70    1.00
   2  -3  -4  147.69    6.00
   2  -3  -4  152.78    5.80
   2  -3  -4  157.98    6.70
   2  -3  -4  158.38    5.90
  -2   3   4  156.88    7.40
  -2   3   4  148.89    5.60
  -2   3   4  155.28    7.90
  -2   3   4  132.79    6.40
  -2   3   4  157.08    6.90
  -2   3   4  152.78    5.80
   1  -3  -4    0.80    1.00
   1  -3  -4    0.80    0.70
   1  -3  -4    2.80    1.10
   1  -3  -4    0.80    0.90
  -1   3   4    0.60    0.70
  -1   3   4    1.40    0.90
  -1   3   4    0.30    0.70
  -1   3   4    1.00    0.80
  -1   3   4   -1.20    1.00
   0  -3  -4  433.76   13.90
   0  -3  -4  453.25   14.00
   0  -3  -4  459.85   16.50
   0   3   4  447.36   14.00
   0   3   4  446.46   13.90
   0   3   4  444.86   16.50
   0   3   4  389.36   17.80
   0   3   4  430.26   13.80
   0   3   4  454.25   20.00
   0   3   4  424.26   15.60
  -1  -3  -4   40.50    4.00
  -1  -3  -4   42.10    2.30
  -1  -3  -4   39.20    2.40
  -1  -3  -4   39.80    2.80
  -1  -3  -4   39.00    2.50
  -1  -3  -4   37.80    3.10
   1   3   4   38.00    2.80
   1   3   4   43.30    3.50
   1   3   4   39.20    2.50
   1   3   4   38.80    2.40
   1   3   4   45.60    4.10
  -2  -3  -4   98.59    4.50
  -2  -3  -4   94.79    5.50
  -2  -3  -4  102.79    4.50
  -2  -3  -4   94.29    4.40
  -2  -3  -4  103.19    6.80
  -2  -3  -4  101.09    4.90
   2   3   4  109.49    5.10
   2   3   4  104.59    6.80
   2   3   4  104.29    5.90
   2   3   4  101.69    4.50
   2   3   4   98.19    4.40
  -3  -3  -4    1.90    1.00
  -3  -3  -4    1.40    1.00
  -3  -3  -4    1.80    1.30
  -3  -3  -4    1.30    1.10
  -3  -3  -4    1.10    0.70
  -3  -3  -4    0.90    0.70
   3   3   4    0.60    1.10
   3   3   4    1.90    1.00
   3   3   4    1.20    1.10
   3   3   4    0.60    1.20
  -4  -3  -4    2.30    1.30
  -4  -3  -4    2.20    1.40
  -4  -3  -4    2.60    1.50
   4   3   4    2.30    0.90
   4   3   4    3.40    1.30
   4   3   4    2.50    1.40
   4   3   4    1.60    1.40
  -5  -3  -4    6.10    2.00
  -5  -3  -4    8.60    2.40
  -5  -3  -4    9.40    2.10
   5   3   4    7.20    1.80
   5   3   4    7.50    1.90
   5   3   4    5.00    1.10
  -6  -3  -4    3.00    1.90
  -6  -3  -4    2.60    2.20
  -6  -3  -4    4.90    2.00
   6   3   4    2.50    1.80
  -7  -3  -4   57.09    8.10
  -7  -3  -4   45.60    6.50
  -7  -3  -4   46.80    4.40
   7   3   4   47.90    4.50
  -8  -3  -4    4.80    2.40
  -8  -3  -4    3.00    3.10
  -8  -3  -4    2.30    2.50
   8   3   4    4.90    2.60
  -9  -3  -4   -2.30    2.30
  -9  -3  -4    0.80    3.40
   9   3   4    0.10    2.50
 -10  -3  -4   -0.10    2.90
 -10  -3  -4   -5.40    2.50
  10   3   4    4.10    3.10
   7  -4  -4   -0.20    2.30
  -7   4   4   -1.70    2.20
  -7   4   4    3.40    2.20
   6  -4  -4   -0.70    1.90
   6  -4  -4   -0.70    1.20
  -6   4   4    0.10    1.60
  -6   4   4    0.60    2.40
   5  -4  -4   -2.10    2.50
   5  -4  -4   -1.40    1.10
   5  -4  -4   -0.20    1.40
  -5   4   4    0.20    0.80
  -5   4   4    0.90    1.40
  -5   4   4   -0.60    1.70
   4  -4  -4    0.20    1.10
   4  -4  -4   -0.20    1.60
   4  -4  -4    0.10    1.00
   4  -4  -4    0.10    2.20
  -4   4   4   -0.30    1.00
  -4   4   4   -1.00    1.40
  -4   4   4   -0.40    0.60
  -4   4   4    1.00    0.70
   3  -4  -4   39.90    2.50
   3  -4  -4   34.90    3.20
   3  -4  -4   40.70    3.80
  -3   4   4   35.60    3.30
  -3   4   4   35.40    4.10
  -3   4   4   38.30    4.10
  -3   4   4   37.00    2.10
   2  -4  -4   35.10    3.00
   2  -4  -4   32.40    2.30
   2  -4  -4   31.40    3.10
  -2   4   4   29.30    1.90
  -2   4   4   30.70    1.90
  -2   4   4   33.20    3.10
  -2   4   4   31.00    2.90
  -2   4   4   31.20    3.50
  -2   4   4   31.30    2.80
   1  -4  -4   -0.20    0.80
   1  -4  -4    1.80    1.30
   1  -4  -4   -0.20    0.80
   1  -4  -4    0.10    1.00
  -1   4   4    0.00    0.60
  -1   4   4    0.20    0.70
  -1   4   4    0.10    0.60
  -1   4   4   -0.30    0.60
  -1   4   4   -0.30    1.00
  -1   4   4   -0.50    0.70
   0  -4  -4 1019.10   29.10
   0  -4  -4 1009.90   34.00
   0  -4  -4  866.31   29.40
   0  -4  -4  949.60   29.00
   0   4   4  937.11   28.90
   0   4   4  976.80   34.50
   0   4   4 1004.60   29.10
   0   4   4  997.70   34.00
   0   4   4  975.40   37.40
  -1  -4  -4   25.30    2.70
  -1  -4  -4   25.40    2.10
  -1  -4  -4   26.10    2.30
  -1  -4  -4   28.60    2.10
  -1  -4  -4   27.60    2.10
   1   4   4   24.20    3.10
   1   4   4   25.90    2.00
   1   4   4   27.70    2.40
   1   4   4   25.80    2.10
   1   4   4   22.90    3.10
   1   4   4   21.60    1.40
  -2  -4  -4   13.70    1.90
  -2  -4  -4   11.50    1.70
  -2  -4  -4   13.30    1.80
  -2  -4  -4   11.50    2.10
  -2  -4  -4   12.30    1.70
   2   4   4   16.00    2.00
   2   4   4   13.50    1.50
   2   4   4   11.90    1.80
   2   4   4   12.20    1.50
  -3  -4  -4   -0.80    1.10
  -3  -4  -4    0.20    0.60
  -3  -4  -4   -0.10    0.80
  -3  -4  -4    0.40    1.00
  -3  -4  -4   -0.30    0.80
   3   4   4   -1.60    0.90
   3   4   4    0.50    0.90
   3   4   4   -0.90    1.10
   3   4   4    0.20    0.70
  -4  -4  -4   33.80    2.90
  -4  -4  -4   37.50    5.10
  -4  -4  -4   32.80    3.40
  -4  -4  -4   29.80    3.10
   4   4   4   36.50    3.30
   4   4   4   37.20    3.90
   4   4   4   32.90    3.10
  -5  -4  -4   46.90    4.70
  -5  -4  -4   43.30    3.80
  -5  -4  -4   35.90    5.00
   5   4   4   48.60    5.40
   5   4   4   44.80    3.70
  -6  -4  -4   51.99    5.70
  -6  -4  -4   52.39    6.90
  -6  -4  -4   58.49    4.50
   6   4   4   44.90    3.50
   6   4   4   52.29    4.30
   6   4   4   45.90    3.30
  -7  -4  -4   61.89    5.00
  -7  -4  -4   48.80    6.80
  -7  -4  -4   55.79    7.80
   7   4   4   46.70    4.70
  -8  -4  -4   32.10    4.20
  -8  -4  -4   26.20    5.10
   8   4   4   34.60    4.50
  -9  -4  -4   -2.40    3.20
  -9  -4  -4   -2.70    2.10
  -9  -4  -4   -1.90    2.00
   9   4   4    0.50    2.60
 -10  -4  -4   -1.20    2.30
 -10  -4  -4   -1.10    3.80
  10   4   4    2.90    2.90
   7  -5  -4    1.00    2.60
  -7   5   4   -0.20    1.50
  -7   5   4    0.50    2.40
   6  -5  -4    5.00    2.70
   6  -5  -4    7.70    3.80
  -6   5   4   11.80    3.30
  -6   5   4    5.50    2.20
   5  -5  -4    4.90    3.20
   5  -5  -4    3.00    2.30
  -5   5   4    1.90    1.50
  -5   5   4    3.60    1.20
  -5   5   4    3.50    2.30
   4  -5  -4   67.79    5.30
   4  -5  -4   63.49    4.80
   4  -5  -4   62.49    2.60
   4  -5  -4   59.39    2.60
  -4   5   4   77.39    6.30
  -4   5   4   73.39    6.10
   3  -5  -4   28.30    3.80
   3  -5  -4   21.80    2.80
   3  -5  -4   23.70    1.80
   3  -5  -4   20.10    1.70
  -3   5   4   22.80    3.70
  -3   5   4   27.00    3.80
   2  -5  -4   46.70    2.50
   2  -5  -4   48.80    3.80
   2  -5  -4   40.20    3.30
   2  -5  -4   48.40    2.50
  -2   5   4   49.30    3.90
  -2   5   4   48.90    5.10
  -2   5   4   48.30    4.30
  -2   5   4   47.10    2.10
  -2   5   4   45.50    2.10
   1  -5  -4   -0.20    0.50
   1  -5  -4    0.20    1.40
   1  -5  -4    0.60    1.00
   1  -5  -4   -1.00    0.90
  -1   5   4   -0.70    0.60
  -1   5   4    0.00    1.10
  -1   5   4   -0.60    0.60
  -1   5   4   -0.70    0.50
  -1   5   4    0.00    0.90
   0  -5  -4    5.30    1.50
   0  -5  -4    4.40    1.10
   0  -5  -4    4.50    1.40
   0  -5  -4    3.50    1.10
   0   5   4    4.90    1.10
   0   5   4    2.10    1.10
   0   5   4    2.10    0.80
   0   5   4    4.30    1.00
  -1  -5  -4   17.50    2.10
  -1  -5  -4   16.60    1.90
  -1  -5  -4   21.00    2.20
  -1  -5  -4   18.10    2.10
  -1  -5  -4   17.00    1.90
   1   5   4   16.00    1.80
   1   5   4   16.80    2.90
   1   5   4   21.00    2.10
   1   5   4   17.70    1.90
  -2  -5  -4  168.38    6.90
  -2  -5  -4  169.18    6.80
  -2  -5  -4  170.98    6.90
   2   5   4  172.78    7.00
   2   5   4  172.48    6.80
   2   5   4  174.38    9.10
   2   5   4  166.48    7.30
  -3  -5  -4  117.39    5.50
  -3  -5  -4  112.89    5.60
  -3  -5  -4  124.79    5.40
   3   5   4  120.39    5.60
   3   5   4  104.39    6.80
   3   5   4  119.89    6.00
  -4  -5  -4   76.09    4.30
  -4  -5  -4   83.49    5.70
  -4  -5  -4   75.19    4.70
   4   5   4   73.69    4.60
   4   5   4   81.89    6.30
   4   5   4   78.39    5.00
  -5  -5  -4   11.50    2.60
  -5  -5  -4    6.40    1.80
  -5  -5  -4   15.40    2.50
   5   5   4    6.10    2.00
   5   5   4   12.40    2.30
  -6  -5  -4   54.59    4.70
  -6  -5  -4   55.29    6.50
  -6  -5  -4   55.39    6.10
   6   5   4   56.39    4.60
   6   5   4   64.49    6.90
   6   5   4   59.69    4.70
  -7  -5  -4   31.80    6.20
  -7  -5  -4   31.10    6.90
  -7  -5  -4   39.20    4.40
   7   5   4   29.80    4.10
   7   5   4   24.90    2.50
  -8  -5  -4   -0.50    2.00
  -8  -5  -4    2.90    2.10
  -8  -5  -4    1.40    3.30
   8   5   4    1.30    2.50
  -9  -5  -4    1.80    2.60
  -9  -5  -4   -2.50    3.40
  -9  -5  -4   -1.10    2.30
   9   5   4    0.20    2.60
 -10  -5  -4   -7.70    3.80
 -10  -5  -4    0.60    2.40
  10   5   4    2.10    3.00
   6  -6  -4   -0.80    3.70
   6  -6  -4   -1.10    2.20
  -6   6   4    2.40    1.80
  -6   6   4    6.60    2.50
   5  -6  -4    0.10    2.30
   5  -6  -4   -0.80    2.00
  -5   6   4    2.20    2.10
  -5   6   4    0.70    1.30
   4  -6  -4    1.10    2.00
   4  -6  -4    0.90    2.10
  -4   6   4    0.70    1.20
  -4   6   4    3.30    1.80
   3  -6  -4   12.00    3.20
   3  -6  -4   15.90    3.00
  -3   6   4    8.20    2.10
  -3   6   4   10.10    2.40
  -3   6   4    8.10    1.90
   2  -6  -4   22.00    2.90
   2  -6  -4   27.50    3.60
   2  -6  -4   21.70    1.60
  -2   6   4   22.80    3.40
  -2   6   4   21.40    3.00
  -2   6   4   23.40    3.90
   1  -6  -4    9.90    2.30
   1  -6  -4    8.80    2.00
   1  -6  -4    9.40    1.40
   1  -6  -4    9.70    1.40
  -1   6   4   11.70    1.20
  -1   6   4    9.30    1.10
   0  -6  -4    0.50    1.50
   0  -6  -4    0.20    1.10
   0  -6  -4    0.20    0.90
   0  -6  -4    0.50    1.00
   0  -6  -4    2.10    1.20
   0   6   4    0.70    0.70
   0   6   4   -0.40    0.80
   0   6   4   -0.10    0.60
  -1  -6  -4   21.10    2.50
  -1  -6  -4   19.60    2.20
  -1  -6  -4   19.50    2.40
  -1  -6  -4   17.90    2.40
   1   6   4   19.70    2.20
   1   6   4   14.50    2.30
   1   6   4   19.30    3.20
   1   6   4   20.00    2.00
  -2  -6  -4    2.00    1.20
  -2  -6  -4    3.20    1.50
  -2  -6  -4    2.40    0.60
   2   6   4    1.60    1.20
   2   6   4    2.20    0.60
   2   6   4    3.00    1.30
   2   6   4    2.00    1.20
  -3  -6  -4    0.60    1.40
  -3  -6  -4    0.50    1.40
  -3  -6  -4    0.60    0.50
  -3  -6  -4    0.40    1.20
   3   6   4   -0.60    1.00
   3   6   4    1.20    1.20
   3   6   4    0.80    1.30
  -4  -6  -4    5.50    2.10
  -4  -6  -4    5.40    2.00
  -4  -6  -4    3.30    0.80
   4   6   4    4.80    1.80
   4   6   4    4.90    1.60
   4   6   4    3.10    1.60
  -5  -6  -4   12.20    2.70
  -5  -6  -4   11.10    2.60
  -5  -6  -4    8.20    1.30
   5   6   4   12.10    2.60
   5   6   4    9.90    2.40
  -6  -6  -4   31.80    5.60
  -6  -6  -4   36.50    4.30
   6   6   4   41.90    4.40
   6   6   4   35.70    4.60
   6   6   4   40.00    6.40
  -7  -6  -4    3.20    2.50
  -7  -6  -4   -1.90    2.50
   7   6   4   -0.20    1.60
   7   6   4    1.00    0.90
  -8  -6  -4    1.20    2.50
  -8  -6  -4    0.10    3.20
   8   6   4    0.20    2.40
  -9  -6  -4   -0.60    2.50
  -9  -6  -4   -2.60    3.40
   9   6   4    0.90    2.70
 -10  -6  -4    1.00    2.90
 -10  -6  -4   -3.00    4.00
  10   6   4   -1.40    2.90
   6  -7  -4    0.70    4.00
   6  -7  -4    0.60    2.60
  -6   7   4    8.40    2.90
  -6   7   4    3.60    2.00
   5  -7  -4    1.20    3.50
   5  -7  -4    1.60    2.30
  -5   7   4    1.90    1.60
  -5   7   4    2.00    1.60
  -5   7   4   -0.40    1.30
   4  -7  -4   15.60    4.10
   4  -7  -4   11.50    3.10
  -4   7   4    6.30    2.20
  -4   7   4    9.00    2.20
   3  -7  -4    0.50    1.70
   3  -7  -4   -1.80    1.70
  -3   7   4    2.90    1.50
  -3   7   4    0.40    1.20
  -3   7   4    0.20    1.00
   2  -7  -4  197.28    8.90
   2  -7  -4  188.58    8.60
  -2   7   4  203.48   11.70
  -2   7   4  193.08    9.90
   1  -7  -4   51.39    2.80
   1  -7  -4   59.59    4.70
   1  -7  -4   53.59    2.90
   1  -7  -4   55.59    4.00
   1  -7  -4   50.19    4.50
  -1   7   4   52.19    5.30
  -1   7   4   59.89    4.60
  -1   7   4   48.10    2.30
   0  -7  -4   17.30    2.30
   0  -7  -4   19.60    2.10
   0  -7  -4   21.30    2.40
   0  -7  -4   22.10    3.00
   0  -7  -4   18.80    3.00
   0   7   4   20.20    2.70
   0   7   4   20.00    1.90
   0   7   4   17.30    3.40
  -1  -7  -4   55.79    4.10
  -1  -7  -4   55.39    4.00
  -1  -7  -4   52.39    3.60
  -1  -7  -4   51.69    3.40
   1   7   4   54.39    3.30
   1   7   4   53.79    5.10
   1   7   4   59.49    3.50
   1   7   4   48.90    4.10
  -2  -7  -4    5.50    1.80
  -2  -7  -4    8.00    1.90
   2   7   4    5.00    1.70
   2   7   4    6.60    1.70
   2   7   4    3.00    1.30
  -3  -7  -4   -0.20    1.50
  -3  -7  -4   -0.20    1.30
   3   7   4    0.60    1.40
   3   7   4    0.50    1.20
   3   7   4    0.40    1.40
  -4  -7  -4    1.10    0.40
  -4  -7  -4    3.30    2.20
  -4  -7  -4    2.20    2.00
   4   7   4    2.60    1.70
   4   7   4    1.00    1.50
  -5  -7  -4   50.89    3.30
  -5  -7  -4   68.39    6.50
  -5  -7  -4   55.29    4.80
   5   7   4   59.39    6.90
   5   7   4   56.49    4.70
   5   7   4   55.49    6.10
  -6  -7  -4  143.69    9.90
  -6  -7  -4  140.09    8.00
   6   7   4  144.29    7.90
   6   7   4  148.39   10.70
   6   7   4  147.09   10.20
  -7  -7  -4    4.60    3.10
  -7  -7  -4    3.90    2.80
   7   7   4    4.10    1.50
   7   7   4    7.20    3.00
  -8  -7  -4    4.00    3.60
  -8  -7  -4   -0.10    2.60
   8   7   4    6.30    3.00
  -9  -7  -4    0.30    2.90
  -9  -7  -4   -1.80    3.70
   9   7   4    1.70    2.80
 -10  -7  -4   -2.60    4.20
 -10  -7  -4   -2.60    2.60
  10   7   4   -2.50    2.70
   5  -8  -4    0.10    2.40
   5  -8  -4   -4.60    3.40
  -5   8   4    1.10    1.40
  -5   8   4   -0.10    1.30
   4  -8  -4    1.00    1.90
   4  -8  -4   -0.80    3.00
  -4   8   4    0.60    1.20
  -4   8   4    1.50    1.60
   3  -8  -4    2.50    2.10
   3  -8  -4    1.70    2.70
  -3   8   4    3.60    1.60
  -3   8   4    2.90    1.60
   2  -8  -4   18.20    3.80
   2  -8  -4   15.40    3.00
  -2   8   4   22.10    3.60
  -2   8   4   23.90    4.70
   1  -8  -4   10.90    2.70
   1  -8  -4    8.80    1.40
   1  -8  -4    9.90    3.00
   1  -8  -4    9.00    2.20
   1  -8  -4    9.70    1.60
  -1   8   4    6.60    2.00
  -1   8   4    6.00    1.40
   0  -8  -4   47.90    4.40
   0  -8  -4   46.90    3.50
   0  -8  -4   44.40    3.60
   0  -8  -4   45.60    4.40
   0  -8  -4   41.10    3.00
   0   8   4   43.20    2.90
   0   8   4   47.20    3.80
   0   8   4   39.00    4.90
  -1  -8  -4    8.90    1.90
  -1  -8  -4    7.00    2.00
  -1  -8  -4    7.30    2.10
  -1  -8  -4    5.20    2.40
  -1  -8  -4    7.40    1.70
   1   8   4    4.50    0.90
   1   8   4    7.40    1.70
   1   8   4    3.70    1.60
  -2  -8  -4   33.60    3.70
  -2  -8  -4   31.30    3.00
   2   8   4   30.60    4.50
   2   8   4   32.80    3.20
  -3  -8  -4   25.30    3.20
  -3  -8  -4   19.20    3.10
   3   8   4   20.40    3.00
   3   8   4   21.90    4.40
  -4  -8  -4   25.40    3.80
   4   8   4   32.50    3.70
   4   8   4   32.90    5.40
  -5  -8  -4    1.30    2.60
  -5  -8  -4    1.60    2.20
   5   8   4    1.20    1.90
   5   8   4    0.20    1.80
   5   8   4    1.80    1.80
  -6  -8  -4   14.10    3.40
  -6  -8  -4   10.30    3.40
   6   8   4   12.70    3.30
   6   8   4   10.50    2.90
   6   8   4    8.90    2.50
  -7  -8  -4    1.20    3.10
  -7  -8  -4    4.40    2.90
   7   8   4   -0.30    2.30
   7   8   4    4.60    2.70
   7   8   4    3.00    1.70
  -8  -8  -4   51.69    6.00
   8   8   4   42.30    5.50
  -9  -8  -4    4.10    3.10
  -9  -8  -4   -3.40    3.70
   9   8   4    2.00    2.80
   4  -9  -4    5.80    3.80
   4  -9  -4    0.70    2.20
  -4   9   4    1.90    1.40
  -4   9   4    0.70    1.30
   3  -9  -4    5.40    3.50
   3  -9  -4    3.20    2.30
  -3   9   4    3.60    1.60
  -3   9   4    3.50    1.60
   2  -9  -4    3.40    2.90
   2  -9  -4    1.90    1.80
  -2   9   4    3.70    1.30
  -2   9   4    2.10    1.60
   1  -9  -4    3.00    2.30
   1  -9  -4    3.30    2.70
   1  -9  -4    3.60    1.80
  -1   9   4    2.90    1.20
  -1   9   4    1.40    1.40
   0  -9  -4  192.58    9.70
   0  -9  -4  192.18    7.70
   0  -9  -4  197.78    9.20
   0  -9  -4  173.98    8.10
   0   9   4  192.38    8.70
   0   9   4  189.98   11.40
  -1  -9  -4   56.49    3.90
  -1  -9  -4   66.99    4.60
  -1  -9  -4   58.19    5.30
  -1  -9  -4   66.49    5.20
   1   9   4   60.09    6.20
  -2  -9  -4   14.60    2.30
  -2  -9  -4   17.80    3.10
   2   9   4   15.90    2.60
  -3  -9  -4   20.80    3.40
   3   9   4   24.40    3.20
   3   9   4   13.10    2.70
  -4  -9  -4    4.70    2.50
   4   9   4    2.50    2.00
   4   9   4    6.50    2.30
   4   9   4    4.80    2.30
  -5  -9  -4    4.80    2.70
   5   9   4    4.20    2.40
   5   9   4    5.60    2.60
   5   9   4    2.30    2.20
  -6  -9  -4    4.30    2.80
  -6  -9  -4    1.90    2.90
   6   9   4    5.70    2.80
   6   9   4    4.80    2.40
   6   9   4   -1.00    2.30
  -7  -9  -4   -2.50    3.10
  -7  -9  -4   -0.30    2.60
   7   9   4    0.60    2.50
   7   9   4    3.90    2.00
   7   9   4   -4.20    2.30
  -8  -9  -4    9.50    3.60
  -8  -9  -4   -0.10    3.50
   8   9   4    8.60    3.50
  -9  -9  -4   -0.10    3.20
  -9  -9  -4   -4.40    3.60
   9   9   4    4.50    3.30
   3 -10  -4    4.30    3.70
   3 -10  -4    3.10    2.40
   2 -10  -4    0.40    1.70
   2 -10  -4    0.20    2.90
  -2  10   4   -0.60    1.20
   1 -10  -4   -0.80    2.30
   1 -10  -4    2.40    1.60
   1 -10  -4    2.60    3.00
  -1  10   4    0.30    1.20
   0 -10  -4    0.90    2.10
   0 -10  -4    1.70    2.60
   0 -10  -4   -0.50    1.40
   0 -10  -4    2.20    1.60
   0  10   4   -0.40    1.20
  -1 -10  -4   15.20    2.80
  -1 -10  -4   10.60    3.20
  -1 -10  -4   13.50    2.40
  -1 -10  -4   12.10    3.20
   1  10   4    6.60    2.10
  -2 -10  -4   31.50    4.10
  -2 -10  -4   28.40    3.80
  -2 -10  -4   35.90    4.70
  -2 -10  -4   28.70    2.80
   2  10   4   24.90    5.00
   2  10   4   38.20    7.40
  -3 -10  -4   -0.10    2.00
   3  10   4   -2.10    1.40
   3  10   4    3.60    2.60
  -4 -10  -4    2.50    2.80
   4  10   4   -0.20    1.90
   4  10   4    2.70    1.90
   4  10   4    2.70    1.90
  -5 -10  -4   -2.80    2.40
   5  10   4   -1.70    1.80
   5  10   4    4.10    2.50
   5  10   4   -2.50    1.90
  -6 -10  -4   -3.30    2.30
   6  10   4    4.20    2.60
   6  10   4   -0.60    2.00
  -7 -10  -4   -3.40    3.00
  -7 -10  -4   -3.20    2.40
   7  10   4    1.30    2.50
   7  10   4   -3.70    2.50
   7  10   4    2.60    1.90
  -8 -10  -4   -0.90    2.80
  -8 -10  -4    0.00    3.60
   8  10   4    0.40    2.70
   1 -11  -4    0.80    1.60
   1 -11  -4    2.80    3.30
  -1  11   4   -0.50    1.30
  -1  11   4    6.20    2.40
   0 -11  -4    5.40    3.40
   0 -11  -4   -0.40    2.00
   0  11   4    6.90    2.70
  -1 -11  -4    3.10    3.00
  -1 -11  -4    4.70    2.20
  -1 -11  -4    3.40    2.60
   1  11   4    7.70    3.00
   1  11   4    2.00    1.60
  -2 -11  -4    0.50    2.40
  -2 -11  -4    3.40    2.90
  -2 -11  -4    3.90    2.40
   2  11   4   -0.10    1.80
  -3 -11  -4    2.80    2.40
   3  11   4   -0.90    1.60
   3  11   4    3.80    2.70
  -4 -11  -4    2.80    2.50
   4  11   4    5.90    3.00
   4  11   4   -1.60    1.80
  -5 -11  -4    0.70    2.60
   5  11   4   -3.60    2.30
   5  11   4    6.40    3.00
  -6 -11  -4    1.30    2.80
   6  11   4   -5.10    2.30
   6  11   4    7.90    3.10
   6  11   4   -1.70    2.20
  -7 -11  -4   -0.80    2.90
   7  11   4    1.50    2.80
  -1 -12  -4    2.30    3.30
   1  12   4   -1.70    1.40
  -2 -12  -4    2.30    3.10
  -2 -12  -4    0.20    2.50
   2  12   4   -0.50    1.90
   2  12   4    8.80    3.20
  -3 -12  -4    2.10    3.10
  -3 -12  -4    3.90    3.00
   3  12   4    5.80    2.80
  -4 -12  -4   10.20    3.50
   4  12   4    2.60    2.60
  -5 -12  -4   -0.70    3.10
   5  12   4    9.40    3.40
   2   9  -5   -4.00    3.70
  -2  -9   5    2.50    3.40
   1   9  -5   -3.40    3.50
  -1  -9   5   -0.50    2.90
  -1  -9   5    0.00    3.40
   0  -9   5    3.80    3.40
   0  -9   5    4.90    2.80
   0  -9   5    2.70    2.80
   4   8  -5    3.30    3.20
  -4  -8   5   -0.50    3.40
   3   8  -5   -1.10    2.50
   3   8  -5   -4.70    3.90
  -3  -8   5   -1.90    3.00
   2   8  -5   -5.40    3.10
  -2  -8   5    2.20    3.20
   1   8  -5   -5.00    2.90
  -1  -8   5   -1.00    2.50
   0   8  -5    5.80    2.10
   0   8  -5   -0.60    3.30
   0  -8   5    2.00    2.80
   0  -8   5   -0.10    2.60
  -1   8  -5   -2.20    3.00
  -1   8  -5    5.90    2.30
   1  -8   5    0.20    2.00
   1  -8   5   -1.10    2.00
   1  -8   5    0.10    2.40
  -2   8  -5    1.20    3.50
   2  -8   5    0.80    2.40
   2  -8   5   -0.70    1.90
   2  -8   5    2.70    3.40
  -3   8  -5    5.20    4.00
   3  -8   5    8.30    3.80
   3  -8   5    6.00    2.70
   6   7  -5    0.50    3.10
   5   7  -5    1.30    3.10
  -5  -7   5   -1.20    3.10
   4   7  -5    1.00    2.70
   4   7  -5   -7.30    3.80
  -4  -7   5   -1.20    2.80
   3   7  -5    1.20    2.50
  -3  -7   5    0.70    2.80
   2   7  -5   11.10    3.40
  -2  -7   5    8.90    3.60
   1   7  -5    1.20    3.50
   1   7  -5    6.90    2.50
  -1  -7   5    3.40    2.90
   0   7  -5    2.00    3.30
   0  -7   5    5.40    2.30
   0  -7   5    6.00    2.90
  -1   7  -5    3.40    2.00
  -1   7  -5   -3.40    2.30
   1  -7   5    2.90    2.50
   1  -7   5    1.50    2.00
   1  -7   5    1.50    2.30
  -2   7  -5   -1.00    2.50
  -2   7  -5    2.00    1.60
   2  -7   5    3.00    2.70
   2  -7   5   -0.20    1.80
   2  -7   5   -1.80    2.20
  -3   7  -5   -1.60    2.40
  -3   7  -5    4.30    2.20
   3  -7   5    1.10    2.20
   3  -7   5    2.20    2.90
   3  -7   5    0.30    2.00
  -4   7  -5    3.30    2.30
  -4   7  -5   -1.60    2.50
   4  -7   5    1.00    1.90
   4  -7   5    1.80    3.10
   6   6  -5    5.10    3.60
  -6  -6   5    3.50    3.50
   5   6  -5   -7.10    3.60
   5   6  -5   -1.80    2.50
  -5  -6   5   -1.20    2.00
  -5  -6   5    0.40    3.10
   4   6  -5   -5.10    3.20
   4   6  -5    1.10    2.60
  -4  -6   5   -1.80    1.60
  -4  -6   5    2.60    3.20
   3   6  -5   33.50    4.70
   3   6  -5   18.00    4.60
  -3  -6   5   41.60    5.40
  -3  -6   5   29.20    5.10
   2   6  -5    6.50    3.30
   2   6  -5   15.70    3.40
  -2  -6   5    7.60    2.10
  -2  -6   5   12.30    3.40
   1   6  -5  156.68   14.80
   1   6  -5  148.19    8.20
  -1  -6   5  153.58    8.60
   0   6  -5   84.59    5.70
   0   6  -5   86.19   10.30
   0  -6   5   99.19    6.90
  -1   6  -5   12.10    2.60
  -1   6  -5    4.60    2.60
  -1   6  -5    9.70    2.80
   1  -6   5   16.00    3.50
   1  -6   5   12.40    3.10
  -2   6  -5    3.40    1.90
  -2   6  -5   -0.20    2.50
   2  -6   5    4.60    2.30
   2  -6   5    3.90    1.90
   2  -6   5    2.20    1.90
  -3   6  -5    4.60    2.90
  -3   6  -5    6.90    2.60
   3  -6   5    8.30    2.50
   3  -6   5    8.20    2.70
   3  -6   5    8.70    2.60
  -4   6  -5    0.00    2.40
  -4   6  -5    4.10    2.20
   4  -6   5    3.60    2.10
   4  -6   5    5.00    3.00
  -5   6  -5   -0.20    2.30
  -5   6  -5    2.50    1.90
   5  -6   5    1.50    1.60
   5  -6   5    0.20    2.90
  -6   6  -5    1.30    2.40
  -6   6  -5   -2.30    2.40
   6  -6   5   -1.70    3.30
   7   5  -5    4.00    3.40
  -7  -5   5    1.90    3.50
  -7  -5   5   -2.30    2.10
  -7  -5   5    0.00    4.00
   6   5  -5    1.10    2.40
  -6  -5   5   -4.00    1.90
  -6  -5   5   -0.20    3.30
  -6  -5   5    0.40    2.90
   5   5  -5    2.00    2.80
  -5  -5   5   -1.60    1.70
  -5  -5   5   -1.60    3.10
  -5  -5   5   -1.10    2.80
   4   5  -5   10.70    3.00
   4   5  -5    1.00    3.40
  -4  -5   5    7.80    2.90
  -4  -5   5    2.90    1.80
   3   5  -5    8.80    3.80
   3   5  -5   17.60    3.50
  -3  -5   5   13.60    3.30
  -3  -5   5    7.70    2.10
   2   5  -5   19.70    3.10
   2   5  -5   12.00    3.50
  -2  -5   5   21.30    3.90
  -2  -5   5   12.30    2.40
   1   5  -5    7.30    2.80
   1   5  -5   14.50    3.00
  -1  -5   5   16.50    3.40
   0   5  -5    0.20    2.40
   0   5  -5    2.60    1.60
   0   5  -5   -0.20    1.70
   0  -5   5   -0.50    2.10
  -1   5  -5  141.29   11.20
  -1   5  -5  120.09    6.60
  -1   5  -5  117.49   12.00
   1  -5   5  116.19    6.90
   1  -5   5  120.59    6.50
   1  -5   5  121.49    6.80
  -2   5  -5   12.90    3.20
  -2   5  -5   23.20    3.10
  -2   5  -5   14.10    3.70
   2  -5   5   17.90    3.20
   2  -5   5   20.20    2.90
   2  -5   5   19.20    3.20
  -3   5  -5   13.10    3.30
  -3   5  -5   11.90    3.50
   3  -5   5   17.10    3.00
   3  -5   5   22.10    3.80
   3  -5   5   18.80    2.90
  -4   5  -5    1.90    2.40
  -4   5  -5    4.10    2.50
   4  -5   5    6.80    2.50
   4  -5   5    3.50    2.00
  -5   5  -5   -0.90    1.90
  -5   5  -5    0.10    2.00
   5  -5   5    0.60    2.00
   5  -5   5   -0.10    2.60
   5  -5   5   -1.00    1.50
  -6   5  -5    0.40    2.20
  -6   5  -5    5.10    2.60
   6  -5   5    2.50    1.60
   6  -5   5    4.30    2.80
   6  -5   5    5.40    3.20
  -7   5  -5    5.40    2.60
   7  -5   5    3.30    3.80
   7   4  -5   19.60    4.50
  -7  -4   5   25.70    4.90
  -7  -4   5   12.00    5.10
  -7  -4   5   13.80    3.40
   6   4  -5   48.80    5.90
  -6  -4   5   45.20    6.50
  -6  -4   5   48.80    8.50
  -6  -4   5   48.10    5.90
   5   4  -5    1.80    3.40
   5   4  -5   11.00    3.40
  -5  -4   5   10.10    3.50
  -5  -4   5    9.30    3.90
  -5  -4   5    3.10    2.00
   4   4  -5   -0.50    2.20
   4   4  -5   -2.90    2.70
  -4  -4   5    1.90    2.50
  -4  -4   5   -1.30    1.40
  -4  -4   5   -0.90    2.70
   3   4  -5    0.30    1.70
   3   4  -5   -1.80    2.50
  -3  -4   5    0.00    1.50
  -3  -4   5    0.70    2.30
   2   4  -5    1.20    2.00
   2   4  -5    1.60    2.50
  -2  -4   5   -1.10    0.80
  -2  -4   5   -1.30    2.10
  -2  -4   5    0.70    1.50
   1   4  -5    7.10    2.30
   1   4  -5    7.60    3.00
  -1  -4   5    7.30    2.60
  -1  -4   5    7.00    1.20
  -1  -4   5    6.00    1.80
   0   4  -5    3.40    1.60
   0   4  -5    3.30    2.00
   0   4  -5    6.90    2.20
   0  -4   5    6.80    2.50
  -1   4  -5  279.27   18.00
  -1   4  -5  290.87   16.80
  -1   4  -5  273.67   10.80
   1  -4   5  261.17   10.60
   1  -4   5  272.67   10.80
   1  -4   5  277.17   11.30
  -2   4  -5   80.19    8.80
  -2   4  -5   75.89    4.90
  -2   4  -5   84.99    9.20
   2  -4   5   72.79    5.30
   2  -4   5   76.29    4.90
   2  -4   5   72.99    5.10
   2  -4   5   78.19    4.70
   2  -4   5   70.49    5.00
  -3   4  -5    6.50    2.50
  -3   4  -5    6.30    2.70
  -3   4  -5   11.90    2.10
   3  -4   5    9.30    2.40
   3  -4   5   13.00    2.30
   3  -4   5   11.10    2.70
   3  -4   5   12.60    2.50
   3  -4   5   10.70    2.80
  -4   4  -5    9.40    2.90
  -4   4  -5    9.30    2.90
   4  -4   5   15.70    3.40
   4  -4   5   12.90    2.60
   4  -4   5   13.40    3.20
  -5   4  -5   -0.50    1.80
  -5   4  -5   -1.10    1.70
   5  -4   5    0.90    2.00
   5  -4   5   -0.40    2.40
   5  -4   5    0.60    1.70
  -6   4  -5   -1.50    1.90
  -6   4  -5   -1.30    1.80
   6  -4   5   -0.60    1.90
   6  -4   5   -0.30    1.50
   6  -4   5    0.10    1.90
  -7   4  -5    3.70    2.40
   7  -4   5    7.20    2.00
   7  -4   5    6.50    3.60
   8   3  -5    1.60    3.10
   8   3  -5   -1.30    1.90
  -8  -3   5   -5.60    3.80
  -8  -3   5   -0.70    2.30
   7   3  -5    6.00    3.30
   7   3  -5    6.10    2.50
  -7  -3   5    5.50    3.20
  -7  -3   5    2.30    2.20
  -7  -3   5    1.10    2.90
   6   3  -5   -3.50    2.60
   6   3  -5    2.90    2.80
   6   3  -5    3.90    2.00
  -6  -3   5    0.40    2.50
  -6  -3   5   -0.80    1.80
  -6  -3   5    0.30    2.60
   5   3  -5   22.50    4.10
   5   3  -5   14.30    4.10
   5   3  -5   24.00    2.80
  -5  -3   5   18.70    4.40
  -5  -3   5   29.70    5.30
  -5  -3   5   27.60    4.40
   4   3  -5   19.30    3.70
   4   3  -5   12.10    3.80
   4   3  -5   18.30    2.20
  -4  -3   5   12.10    2.50
  -4  -3   5   20.10    3.50
  -4  -3   5   13.30    3.70
   3   3  -5    5.10    2.90
   3   3  -5    7.10    1.40
   3   3  -5   10.60    2.60
  -3  -3   5    6.00    1.80
  -3  -3   5    7.80    2.40
  -3  -3   5    8.60    3.10
   2   3  -5    0.10    1.80
   2   3  -5   -0.20    2.20
   2   3  -5    0.00    0.60
  -2  -3   5   -1.10    1.10
  -2  -3   5    0.60    2.00
   1   3  -5    8.20    2.30
   1   3  -5    4.50    1.40
   1   3  -5    3.30    1.90
  -1  -3   5    8.10    2.20
  -1  -3   5    4.30    1.70
  -1  -3   5    3.30    0.80
   0   3  -5    0.70    1.40
   0   3  -5    0.10    1.40
   0   3  -5   -0.60    1.00
   0  -3   5    0.20    1.20
   0  -3   5    0.70    1.70
  -1   3  -5   -0.60    1.10
  -1   3  -5   -0.80    1.30
  -1   3  -5    0.50    1.70
   1  -3   5    0.30    1.10
   1  -3   5   -1.20    1.30
   1  -3   5   -0.10    1.40
   1  -3   5   -0.20    1.60
  -2   3  -5    0.00    1.60
  -2   3  -5   -0.40    1.00
  -2   3  -5    0.80    1.40
   2  -3   5    0.20    1.40
   2  -3   5    0.10    1.50
   2  -3   5   -0.80    1.50
   2  -3   5   -0.90    1.00
   2  -3   5    0.50    1.30
  -3   3  -5  125.79   10.50
  -3   3  -5  154.88   11.60
  -3   3  -5  145.29    6.60
   3  -3   5  139.59    6.90
   3  -3   5  148.89    6.90
   3  -3   5  156.28    6.80
   3  -3   5  144.39    8.00
  -4   3  -5    0.40    0.90
  -4   3  -5    1.60    1.60
  -4   3  -5    5.00    1.70
  -4   3  -5    2.50    2.00
   4  -3   5    5.90    2.10
   4  -3   5    2.10    2.20
   4  -3   5    3.20    1.60
   4  -3   5    4.30    2.40
  -5   3  -5   12.30    3.10
  -5   3  -5   14.00    3.30
   5  -3   5   23.40    3.10
   5  -3   5   26.70    3.90
   5  -3   5   26.10    3.90
  -6   3  -5    3.00    2.00
  -6   3  -5    1.90    1.80
   6  -3   5    6.50    2.90
   6  -3   5    4.30    1.90
   6  -3   5    7.80    2.90
  -7   3  -5   -0.70    2.00
  -7   3  -5    2.80    2.50
   7  -3   5   -0.90    1.60
   7  -3   5    0.70    2.90
   7  -3   5   -1.50    1.30
  -8   3  -5    8.90    3.60
  -8   3  -5    1.00    2.50
   8  -3   5    4.40    1.90
   8  -3   5    4.50    3.80
   8   2  -5    4.10    3.20
   8   2  -5   -0.30    2.00
  -8  -2   5    0.00    2.20
  -8  -2   5   -5.90    3.60
   7   2  -5    3.50    2.40
   7   2  -5    0.90    2.70
  -7  -2   5   -0.60    3.50
  -7  -2   5    0.80    2.10
  -7  -2   5    3.10    2.80
   6   2  -5   21.00    4.10
   6   2  -5   22.50    3.10
  -6  -2   5   18.00    3.70
  -6  -2   5   13.50    3.10
  -6  -2   5   14.00    4.40
   5   2  -5   29.80    3.10
   5   2  -5   32.90    4.60
  -5  -2   5   36.90    6.60
  -5  -2   5   34.90    5.50
  -5  -2   5   32.90    4.40
   4   2  -5   11.30    2.10
   4   2  -5   10.80    1.20
   4   2  -5    7.60    3.00
   4   2  -5    9.50    1.40
   4   2  -5   13.10    3.10
  -4  -2   5   11.10    3.30
  -4  -2   5    9.60    2.30
  -4  -2   5   12.50    3.10
   3   2  -5   19.30    2.50
   3   2  -5   22.70    3.50
   3   2  -5   20.00    2.00
  -3  -2   5   24.30    4.20
  -3  -2   5   24.60    4.80
  -3  -2   5   22.90    3.60
   2   2  -5   94.39    4.10
   2   2  -5   86.29    5.90
   2   2  -5  101.09    9.50
   2   2  -5   83.99    5.40
  -2  -2   5   86.99    5.60
  -2  -2   5   96.59    6.40
   1   2  -5    0.20    0.80
   1   2  -5    1.30    1.50
   1   2  -5   -2.00    1.30
  -1  -2   5    0.30    1.10
  -1  -2   5   -1.60    1.50
   0   2  -5   90.49    8.30
   0   2  -5   92.79    6.80
   0   2  -5   89.59    5.00
   0  -2   5   84.19    4.90
   0  -2   5   94.89    5.50
   0  -2   5   85.29    4.00
   0  -2   5   83.09    4.10
   0  -2   5   90.39    6.00
  -1   2  -5   -0.90    1.10
  -1   2  -5    0.70    1.20
  -1   2  -5    0.20    1.10
   1  -2   5   -1.30    1.00
   1  -2   5   -0.40    0.90
   1  -2   5    0.60    1.10
   1  -2   5    0.10    0.80
   1  -2   5    2.10    1.50
  -2   2  -5  217.48   13.80
  -2   2  -5  234.18   13.60
  -2   2  -5  226.58    8.80
   2  -2   5  230.58    8.80
   2  -2   5  208.08    9.60
   2  -2   5  227.58    9.00
   2  -2   5  220.78    7.80
   2  -2   5  225.58    8.30
  -3   2  -5    1.40    1.30
  -3   2  -5    0.40    1.10
  -3   2  -5    1.80    1.50
  -3   2  -5    0.50    0.50
   3  -2   5    2.20    1.50
   3  -2   5    1.60    1.50
   3  -2   5    0.60    1.40
   3  -2   5    0.70    1.40
  -4   2  -5   96.29    5.00
  -4   2  -5   94.39    8.10
  -4   2  -5   83.09    8.10
  -4   2  -5   87.89    5.30
   4  -2   5   87.59    5.30
   4  -2   5   89.59    5.20
   4  -2   5   89.09    4.90
   4  -2   5   99.99    6.40
  -5   2  -5    8.00    2.30
  -5   2  -5   16.10    2.40
  -5   2  -5    8.50    2.70
   5  -2   5   12.90    2.30
   5  -2   5   17.00    3.50
   5  -2   5   14.30    2.50
   5  -2   5   15.10    3.10
  -6   2  -5    3.00    1.90
  -6   2  -5    3.40    2.40
   6  -2   5    8.60    2.80
   6  -2   5   12.70    3.40
   6  -2   5    8.00    2.20
  -7   2  -5    1.20    1.70
  -7   2  -5    2.90    2.40
   7  -2   5    1.00    1.90
   7  -2   5    2.10    2.80
   7  -2   5    2.30    1.90
  -8   2  -5    0.70    2.40
  -8   2  -5    6.50    3.30
   8  -2   5    2.40    3.30
   8  -2   5    4.00    2.60
   8  -2   5    6.30    2.30
  -9   2  -5    4.20    3.00
  -9   2  -5   -2.90    2.70
   9  -2   5    0.40    1.90
   8   1  -5    6.20    3.00
   8   1  -5    6.00    3.40
  -8  -1   5    3.00    2.40
  -8  -1   5   -0.60    3.60
   7   1  -5   10.00    3.20
   7   1  -5    6.20    2.70
  -7  -1   5    3.80    2.40
  -7  -1   5    6.20    3.90
   6   1  -5    1.50    2.40
   6   1  -5    0.90    1.80
  -6  -1   5   -1.50    2.90
  -6  -1   5    2.30    1.90
  -6  -1   5    2.70    2.20
   5   1  -5    0.80    2.20
   5   1  -5   -1.20    1.40
  -5  -1   5   -1.30    1.60
  -5  -1   5   -0.30    2.60
  -5  -1   5    0.10    2.00
   4   1  -5   29.00    6.70
   4   1  -5   26.70    2.90
   4   1  -5   22.40    3.70
  -4  -1   5   29.00    4.60
  -4  -1   5   23.90    3.70
  -4  -1   5   19.20    3.80
   3   1  -5   -1.40    1.60
   3   1  -5   -0.90    1.30
   3   1  -5   -1.30    0.70
  -3  -1   5    0.40    1.10
  -3  -1   5    1.40    1.90
  -3  -1   5   -0.60    1.70
   2   1  -5    0.40    2.00
   2   1  -5    0.30    1.50
   2   1  -5    1.00    0.80
   2   1  -5    0.40    0.60
  -2  -1   5   -0.50    1.60
  -2  -1   5    1.30    1.20
  -2  -1   5    1.30    1.70
   1   1  -5   40.80    5.40
   1   1  -5   37.20    3.60
   1   1  -5   39.90    3.10
   1   1  -5   34.50    4.00
  -1  -1   5   32.70    3.00
  -1  -1   5   36.90    3.90
   0   1  -5  537.25   22.30
   0   1  -5  590.84   26.00
   0   1  -5  575.54   18.70
   0   1  -5  588.74   28.50
   0  -1   5  568.94   18.90
   0  -1   5  572.64   21.70
   0  -1   5  549.65   19.10
   0  -1   5  571.34   18.60
   0  -1   5  559.84   21.50
  -1   1  -5    7.10    2.10
  -1   1  -5    5.40    1.50
  -1   1  -5   13.00    2.10
   1  -1   5   10.10    2.00
   1  -1   5    7.70    1.60
   1  -1   5    9.80    1.40
   1  -1   5   11.20    1.90
  -2   1  -5    2.60    1.50
  -2   1  -5    2.00    0.50
  -2   1  -5    1.20    1.20
  -2   1  -5    1.00    1.20
   2  -1   5    4.10    1.20
   2  -1   5    4.00    1.40
   2  -1   5    3.80    0.80
   2  -1   5    2.80    1.50
  -3   1  -5    1.50    1.20
  -3   1  -5    1.10    0.60
  -3   1  -5    2.30    1.50
  -3   1  -5    1.30    1.40
   3  -1   5    2.10    1.40
   3  -1   5    1.10    1.40
   3  -1   5    2.90    1.50
  -4   1  -5   23.40    2.90
  -4   1  -5   23.40    2.60
  -4   1  -5   23.20    4.40
  -4   1  -5   30.80    5.60
   4  -1   5   25.90    3.10
   4  -1   5   25.10    2.90
   4  -1   5   21.60    2.60
  -5   1  -5   -0.40    1.70
  -5   1  -5    1.30    0.90
  -5   1  -5    0.10    1.50
  -5   1  -5    1.20    1.40
   5  -1   5    0.10    1.40
   5  -1   5    1.30    1.60
   5  -1   5   -1.50    1.80
  -6   1  -5    7.70    1.70
  -6   1  -5    6.80    2.40
  -6   1  -5    3.30    1.80
  -6   1  -5    6.40    1.90
  -6   1  -5    2.40    2.20
   6  -1   5    9.70    2.80
   6  -1   5    6.40    2.20
  -7   1  -5   10.90    3.20
  -7   1  -5   22.60    4.50
   7  -1   5   20.40    3.30
   7  -1   5   21.40    3.90
   7  -1   5   15.50    3.70
  -8   1  -5    1.00    2.50
  -8   1  -5    4.30    3.00
   8  -1   5    2.60    3.10
   8  -1   5    1.40    2.40
   8  -1   5    3.80    2.20
  -9   1  -5    0.50    2.80
  -9   1  -5   -3.50    2.40
   9  -1   5    3.90    2.40
   8   0  -5    3.30    2.80
   8   0  -5   -0.10    2.20
  -8   0   5    2.00    2.30
  -8   0   5   -0.40    3.60
   7   0  -5    2.50    2.20
   7   0  -5    4.00    2.80
  -7   0   5    2.40    3.40
  -7   0   5    1.00    2.10
   6   0  -5    0.10    1.70
   6   0  -5    0.90    2.10
  -6   0   5   -1.10    1.90
  -6   0   5    0.50    1.70
  -6   0   5   -1.40    2.50
   5   0  -5    1.10    1.70
   5   0  -5    6.40    2.40
  -5   0   5    4.50    2.80
  -5   0   5    4.60    1.80
  -5   0   5    6.70    2.30
   4   0  -5    7.10    2.30
   4   0  -5    5.60    1.90
  -4   0   5    8.90    2.90
  -4   0   5    5.90    2.20
  -4   0   5    3.60    1.70
   3   0  -5    1.90    1.30
   3   0  -5    1.30    1.70
   3   0  -5    2.50    1.60
  -3   0   5    1.10    1.70
  -3   0   5    4.50    2.00
  -3   0   5   -0.60    1.00
   2   0  -5  167.68    7.50
   2   0  -5  179.48    6.90
   2   0  -5  165.98    7.40
   2   0  -5  168.68    8.70
   2   0  -5  163.88   11.10
  -2   0   5  171.48    7.50
  -2   0   5  171.78    8.90
  -2   0   5  174.98    8.80
   1   0  -5   43.20    5.30
   1   0  -5   44.70    3.40
   1   0  -5   44.40    3.80
   1   0  -5   45.50    3.30
   1   0  -5   43.20    3.40
  -1   0   5   49.00    3.60
  -1   0   5   44.10    4.00
   0   0  -5  119.89    5.60
   0   0  -5  133.89    6.80
   0   0  -5  126.99    7.40
   0   0  -5  130.39    9.40
   0   0  -5  128.99    5.70
   0   0  -5  122.89    6.40
   0   0   5  128.39    6.80
   0   0   5  125.19    7.10
   0   0   5  125.39    9.60
   0   0   5  126.79    6.30
   0   0   5  126.89    5.80
   0   0   5  126.19    5.60
  -1   0  -5  195.08   11.70
  -1   0  -5  183.38   10.40
  -1   0  -5  179.38    8.50
  -1   0  -5  181.88    7.30
  -1   0  -5  192.98    7.50
   1   0   5  188.18    8.10
   1   0   5  196.38   10.20
   1   0   5  183.08   11.20
   1   0   5  182.78    7.30
   1   0   5  184.58    8.80
   1   0   5  183.08    7.50
  -2   0  -5  102.49    7.30
  -2   0  -5   94.09    4.70
  -2   0  -5   87.89    4.50
  -2   0  -5   99.09    7.50
   2   0   5   98.59    4.70
   2   0   5   90.59    4.70
   2   0   5   94.99    5.00
   2   0   5   90.49    6.40
   2   0   5   93.49    7.00
  -3   0  -5   -0.20    1.10
  -3   0  -5    0.90    1.30
  -3   0  -5    0.00    0.50
  -3   0  -5   -0.90    1.00
   3   0   5   -0.50    1.00
   3   0   5    0.00    1.10
   3   0   5   -0.50    0.90
   3   0   5    0.50    0.90
   3   0   5   -1.00    1.10
  -4   0  -5    2.40    1.40
  -4   0  -5    1.30    0.90
  -4   0  -5    3.30    0.80
  -4   0  -5    1.80    1.30
  -4   0  -5    0.80    1.40
   4   0   5    0.80    1.50
   4   0   5    1.50    1.40
   4   0   5    2.40    1.50
   4   0   5    2.40    1.00
  -5   0  -5    8.00    1.90
  -5   0  -5   12.40    1.50
  -5   0  -5    8.50    2.40
  -5   0  -5   11.90    2.10
   5   0   5   18.10    2.90
   5   0   5   13.60    2.60
   5   0   5   14.20    2.50
   5   0   5   11.00    2.20
  -6   0  -5    0.30    1.90
  -6   0  -5    0.70    1.50
  -6   0  -5   -0.20    1.30
  -6   0  -5    0.00    1.40
  -6   0  -5   -0.60    1.00
   6   0   5   -0.40    1.60
   6   0   5    0.80    1.60
   6   0   5   -2.00    2.00
  -7   0  -5   16.60    2.80
  -7   0  -5   13.80    3.40
  -7   0  -5    8.00    2.90
   7   0   5   16.80    3.00
  -8   0  -5    2.40    2.60
  -8   0  -5   -1.90    2.00
   8   0   5   -0.70    2.00
  -9   0  -5    2.00    2.90
  -9   0  -5    7.80    3.30
   9   0   5    5.00    2.90
   9   0   5    7.90    2.90
   8  -1  -5   -0.20    2.30
   8  -1  -5   -1.40    2.30
  -8   1   5   -4.70    3.20
  -8   1   5    0.80    2.00
   7  -1  -5    5.30    2.80
   7  -1  -5    8.10    2.80
  -7   1   5    4.10    2.30
  -7   1   5    2.20    3.40
   6  -1  -5   15.80    3.10
   6  -1  -5   13.50    3.10
  -6   1   5   12.10    3.00
  -6   1   5   17.50    4.30
   5  -1  -5   10.40    2.70
   5  -1  -5   14.90    2.70
  -5   1   5   12.90    3.40
  -5   1   5   19.40    3.00
  -5   1   5    6.30    2.30
   4  -1  -5    0.50    1.80
   4  -1  -5    1.20    1.20
   4  -1  -5    2.30    1.80
  -4   1   5    0.50    1.50
  -4   1   5   -0.50    1.20
  -4   1   5    0.40    2.00
   3  -1  -5    1.30    1.20
   3  -1  -5    0.30    1.50
   3  -1  -5    3.30    1.80
  -3   1   5    1.10    1.20
  -3   1   5    1.60    1.70
  -3   1   5    2.20    1.70
   2  -1  -5    2.90    1.30
   2  -1  -5    2.00    1.40
   2  -1  -5    0.70    1.20
  -2   1   5    1.40    1.30
  -2   1   5    1.30    1.30
  -2   1   5    0.60    1.00
   1  -1  -5   44.30    3.20
   1  -1  -5   40.80    3.00
   1  -1  -5   45.30    3.50
   1  -1  -5   41.30    3.10
  -1   1   5   40.40    2.80
  -1   1   5   41.70    3.90
  -1   1   5   42.20    3.40
  -1   1   5   43.50    3.30
   0  -1  -5   64.19    4.60
   0  -1  -5   60.79    3.50
   0  -1  -5   62.79    5.70
   0  -1  -5   67.69    3.70
   0  -1  -5   63.09    4.20
   0  -1  -5   65.19    3.80
   0   1   5   65.59    4.40
   0   1   5   64.99    4.30
   0   1   5   61.29    5.60
   0   1   5   58.89    4.20
   0   1   5   64.29    3.60
   0   1   5   62.99    3.80
  -1  -1  -5  397.46   13.20
  -1  -1  -5  393.86   15.60
  -1  -1  -5  387.76   19.70
  -1  -1  -5  389.36   13.10
  -1  -1  -5  359.46   15.00
  -1  -1  -5  383.96   18.30
   1   1   5  387.66   13.00
   1   1   5  381.86   15.30
   1   1   5  391.16   15.70
   1   1   5  392.66   18.30
   1   1   5  394.16   19.80
   1   1   5  395.76   13.20
  -2  -1  -5  550.94   17.60
  -2  -1  -5  560.94   21.20
  -2  -1  -5  489.35   25.80
  -2  -1  -5  567.84   17.70
  -2  -1  -5  558.14   20.40
  -2  -1  -5  467.85   24.90
   2   1   5  565.14   20.60
   2   1   5  558.54   21.30
   2   1   5  535.35   25.10
   2   1   5  545.85   17.60
   2   1   5  588.44   26.30
   2   1   5  551.94   17.70
  -3  -1  -5   60.49    5.80
  -3  -1  -5   56.39    3.90
  -3  -1  -5   55.29    3.50
  -3  -1  -5   55.19    5.20
   3   1   5   52.19    3.60
   3   1   5   53.19    4.90
   3   1   5   54.99    3.50
   3   1   5   60.09    4.30
  -4  -1  -5    2.70    1.00
  -4  -1  -5    2.30    1.60
  -4  -1  -5    3.60    1.40
  -4  -1  -5    4.40    1.50
   4   1   5    3.30    1.30
   4   1   5    3.70    1.50
   4   1   5    6.30    1.70
   4   1   5    3.50    1.20
   4   1   5    7.40    1.70
  -5  -1  -5  114.19    5.70
  -5  -1  -5  115.19    7.30
  -5  -1  -5  107.49    7.20
  -5  -1  -5  127.59    9.80
   5   1   5  120.39    5.40
   5   1   5  113.89    5.70
   5   1   5  116.09    5.80
   5   1   5  108.79    6.90
  -6  -1  -5   15.60    3.10
  -6  -1  -5   11.30    2.90
  -6  -1  -5   18.80    2.90
   6   1   5   16.40    2.70
   6   1   5   18.20    2.90
   6   1   5   18.40    2.20
  -7  -1  -5   -1.00    2.10
  -7  -1  -5    0.10    1.50
  -7  -1  -5    0.50    1.90
   7   1   5   -1.50    1.80
  -8  -1  -5    4.50    2.80
  -8  -1  -5    9.40    3.30
   8   1   5    9.60    2.80
  -9  -1  -5   -2.90    2.20
  -9  -1  -5    0.90    2.20
   9   1   5    2.20    2.60
 -10  -1  -5    2.80    3.50
 -10  -1  -5   -3.20    3.20
  10   1   5    5.40    3.00
   8  -2  -5    0.70    2.20
  -8   2   5    1.60    2.10
  -8   2   5   -4.60    2.80
   7  -2  -5    1.10    2.10
   7  -2  -5    4.00    2.70
  -7   2   5   -4.50    2.80
  -7   2   5    1.30    1.90
   6  -2  -5    1.60    2.20
   6  -2  -5    2.70    2.10
  -6   2   5    1.80    1.90
  -6   2   5   -0.40    2.40
   5  -2  -5    1.50    1.90
   5  -2  -5    4.50    2.00
  -5   2   5    2.00    1.50
  -5   2   5    1.80    1.60
  -5   2   5   -1.70    2.00
   4  -2  -5   57.09    4.10
   4  -2  -5   56.09    4.20
   4  -2  -5   45.10    4.10
  -4   2   5   52.19    3.90
  -4   2   5   57.29    5.60
  -4   2   5   48.00    5.60
   3  -2  -5   57.39    3.80
   3  -2  -5   57.69    4.10
   3  -2  -5   59.69    4.00
  -3   2   5   56.79    5.20
  -3   2   5   53.19    5.20
  -3   2   5   59.79    3.90
   2  -2  -5    1.20    1.00
   2  -2  -5    1.70    1.30
   2  -2  -5    1.30    1.20
   2  -2  -5    0.80    1.30
  -2   2   5    1.30    0.80
  -2   2   5    0.60    0.40
  -2   2   5    3.40    1.40
  -2   2   5    2.60    1.40
  -2   2   5    0.90    1.00
   1  -2  -5  159.78    7.20
   1  -2  -5  164.48    6.70
   1  -2  -5  160.38    6.60
  -1   2   5  164.38    7.30
  -1   2   5  156.38    8.20
  -1   2   5  167.08    8.10
  -1   2   5  170.98    6.70
   0  -2  -5  620.44   26.60
   0  -2  -5  612.04   22.10
   0  -2  -5  596.14   22.40
   0  -2  -5  640.94   19.30
   0  -2  -5  595.74   19.20
   0   2   5  548.25   22.30
   0   2   5  608.24   19.20
   0   2   5  621.04   24.10
   0   2   5  568.94   28.90
   0   2   5  598.54   19.10
   0   2   5  645.14   26.70
  -1  -2  -5  205.68   10.80
  -1  -2  -5  200.78    9.00
  -1  -2  -5  203.08    7.70
  -1  -2  -5  201.38    7.70
  -1  -2  -5  208.38    9.40
   1   2   5  220.38    7.90
   1   2   5  208.28   10.80
   1   2   5  206.38    6.70
   1   2   5  186.88   11.50
   1   2   5  209.48    7.70
   1   2   5  202.88    9.10
   1   2   5  206.38    9.60
  -2  -2  -5   22.40    2.60
  -2  -2  -5   22.00    2.40
  -2  -2  -5   20.50    2.10
  -2  -2  -5   25.00    3.80
  -2  -2  -5   22.40    2.20
   2   2   5   20.30    3.20
   2   2   5   21.60    3.70
   2   2   5   22.00    2.90
   2   2   5   21.00    2.80
   2   2   5   20.50    2.10
   2   2   5   21.40    2.20
  -3  -2  -5  157.58    6.40
  -3  -2  -5  155.38    6.50
  -3  -2  -5  160.58    9.70
  -3  -2  -5  151.78    7.30
  -3  -2  -5  155.88    7.60
   3   2   5  131.79    9.60
   3   2   5  144.79    6.30
   3   2   5  144.79    7.80
   3   2   5  151.18    6.30
   3   2   5  145.99    9.00
  -4  -2  -5   45.20    3.30
  -4  -2  -5   38.20    4.80
  -4  -2  -5   43.30    3.80
   4   2   5   42.20    3.20
   4   2   5   38.50    3.20
   4   2   5   39.80    4.20
   4   2   5   41.50    4.40
  -5  -2  -5    1.50    1.30
  -5  -2  -5    2.60    1.60
  -5  -2  -5    2.20    1.70
   5   2   5    2.00    1.60
   5   2   5    2.10    1.00
   5   2   5    3.50    1.60
   5   2   5    3.50    1.60
  -6  -2  -5    4.10    2.30
  -6  -2  -5    3.90    2.10
  -6  -2  -5    5.30    2.00
   6   2   5    4.50    2.00
   6   2   5    6.10    1.40
  -7  -2  -5    2.90    2.00
  -7  -2  -5    1.40    2.20
  -7  -2  -5    1.60    2.60
   7   2   5    1.80    2.00
  -8  -2  -5    3.70    2.20
  -8  -2  -5    2.90    2.70
  -8  -2  -5    5.90    3.30
   8   2   5    5.60    2.70
  -9  -2  -5    6.70    3.80
  -9  -2  -5   -0.10    2.50
   9   2   5    4.10    2.60
 -10  -2  -5   -0.80    3.40
  10   2   5    3.10    3.00
   7  -3  -5   11.40    3.20
   7  -3  -5   15.30    2.80
  -7   3   5   11.40    3.00
  -7   3   5   11.10    4.10
   6  -3  -5    1.00    2.30
   6  -3  -5    5.20    2.00
  -6   3   5    3.10    2.00
  -6   3   5   -1.90    2.50
   5  -3  -5    4.60    2.40
   5  -3  -5    8.50    2.20
  -5   3   5    1.30    2.10
  -5   3   5    2.80    1.90
   4  -3  -5   21.90    2.60
   4  -3  -5   22.30    2.90
   4  -3  -5   19.10    2.70
  -4   3   5   10.90    2.40
  -4   3   5   19.50    2.10
  -4   3   5   21.60    2.60
  -4   3   5   16.00    3.10
   3  -3  -5    0.40    1.00
   3  -3  -5    1.30    1.40
   3  -3  -5   -0.10    1.30
  -3   3   5   -0.40    0.60
  -3   3   5   -0.40    1.40
  -3   3   5   -0.30    1.00
  -3   3   5   -1.20    0.90
  -3   3   5    0.10    1.20
   2  -3  -5    3.90    1.40
   2  -3  -5    3.00    1.20
   2  -3  -5    2.80    1.40
   2  -3  -5    3.60    1.60
  -2   3   5    1.40    1.10
  -2   3   5    4.00    1.30
  -2   3   5    3.30    1.10
  -2   3   5    3.50    1.40
   1  -3  -5   11.40    1.70
   1  -3  -5    9.20    1.60
  -1   3   5    9.40    1.80
  -1   3   5    9.60    1.80
  -1   3   5    5.10    1.40
  -1   3   5    9.30    1.70
   0  -3  -5  105.19    4.70
   0  -3  -5  100.09    4.60
   0  -3  -5   96.89    5.50
   0   3   5  100.99    4.60
   0   3   5  110.49    6.40
   0   3   5  105.29    6.40
   0   3   5   98.99    5.70
   0   3   5  103.29    4.70
   0   3   5   96.49    4.40
  -1  -3  -5   52.09    3.70
  -1  -3  -5   53.99    4.00
  -1  -3  -5   55.59    4.90
  -1  -3  -5   54.19    3.30
  -1  -3  -5   53.09    3.10
   1   3   5   52.09    3.10
   1   3   5   58.49    4.00
   1   3   5   55.39    3.20
   1   3   5   59.29    4.50
   1   3   5   61.59    4.90
  -2  -3  -5   61.39    4.00
  -2  -3  -5   62.89    3.60
  -2  -3  -5   68.59    4.50
  -2  -3  -5   65.69    3.20
  -2  -3  -5   59.39    5.20
  -2  -3  -5   65.99    3.80
  -2  -3  -5   64.49    2.80
   2   3   5   66.79    4.80
   2   3   5   66.89    3.80
   2   3   5   63.39    3.50
   2   3   5   67.59    5.60
   2   3   5   70.89    4.40
  -3  -3  -5   17.50    2.10
  -3  -3  -5   16.50    3.40
  -3  -3  -5   20.90    2.60
  -3  -3  -5   18.90    2.50
  -3  -3  -5   17.90    2.10
  -3  -3  -5   19.30    2.30
   3   3   5   20.10    3.10
   3   3   5   17.70    2.10
   3   3   5   19.10    3.30
   3   3   5   17.30    2.20
  -4  -3  -5    2.70    1.60
  -4  -3  -5    3.00    1.50
  -4  -3  -5    3.90    1.40
   4   3   5    2.60    1.30
   4   3   5    4.10    1.50
   4   3   5    4.10    1.40
  -5  -3  -5    1.20    1.30
  -5  -3  -5    1.70    1.60
  -5  -3  -5    2.50    1.70
   5   3   5    2.10    1.50
   5   3   5    0.10    1.00
   5   3   5    1.40    1.50
  -6  -3  -5    9.60    2.60
  -6  -3  -5   14.20    3.10
  -6  -3  -5   19.20    3.10
   6   3   5   16.90    2.20
   6   3   5   16.80    2.90
  -7  -3  -5    6.80    2.70
  -7  -3  -5   14.20    3.70
  -7  -3  -5   13.10    2.90
   7   3   5   11.00    2.90
  -8  -3  -5    5.60    2.60
  -8  -3  -5    1.40    2.40
  -8  -3  -5    2.00    3.10
   8   3   5    6.90    2.70
  -9  -3  -5   -1.40    2.60
  -9  -3  -5    0.80    2.60
   9   3   5    2.30    2.90
 -10  -3  -5   -1.70    2.90
 -10  -3  -5    0.30    3.90
  10   3   5   -1.20    2.80
   7  -4  -5    2.00    2.60
  -7   4   5    1.60    2.10
  -7   4   5   -3.50    2.70
   6  -4  -5    6.90    3.00
   6  -4  -5    7.50    2.00
  -6   4   5    3.90    2.70
  -6   4   5    3.80    2.00
   5  -4  -5   -2.00    1.80
   5  -4  -5    0.30    1.40
  -5   4   5   -1.00    1.80
  -5   4   5   -0.10    1.40
   4  -4  -5    6.80    2.70
   4  -4  -5    5.90    2.30
   4  -4  -5    8.20    1.80
  -4   4   5    5.40    1.70
  -4   4   5    3.30    2.00
   3  -4  -5   52.99    3.40
   3  -4  -5   45.30    4.00
   3  -4  -5   46.80    4.00
   3  -4  -5   47.00    3.30
  -3   4   5   48.60    3.90
  -3   4   5   50.29    5.10
  -3   4   5   47.00    4.60
  -3   4   5   48.40    3.00
   2  -4  -5   28.10    2.50
   2  -4  -5   22.60    2.70
   2  -4  -5   28.50    2.90
   2  -4  -5   26.40    2.40
  -2   4   5   30.10    3.20
  -2   4   5   30.50    2.90
  -2   4   5   26.20    3.60
  -2   4   5   26.00    2.20
   1  -4  -5   37.90    2.70
   1  -4  -5   36.20    2.90
   1  -4  -5   40.40    2.80
   1  -4  -5   35.00    2.60
  -1   4   5   36.10    3.00
  -1   4   5   40.90    4.40
  -1   4   5   35.50    3.90
  -1   4   5   34.30    3.50
  -1   4   5   39.40    2.60
  -1   4   5   37.10    2.70
   0  -4  -5  252.87    8.70
   0  -4  -5  241.68    8.70
   0  -4  -5  246.78   10.40
   0   4   5  230.08    8.80
   0   4   5  245.38   11.90
   0   4   5  255.47   12.70
   0   4   5  234.58   10.50
   0   4   5  257.27    8.80
   0   4   5  223.78    8.80
  -1  -4  -5   24.60    2.70
  -1  -4  -5   26.40    2.10
  -1  -4  -5   23.60    2.20
  -1  -4  -5   21.80    2.30
   1   4   5   23.20    2.20
   1   4   5   21.70    3.20
   1   4   5   22.20    3.60
   1   4   5   21.30    2.60
  -2  -4  -5   81.09    4.60
  -2  -4  -5   76.69    3.50
  -2  -4  -5   71.29    5.90
  -2  -4  -5   76.99    4.10
  -2  -4  -5   80.89    4.10
  -2  -4  -5   69.89    3.30
   2   4   5   83.69    4.70
   2   4   5   78.49    5.50
   2   4   5   73.89    4.10
   2   4   5   79.29    6.40
  -3  -4  -5    4.80    1.60
  -3  -4  -5    5.80    1.20
  -3  -4  -5    8.80    1.80
  -3  -4  -5    4.20    1.10
  -3  -4  -5    7.90    1.80
   3   4   5    8.20    1.70
   3   4   5    5.20    1.30
  -4  -4  -5   34.50    3.20
  -4  -4  -5   33.50    3.30
  -4  -4  -5   36.50    5.30
  -4  -4  -5   37.90    3.60
   4   4   5   32.40    3.20
   4   4   5   34.40    4.30
  -5  -4  -5    2.30    1.80
  -5  -4  -5    2.20    1.40
  -5  -4  -5    4.10    1.90
   5   4   5    1.50    1.10
   5   4   5    3.50    1.80
   5   4   5    2.60    1.60
  -6  -4  -5    9.80    2.70
  -6  -4  -5    6.10    2.30
  -6  -4  -5   11.90    2.50
   6   4   5    7.40    2.10
   6   4   5   11.70    2.60
   6   4   5    4.50    1.30
  -7  -4  -5   89.69    8.10
  -7  -4  -5   96.89   10.00
  -7  -4  -5   87.09    5.70
   7   4   5   87.39    6.00
  -8  -4  -5    3.20    2.70
  -8  -4  -5   11.10    3.00
  -8  -4  -5    7.60    3.20
   8   4   5   13.70    3.20
  -9  -4  -5    0.20    2.20
  -9  -4  -5   -4.80    2.90
  -9  -4  -5   -2.00    2.50
   9   4   5    1.50    2.50
 -10  -4  -5   -3.40    2.50
 -10  -4  -5    0.90    3.30
  10   4   5   -1.10    2.40
   6  -5  -5    2.10    2.00
  -6   5   5    1.70    2.30
  -6   5   5    0.80    1.70
   5  -5  -5    2.00    3.20
   5  -5  -5    2.50    1.90
   5  -5  -5    1.90    1.10
  -5   5   5    0.80    2.20
  -5   5   5    1.40    1.50
   4  -5  -5    0.60    1.50
   4  -5  -5   -1.00    2.40
   4  -5  -5   -0.80    1.00
  -4   5   5    1.80    0.80
  -4   5   5    1.00    1.50
  -4   5   5   -0.70    1.30
   3  -5  -5    0.60    2.10
   3  -5  -5    0.10    0.90
   3  -5  -5    1.10    1.80
   3  -5  -5   -0.50    1.10
  -3   5   5    0.60    1.50
  -3   5   5    1.00    0.70
  -3   5   5   -0.60    1.10
   2  -5  -5   20.00    2.80
   2  -5  -5   21.20    2.30
   2  -5  -5   22.90    3.10
  -2   5   5   21.60    3.50
  -2   5   5   23.00    3.00
  -2   5   5   21.50    1.80
   1  -5  -5    4.20    1.30
   1  -5  -5    6.10    1.80
   1  -5  -5    3.90    1.70
   1  -5  -5    6.20    1.40
  -1   5   5    1.40    1.30
  -1   5   5    3.20    1.00
  -1   5   5    4.40    1.10
  -1   5   5    1.40    1.00
  -1   5   5    4.80    1.80
   0  -5  -5  108.89    4.80
   0  -5  -5  100.09    4.40
   0  -5  -5  105.89    4.70
   0  -5  -5   99.59    5.60
   0   5   5   92.89    6.80
   0   5   5  105.09    5.90
   0   5   5  104.09    4.50
   0   5   5  105.49    7.40
   0   5   5  103.89    4.60
  -1  -5  -5   16.20    2.00
  -1  -5  -5   15.40    2.20
  -1  -5  -5   14.80    2.00
  -1  -5  -5   11.00    1.80
   1   5   5   10.90    0.90
   1   5   5   16.60    3.10
   1   5   5   14.80    2.00
   1   5   5   16.30    2.40
  -2  -5  -5    6.10    1.10
  -2  -5  -5    8.10    1.70
  -2  -5  -5    8.80    1.80
   2   5   5    8.40    1.70
   2   5   5    4.60    1.40
   2   5   5    5.40    1.10
  -3  -5  -5    1.70    1.10
  -3  -5  -5    2.00    1.50
  -3  -5  -5    2.50    1.40
  -3  -5  -5    1.70    0.90
   3   5   5    1.40    1.00
   3   5   5    3.20    0.90
   3   5   5    2.10    1.40
  -4  -5  -5    0.00    1.40
  -4  -5  -5   -0.20    0.80
  -4  -5  -5   -0.50    1.30
  -4  -5  -5   -0.50    1.50
   4   5   5    0.30    1.00
   4   5   5   -1.40    1.30
   4   5   5   -0.60    0.70
  -5  -5  -5   -0.10    1.20
  -5  -5  -5   -0.90    0.90
  -5  -5  -5   -0.40    1.50
  -5  -5  -5   -1.00    1.60
   5   5   5    0.40    1.50
   5   5   5   -0.90    1.40
  -6  -5  -5    6.30    2.10
  -6  -5  -5    7.20    2.70
  -6  -5  -5    9.10    2.70
   6   5   5    8.00    2.50
   6   5   5    8.00    2.40
  -7  -5  -5    1.00    2.60
  -7  -5  -5   -0.40    1.90
  -7  -5  -5    3.60    2.30
   7   5   5    3.50    2.00
   7   5   5    0.50    0.60
  -8  -5  -5    0.50    2.30
  -8  -5  -5    1.90    1.90
  -8  -5  -5   -0.40    3.00
   8   5   5    2.10    2.50
  -9  -5  -5    4.80    3.00
  -9  -5  -5    7.40    4.00
  -9  -5  -5   11.20    3.30
   9   5   5   12.80    3.70
 -10  -5  -5   -1.40    2.60
 -10  -5  -5    0.10    4.10
  10   5   5    4.20    3.00
   6  -6  -5    4.90    2.80
   6  -6  -5    4.00    4.00
  -6   6   5    3.30    2.00
  -6   6   5    6.60    2.90
   5  -6  -5   -2.50    3.00
   5  -6  -5    1.70    2.20
  -5   6   5    1.80    1.60
  -5   6   5    3.40    2.30
   4  -6  -5   14.20    3.10
   4  -6  -5   22.90    4.10
  -4   6   5   26.50    4.40
  -4   6   5   23.20    4.40
   3  -6  -5   17.30    3.40
   3  -6  -5   20.70    1.70
   3  -6  -5   20.00    1.70
   3  -6  -5   22.60    3.30
  -3   6   5   19.80    3.50
  -3   6   5   12.60    2.50
   2  -6  -5   -0.10    0.90
   2  -6  -5   -1.00    1.00
   2  -6  -5    0.50    1.90
   2  -6  -5   -0.70    1.10
  -2   6   5   -0.50    1.10
  -2   6   5   -0.10    1.10
  -2   6   5    0.20    0.60
  -2   6   5    0.90    1.10
   1  -6  -5   15.00    1.90
   1  -6  -5   15.80    2.10
   1  -6  -5   13.90    2.60
   1  -6  -5   18.50    2.80
  -1   6   5   15.60    1.60
  -1   6   5   17.80    3.10
  -1   6   5   17.70    3.60
  -1   6   5   18.90    2.30
   0  -6  -5    4.60    1.30
   0  -6  -5    3.00    1.60
   0  -6  -5    4.30    1.40
   0  -6  -5    5.70    1.80
   0   6   5    1.90    1.20
   0   6   5    2.80    1.00
   0   6   5    2.30    1.10
  -1  -6  -5   19.10    2.30
  -1  -6  -5   19.70    2.30
  -1  -6  -5   19.10    2.50
  -1  -6  -5   19.40    2.50
  -1  -6  -5   17.40    2.20
   1   6   5   15.80    2.10
   1   6   5   13.70    1.80
   1   6   5   17.10    3.40
   1   6   5   18.90    2.50
  -2  -6  -5  273.37   11.10
  -2  -6  -5  280.07   10.60
  -2  -6  -5  302.67   10.60
   2   6   5  305.77   11.40
   2   6   5  286.07   11.50
   2   6   5  290.37   14.10
   2   6   5  286.27   10.50
  -3  -6  -5   24.00    3.00
  -3  -6  -5   24.00    2.90
  -3  -6  -5   25.20    2.70
  -3  -6  -5   21.60    2.40
   3   6   5   26.70    4.10
   3   6   5   23.50    2.80
   3   6   5   22.00    2.40
  -4  -6  -5   37.30    3.70
  -4  -6  -5   39.70    3.20
  -4  -6  -5   39.00    4.10
   4   6   5   37.60    3.30
   4   6   5   41.10    3.60
   4   6   5   38.00    4.50
  -5  -6  -5    1.80    2.00
  -5  -6  -5    0.70    2.00
  -5  -6  -5    0.40    0.90
   5   6   5    1.10    1.80
   5   6   5    1.90    1.70
  -6  -6  -5   -2.60    1.80
  -6  -6  -5    2.00    2.40
   6   6   5   -0.70    1.80
   6   6   5   -1.00    1.90
  -7  -6  -5    1.20    1.80
  -7  -6  -5    0.20    2.00
  -7  -6  -5   -1.30    2.40
   7   6   5    1.30    2.20
   7   6   5    1.00    0.90
   7   6   5   -0.50    2.00
  -8  -6  -5    0.60    2.50
  -8  -6  -5    0.00    2.10
  -8  -6  -5   -0.20    3.10
   8   6   5    0.50    2.40
  -9  -6  -5   -2.90    3.50
  -9  -6  -5    0.10    2.30
  -9  -6  -5    0.80    2.70
   9   6   5   -0.30    2.50
 -10  -6  -5    2.80    3.10
 -10  -6  -5   -6.90    3.70
  10   6   5   -1.10    2.80
   5  -7  -5   -0.90    2.10
   5  -7  -5    2.20    3.70
  -5   7   5    3.80    1.90
  -5   7   5    0.80    1.50
  -5   7   5    2.70    1.90
   4  -7  -5    2.90    1.90
   4  -7  -5    3.10    3.10
  -4   7   5    2.50    1.90
  -4   7   5    0.90    1.60
  -4   7   5    2.60    1.60
   3  -7  -5    5.70    2.10
   3  -7  -5    4.10    2.90
  -3   7   5    1.90    1.60
  -3   7   5    5.90    2.00
  -3   7   5    2.80    1.50
   2  -7  -5   21.10    1.90
   2  -7  -5   22.10    3.10
   2  -7  -5   27.00    3.80
  -2   7   5   21.00    4.30
  -2   7   5   30.10    4.20
  -2   7   5   33.70    3.60
   1  -7  -5    7.30    2.40
   1  -7  -5    5.70    1.20
   1  -7  -5    6.20    2.10
   1  -7  -5    5.70    1.50
  -1   7   5    5.30    1.00
  -1   7   5    3.70    1.60
  -1   7   5    3.80    1.30
   0  -7  -5    2.30    1.50
   0  -7  -5    0.70    1.40
   0  -7  -5    2.30    1.20
   0  -7  -5    1.00    1.50
   0  -7  -5    1.30    1.80
   0   7   5    1.00    1.20
   0   7   5    2.00    1.00
   0   7   5    1.10    0.90
  -1  -7  -5    1.50    1.70
  -1  -7  -5   -0.60    1.20
  -1  -7  -5   -0.20    1.20
  -1  -7  -5    0.10    1.40
   1   7   5   -0.90    1.00
   1   7   5    0.00    1.00
   1   7   5    0.00    1.00
   1   7   5    0.10    0.70
  -2  -7  -5   -1.00    1.20
  -2  -7  -5    1.50    1.30
  -2  -7  -5    0.50    1.60
   2   7   5   -2.10    0.90
   2   7   5   -1.10    1.10
   2   7   5    0.50    1.10
   2   7   5    0.70    0.70
  -3  -7  -5   28.80    2.20
  -3  -7  -5   28.40    3.00
  -3  -7  -5   28.40    3.30
   3   7   5   36.10    4.80
   3   7   5   31.00    3.10
   3   7   5   33.00    3.40
  -4  -7  -5   37.10    2.80
  -4  -7  -5   48.80    4.70
  -4  -7  -5   39.90    4.00
   4   7   5   39.10    3.90
   4   7   5   44.50    5.60
   4   7   5   42.00    3.90
  -5  -7  -5    0.90    2.20
  -5  -7  -5   -0.20    0.80
  -5  -7  -5    1.70    2.00
   5   7   5    0.20    1.90
   5   7   5   -0.10    1.80
  -6  -7  -5   -0.90    1.60
  -6  -7  -5    2.00    2.40
   6   7   5    0.00    2.00
   6   7   5    2.00    2.10
  -7  -7  -5   -1.00    2.70
  -7  -7  -5    1.00    2.40
   7   7   5   -0.70    2.20
   7   7   5   -0.90    2.10
   7   7   5    1.30    1.10
  -8  -7  -5    3.80    2.90
  -8  -7  -5   -0.70    3.20
   8   7   5    5.20    3.00
  -9  -7  -5   -3.60    3.60
  -9  -7  -5   -1.40    2.80
   9   7   5    4.70    3.00
 -10  -7  -5   -2.40    2.70
  10   7   5    0.00    2.90
   5  -8  -5    2.20    4.10
   5  -8  -5   -0.90    1.70
  -5   8   5    0.40    1.50
  -5   8   5   -0.10    1.50
   4  -8  -5    9.40    4.10
   4  -8  -5    6.60    2.90
  -4   8   5    5.80    2.20
  -4   8   5    6.50    2.10
   3  -8  -5    0.80    2.90
   3  -8  -5    2.10    2.10
  -3   8   5    0.90    1.30
  -3   8   5    1.00    1.50
   2  -8  -5    4.70    2.90
   2  -8  -5    3.20    2.00
  -2   8   5    1.10    1.40
  -2   8   5    2.70    1.40
  -2   8   5    3.70    1.30
   1  -8  -5   16.60    2.20
   1  -8  -5   22.30    3.60
   1  -8  -5   19.40    2.90
  -1   8   5   21.40    4.30
  -1   8   5   21.60    3.50
   0  -8  -5   41.80    4.10
   0  -8  -5   35.80    3.50
   0  -8  -5   36.80    4.10
   0  -8  -5   33.40    3.10
   0  -8  -5   32.90    2.80
   0   8   5   37.80    4.00
   0   8   5   36.60    4.90
  -1  -8  -5   12.10    2.10
  -1  -8  -5   10.30    2.20
  -1  -8  -5   10.50    2.50
  -1  -8  -5   11.60    2.70
   1   8   5    6.00    1.30
   1   8   5    6.90    1.90
   1   8   5   12.30    2.00
   1   8   5    4.90    1.80
  -2  -8  -5    9.00    2.00
  -2  -8  -5    8.90    2.30
  -2  -8  -5   11.00    2.50
   2   8   5    5.70    1.00
   2   8   5    3.50    1.70
   2   8   5    4.50    1.80
   2   8   5   10.20    2.10
  -3  -8  -5   12.30    2.70
  -3  -8  -5   11.00    2.40
   3   8   5    8.40    2.20
   3   8   5    7.10    2.00
   3   8   5   11.40    2.60
  -4  -8  -5   -0.90    1.90
   4   8   5    1.50    1.80
   4   8   5    2.50    1.80
  -5  -8  -5   11.90    2.90
  -5  -8  -5   14.40    3.10
   5   8   5   10.00    2.50
   5   8   5   18.50    3.30
  -6  -8  -5   15.90    3.40
  -6  -8  -5    8.20    3.00
   6   8   5   12.70    3.20
   6   8   5    5.30    2.60
   6   8   5   22.60    4.60
  -7  -8  -5    0.30    2.50
  -7  -8  -5    0.30    3.00
   7   8   5    1.40    1.30
   7   8   5   -0.60    2.20
   7   8   5    1.50    2.40
  -8  -8  -5    5.50    3.20
  -8  -8  -5    0.20    3.20
   8   8   5    2.60    2.60
  -9  -8  -5    1.10    3.90
  -9  -8  -5   -0.60    2.90
   9   8   5    3.00    3.10
   4  -9  -5    6.80    4.20
   4  -9  -5    3.00    2.50
  -4   9   5    3.60    1.90
  -4   9   5    3.70    1.80
   3  -9  -5    0.40    1.90
   3  -9  -5    0.90    3.30
  -3   9   5    1.10    1.40
  -3   9   5    2.00    1.50
   2  -9  -5    2.00    1.80
   2  -9  -5    1.10    2.70
  -2   9   5    1.50    1.60
  -2   9   5    1.20    1.30
   1  -9  -5    7.30    2.20
   1  -9  -5    7.90    2.90
   1  -9  -5    7.40    1.40
  -1   9   5    6.50    1.60
  -1   9   5    3.50    1.80
   0  -9  -5  105.49    6.60
   0  -9  -5  103.99    5.40
   0  -9  -5   90.39    5.70
   0  -9  -5  110.59    7.10
   0   9   5  111.79    6.40
   0   9   5  105.89    8.40
  -1  -9  -5    7.60    2.50
  -1  -9  -5    3.40    2.00
  -1  -9  -5    0.20    1.90
  -1  -9  -5    1.90    1.50
   1   9   5   -0.20    0.80
   1   9   5    0.50    1.40
  -2  -9  -5   -0.80    1.60
  -2  -9  -5   -1.10    1.60
  -2  -9  -5   -0.40    1.90
   2   9   5   -1.20    1.30
   2   9   5    0.70    1.20
  -3  -9  -5   23.40    3.60
   3   9   5   26.10    3.40
  -4  -9  -5    0.40    2.00
   4   9   5    0.30    1.70
   4   9   5    1.80    1.90
  -5  -9  -5    0.20    2.20
   5   9   5   -0.20    2.00
   5   9   5   -1.80    2.00
  -6  -9  -5   -0.70    2.70
  -6  -9  -5    1.00    2.50
   6   9   5    0.90    2.20
   6   9   5   -1.00    2.10
   6   9   5    2.60    1.90
  -7  -9  -5    5.50    3.30
  -7  -9  -5    3.20    3.00
   7   9   5    7.60    3.10
   7   9   5    0.30    2.80
  -8  -9  -5   17.00    4.80
  -8  -9  -5   30.30    5.20
   8   9   5   32.00    5.20
  -9  -9  -5   -5.40    3.40
  -9  -9  -5    1.60    3.10
   9   9   5    1.00    2.90
   3 -10  -5    0.40    2.10
   3 -10  -5    4.70    3.80
  -3  10   5    1.20    1.40
   2 -10  -5   -2.20    3.10
   2 -10  -5    1.20    1.90
  -2  10   5    0.30    1.40
   1 -10  -5    0.40    2.60
   1 -10  -5    0.70    1.60
  -1  10   5   -0.90    1.10
   0 -10  -5    2.90    1.80
   0 -10  -5    3.10    1.70
   0 -10  -5    3.90    2.90
   0 -10  -5    2.60    2.30
   0  10   5    2.40    1.60
  -1 -10  -5   15.40    3.60
  -1 -10  -5   14.10    3.20
  -1 -10  -5   13.50    2.50
  -1 -10  -5   17.10    2.90
   1  10   5   10.90    2.60
  -2 -10  -5   15.20    3.50
  -2 -10  -5    9.80    2.20
  -2 -10  -5   10.00    2.90
  -2 -10  -5   10.60    3.10
   2  10   5    4.90    2.10
  -3 -10  -5    6.60    2.80
   3  10   5    2.90    2.00
  -4 -10  -5    0.10    2.30
   4  10   5    2.10    2.10
   4  10   5   -0.10    1.90
  -5 -10  -5   -1.00    2.60
   5  10   5   -2.70    1.80
   5  10   5    0.80    2.00
   5  10   5    4.50    2.30
  -6 -10  -5    2.20    2.90
   6  10   5    5.80    2.40
   6  10   5   -2.60    2.50
   6  10   5    1.90    2.40
  -7 -10  -5   -1.20    3.10
  -7 -10  -5    1.50    3.10
   7  10   5   -0.70    2.30
   7  10   5   -4.30    2.40
  -8 -10  -5    1.10    3.10
  -8 -10  -5   -4.40    3.30
   8  10   5    1.20    2.70
   1 -11  -5    1.00    3.30
   1 -11  -5   -0.20    1.70
  -1  11   5    1.90    1.60
   0 -11  -5    6.90    3.60
   0 -11  -5    6.80    2.00
   0 -11  -5    6.40    2.30
   0 -11  -5    6.90    3.00
   0  11   5    5.00    2.00
  -1 -11  -5    1.00    2.00
  -1 -11  -5    2.00    1.60
  -1 -11  -5    0.80    2.60
  -1 -11  -5    1.70    2.10
   1  11   5   -0.40    1.40
  -2 -11  -5   52.79    5.50
  -2 -11  -5   60.49    5.20
  -2 -11  -5   57.69    5.60
  -2 -11  -5   50.29    4.10
   2  11   5   52.99    7.10
  -3 -11  -5    5.40    2.70
  -3 -11  -5    5.30    3.00
  -3 -11  -5    4.40    3.00
   3  11   5    2.70    2.10
   3  11   5    7.80    3.00
  -4 -11  -5    2.00    2.60
   4  11   5    4.60    2.60
   4  11   5   -2.10    1.80
  -5 -11  -5   -0.80    2.60
   5  11   5   -1.10    2.10
   5  11   5    4.00    2.50
  -6 -11  -5   -0.30    2.70
   6  11   5    1.40    2.50
  -1 -12  -5    1.20    3.00
  -1 -12  -5   -1.20    1.90
   1  12   5   -1.80    1.30
  -2 -12  -5    7.40    3.50
  -2 -12  -5    2.70    2.50
  -3 -12  -5    6.90    3.30
  -3 -12  -5    3.60    2.90
   3  12   5    1.20    2.40
  -4 -12  -5    4.10    2.90
  -5 -12  -5    3.70    3.10
  -6 -12  -5   -0.10    2.90
  -3  -8   6   -0.80    3.20
   2   8  -6   -7.20    4.20
  -2  -8   6   -1.50    3.20
   0  -8   6    0.80    2.50
   1  -8   6   -0.30    2.10
   1  -8   6    4.80    3.10
   1  -8   6   -2.20    2.90
  -2   8  -6   24.00    5.50
   4   7  -6    0.60    3.00
  -4  -7   6   -1.40    3.20
   3   7  -6   -0.30    2.50
  -3  -7   6   -2.80    2.90
   2   7  -6    8.10    3.20
  -2  -7   6    5.90    3.50
   1   7  -6   -0.90    2.10
  -1  -7   6   -0.80    3.30
   0   7  -6    6.50    2.40
   0   7  -6   -0.60    2.60
   0  -7   6   -2.30    2.50
   0  -7   6    0.70    2.40
  -1   7  -6   -3.20    3.20
  -1   7  -6    4.50    2.50
   1  -7   6    2.80    2.50
   1  -7   6   -0.80    1.80
   1  -7   6    0.40    2.80
  -2   7  -6    4.60    2.40
  -2   7  -6    0.00    3.20
   2  -7   6    1.70    2.70
   2  -7   6   -0.60    2.60
   2  -7   6    0.70    1.90
  -3   7  -6    5.70    4.10
   3  -7   6    6.60    3.60
   3  -7   6    9.20    3.10
  -4   7  -6   -0.70    3.20
  -4   7  -6    5.50    2.40
   4  -7   6    1.10    3.00
   4  -7   6    1.60    2.30
   5   6  -6    1.00    3.00
  -5  -6   6   -1.20    3.10
   4   6  -6   -1.20    2.00
  -4  -6   6    1.30    3.10
  -4  -6   6   -3.50    1.70
   3   6  -6    0.60    2.60
  -3  -6   6   -1.50    2.70
  -3  -6   6   -2.20    1.70
   2   6  -6    2.20    3.90
   2   6  -6   11.40    3.30
  -2  -6   6   11.20    3.60
  -2  -6   6    4.50    2.20
   1   6  -6    1.10    2.20
   1   6  -6   -2.50    2.90
  -1  -6   6   -1.70    2.50
   0   6  -6    8.30    2.70
   0   6  -6    5.30    3.70
   0   6  -6   14.70    3.30
   0  -6   6    9.80    2.80
   0  -6   6    9.60    3.70
  -1   6  -6    2.80    2.10
  -1   6  -6   -3.00    2.70
   1  -6   6    1.70    2.10
   1  -6   6    1.60    2.40
  -2   6  -6    0.40    2.20
  -2   6  -6    3.50    2.00
   2  -6   6    1.40    2.30
   2  -6   6    4.60    2.10
   2  -6   6    0.60    2.10
  -3   6  -6    5.10    3.50
  -3   6  -6   10.80    3.30
   3  -6   6    9.00    2.80
   3  -6   6   10.20    2.70
   3  -6   6    8.20    2.80
  -4   6  -6    3.60    2.50
  -4   6  -6   -0.40    2.70
   4  -6   6    2.30    2.80
   4  -6   6    4.10    2.50
  -5   6  -6   -0.50    2.90
  -5   6  -6    2.30    2.50
   5  -6   6   -1.80    2.90
   5  -6   6    3.70    2.30
   6   5  -6    7.20    3.60
  -6  -5   6   -0.60    3.00
  -6  -5   6   -3.30    2.00
   5   5  -6    2.20    3.00
  -5  -5   6    0.00    2.90
  -5  -5   6   -2.10    1.90
   4   5  -6   -1.60    3.80
   4   5  -6    3.30    2.90
  -4  -5   6    4.20    3.20
  -4  -5   6   -1.20    1.80
   3   5  -6    0.80    3.60
   3   5  -6    6.80    3.10
  -3  -5   6    4.40    3.20
  -3  -5   6    2.90    2.10
   2   5  -6    1.70    2.50
   2   5  -6    2.60    1.60
   2   5  -6   -1.10    3.10
  -2  -5   6   -1.80    1.70
  -2  -5   6    3.70    2.90
   1   5  -6   -3.60    2.60
   1   5  -6    1.50    1.50
   1   5  -6   -0.30    1.90
  -1  -5   6   -1.20    1.50
  -1  -5   6   -1.50    2.20
   0   5  -6   51.99    4.90
   0   5  -6   72.59    8.00
   0   5  -6   55.09   10.20
   0  -5   6   54.89    5.50
  -1   5  -6    3.10    2.00
  -1   5  -6    1.00    1.90
  -1   5  -6    0.10    2.80
   1  -5   6    0.20    1.70
   1  -5   6   -2.70    2.40
  -2   5  -6   37.40    8.60
  -2   5  -6   29.50    3.60
  -2   5  -6   42.70    7.60
   2  -5   6   34.60    4.70
   2  -5   6   36.40    4.20
   2  -5   6   32.60    3.60
  -3   5  -6    0.90    1.90
  -3   5  -6   -0.30    2.70
   3  -5   6    0.80    2.30
   3  -5   6    0.70    1.60
   3  -5   6   -2.40    2.00
  -4   5  -6    1.00    1.70
  -4   5  -6   -3.60    2.30
   4  -5   6    0.70    2.10
   4  -5   6    4.70    2.70
  -5   5  -6    5.80    2.90
  -5   5  -6    0.10    2.60
   5  -5   6    6.40    2.90
   5  -5   6    5.00    2.30
   5  -5   6    6.40    3.10
  -6   5  -6   -0.40    2.10
  -6   5  -6   -1.90    2.70
   6  -5   6    2.00    1.80
   6  -5   6   -4.60    2.50
   7   4  -6    6.10    3.80
  -7  -4   6    5.40    3.80
  -7  -4   6    0.40    2.60
  -7  -4   6    3.70    4.40
   6   4  -6    4.70    3.40
   6   4  -6   -2.80    3.30
  -6  -4   6    7.50    3.60
  -6  -4   6    0.50    2.50
  -6  -4   6    0.20    3.60
   5   4  -6    4.90    3.20
   5   4  -6   -0.10    3.70
  -5  -4   6    3.90    3.70
  -5  -4   6    7.40    3.40
  -5  -4   6    0.50    2.30
   4   4  -6   10.50    3.50
   4   4  -6    2.20    3.70
  -4  -4   6    4.80    2.20
  -4  -4   6   12.90    3.80
   3   4  -6    2.40    2.60
   3   4  -6    0.50    3.30
  -3  -4   6    2.80    2.00
  -3  -4   6    6.50    3.10
   2   4  -6    2.00    1.10
   2   4  -6   -0.10    2.10
   2   4  -6   -2.20    2.80
  -2  -4   6    0.80    2.30
  -2  -4   6   -3.00    1.50
   1   4  -6    1.00    2.80
   1   4  -6    2.70    2.20
   1   4  -6    2.20    1.60
  -1  -4   6    1.00    0.30
  -1  -4   6    0.60    0.20
  -1  -4   6   -0.20    1.50
  -1  -4   6    3.40    2.50
   0   4  -6    8.40    2.30
   0   4  -6    8.20    3.30
   0   4  -6   12.00    2.70
   0  -4   6   10.50    3.00
  -1   4  -6  148.19    7.60
  -1   4  -6  156.08   11.50
  -1   4  -6  165.08   13.80
   1  -4   6  154.78    8.10
   1  -4   6  146.29    7.20
  -2   4  -6   79.79    5.30
  -2   4  -6   91.29    9.50
  -2   4  -6   88.19   10.20
   2  -4   6   76.39    5.10
   2  -4   6   78.59    4.70
   2  -4   6   78.09    5.70
  -3   4  -6   -0.50    1.20
  -3   4  -6   -2.10    2.00
  -3   4  -6   -0.10    1.50
   3  -4   6    0.00    1.60
   3  -4   6   -0.80    1.30
   3  -4   6   -1.00    1.80
   3  -4   6   -1.20    1.70
  -4   4  -6   10.10    3.20
  -4   4  -6    7.80    3.20
   4  -4   6   18.10    3.30
   4  -4   6   13.20    3.20
   4  -4   6   12.50    3.20
  -5   4  -6   -1.70    2.00
  -5   4  -6    3.50    2.50
   5  -4   6    2.20    2.20
   5  -4   6    0.90    1.90
   5  -4   6   -0.30    2.20
  -6   4  -6   -2.20    2.00
  -6   4  -6   -1.10    2.10
   6  -4   6    1.00    1.90
   6  -4   6    0.90    2.70
   6  -4   6    0.30    2.00
  -7   4  -6    2.40    2.60
   7  -4   6    0.60    1.70
   7  -4   6    0.90    3.10
   7   3  -6    7.70    3.70
   7   3  -6    3.90    2.40
  -7  -3   6    1.80    3.20
  -7  -3   6   -0.10    3.80
  -7  -3   6    2.70    2.50
   6   3  -6    3.10    3.30
   6   3  -6    9.90    3.60
   6   3  -6   11.30    2.60
  -6  -3   6    5.40    2.60
  -6  -3   6    7.20    3.90
  -6  -3   6    4.40    3.10
   5   3  -6    0.60    1.40
   5   3  -6    1.70    2.60
   5   3  -6   -3.30    2.80
  -5  -3   6   -0.90    2.10
  -5  -3   6    0.10    2.90
  -5  -3   6    2.90    2.80
   4   3  -6   -1.20    2.80
   4   3  -6    4.10    2.70
   4   3  -6    3.80    1.50
  -4  -3   6    1.40    1.90
  -4  -3   6    1.90    2.30
  -4  -3   6    3.00    2.50
   3   3  -6    0.00    2.20
   3   3  -6    2.10    1.00
   3   3  -6    3.70    2.50
   3   3  -6    2.10    1.10
  -3  -3   6    2.00    2.60
  -3  -3   6    2.60    1.80
   2   3  -6    0.00    0.90
   2   3  -6   -0.20    0.70
   2   3  -6   -1.60    2.60
   2   3  -6   -1.30    1.90
  -2  -3   6   -1.70    1.50
  -2  -3   6   -0.10    1.50
   1   3  -6    1.30    2.60
   1   3  -6    3.30    1.00
   1   3  -6    0.40    1.20
   1   3  -6    0.70    2.00
  -1  -3   6    1.90    1.60
  -1  -3   6    0.70    0.60
  -1  -3   6    1.50    2.30
   0   3  -6   -0.20    1.20
   0   3  -6   -0.50    2.30
   0   3  -6    1.00    1.80
   0  -3   6   -1.30    1.50
   0  -3   6   -0.50    1.60
  -1   3  -6    4.90    2.10
  -1   3  -6    4.20    2.20
  -1   3  -6    3.50    1.80
   1  -3   6    5.90    1.70
   1  -3   6    4.70    1.90
   1  -3   6    6.50    2.50
  -2   3  -6   45.50    6.50
  -2   3  -6   35.40    5.80
  -2   3  -6   37.90    4.20
   2  -3   6   38.00    3.10
   2  -3   6   37.80    4.20
   2  -3   6   36.30    3.50
   2  -3   6   37.50    3.80
   2  -3   6   43.60    4.00
  -3   3  -6   72.69    4.80
  -3   3  -6   83.69    9.20
  -3   3  -6   84.09    9.30
   3  -3   6   66.79    4.90
   3  -3   6   70.39    5.50
   3  -3   6   75.09    5.40
   3  -3   6   72.09    5.10
  -4   3  -6   58.79    8.10
  -4   3  -6   60.09    4.20
  -4   3  -6   49.50    7.40
   4  -3   6   59.39    4.50
   4  -3   6   52.49    4.50
   4  -3   6   55.09    5.10
  -5   3  -6   14.10    3.40
  -5   3  -6   13.20    3.50
   5  -3   6   22.70    3.70
   5  -3   6   27.40    4.00
  -6   3  -6   -0.40    1.90
  -6   3  -6   -2.30    2.00
   6  -3   6   -1.00    1.80
   6  -3   6    1.10    1.80
   6  -3   6   -1.20    2.20
  -7   3  -6   -0.80    2.00
   7  -3   6    1.80    2.20
   7  -3   6    1.80    2.00
   7  -3   6    1.80    1.90
  -8   3  -6    3.20    2.80
   8  -3   6   -3.00    3.10
   8  -3   6   -2.10    1.70
   7   2  -6    5.50    3.40
   7   2  -6    5.00    2.40
  -7  -2   6    1.40    2.50
  -7  -2   6   -2.20    3.50
   6   2  -6    2.40    3.00
   6   2  -6   -1.10    1.50
  -6  -2   6    0.30    2.00
  -6  -2   6   -0.80    2.40
  -6  -2   6    2.50    3.30
   5   2  -6   65.09    4.60
   5   2  -6   76.59    6.30
   5   2  -6   69.69   10.20
  -5  -2   6   78.99    6.30
  -5  -2   6   81.19    8.60
  -5  -2   6   75.69    7.60
   4   2  -6   35.20    4.60
   4   2  -6   37.00    3.30
  -4  -2   6   35.50    6.30
  -4  -2   6   41.40    5.80
  -4  -2   6   42.10    4.80
   3   2  -6   63.99    3.80
   3   2  -6   63.19    4.50
   3   2  -6   63.89    5.00
   3   2  -6   67.69    9.70
  -3  -2   6   70.39    5.60
  -3  -2   6   67.99    6.90
  -3  -2   6   67.89    6.30
   2   2  -6    0.10    1.90
   2   2  -6   -0.20    0.80
   2   2  -6    1.70    2.70
   2   2  -6    0.70    0.90
  -2  -2   6   -0.40    2.00
  -2  -2   6    0.50    1.40
   1   2  -6    1.80    1.10
   1   2  -6    1.80    1.50
   1   2  -6    2.40    1.90
  -1  -2   6    0.70    1.40
  -1  -2   6    1.20    1.60
   0   2  -6    2.00    1.80
   0   2  -6   -0.40    1.00
   0   2  -6    2.50    1.80
   0  -2   6    0.30    1.40
   0  -2   6    2.80    2.00
  -1   2  -6   85.39    7.60
  -1   2  -6   94.79    5.40
  -1   2  -6   94.09    9.30
   1  -2   6   83.09    4.40
   1  -2   6   93.59    5.60
   1  -2   6   89.19    4.80
   1  -2   6   90.19    6.60
  -2   2  -6    6.40    2.00
  -2   2  -6    1.40    1.50
  -2   2  -6    3.30    2.20
   2  -2   6    6.20    1.90
   2  -2   6    5.10    1.60
   2  -2   6    5.30    1.70
   2  -2   6    4.60    1.20
   2  -2   6    4.40    2.00
  -3   2  -6  677.03   32.00
  -3   2  -6  636.94   32.20
  -3   2  -6  608.14   20.70
   3  -2   6  627.74   23.60
   3  -2   6  614.04   19.80
   3  -2   6  626.84   21.20
  -4   2  -6   28.10    3.40
  -4   2  -6   26.30    5.60
  -4   2  -6   23.90    2.70
  -4   2  -6   33.80    6.50
   4  -2   6   28.70    3.10
   4  -2   6   35.00    4.00
   4  -2   6   27.20    3.50
   4  -2   6   30.00    3.60
  -5   2  -6   22.80    3.00
  -5   2  -6   12.00    3.40
   5  -2   6   20.50    3.70
   5  -2   6   20.10    3.40
   5  -2   6   25.20    3.60
  -6   2  -6    4.80    2.70
  -6   2  -6    2.60    2.20
   6  -2   6    6.60    2.40
   6  -2   6    7.60    2.80
   6  -2   6    9.50    3.20
  -7   2  -6    2.70    2.40
  -7   2  -6    1.60    2.40
   7  -2   6    0.80    2.70
   7  -2   6    1.70    2.00
   7  -2   6    0.70    1.70
  -8   2  -6    1.70    2.60
  -8   2  -6    6.60    3.00
   8  -2   6    2.40    3.20
   8  -2   6   -0.90    2.00
   7   1  -6    3.30    3.10
   7   1  -6   -0.40    1.90
  -7  -1   6   -1.90    1.90
  -7  -1   6    1.90    3.80
   6   1  -6    5.20    2.40
   6   1  -6    8.40    3.10
  -6  -1   6    5.30    2.70
  -6  -1   6    2.00    3.40
  -6  -1   6    3.10    2.30
   5   1  -6    5.50    2.00
   5   1  -6    5.90    2.80
  -5  -1   6    5.30    2.30
  -5  -1   6    5.80    3.30
  -5  -1   6    8.70    3.00
   4   1  -6   29.80    3.30
   4   1  -6   36.00    7.60
   4   1  -6   29.00    4.40
  -4  -1   6   39.90    5.70
  -4  -1   6   40.20    6.00
  -4  -1   6   29.20    4.30
   3   1  -6   15.40    3.70
   3   1  -6   17.10    3.30
   3   1  -6   20.80    2.30
  -3  -1   6   26.50    4.90
  -3  -1   6   19.40    3.50
  -3  -1   6   11.60    2.40
   2   1  -6    2.10    0.90
   2   1  -6    3.00    2.10
   2   1  -6    3.60    2.10
   2   1  -6    7.60    1.50
  -2  -1   6    2.60    1.50
  -2  -1   6    4.50    2.20
   1   1  -6   65.09    8.30
   1   1  -6   63.99    5.10
   1   1  -6   60.99    4.30
  -1  -1   6   63.39    5.40
  -1  -1   6   63.29    4.50
   0   1  -6    3.20    2.30
   0   1  -6    2.70    1.80
   0   1  -6    2.10    1.20
   0  -1   6    2.30    0.80
   0  -1   6    2.90    1.90
   0  -1   6    3.10    1.50
   0  -1   6    2.70    0.90
  -1   1  -6    0.00    1.40
  -1   1  -6   -0.40    1.00
  -1   1  -6    1.80    1.90
   1  -1   6    0.70    1.30
   1  -1   6    0.40    1.30
   1  -1   6    0.10    0.50
  -2   1  -6    4.90    1.80
  -2   1  -6    4.30    2.20
  -2   1  -6    2.20    1.60
   2  -1   6    3.50    1.70
   2  -1   6    3.50    1.30
   2  -1   6    4.20    0.90
   2  -1   6    2.70    0.80
   2  -1   6    3.70    1.90
  -3   1  -6    2.40    1.90
  -3   1  -6    2.50    1.70
  -3   1  -6    1.80    1.50
  -3   1  -6    2.10    0.60
   3  -1   6    5.80    1.70
   3  -1   6    3.20    1.80
   3  -1   6    6.20    1.90
  -4   1  -6    0.50    1.70
  -4   1  -6    0.00    1.40
  -4   1  -6    0.40    1.70
  -4   1  -6    0.20    0.70
   4  -1   6   -0.10    1.80
   4  -1   6   -0.80    1.50
   4  -1   6    0.70    1.60
  -5   1  -6  219.48   14.20
  -5   1  -6  215.58   15.00
  -5   1  -6  239.88    9.40
   5  -1   6  223.38    9.20
   5  -1   6  237.18    9.50
   5  -1   6  222.58    9.50
  -6   1  -6    2.40    1.70
  -6   1  -6    0.90    2.20
  -6   1  -6   -1.50    1.70
   6  -1   6    1.60    2.10
   6  -1   6    1.10    2.00
  -7   1  -6   -0.20    2.20
  -7   1  -6    2.30    2.40
   7  -1   6   -1.90    1.80
   7  -1   6   -2.00    2.10
  -8   1  -6    6.70    3.30
  -8   1  -6    1.90    2.60
   8  -1   6    3.20    2.30
   8  -1   6    2.40    3.00
   8  -1   6    5.20    2.70
  -9   1  -6    3.80    3.00
  -9   1  -6   -1.60    2.70
   9  -1   6   -1.50    2.00
   7   0  -6    6.90    3.10
   7   0  -6    5.30    2.70
  -7   0   6    1.80    3.70
  -7   0   6    1.90    2.20
   6   0  -6   -0.20    1.80
   6   0  -6    2.50    2.70
  -6   0   6   -0.80    3.10
  -6   0   6   -1.30    1.70
   5   0  -6    3.50    2.00
   5   0  -6    3.40    2.40
  -5   0   6    5.60    2.40
  -5   0   6    3.00    2.00
  -5   0   6    1.90    2.70
   4   0  -6   18.00    3.00
   4   0  -6   23.00    3.70
  -4   0   6   21.00    3.40
  -4   0   6   15.20    3.50
  -4   0   6   11.30    2.50
   3   0  -6  105.49    5.60
   3   0  -6  105.09    6.20
  -3   0   6  113.99    7.80
  -3   0   6  102.29    6.20
  -3   0   6  102.99    7.50
   2   0  -6   16.70    2.10
   2   0  -6   18.10    2.00
   2   0  -6   19.10    2.60
   2   0  -6   10.50    2.90
  -2   0   6   11.50    2.20
  -2   0   6   18.30    3.60
  -2   0   6   18.70    3.10
   1   0  -6   28.00    3.30
   1   0  -6   26.10    3.10
   1   0  -6   28.20    5.10
   1   0  -6   24.60    3.30
  -1   0   6   25.90    3.40
  -1   0   6   20.10    2.70
   0   0  -6   28.10    3.40
   0   0  -6   33.30    6.00
   0   0  -6   24.70    2.60
   0   0  -6   27.10    3.50
   0   0   6   28.70    3.80
   0   0   6   24.20    2.70
   0   0   6   27.30    2.90
  -1   0  -6    0.20    1.00
  -1   0  -6   -1.20    1.30
  -1   0  -6    1.50    1.40
   1   0   6   -0.20    1.10
   1   0   6    0.90    0.70
   1   0   6   -1.00    1.10
   1   0   6    0.10    0.60
  -2   0  -6    6.20    1.70
  -2   0  -6    3.20    0.70
  -2   0  -6    5.30    2.00
  -2   0  -6    3.10    1.50
   2   0   6    5.20    1.80
   2   0   6    9.20    1.80
   2   0   6    2.80    1.40
   2   0   6    3.70    1.00
  -3   0  -6    7.80    2.30
  -3   0  -6   12.30    2.20
  -3   0  -6   13.90    1.90
   3   0   6   11.10    2.30
   3   0   6   17.20    3.00
   3   0   6   12.40    1.70
   3   0   6   16.00    2.50
  -4   0  -6   75.39    4.90
  -4   0  -6   75.79    7.80
  -4   0  -6   77.49    4.60
  -4   0  -6   70.49    7.00
   4   0   6   69.99    3.90
   4   0   6   67.19    4.60
   4   0   6   75.39    4.60
  -5   0  -6    0.50    1.70
  -5   0  -6    0.70    1.50
  -5   0  -6    1.40    1.50
  -5   0  -6    0.50    0.60
   5   0   6   -1.30    1.60
   5   0   6    1.70    1.90
   5   0   6   -1.00    1.60
  -6   0  -6   -0.80    1.50
  -6   0  -6   -0.60    1.50
  -6   0  -6    0.40    2.00
  -6   0  -6    1.30    1.00
  -6   0  -6    2.20    2.00
   6   0   6   -2.10    2.10
   6   0   6    0.50    1.80
   6   0   6    0.60    2.10
  -7   0  -6    6.80    2.90
  -7   0  -6    0.60    2.30
  -7   0  -6    2.20    1.60
   7   0   6   -0.80    2.30
   7   0   6    3.20    2.20
  -8   0  -6    8.10    3.30
  -8   0  -6    0.90    2.60
   8   0   6    4.90    2.30
  -9   0  -6    4.10    3.10
  -9   0  -6   -1.40    2.60
   9   0   6   -0.10    2.30
   7  -1  -6    0.10    2.20
   7  -1  -6    7.70    2.90
  -7   1   6   -0.80    2.00
  -7   1   6   -2.00    3.20
   6  -1  -6    0.60    2.30
   6  -1  -6    1.50    1.60
  -6   1   6   -0.40    2.80
  -6   1   6    0.50    1.90
   5  -1  -6    0.70    2.30
   5  -1  -6    2.20    1.90
  -5   1   6   -0.80    1.60
  -5   1   6   -0.20    1.60
  -5   1   6   -3.40    2.40
   4  -1  -6    1.90    1.90
   4  -1  -6    1.30    1.30
  -4   1   6   -0.60    1.50
  -4   1   6    3.10    2.20
  -4   1   6    0.70    2.20
   3  -1  -6    5.50    2.10
   3  -1  -6    6.40    2.30
   3  -1  -6    5.60    1.80
  -3   1   6    6.80    2.20
  -3   1   6    2.80    1.60
  -3   1   6    4.60    2.30
   2  -1  -6   20.20    2.40
   2  -1  -6   17.60    2.80
   2  -1  -6   16.90    2.90
  -2   1   6   19.30    3.00
  -2   1   6   20.70    3.60
   1  -1  -6   37.40    3.40
   1  -1  -6   37.60    3.60
   1  -1  -6   39.30    3.30
   1  -1  -6   34.10    3.30
  -1   1   6   35.50    3.50
  -1   1   6   37.40    2.90
  -1   1   6   39.90    4.30
   0  -1  -6   66.19    4.10
   0  -1  -6   66.69    4.30
   0  -1  -6   65.49    6.40
   0  -1  -6   71.39    4.30
   0  -1  -6   65.29    5.10
   0   1   6   62.69    4.70
   0   1   6   70.49    4.40
   0   1   6   70.69    4.80
   0   1   6   66.19    5.10
  -1  -1  -6   17.90    2.50
  -1  -1  -6   19.40    3.40
  -1  -1  -6   19.30    4.70
   1   1   6   18.90    2.80
   1   1   6   18.00    2.60
   1   1   6   19.40    2.70
   1   1   6   19.80    3.40
  -2  -1  -6  202.78   12.10
  -2  -1  -6  185.08   11.10
  -2  -1  -6  182.08    7.70
  -2  -1  -6  188.88    8.70
   2   1   6  196.38    8.90
   2   1   6  180.28    7.80
   2   1   6  201.78   11.90
   2   1   6  184.28    9.30
   2   1   6  186.18    7.80
  -3  -1  -6   19.60    2.30
  -3  -1  -6   19.00    4.40
  -3  -1  -6   21.60    2.60
  -3  -1  -6   22.40    4.40
   3   1   6   18.10    2.60
   3   1   6   20.00    3.30
   3   1   6   17.10    3.60
   3   1   6   15.90    2.50
  -4  -1  -6   82.69    7.00
  -4  -1  -6   70.59    7.40
  -4  -1  -6   70.29    4.40
  -4  -1  -6   74.49    5.00
   4   1   6   66.39    4.50
   4   1   6   71.69    6.10
   4   1   6   67.99    3.70
   4   1   6   72.09    4.50
   4   1   6   70.39    5.50
  -5  -1  -6    0.20    1.30
  -5  -1  -6    1.10    0.70
  -5  -1  -6    0.30    1.50
  -5  -1  -6    0.70    1.80
   5   1   6   -0.50    1.40
   5   1   6    0.10    0.90
   5   1   6    0.90    1.60
   5   1   6   -1.00    1.70
  -6  -1  -6    9.30    2.90
  -6  -1  -6   17.50    2.80
  -6  -1  -6   13.20    3.20
   6   1   6   14.80    2.80
   6   1   6   16.70    2.70
  -7  -1  -6   -0.50    1.50
  -7  -1  -6    1.70    2.30
  -7  -1  -6    1.30    2.30
   7   1   6    2.80    2.20
  -8  -1  -6    3.10    2.70
  -8  -1  -6    6.60    3.20
   8   1   6    5.80    2.80
  -9  -1  -6    3.00    3.20
  -9  -1  -6    7.40    3.70
   9   1   6    5.40    3.00
 -10  -1  -6   -2.40    3.10
 -10  -1  -6    6.80    3.70
  10   1   6   -2.40    2.50
   7  -2  -6    2.70    2.80
   7  -2  -6    2.20    2.40
  -7   2   6   -0.60    2.10
  -7   2   6   -2.40    3.10
   6  -2  -6   11.30    3.20
   6  -2  -6    8.50    2.60
  -6   2   6    8.00    3.80
  -6   2   6    7.10    2.70
   5  -2  -6    0.50    1.90
   5  -2  -6    0.60    1.80
  -5   2   6    0.70    1.30
  -5   2   6   -0.50    2.20
   4  -2  -6   -0.20    1.70
   4  -2  -6    2.50    1.80
  -4   2   6    0.60    1.70
  -4   2   6   -1.10    1.00
  -4   2   6    0.00    2.10
   3  -2  -6    4.20    1.90
   3  -2  -6    5.90    2.00
   3  -2  -6    5.70    1.90
  -3   2   6    2.80    1.60
  -3   2   6    4.00    2.10
  -3   2   6    8.20    2.10
   2  -2  -6    2.40    1.40
   2  -2  -6    0.70    1.70
   2  -2  -6    1.20    1.10
   2  -2  -6    0.40    1.50
  -2   2   6    1.30    0.80
  -2   2   6    0.50    1.40
  -2   2   6    0.30    1.20
  -2   2   6    0.10    1.40
  -2   2   6    1.00    0.30
   1  -2  -6  107.59    5.60
   1  -2  -6  108.89    5.40
   1  -2  -6  113.79    5.60
  -1   2   6  108.39    6.70
  -1   2   6  110.49    5.80
  -1   2   6  104.59    6.10
  -1   2   6  120.39    5.70
  -1   2   6  108.79    7.10
   0  -2  -6 1286.97   53.69
   0  -2  -6 1273.77   38.40
   0  -2  -6 1252.77   38.40
   0   2   6 1299.07   38.50
   0   2   6 1310.97   53.79
   0   2   6 1242.48   47.60
   0   2   6 1162.88   44.50
  -1  -2  -6   23.50    3.70
  -1  -2  -6   20.20    2.20
  -1  -2  -6   22.00    2.40
  -1  -2  -6   24.20    2.40
   1   2   6   20.70    3.30
   1   2   6   22.70    1.60
   1   2   6   22.50    3.10
   1   2   6   24.80    2.70
   1   2   6   23.60    3.20
  -2  -2  -6   30.50    4.40
  -2  -2  -6   28.10    2.80
  -2  -2  -6   33.20    3.10
  -2  -2  -6   29.10    2.90
   2   2   6   29.60    3.30
   2   2   6   26.90    3.60
   2   2   6   30.70    3.90
   2   2   6   28.50    2.90
   2   2   6   23.50    4.20
  -3  -2  -6  120.39    6.50
  -3  -2  -6  118.89    5.80
  -3  -2  -6  106.99    8.00
   3   2   6  126.19    7.10
   3   2   6  115.79    5.80
   3   2   6  108.79    8.10
  -4  -2  -6   27.60    5.40
  -4  -2  -6   24.10    3.20
  -4  -2  -6   22.30    2.80
   4   2   6   17.10    4.00
   4   2   6   20.70    2.90
   4   2   6   25.40    4.00
  -5  -2  -6   14.60    2.70
  -5  -2  -6   21.30    2.90
  -5  -2  -6   26.10    5.90
   5   2   6   17.10    3.30
   5   2   6   19.30    3.00
   5   2   6   10.60    2.20
  -6  -2  -6   12.40    3.00
  -6  -2  -6    7.80    2.40
  -6  -2  -6   13.80    2.60
   6   2   6   16.40    2.60
   6   2   6   13.50    2.80
  -7  -2  -6    8.50    3.10
  -7  -2  -6    6.00    2.80
  -7  -2  -6    8.10    2.50
   7   2   6   13.10    3.00
  -8  -2  -6    5.20    3.10
  -8  -2  -6   -0.50    2.40
  -8  -2  -6    0.40    1.90
   8   2   6    0.10    2.40
  -9  -2  -6    1.30    3.10
  -9  -2  -6   -2.90    2.40
   9   2   6   -1.60    2.20
 -10  -2  -6    1.20    3.40
 -10  -2  -6   -3.80    2.80
  10   2   6    1.60    3.00
   7  -3  -6   -0.50    2.50
   7  -3  -6    3.50    2.40
  -7   3   6    2.40    2.30
  -7   3   6   -3.10    3.10
   6  -3  -6   -1.40    1.80
   6  -3  -6    0.70    2.30
  -6   3   6   -2.60    2.20
  -6   3   6    1.70    2.00
   5  -3  -6   32.20    3.70
   5  -3  -6   27.20    3.80
  -5   3   6   19.50    3.90
  -5   3   6   32.10    5.10
   4  -3  -6   10.40    2.40
   4  -3  -6    5.90    2.20
  -4   3   6    4.10    2.00
  -4   3   6    3.80    2.40
  -4   3   6    6.90    1.90
   3  -3  -6   53.19    4.00
   3  -3  -6   49.10    3.80
   3  -3  -6   42.80    3.80
  -3   3   6   47.30    3.50
  -3   3   6   37.90    2.70
  -3   3   6   38.10    5.20
  -3   3   6   49.30    3.40
  -3   3   6   51.99    5.00
  -3   3   6   43.90    2.60
   2  -3  -6    2.60    1.50
   2  -3  -6    2.10    1.40
   2  -3  -6    2.40    1.00
   2  -3  -6    2.40    1.70
  -2   3   6    0.40    1.20
  -2   3   6    2.70    1.10
  -2   3   6    2.70    1.40
  -2   3   6    2.70    1.50
   1  -3  -6   74.69    4.00
   1  -3  -6   79.09    4.40
   1  -3  -6   82.89    4.60
  -1   3   6   77.29    4.20
  -1   3   6   81.69    4.30
  -1   3   6   75.59    4.20
  -1   3   6   71.79    5.10
  -1   3   6   71.09    5.90
  -1   3   6   66.29    5.10
   0  -3  -6   67.09    3.90
   0  -3  -6   61.69    3.00
   0  -3  -6   63.49    3.80
   0   3   6   59.19    5.00
   0   3   6   63.79    5.10
   0   3   6   54.69    4.60
   0   3   6   61.39    3.80
   0   3   6   63.69    3.50
  -1  -3  -6    0.90    1.00
  -1  -3  -6   -0.40    0.40
  -1  -3  -6   -0.80    1.20
  -1  -3  -6   -0.20    0.90
   1   3   6   -0.80    1.20
   1   3   6    0.20    0.90
   1   3   6   -0.40    0.80
   1   3   6    0.40    0.90
  -2  -3  -6   92.99    4.40
  -2  -3  -6   95.89    6.20
  -2  -3  -6   98.49    5.00
  -2  -3  -6  101.59    4.90
  -2  -3  -6   92.99    6.30
  -2  -3  -6  106.89    7.60
   2   3   6   96.99    5.80
   2   3   6   98.49    6.30
   2   3   6   95.49    5.00
   2   3   6   95.19    7.10
  -3  -3  -6   89.69    4.70
  -3  -3  -6   86.09    4.90
  -3  -3  -6   78.79    6.70
   3   3   6   85.69    7.00
   3   3   6   88.19    4.90
   3   3   6   86.69    6.00
  -4  -3  -6  317.47   13.40
  -4  -3  -6  309.67   11.70
  -4  -3  -6  323.37   17.40
   4   3   6  312.67   14.60
   4   3   6  307.37   11.80
   4   3   6  302.77   16.40
  -5  -3  -6    9.40    2.10
  -5  -3  -6    6.00    2.10
  -5  -3  -6    4.50    1.70
   5   3   6    5.70    2.00
   5   3   6    2.70    1.50
   5   3   6    4.10    1.70
  -6  -3  -6    0.20    1.70
  -6  -3  -6    0.90    1.60
  -6  -3  -6   -0.50    1.80
   6   3   6   -0.40    0.90
   6   3   6   -0.30    1.70
   6   3   6    0.10    1.80
  -7  -3  -6   -0.20    1.90
  -7  -3  -6    0.30    2.20
  -7  -3  -6    0.80    2.50
   7   3   6    0.90    2.10
  -8  -3  -6    0.00    1.80
  -8  -3  -6   -2.80    2.40
  -8  -3  -6   -1.00    2.10
   8   3   6   -0.10    2.20
  -9  -3  -6    2.60    3.40
  -9  -3  -6   -1.90    2.50
   9   3   6    2.20    2.50
 -10  -3  -6   -3.80    3.00
 -10  -3  -6    1.00    3.00
  10   3   6   -1.70    2.50
  -7   4   6   -4.40    2.60
  -7   4   6    3.00    2.30
   6  -4  -6    6.60    3.00
   6  -4  -6    3.40    2.00
  -6   4   6    3.60    2.30
  -6   4   6    0.80    2.60
   5  -4  -6    1.50    2.30
   5  -4  -6    3.00    1.80
  -5   4   6   -1.10    2.20
  -5   4   6    1.20    1.60
   4  -4  -6    1.40    1.60
   4  -4  -6    1.80    2.00
  -4   4   6    0.10    1.70
  -4   4   6   -1.10    1.20
   3  -4  -6    1.40    1.50
   3  -4  -6   -0.80    1.50
   3  -4  -6    0.70    1.40
  -3   4   6   -0.30    1.20
  -3   4   6    1.50    1.30
  -3   4   6   -2.40    0.90
  -3   4   6    1.20    1.60
  -3   4   6   -1.30    0.80
   2  -4  -6   46.20    3.30
   2  -4  -6   43.40    3.60
   2  -4  -6   43.10    3.80
   2  -4  -6   48.20    3.50
  -2   4   6   45.50    4.80
  -2   4   6   39.80    4.20
  -2   4   6   43.00    3.40
  -2   4   6   41.60    4.80
  -2   4   6   47.50    3.20
  -2   4   6   47.70    4.00
   1  -4  -6   22.30    2.70
   1  -4  -6   21.40    2.60
   1  -4  -6   21.00    2.50
   1  -4  -6   20.30    2.30
  -1   4   6   22.40    2.60
  -1   4   6   18.70    3.70
  -1   4   6   22.80    2.30
  -1   4   6   21.10    2.40
  -1   4   6   25.80    3.60
  -1   4   6   21.10    3.80
   0  -4  -6   16.20    2.30
   0  -4  -6   15.20    2.30
   0   4   6   13.70    3.20
   0   4   6   15.30    2.30
   0   4   6   15.20    2.80
   0   4   6   15.50    2.00
  -1  -4  -6  128.09    5.70
  -1  -4  -6  129.09    7.30
  -1  -4  -6  124.39    5.80
   1   4   6  127.49    8.30
   1   4   6  132.09    6.90
   1   4   6  131.39    7.80
   1   4   6  125.49    5.80
  -2  -4  -6    6.00    1.40
  -2  -4  -6   11.00    1.90
  -2  -4  -6   11.10    2.10
  -2  -4  -6    9.50    1.40
  -2  -4  -6    7.60    0.70
  -2  -4  -6    4.60    1.40
   2   4   6    5.00    1.50
   2   4   6    5.90    1.40
   2   4   6    8.90    1.90
  -3  -4  -6    1.40    0.90
  -3  -4  -6    1.90    1.30
  -3  -4  -6    2.20    1.50
  -3  -4  -6    1.30    0.90
   3   4   6    2.40    1.60
   3   4   6    0.70    1.20
  -4  -4  -6    2.10    1.70
  -4  -4  -6    2.30    1.70
  -4  -4  -6    1.90    1.30
   4   4   6    2.00    1.40
   4   4   6    3.00    1.70
   4   4   6    1.40    1.50
  -5  -4  -6   53.49    4.30
  -5  -4  -6   62.29    7.50
  -5  -4  -6   60.39    5.00
   5   4   6   48.70    5.40
   5   4   6   51.29    4.00
   5   4   6   62.09    6.30
  -6  -4  -6    1.90    2.10
  -6  -4  -6    1.90    2.00
  -6  -4  -6    1.70    1.70
   6   4   6    0.30    1.30
   6   4   6    1.50    2.00
   6   4   6    1.00    2.00
  -7  -4  -6    4.80    2.20
  -7  -4  -6    7.30    3.00
  -7  -4  -6    7.90    2.70
   7   4   6    8.70    2.80
  -8  -4  -6   -1.70    2.80
  -8  -4  -6   -0.20    2.00
  -8  -4  -6   -1.90    2.20
   8   4   6   -0.30    2.20
  -9  -4  -6    0.40    2.40
  -9  -4  -6   -1.80    2.60
  -9  -4  -6   -0.60    3.50
   9   4   6   -0.20    2.30
 -10  -4  -6   -2.40    2.90
 -10  -4  -6   -3.60    3.70
  10   4   6   -2.10    2.80
   6  -5  -6    3.00    2.10
  -6   5   6    2.40    2.00
  -6   5   6   -0.90    2.40
   5  -5  -6   17.80    2.70
   5  -5  -6   17.20    3.50
  -5   5   6   11.00    3.20
  -5   5   6   11.90    2.80
   4  -5  -6    0.30    2.50
   4  -5  -6   -0.40    1.80
   4  -5  -6    1.60    1.50
  -4   5   6    1.30    1.50
  -4   5   6   -1.10    1.60
   3  -5  -6    8.70    1.80
   3  -5  -6    6.10    2.30
   3  -5  -6    5.80    2.40
  -3   5   6    4.30    1.70
  -3   5   6    5.20    1.90
   2  -5  -6    1.00    1.50
   2  -5  -6   -1.60    1.40
   2  -5  -6    2.80    2.00
   2  -5  -6    1.10    1.20
  -2   5   6   -0.60    1.00
  -2   5   6    1.00    1.10
  -2   5   6    0.00    1.20
  -2   5   6    0.30    1.20
  -2   5   6   -0.10    1.30
   1  -5  -6   13.60    2.10
   1  -5  -6   16.90    2.20
   1  -5  -6   15.40    2.70
   1  -5  -6   17.50    2.50
  -1   5   6   14.00    1.90
  -1   5   6   10.00    1.90
  -1   5   6   15.10    2.10
  -1   5   6    9.00    2.10
   0  -5  -6   17.50    2.30
   0  -5  -6   15.90    2.00
   0  -5  -6   18.60    2.60
   0   5   6   18.60    2.30
   0   5   6   15.60    2.90
  -1  -5  -6    5.80    1.30
  -1  -5  -6   10.30    1.80
  -1  -5  -6    7.70    1.90
  -1  -5  -6    6.50    1.60
   1   5   6    7.50    1.70
   1   5   6    5.50    1.40
   1   5   6    4.80    1.60
  -2  -5  -6   17.80    2.40
  -2  -5  -6   19.60    2.70
  -2  -5  -6   19.40    2.70
  -2  -5  -6   22.10    2.10
   2   5   6   19.70    3.70
   2   5   6   20.50    2.50
   2   5   6   25.20    3.20
  -3  -5  -6   23.40    2.90
  -3  -5  -6   22.80    5.10
  -3  -5  -6   23.50    2.40
  -3  -5  -6   24.90    3.00
   3   5   6   24.10    2.90
   3   5   6   32.60    4.30
  -4  -5  -6   -0.10    1.20
  -4  -5  -6   -0.70    0.80
  -4  -5  -6    0.00    1.20
  -4  -5  -6    0.90    1.60
   4   5   6    0.60    1.30
   4   5   6    0.50    1.20
  -5  -5  -6    0.60    1.80
  -5  -5  -6    0.60    1.60
  -5  -5  -6   -0.40    1.70
   5   5   6   -2.10    1.50
   5   5   6    1.10    1.70
  -6  -5  -6    0.90    2.00
  -6  -5  -6    1.50    2.10
  -6  -5  -6    0.40    2.10
   6   5   6   -2.80    1.80
   6   5   6    2.50    2.00
   6   5   6   -0.90    1.30
  -7  -5  -6   10.80    2.80
  -7  -5  -6   14.40    3.50
  -7  -5  -6   26.40    4.10
   7   5   6   24.30    3.40
   7   5   6   11.40    3.10
  -8  -5  -6    7.40    2.90
  -8  -5  -6    3.30    2.30
  -8  -5  -6    1.70    3.30
   8   5   6    4.00    2.80
  -9  -5  -6   -0.30    2.70
  -9  -5  -6   -1.20    3.40
  -9  -5  -6    2.50    2.70
   9   5   6    2.30    2.60
 -10  -5  -6   -2.10    3.90
 -10  -5  -6   -3.30    2.60
  10   5   6    0.50    2.80
   6  -6  -6    8.20    3.50
  -6   6   6    4.30    2.30
   5  -6  -6    5.00    2.80
   5  -6  -6    1.80    3.50
  -5   6   6    2.00    1.70
  -5   6   6    1.40    2.30
   4  -6  -6    4.90    2.50
   4  -6  -6    4.70    1.30
   4  -6  -6    1.50    2.90
  -4   6   6    1.80    1.60
  -4   6   6    2.90    2.00
  -4   6   6    2.80    1.90
   3  -6  -6    2.80    2.50
   3  -6  -6    1.10    1.30
   3  -6  -6    1.10    2.00
  -3   6   6    2.60    1.80
  -3   6   6    0.40    1.40
  -3   6   6    0.30    1.20
   2  -6  -6    1.90    1.80
   2  -6  -6    1.70    1.20
   2  -6  -6    5.00    1.60
   2  -6  -6    6.90    2.30
  -2   6   6    2.50    1.60
  -2   6   6    1.10    1.50
  -2   6   6    3.90    1.50
   1  -6  -6   99.79    4.80
   1  -6  -6   84.09    5.50
   1  -6  -6   92.79    4.50
   1  -6  -6   98.39    5.10
  -1   6   6   93.69    6.40
  -1   6   6   87.09    4.90
  -1   6   6   89.29    4.30
  -1   6   6   88.99    7.40
   0  -6  -6  105.19    4.90
   0  -6  -6  102.89    5.10
   0  -6  -6  100.09    4.90
   0   6   6  104.99    4.90
   0   6   6  116.69    6.70
   0   6   6   91.09    4.30
   0   6   6   96.29    7.40
  -1  -6  -6    3.10    1.50
  -1  -6  -6    1.70    0.80
  -1  -6  -6    3.50    1.50
  -1  -6  -6    3.10    1.30
  -1  -6  -6    2.10    1.40
   1   6   6    3.20    1.50
   1   6   6    2.60    1.30
   1   6   6    1.40    1.00
  -2  -6  -6  119.59    5.70
  -2  -6  -6  120.49    4.90
  -2  -6  -6  115.29    5.60
  -2  -6  -6  104.49    5.90
  -2  -6  -6  121.89    6.00
   2   6   6  114.39    5.70
   2   6   6  116.09    6.20
   2   6   6  114.49    7.90
  -3  -6  -6  113.79    5.90
  -3  -6  -6  114.19    5.90
   3   6   6  117.49    5.90
   3   6   6  106.29    5.20
   3   6   6  114.29    7.70
  -4  -6  -6    0.10    1.60
  -4  -6  -6   -1.30    0.80
  -4  -6  -6    0.30    1.40
   4   6   6    1.10    1.50
   4   6   6    1.40    0.80
   4   6   6    0.60    1.60
  -5  -6  -6   -0.90    1.70
  -5  -6  -6   -1.30    1.80
  -5  -6  -6    0.00    1.70
  -5  -6  -6   -0.60    1.00
   5   6   6   -0.30    1.60
   5   6   6   -1.80    1.60
  -6  -6  -6    2.50    2.40
  -6  -6  -6    3.90    2.30
  -6  -6  -6    1.10    2.20
   6   6   6    4.30    2.00
   6   6   6    3.80    2.50
  -7  -6  -6   40.50    4.70
  -7  -6  -6   45.10    8.00
  -7  -6  -6   39.20    6.00
   7   6   6   43.90    7.40
   7   6   6   44.40    4.80
  -8  -6  -6    4.30    2.80
  -8  -6  -6    1.20    2.40
  -8  -6  -6   -1.50    3.20
   8   6   6    2.80    2.70
  -9  -6  -6    2.90    2.90
  -9  -6  -6   -1.80    3.80
  -9  -6  -6    3.50    2.80
   9   6   6    2.00    2.80
 -10  -6  -6   -0.20    2.60
 -10  -6  -6   -6.40    4.10
 -10  -6  -6    4.70    3.40
  10   6   6    4.50    3.30
   5  -7  -6    5.00    3.70
   5  -7  -6    5.30    2.90
  -5   7   6   -0.10    1.70
  -5   7   6    1.90    2.00
   4  -7  -6   22.80    4.50
   4  -7  -6   19.30    3.90
  -4   7   6   11.80    3.00
   3  -7  -6    2.10    1.00
   3  -7  -6    1.20    1.90
   3  -7  -6    3.90    2.80
  -3   7   6    1.50    1.70
  -3   7   6    2.40    1.60
  -3   7   6    3.60    1.70
   2  -7  -6   -0.60    1.10
   2  -7  -6   -0.90    1.10
   2  -7  -6   -0.90    1.90
  -2   7   6    0.20    1.30
  -2   7   6   -0.50    1.10
  -2   7   6    2.20    1.60
   1  -7  -6   -2.10    1.00
   1  -7  -6    1.10    1.80
   1  -7  -6   -1.20    1.20
   1  -7  -6   -1.10    1.50
  -1   7   6   -1.50    0.90
  -1   7   6   -1.50    1.00
  -1   7   6    1.20    0.90
   0  -7  -6   -0.90    1.50
   0  -7  -6   -0.50    1.20
   0  -7  -6   -0.80    1.30
   0  -7  -6   -2.10    1.20
   0   7   6   -0.90    0.80
   0   7   6    0.50    1.00
   0   7   6   -0.60    1.20
   0   7   6    0.70    0.60
   0   7   6   -0.70    0.90
  -1  -7  -6   -1.30    1.30
  -1  -7  -6   -2.70    1.30
  -1  -7  -6   -0.70    1.10
  -1  -7  -6    0.20    1.60
   1   7   6   -1.30    0.70
   1   7   6    0.20    1.20
   1   7   6   -1.40    1.00
   1   7   6    0.00    0.90
  -2  -7  -6   31.30    2.90
  -2  -7  -6   27.70    3.10
  -2  -7  -6   29.40    2.90
  -2  -7  -6   32.40    3.30
  -2  -7  -6   29.60    3.00
   2   7   6   32.80    4.70
   2   7   6   28.90    3.30
   2   7   6   32.90    3.20
   2   7   6   26.20    2.30
  -3  -7  -6    9.90    2.50
  -3  -7  -6   11.00    2.10
   3   7   6    6.70    1.90
   3   7   6   12.10    2.00
   3   7   6   10.20    2.30
  -4  -7  -6    1.50    0.90
  -4  -7  -6    0.50    1.40
  -4  -7  -6    1.30    1.60
   4   7   6   -0.10    1.50
   4   7   6    3.60    1.20
   4   7   6    1.20    1.80
  -5  -7  -6    5.80    2.30
  -5  -7  -6    5.80    2.10
  -5  -7  -6    3.80    1.30
   5   7   6    5.80    2.30
   5   7   6    6.40    2.50
  -6  -7  -6    1.30    2.10
  -6  -7  -6    0.70    2.20
   6   7   6    0.50    1.70
   6   7   6    0.80    1.60
  -7  -7  -6    3.80    2.70
  -7  -7  -6    4.10    2.90
   7   7   6    2.80    2.10
   7   7   6    8.70    3.00
  -8  -7  -6   -3.10    3.10
  -8  -7  -6    0.90    2.00
   8   7   6    0.10    2.40
  -9  -7  -6    0.20    3.80
  -9  -7  -6   -2.40    2.50
   9   7   6    0.40    2.60
 -10  -7  -6   -8.40    3.90
 -10  -7  -6   -1.00    3.10
  10   7   6    6.90    3.60
   4  -8  -6    9.70    4.20
   4  -8  -6   11.60    3.10
  -4   8   6    5.30    2.30
  -4   8   6    7.60    2.30
   3  -8  -6    3.50    2.00
   3  -8  -6    1.50    3.00
  -3   8   6    2.50    1.80
  -3   8   6    2.70    1.60
   2  -8  -6    0.90    2.40
   2  -8  -6    2.50    2.00
   2  -8  -6    2.20    1.10
  -2   8   6    2.10    1.50
  -2   8   6    1.30    1.50
   1  -8  -6   -0.50    1.40
   1  -8  -6    0.30    2.10
   1  -8  -6   -2.10    1.20
  -1   8   6    0.50    1.10
  -1   8   6    0.90    1.40
   0  -8  -6    0.10    1.60
   0  -8  -6    3.10    2.00
   0  -8  -6   -1.60    1.40
   0  -8  -6   -0.80    1.40
   0   8   6   -1.70    0.90
   0   8   6    0.40    1.30
  -1  -8  -6   30.80    3.50
  -1  -8  -6   32.10    3.40
  -1  -8  -6   32.80    3.40
  -1  -8  -6   32.60    3.40
   1   8   6   32.60    3.70
   1   8   6   29.90    2.80
   1   8   6   33.10    4.80
  -2  -8  -6   -0.90    1.40
  -2  -8  -6   -0.60    1.50
  -2  -8  -6    1.10    1.60
  -2  -8  -6   -1.80    1.70
   2   8   6   -1.10    1.30
   2   8   6   -1.40    0.80
   2   8   6    0.20    1.10
  -3  -8  -6    0.40    0.50
  -3  -8  -6    0.50    2.00
   3   8   6   -0.10    1.10
   3   8   6    1.90    1.60
   3   8   6   -0.40    1.40
  -4  -8  -6   57.59    4.80
  -4  -8  -6   55.59    3.40
   4   8   6   58.49    4.60
   4   8   6   61.49    6.80
   4   8   6   54.39    4.40
  -5  -8  -6   11.80    2.80
  -5  -8  -6   14.00    3.10
   5   8   6    7.40    2.60
   5   8   6   13.10    2.90
  -6  -8  -6   -1.20    2.10
  -6  -8  -6   -1.40    2.20
   6   8   6   -2.80    2.00
   6   8   6    0.30    2.10
  -7  -8  -6   -0.80    2.80
  -7  -8  -6   -1.80    2.20
   7   8   6   -2.70    2.20
   7   8   6    2.40    1.40
   7   8   6   -0.90    1.60
  -8  -8  -6    1.70    2.90
   8   8   6   -2.30    2.70
   8   8   6    5.10    2.90
  -9  -8  -6   -1.50    2.80
  -9  -8  -6   -4.50    3.30
   9   8   6    0.90    2.80
   3  -9  -6   -1.20    1.90
   3  -9  -6    2.20    3.40
  -3   9   6    2.00    1.60
  -3   9   6    1.10    1.60
   2  -9  -6    0.00    2.70
   2  -9  -6    0.80    1.80
  -2   9   6   -0.10    1.30
  -2   9   6   -0.30    1.20
   1  -9  -6    0.40    1.20
   1  -9  -6   -0.80    1.50
   1  -9  -6   -2.50    2.30
  -1   9   6   -0.30    1.10
  -1   9   6   -0.40    1.40
   0  -9  -6    4.80    2.00
   0  -9  -6    4.90    2.60
   0  -9  -6    3.30    1.80
   0  -9  -6    3.60    2.60
   0   9   6    2.70    1.70
   0   9   6    2.30    1.40
  -1  -9  -6    2.40    2.10
  -1  -9  -6    1.40    1.90
  -1  -9  -6    1.30    1.90
  -1  -9  -6    1.20    1.80
   1   9   6    0.90    1.30
  -2  -9  -6    1.10    1.80
  -2  -9  -6   -0.40    1.60
  -2  -9  -6    0.30    1.60
   2   9   6   -0.60    1.40
   2   9   6   -0.30    1.30
  -3  -9  -6    7.00    2.40
  -3  -9  -6    9.10    2.60
   3   9   6    5.60    2.10
   3   9   6    5.70    2.20
  -4  -9  -6   18.20    3.40
   4   9   6    9.90    2.60
   4   9   6   15.00    3.00
  -5  -9  -6    5.70    2.70
   5   9   6    2.90    2.30
   5   9   6    8.30    2.70
  -6  -9  -6   21.00    4.00
  -6  -9  -6   12.40    3.30
   6   9   6   11.60    3.40
   6   9   6   20.70    3.60
  -7  -9  -6   -0.20    2.60
  -7  -9  -6   -0.70    2.60
   7   9   6   -0.50    2.20
   7   9   6    4.00    1.70
   7   9   6   -3.80    2.30
  -8  -9  -6    5.80    3.30
  -8  -9  -6   -2.10    2.80
   8   9   6   -5.40    2.60
   8   9   6    2.30    2.90
  -9  -9  -6   -3.80    2.70
  -9  -9  -6   -4.30    3.70
   9   9   6    0.70    3.10
   2 -10  -6    6.50    2.70
   2 -10  -6    7.30    3.60
  -2  10   6    2.90    1.90
   1 -10  -6    0.70    1.80
   1 -10  -6    2.00    2.90
  -1  10   6    0.30    1.50
   0 -10  -6   18.00    4.00
   0 -10  -6   18.90    4.10
   0 -10  -6   17.30    3.20
   0 -10  -6   19.70    3.00
   0  10   6   10.40    2.60
  -1 -10  -6    9.40    2.50
  -1 -10  -6    7.80    2.90
  -1 -10  -6    9.20    2.40
  -1 -10  -6   12.40    3.30
   1  10   6    5.60    2.10
  -2 -10  -6   48.20    4.70
  -2 -10  -6   50.69    4.60
  -2 -10  -6   41.20    3.90
  -2 -10  -6   52.09    5.00
   2  10   6   46.00    6.30
  -3 -10  -6    3.60    2.40
  -3 -10  -6    5.80    2.50
   3  10   6    2.70    2.00
  -4 -10  -6    5.70    2.70
   4  10   6    6.70    2.40
   4  10   6    3.60    2.30
  -5 -10  -6    2.40    2.80
   5  10   6    0.20    2.30
   5  10   6    0.10    2.20
  -6 -10  -6    0.10    2.50
   6  10   6    5.40    2.20
   6  10   6   -0.80    2.10
   6  10   6   -3.20    2.20
  -7 -10  -6   -0.20    2.80
  -7 -10  -6    1.30    3.00
   7  10   6   -2.70    2.70
   7  10   6    0.80    2.40
  -8 -10  -6   -0.30    3.10
  -8 -10  -6   -1.20    3.00
   8  10   6    4.80    3.20
   8  10   6   -4.20    2.80
   1 -11  -6    2.00    3.20
   1 -11  -6    0.00    1.70
  -1  11   6    1.10    1.60
   0 -11  -6    6.00    3.40
   0 -11  -6    1.50    2.60
   0 -11  -6    2.80    1.70
   0 -11  -6    2.80    2.00
   0  11   6    2.10    1.70
  -1 -11  -6   -2.60    2.00
  -1 -11  -6    4.60    3.00
  -1 -11  -6    1.00    1.40
  -1 -11  -6    1.80    2.00
   1  11   6    1.00    1.70
  -2 -11  -6   30.60    3.60
  -2 -11  -6   28.40    4.40
  -2 -11  -6   35.20    4.60
  -2 -11  -6   29.50    4.40
   2  11   6   28.90    5.90
  -3 -11  -6   12.10    3.40
  -3 -11  -6   15.20    3.70
  -3 -11  -6    9.30    3.30
   3  11   6    5.10    2.60
  -4 -11  -6   -0.40    2.40
   4  11   6   -1.50    1.90
  -5 -11  -6   -1.10    2.60
   5  11   6    5.80    2.50
   5  11   6   -1.70    2.30
  -6 -11  -6   -0.80    2.80
   6  11   6   -5.20    2.30
   6  11   6   -0.10    2.20
  -7 -11  -6    0.10    3.20
   7  11   6    0.80    2.70
  -1 -12  -6   -0.30    1.70
  -1 -12  -6    1.30    3.20
  -1 -12  -6    1.10    2.10
   1  12   6    0.10    1.70
  -2 -12  -6    3.50    2.50
  -2 -12  -6    7.90    3.40
   2  12   6   -0.10    2.00
  -3 -12  -6   10.00    3.40
  -3 -12  -6    5.20    3.00
   3  12   6    1.70    2.20
  -4 -12  -6   12.20    3.80
  -5 -12  -6   -1.60    2.80
   3   7  -7   -1.80    2.60
  -3  -7   7    2.10    3.70
   2   7  -7    0.90    2.70
  -2  -7   7   -3.90    3.30
   0   7  -7   -1.80    4.10
   0  -7   7    8.60    3.70
   0  -7   7    8.30    3.00
  -1   7  -7   -2.40    3.80
   1  -7   7    5.10    2.60
   1  -7   7    2.40    3.10
  -2   7  -7   -5.60    3.60
  -2   7  -7    6.50    2.70
   2  -7   7   -1.70    2.40
   2  -7   7   -3.00    2.80
   4   6  -7    2.70    3.30
  -4  -6   7    4.20    3.30
   3   6  -7    6.30    3.20
   3   6  -7   -8.40    4.10
  -3  -6   7    3.20    3.30
  -3  -6   7   -0.80    2.20
   2   6  -7    1.60    2.60
  -2  -6   7   -1.50    2.90
   1   6  -7   -3.60    3.70
   1   6  -7    3.90    3.10
  -1  -6   7    1.90    3.10
   0   6  -7    1.40    2.40
   0   6  -7    4.20    2.10
   0   6  -7   -2.70    2.60
   0  -6   7    4.40    2.50
   0  -6   7    0.30    2.90
  -1   6  -7    3.70    2.30
  -1   6  -7   -4.70    3.10
   1  -6   7    2.60    2.30
   1  -6   7   -3.20    2.40
  -2   6  -7    2.90    2.00
  -2   6  -7   -1.90    3.40
   2  -6   7    3.10    2.40
   2  -6   7    0.70    2.50
  -3   6  -7    2.80    2.50
  -3   6  -7   -5.60    3.00
   3  -6   7   -0.80    2.50
   3  -6   7    0.50    2.70
  -4   6  -7    2.50    2.30
  -4   6  -7   -0.30    3.50
   4  -6   7    1.50    2.60
   4  -6   7    0.30    2.50
   5   5  -7    4.30    3.40
  -5  -5   7    6.00    3.70
  -5  -5   7   -1.40    2.20
   4   5  -7   -3.00    2.60
  -4  -5   7   -2.10    3.00
   3   5  -7   25.80    4.60
   3   5  -7    8.60    4.20
  -3  -5   7   13.30    3.20
  -3  -5   7   23.50    4.80
   2   5  -7    1.70    1.30
   2   5  -7   -2.40    2.10
   2   5  -7   -3.20    2.50
  -2  -5   7   -1.30    1.80
  -2  -5   7    1.20    2.80
   1   5  -7    6.20    2.80
   1   5  -7   -0.60    3.50
   1   5  -7    7.60    2.40
  -1  -5   7    9.30    3.20
  -1  -5   7    2.90    2.20
   0   5  -7   27.20    6.30
   0   5  -7   11.90    3.20
   0   5  -7    5.80    3.30
   0  -5   7   14.60    3.80
  -1   5  -7   -0.90    1.90
  -1   5  -7    1.40    2.00
  -1   5  -7   -1.10    2.30
   1  -5   7    4.10    2.20
   1  -5   7    0.40    2.70
  -2   5  -7   -1.40    2.90
  -2   5  -7    0.70    2.00
   2  -5   7   -0.30    1.50
   2  -5   7    1.80    1.90
   2  -5   7   -1.30    2.50
  -3   5  -7    7.40    3.80
  -3   5  -7   10.50    3.30
   3  -5   7   12.00    3.10
   3  -5   7   11.90    3.20
   3  -5   7   12.10    2.70
  -4   5  -7    0.30    2.40
  -4   5  -7   -3.40    2.40
   4  -5   7    0.50    2.30
   4  -5   7   -0.30    2.30
  -5   5  -7    9.40    3.20
  -5   5  -7    4.10    3.80
   5  -5   7   12.40    3.80
   5  -5   7   13.60    3.20
  -6   5  -7    2.80    2.70
   6  -5   7    4.60    3.30
   6   4  -7    3.10    3.50
  -6  -4   7   -4.10    2.10
  -6  -4   7   -0.60    3.10
  -6  -4   7    0.10    3.70
   5   4  -7    3.00    2.80
  -5  -4   7    2.40    3.10
  -5  -4   7    0.70    2.40
   4   4  -7    4.10    3.10
  -4  -4   7   -1.50    2.60
  -4  -4   7   -1.90    1.90
   3   4  -7    0.00    2.40
   3   4  -7    1.20    1.00
   3   4  -7   -4.10    3.40
  -3  -4   7   -1.20    2.50
  -3  -4   7   -3.20    1.60
   2   4  -7    6.80    4.20
   2   4  -7   16.60    3.70
   2   4  -7   25.20    4.70
  -2  -4   7    7.20    2.60
  -2  -4   7   16.30    3.60
   1   4  -7   45.20   10.50
   1   4  -7   54.39    5.30
   1   4  -7   61.49    7.20
  -1  -4   7   51.79    6.80
  -1  -4   7   50.59    5.50
   0   4  -7    1.70    1.70
   0   4  -7   -2.20    2.00
   0   4  -7   -1.10    1.80
   0  -4   7    0.20    2.50
  -1   4  -7   -0.40    1.70
  -1   4  -7   -2.00    1.80
  -1   4  -7   -2.00    1.70
   1  -4   7   -2.70    2.30
   1  -4   7    1.40    1.70
  -2   4  -7    1.10    2.10
  -2   4  -7    2.40    2.00
  -2   4  -7   -1.30    2.60
   2  -4   7    0.50    2.60
   2  -4   7    0.40    1.70
   2  -4   7    0.50    1.40
  -3   4  -7   47.10    8.30
  -3   4  -7   17.00    4.40
  -3   4  -7   27.80    4.00
   3  -4   7   25.30    4.10
   3  -4   7   31.10    3.10
   3  -4   7   31.20    3.80
   3  -4   7   32.00    4.00
  -4   4  -7   -2.10    2.50
  -4   4  -7    1.30    2.40
   4  -4   7    2.10    2.10
   4  -4   7    0.20    2.20
   4  -4   7    5.40    2.50
  -5   4  -7   -2.80    2.50
  -5   4  -7    2.20    2.50
   5  -4   7    2.30    2.50
   5  -4   7    4.00    2.50
   5  -4   7    2.70    1.90
  -6   4  -7    1.50    2.60
   6  -4   7    4.20    2.60
   6  -4   7    1.30    2.20
   6  -4   7   -1.10    2.60
  -7   4  -7    5.60    3.50
   7  -4   7   12.90    2.90
   7  -4   7   15.70    4.40
   6   3  -7   14.70    4.40
  -6  -3   7    3.10    2.70
  -6  -3   7   12.70    4.00
  -6  -3   7    7.10    4.40
   5   3  -7   -5.90    3.00
   5   3  -7    3.20    3.10
  -5  -3   7    0.70    3.30
  -5  -3   7   -1.90    2.10
  -5  -3   7   -1.10    2.90
   4   3  -7   -3.70    3.20
   4   3  -7    4.00    2.90
  -4  -3   7    3.40    2.40
  -4  -3   7    0.00    2.10
   3   3  -7    0.30    2.40
   3   3  -7   -3.10    3.00
   3   3  -7    0.10    0.90
  -3  -3   7    1.00    2.00
  -3  -3   7   -2.00    1.70
   2   3  -7    0.00    2.20
   2   3  -7   -0.50    3.10
   2   3  -7    1.30    1.20
  -2  -3   7    1.70    2.50
  -2  -3   7    0.10    1.80
   1   3  -7   -1.00    2.90
   1   3  -7    0.60    1.10
   1   3  -7   -0.80    2.00
  -1  -3   7   -3.50    2.10
  -1  -3   7    0.30    0.50
  -1  -3   7   -1.70    1.60
   0   3  -7   -0.20    2.00
   0   3  -7   -0.10    1.30
   0   3  -7   -0.30    2.00
   0  -3   7   -0.60    2.20
   0  -3   7    0.70    1.90
  -1   3  -7   10.70    2.80
  -1   3  -7    5.80    2.20
  -1   3  -7    4.60    3.10
   1  -3   7    8.60    2.20
   1  -3   7    9.10    2.90
  -2   3  -7   30.20    5.80
  -2   3  -7   47.60    8.70
  -2   3  -7   35.20    4.00
   2  -3   7   37.20    3.70
   2  -3   7   27.50    4.30
   2  -3   7   34.90    3.50
   2  -3   7   33.60    2.80
  -3   3  -7    2.60    2.70
  -3   3  -7    6.30    2.40
  -3   3  -7    2.40    2.30
   3  -3   7    6.50    2.30
   3  -3   7    7.10    2.30
   3  -3   7    2.90    2.40
  -4   3  -7   71.59    9.90
  -4   3  -7   77.69    5.30
  -4   3  -7   89.49   10.50
   4  -3   7   76.29    5.30
   4  -3   7   73.59    5.50
   4  -3   7   82.19    6.20
  -5   3  -7   -2.80    2.30
  -5   3  -7    0.70    1.70
   5  -3   7    1.70    2.10
   5  -3   7    2.30    2.40
   5  -3   7    2.70    2.30
  -6   3  -7    0.40    2.50
   6  -3   7   -0.10    2.20
   6  -3   7   -2.00    2.10
   6  -3   7    0.40    2.00
  -7   3  -7    0.00    2.70
   7  -3   7    0.20    2.80
   7  -3   7    1.20    2.00
   6   2  -7    1.80    3.00
   6   2  -7   -1.20    1.70
  -6  -2   7   -0.40    3.30
  -6  -2   7   -1.40    2.20
  -6  -2   7    4.50    3.10
   5   2  -7   14.20    2.70
   5   2  -7   16.40    4.00
  -5  -2   7    8.50    2.90
  -5  -2   7   18.60    4.10
  -5  -2   7    6.00    3.50
   4   2  -7    6.40    3.70
   4   2  -7   12.30    3.40
   4   2  -7   12.90    2.40
  -4  -2   7   14.20    3.70
  -4  -2   7   10.40    3.60
  -4  -2   7    8.90    2.70
   3   2  -7    7.60    3.70
   3   2  -7   13.90    3.40
   3   2  -7   11.00    2.00
   3   2  -7    5.70    1.20
  -3  -2   7    7.90    2.40
  -3  -2   7   14.30    3.40
   2   2  -7   43.90    4.70
   2   2  -7   40.20    2.90
   2   2  -7   35.00    7.50
   2   2  -7   41.90    4.50
  -2  -2   7   39.20    5.60
  -2  -2   7   38.60    4.20
   1   2  -7    0.20    2.00
   1   2  -7    0.30    1.20
   1   2  -7    0.70    1.60
  -1  -2   7   -2.50    2.10
  -1  -2   7    0.10    0.70
  -1  -2   7    1.20    1.70
   0   2  -7    7.00    2.70
   0   2  -7   13.70    2.90
   0   2  -7    6.00    1.80
   0  -2   7   11.30    3.00
   0  -2   7    7.50    2.30
  -1   2  -7   70.89    7.50
  -1   2  -7   65.29    5.00
  -1   2  -7   75.89    9.60
   1  -2   7   61.39    4.10
   1  -2   7   71.79    5.50
   1  -2   7   68.49    6.50
   1  -2   7   64.59    4.10
  -2   2  -7   43.30    8.00
  -2   2  -7   32.50    3.80
  -2   2  -7   33.40    6.30
   2  -2   7   30.90    2.50
   2  -2   7   39.90    4.20
   2  -2   7   28.90    3.20
   2  -2   7   32.20    3.30
  -3   2  -7   62.69    4.80
  -3   2  -7   63.19    7.60
  -3   2  -7   73.99    9.30
   3  -2   7   66.09    5.10
   3  -2   7   57.59    4.20
   3  -2   7   63.29    5.10
  -4   2  -7   81.89    5.40
  -4   2  -7  105.89   10.60
  -4   2  -7   81.49    9.60
   4  -2   7   87.09    6.30
   4  -2   7   82.09    5.20
   4  -2   7   84.89    5.80
  -5   2  -7   30.20    3.60
   5  -2   7   31.90    3.90
   5  -2   7   33.00    4.30
   5  -2   7   29.60    3.80
  -6   2  -7    1.00    2.40
   6  -2   7    2.30    2.30
   6  -2   7    0.70    2.10
   6  -2   7    1.80    2.30
  -7   2  -7    0.20    2.30
   7  -2   7   -2.10    1.40
   7  -2   7    0.00    2.00
   7  -2   7    0.00    2.40
  -8   2  -7    8.20    3.10
  -8   2  -7    0.30    2.70
   8  -2   7   -1.40    2.70
   8  -2   7   -0.70    2.20
   7   1  -7   -1.00    2.00
   7   1  -7    1.90    3.10
  -7  -1   7   -0.20    2.20
  -7  -1   7   -2.50    3.40
   6   1  -7    4.60    3.00
   6   1  -7   -0.50    1.60
  -6  -1   7    0.90    3.20
  -6  -1   7    0.80    2.40
   5   1  -7   32.50    3.60
   5   1  -7   33.00    4.90
  -5  -1   7   30.90    4.60
  -5  -1   7   18.80    4.50
   4   1  -7   53.49    4.20
   4   1  -7   50.59    5.40
  -4  -1   7   60.99    7.10
  -4  -1   7   64.29    7.20
  -4  -1   7   62.49    5.70
   3   1  -7    5.60    1.80
   3   1  -7    4.20    3.20
   3   1  -7    5.90    2.40
  -3  -1   7    6.20    2.80
  -3  -1   7    5.50    2.20
  -3  -1   7    4.00    2.70
   2   1  -7    0.40    0.90
   2   1  -7    2.00    2.90
   2   1  -7    4.20    2.40
   2   1  -7    2.30    1.20
  -2  -1   7    2.60    1.80
  -2  -1   7    4.50    2.20
   1   1  -7    1.00    2.00
   1   1  -7    1.50    2.00
   1   1  -7   -0.40    1.00
  -1  -1   7   -0.70    1.50
  -1  -1   7    0.70    1.50
  -1  -1   7   -0.70    0.80
   0   1  -7    4.20    2.20
   0   1  -7    2.30    1.30
   0   1  -7    1.90    2.00
   0  -1   7    3.70    1.00
   0  -1   7    6.60    1.20
   0  -1   7    5.80    2.40
   0  -1   7    5.00    1.90
  -1   1  -7    0.80    1.70
  -1   1  -7    0.60    1.30
  -1   1  -7    1.30    2.40
   1  -1   7   -2.10    1.60
   1  -1   7    0.20    0.60
   1  -1   7    0.70    1.10
   1  -1   7    0.80    1.50
  -2   1  -7   17.70    4.10
  -2   1  -7   11.30    3.20
  -2   1  -7   19.30    3.10
   2  -1   7   20.30    1.50
   2  -1   7   20.90    2.60
   2  -1   7   20.20    3.20
   2  -1   7   18.90    2.30
  -3   1  -7    0.90    1.70
  -3   1  -7   -0.30    0.50
  -3   1  -7   -0.10    1.80
  -3   1  -7    0.50    1.70
   3  -1   7    1.70    1.60
   3  -1   7   -0.30    1.70
  -4   1  -7   76.49    8.70
  -4   1  -7   70.49    4.90
  -4   1  -7   84.49    9.30
  -4   1  -7   68.19    4.40
   4  -1   7   65.39    5.20
   4  -1   7   67.49    4.60
  -5   1  -7   30.40    6.70
  -5   1  -7   33.50    4.00
   5  -1   7   29.80    3.70
   5  -1   7   33.80    4.10
  -6   1  -7   -1.10    1.50
  -6   1  -7    1.70    1.80
  -6   1  -7   -2.80    1.70
   6  -1   7   -1.70    2.00
   6  -1   7   -0.90    1.90
  -7   1  -7   -0.70    2.30
  -7   1  -7    2.80    2.40
   7  -1   7    0.10    1.80
   7  -1   7   -2.80    2.20
   7  -1   7   -0.10    1.60
  -8   1  -7    5.40    3.00
  -8   1  -7   -2.10    2.40
   8  -1   7   -0.80    2.00
   8  -1   7    0.90    2.30
   8  -1   7   -0.10    3.00
  -9   1  -7   -3.20    2.60
  -9   1  -7    9.90    3.20
   9  -1   7    1.00    2.30
   7   0  -7    2.10    2.40
   7   0  -7    3.10    2.90
  -7   0   7   -0.20    2.10
  -7   0   7   -2.60    3.20
   6   0  -7    9.90    3.30
   6   0  -7    4.70    2.30
  -6   0   7    3.50    3.70
  -6   0   7    2.70    2.40
   5   0  -7    2.20    1.90
   5   0  -7   -0.30    2.30
  -5   0   7   -1.00    1.90
  -5   0   7    3.60    3.30
  -5   0   7   -0.10    2.20
   4   0  -7   -1.10    2.10
   4   0  -7   -0.80    1.40
  -4   0   7   -0.90    2.40
  -4   0   7   -1.60    2.30
  -4   0   7   -0.70    1.60
   3   0  -7  116.69    7.20
   3   0  -7  111.19    6.10
  -3   0   7  120.79    8.40
  -3   0   7  125.49    8.90
  -3   0   7  115.19    7.20
   2   0  -7  108.39    6.60
   2   0  -7  109.99    6.00
   2   0  -7  115.49   10.30
   2   0  -7  111.39    5.70
  -2   0   7  112.09    8.00
  -2   0   7  108.29    6.70
   1   0  -7    1.00    2.30
   1   0  -7    4.60    2.10
   1   0  -7    2.50    1.20
  -1   0   7    3.60    1.60
  -1   0   7    3.10    2.20
  -1   0   7    2.60    1.10
   0   0  -7    4.70    1.80
   0   0  -7    3.30    1.90
   0   0  -7    1.80    1.20
   0   0   7    4.60    2.20
   0   0   7    2.00    1.00
   0   0   7    2.70    1.60
  -1   0  -7    0.10    1.20
  -1   0  -7   -0.70    1.50
  -1   0  -7    0.80    2.20
   1   0   7    0.50    1.40
   1   0   7    0.30    0.70
   1   0   7   -0.30    1.70
  -2   0  -7   62.09    4.40
  -2   0  -7   58.69    6.50
  -2   0  -7   66.09    7.90
   2   0   7   54.79    4.50
   2   0   7   60.29    5.20
   2   0   7   59.79    4.20
  -3   0  -7   19.40    3.00
  -3   0  -7   11.70    3.00
  -3   0  -7   17.90    2.10
   3   0   7   16.70    2.90
   3   0   7   22.20    3.40
   3   0   7   18.60    2.10
  -4   0  -7    0.60    2.00
  -4   0  -7    1.20    1.70
  -4   0  -7    0.50    0.70
  -4   0  -7    1.10    2.00
   4   0   7    0.70    1.50
   4   0   7    0.20    1.80
  -5   0  -7  274.47   17.00
  -5   0  -7  251.27   10.40
  -5   0  -7  229.68   15.00
   5   0   7  234.18    9.20
   5   0   7  241.98   10.40
  -6   0  -7  166.28    8.10
  -6   0  -7  185.88   14.50
  -6   0  -7  165.58   11.80
   6   0   7  174.08    8.50
   6   0   7  163.88    7.70
  -7   0  -7    0.60    2.50
  -7   0  -7    2.20    2.30
   7   0   7    2.10    2.40
   7   0   7    0.10    2.60
  -8   0  -7    4.90    2.60
  -8   0  -7   -0.50    2.70
   8   0   7    1.20    2.40
  -9   0  -7    0.90    2.60
  -9   0  -7   -3.90    2.50
   9   0   7    0.60    2.60
   7  -1  -7    3.50    2.70
   7  -1  -7    3.50    2.70
  -7   1   7    1.90    2.40
  -7   1   7    1.00    3.60
   6  -1  -7    0.10    2.50
   6  -1  -7    1.70    2.10
  -6   1   7    0.70    2.00
  -6   1   7   -0.70    2.80
   5  -1  -7    4.10    2.20
   5  -1  -7    2.30    2.40
  -5   1   7    0.90    2.60
  -5   1   7    0.70    1.60
   4  -1  -7   26.10    3.90
   4  -1  -7   27.90    3.40
  -4   1   7   32.30    4.30
  -4   1   7   15.10    3.10
  -4   1   7   21.40    4.10
   3  -1  -7   22.70    3.00
   3  -1  -7   21.40    3.60
  -3   1   7   24.10    3.90
  -3   1   7   28.00    5.20
  -3   1   7   19.40    3.50
   2  -1  -7   58.19    4.80
   2  -1  -7   55.79    4.10
  -2   1   7   61.49    6.00
  -2   1   7   56.89    5.40
  -2   1   7   60.59    5.00
   1  -1  -7    4.90    1.20
   1  -1  -7    7.00    2.20
   1  -1  -7    6.80    2.00
  -1   1   7    5.00    1.50
  -1   1   7   10.80    2.70
  -1   1   7    5.90    1.80
   0  -1  -7   70.59    5.00
   0  -1  -7   74.19    6.00
   0  -1  -7   76.09    7.50
   0  -1  -7   67.69    4.50
   0   1   7   78.69    6.00
   0   1   7   81.69    5.40
   0   1   7   80.69    5.20
   0   1   7   74.79    5.30
  -1  -1  -7   65.09    4.50
  -1  -1  -7   64.89    7.50
  -1  -1  -7   61.29    4.30
  -1  -1  -7   63.49    5.90
   1   1   7   58.59    4.40
   1   1   7   59.99    4.40
   1   1   7   57.79    5.40
   1   1   7   62.09    5.20
  -2  -1  -7   41.80    5.60
  -2  -1  -7   46.10    3.80
  -2  -1  -7   44.20    3.40
  -2  -1  -7   46.70    6.60
   2   1   7   43.00    3.90
   2   1   7   41.50    4.70
   2   1   7   46.60    4.00
  -3  -1  -7   58.69    6.80
  -3  -1  -7   50.29    4.00
  -3  -1  -7   51.59    3.80
  -3  -1  -7   44.80    5.60
   3   1   7   46.30    4.00
   3   1   7   52.19    4.60
  -4  -1  -7    8.20    2.30
  -4  -1  -7    9.20    2.50
  -4  -1  -7   19.80    3.00
   4   1   7   10.40    2.00
   4   1   7   17.20    2.20
   4   1   7   16.30    2.80
  -5  -1  -7    1.40    1.80
  -5  -1  -7   -2.10    1.80
  -5  -1  -7    0.80    1.70
   5   1   7    1.60    1.60
   5   1   7   -0.10    1.90
  -6  -1  -7   -0.80    2.20
  -6  -1  -7   -0.10    0.80
  -6  -1  -7    0.50    2.10
  -6  -1  -7   -1.10    1.90
  -6  -1  -7    0.00    1.40
   6   1   7   -2.80    1.80
  -7  -1  -7  134.99    9.70
  -7  -1  -7  109.49    6.60
  -7  -1  -7  124.69   12.50
   7   1   7  114.39    7.00
  -8  -1  -7   -0.30    2.70
  -8  -1  -7    0.40    2.10
   8   1   7    2.90    2.40
  -9  -1  -7   -1.10    2.70
  -9  -1  -7    3.50    3.40
   9   1   7    0.20    2.30
   7  -2  -7    0.50    2.50
   7  -2  -7    1.00    2.70
  -7   2   7   -3.30    2.90
  -7   2   7   -0.40    1.90
   6  -2  -7    4.10    2.50
   6  -2  -7    8.70    2.90
  -6   2   7    2.70    3.10
  -6   2   7    4.20    2.40
   5  -2  -7    3.20    2.30
   5  -2  -7   -1.80    1.60
  -5   2   7   -0.60    1.80
  -5   2   7   -0.20    2.60
   4  -2  -7   12.20    2.90
   4  -2  -7    5.80    2.00
  -4   2   7    5.10    2.20
  -4   2   7    7.20    2.90
  -4   2   7    8.90    2.50
   3  -2  -7    0.10    1.90
   3  -2  -7    0.00    1.00
   3  -2  -7   -0.30    1.80
  -3   2   7   -2.60    1.40
  -3   2   7   -1.30    1.40
  -3   2   7   -0.30    1.80
   2  -2  -7   32.60    3.40
   2  -2  -7   37.30    3.80
   2  -2  -7   37.60    3.70
   2  -2  -7   36.90    3.50
  -2   2   7   38.10    4.20
  -2   2   7   32.30    4.40
  -2   2   7   36.30    3.80
   1  -2  -7   18.90    2.80
   1  -2  -7   21.70    3.10
  -1   2   7   23.10    4.10
  -1   2   7   16.90    2.80
  -1   2   7   17.30    3.60
  -1   2   7   18.40    2.30
   0  -2  -7  216.08    9.60
   0  -2  -7  221.28   11.70
   0  -2  -7  218.48    9.10
   0   2   7  210.28   10.80
   0   2   7  222.68   11.40
   0   2   7  217.88    9.10
   0   2   7  204.58   10.70
  -1  -2  -7   22.90    4.20
  -1  -2  -7   21.50    2.90
  -1  -2  -7   17.60    2.40
   1   2   7   20.80    3.60
   1   2   7   19.00    3.20
   1   2   7   20.20    3.20
   1   2   7   17.20    1.60
   1   2   7   19.90    2.90
  -2  -2  -7   58.09    4.10
  -2  -2  -7   54.29    6.00
  -2  -2  -7   50.59    4.00
   2   2   7   54.59    4.10
   2   2   7   57.49    5.10
   2   2   7   47.70    4.40
  -3  -2  -7   12.90    2.50
  -3  -2  -7    7.50    1.90
   3   2   7   11.70    2.50
   3   2   7    7.30    1.60
  -4  -2  -7    2.90    1.90
  -4  -2  -7    3.70    1.90
   4   2   7    3.00    1.50
   4   2   7    5.20    2.10
  -5  -2  -7   16.00    2.90
  -5  -2  -7   13.30    2.70
  -5  -2  -7    7.00    2.60
   5   2   7   11.50    2.60
   5   2   7    8.60    2.20
  -6  -2  -7    0.20    1.90
  -6  -2  -7   -1.40    1.80
  -6  -2  -7   -0.60    2.20
   6   2   7    0.40    1.00
   6   2   7    0.70    2.10
  -7  -2  -7   -0.50    1.80
  -7  -2  -7   -1.50    2.30
  -7  -2  -7    1.80    2.40
   7   2   7    0.70    2.20
  -8  -2  -7    4.60    2.30
  -8  -2  -7    6.10    3.20
  -8  -2  -7   -0.60    2.60
   8   2   7    0.80    2.30
  -9  -2  -7   -2.70    2.80
  -9  -2  -7    1.60    3.10
   9   2   7    0.40    2.60
 -10  -2  -7   -3.10    2.90
 -10  -2  -7    2.80    3.60
  10   2   7   -0.70    2.40
   6  -3  -7    2.30    2.40
   6  -3  -7    1.00    2.20
  -6   3   7   -4.70    2.60
  -6   3   7    1.80    2.10
   5  -3  -7   -1.20    2.10
   5  -3  -7    1.20    2.00
  -5   3   7   -3.60    1.90
  -5   3   7   -1.10    1.70
   4  -3  -7    4.10    2.30
   4  -3  -7    5.30    2.10
  -4   3   7    2.10    1.90
  -4   3   7    0.70    2.10
   3  -3  -7    0.70    1.70
   3  -3  -7    0.80    1.60
  -3   3   7    0.30    1.40
  -3   3   7   -0.10    0.90
  -3   3   7   -0.20    1.40
  -3   3   7   -0.70    1.70
   2  -3  -7   29.50    3.30
   2  -3  -7   23.20    3.00
   2  -3  -7   23.10    3.20
   2  -3  -7   22.90    2.70
  -2   3   7   23.40    2.20
  -2   3   7   31.30    4.80
  -2   3   7   23.20    2.40
  -2   3   7   22.60    3.40
  -2   3   7   30.50    3.40
   1  -3  -7   -0.20    0.80
   1  -3  -7    0.90    1.70
   1  -3  -7   -0.40    1.30
  -1   3   7   -0.30    0.70
  -1   3   7    0.30    1.10
  -1   3   7    0.60    1.00
  -1   3   7    0.60    1.20
  -1   3   7    0.60    1.30
  -1   3   7   -1.00    1.20
   0  -3  -7    1.40    1.50
   0  -3  -7    1.60    0.80
   0  -3  -7   -0.20    1.20
   0   3   7   -0.40    0.90
   0   3   7    0.30    1.40
   0   3   7    2.30    1.30
   0   3   7    1.30    1.20
   0   3   7    0.40    1.10
  -1  -3  -7  126.79    6.20
  -1  -3  -7  130.79    8.60
  -1  -3  -7  125.49    5.60
  -1  -3  -7  127.79    6.30
   1   3   7  124.49    8.20
   1   3   7  137.99    7.60
   1   3   7  132.29    7.90
   1   3   7  121.09    6.20
  -2  -3  -7    3.80    1.70
  -2  -3  -7    6.70    2.00
   2   3   7    7.60    2.10
   2   3   7    4.40    1.50
   2   3   7    3.40    1.50
  -3  -3  -7   81.19    5.10
  -3  -3  -7   83.99    4.70
  -3  -3  -7   90.59    7.90
   3   3   7   87.99    6.10
   3   3   7   84.99    6.40
   3   3   7   80.29    5.10
  -4  -3  -7   84.99    5.20
  -4  -3  -7   77.49    7.40
  -4  -3  -7   89.29    5.50
   4   3   7   78.09    4.90
   4   3   7   90.69    6.70
  -5  -3  -7   -1.20    1.60
  -5  -3  -7    0.00    1.90
  -5  -3  -7    0.40    1.40
   5   3   7    0.10    1.60
   5   3   7   -1.60    1.60
   5   3   7   -1.80    1.40
  -6  -3  -7    2.90    1.80
  -6  -3  -7    1.50    2.30
  -6  -3  -7    1.60    2.00
   6   3   7    0.80    1.30
   6   3   7    0.80    2.00
   6   3   7    2.10    2.20
  -7  -3  -7    7.30    2.60
  -7  -3  -7    2.70    2.80
  -7  -3  -7   10.00    3.30
   7   3   7    5.30    2.60
  -8  -3  -7   -3.10    2.30
  -8  -3  -7    3.00    2.90
  -8  -3  -7   -2.10    2.00
   8   3   7   -0.50    2.30
  -9  -3  -7   -0.60    3.00
  -9  -3  -7   -3.30    2.80
   9   3   7    1.40    2.60
 -10  -3  -7   -5.50    3.10
 -10  -3  -7    0.00    3.50
  10   3   7   -0.10    2.90
   6  -4  -7    0.30    1.90
   6  -4  -7    2.00    2.50
  -6   4   7   -0.20    2.00
   5  -4  -7    0.20    2.10
   5  -4  -7    2.90    2.10
  -5   4   7   -4.70    2.00
  -5   4   7    1.20    1.80
   4  -4  -7   35.20    4.30
   4  -4  -7   45.70    4.30
  -4   4   7   32.50    5.00
  -4   4   7   40.70    5.90
   3  -4  -7    0.10    1.70
   3  -4  -7   -0.20    1.50
  -3   4   7   -1.00    0.90
  -3   4   7    0.10    1.40
  -3   4   7   -1.40    1.50
  -3   4   7   -0.60    1.40
   2  -4  -7   18.20    2.80
   2  -4  -7   23.50    3.10
   2  -4  -7   21.90    2.90
  -2   4   7   23.50    4.30
  -2   4   7   13.30    3.10
  -2   4   7   25.60    2.70
  -2   4   7   21.90    2.50
  -2   4   7   20.00    3.30
   1  -4  -7   23.80    2.90
   1  -4  -7   27.50    3.30
   1  -4  -7   23.90    2.80
  -1   4   7   30.60    2.90
  -1   4   7   19.40    3.80
  -1   4   7   25.90    4.10
  -1   4   7   25.80    2.80
  -1   4   7   27.60    4.40
  -1   4   7   22.90    2.40
   0  -4  -7   11.70    2.30
   0  -4  -7   11.70    2.40
   0   4   7    7.10    1.60
   0   4   7    8.60    1.90
   0   4   7    8.40    1.90
   0   4   7   15.20    2.40
   0   4   7   13.20    1.90
  -1  -4  -7    2.10    1.60
  -1  -4  -7    3.70    1.60
   1   4   7    3.10    1.30
   1   4   7    1.10    1.20
   1   4   7    1.30    1.30
   1   4   7    3.00    1.60
  -2  -4  -7  108.69    8.20
  -2  -4  -7   92.89    5.40
   2   4   7  103.39    6.40
   2   4   7  102.29    7.00
   2   4   7   98.89    5.50
  -3  -4  -7    7.80    2.10
  -3  -4  -7    6.10    1.10
  -3  -4  -7    4.20    1.80
  -3  -4  -7    7.70    1.20
   3   4   7    4.20    1.40
   3   4   7    7.00    2.10
   3   4   7    4.10    1.50
  -4  -4  -7    5.70    2.20
  -4  -4  -7    4.60    1.50
  -4  -4  -7    9.30    2.30
   4   4   7    7.30    2.10
   4   4   7    3.40    1.60
  -5  -4  -7    3.40    2.20
  -5  -4  -7    6.10    2.30
  -5  -4  -7    3.80    1.80
   5   4   7    2.50    2.10
   5   4   7    3.40    1.80
  -6  -4  -7    0.00    1.90
  -6  -4  -7   -0.80    1.70
  -6  -4  -7   -0.30    1.70
   6   4   7    1.30    2.00
   6   4   7    1.60    2.00
  -7  -4  -7    4.60    2.40
  -7  -4  -7    7.00    2.80
  -7  -4  -7   11.20    2.90
   7   4   7    9.90    2.90
  -8  -4  -7    5.30    2.70
  -8  -4  -7    2.30    2.90
  -8  -4  -7    4.60    3.30
   8   4   7    4.40    2.80
  -9  -4  -7    2.20    2.50
  -9  -4  -7   -2.40    2.70
  -9  -4  -7   -0.20    3.20
   9   4   7    2.00    2.80
 -10  -4  -7   -4.40    2.90
 -10  -4  -7   -5.30    3.40
  10   4   7    3.00    3.00
   6  -5  -7    2.60    2.80
  -6   5   7    1.00    2.00
   5  -5  -7    2.00    1.80
   5  -5  -7    2.20    2.50
  -5   5   7    3.60    2.20
   4  -5  -7    1.50    1.70
   4  -5  -7    0.90    1.70
  -4   5   7    0.30    1.60
  -4   5   7   -2.40    1.70
   3  -5  -7   27.40    3.80
   3  -5  -7   27.40    3.20
  -3   5   7   27.50    4.80
  -3   5   7   27.20    4.10
  -3   5   7   36.70    5.90
   2  -5  -7   48.60    4.30
   2  -5  -7   50.79    3.90
   2  -5  -7   40.20    3.80
  -2   5   7   47.70    6.00
  -2   5   7   42.10    3.80
  -2   5   7   40.50    3.30
  -2   5   7   49.20    5.50
   1  -5  -7    9.60    2.20
   1  -5  -7    9.20    2.10
   1  -5  -7    7.80    2.10
   1  -5  -7    6.40    1.70
  -1   5   7    7.70    1.90
  -1   5   7    4.10    1.70
  -1   5   7    4.50    1.70
  -1   5   7    4.20    1.10
  -1   5   7    0.50    1.40
   0  -5  -7    5.80    1.80
   0  -5  -7    5.40    1.80
   0   5   7    5.20    1.60
   0   5   7    4.40    1.60
   0   5   7    8.60    1.90
  -1  -5  -7   18.50    2.80
  -1  -5  -7   16.20    2.40
   1   5   7   18.80    3.30
   1   5   7   16.40    2.50
  -2  -5  -7   -1.30    0.70
  -2  -5  -7   -0.60    1.20
  -2  -5  -7    1.50    1.60
   2   5   7   -0.30    1.40
   2   5   7    0.10    1.10
   2   5   7    1.40    1.10
  -3  -5  -7   11.60    1.70
  -3  -5  -7    6.80    2.20
  -3  -5  -7   12.20    2.50
  -3  -5  -7   12.30    1.70
   3   5   7   22.80    3.70
   3   5   7   15.60    2.70
   3   5   7    7.60    2.00
  -4  -5  -7   27.60    3.40
  -4  -5  -7   28.90    3.10
  -4  -5  -7   35.00    6.40
   4   5   7   28.50    3.10
   4   5   7   28.30    4.60
  -5  -5  -7   20.60    3.40
  -5  -5  -7   20.30    3.70
  -5  -5  -7   22.00    5.20
   5   5   7   28.60    5.30
   5   5   7   22.50    3.50
  -6  -5  -7  135.99    8.40
  -6  -5  -7  127.79    7.30
  -6  -5  -7  109.69   10.20
   6   5   7  131.59    9.90
   6   5   7  135.89    7.50
   6   5   7  118.59    9.00
  -7  -5  -7   34.20    4.50
  -7  -5  -7   32.40    6.00
   7   5   7   36.10    4.50
  -8  -5  -7   -0.70    2.30
  -8  -5  -7   -0.40    2.50
  -8  -5  -7   -1.20    2.90
   8   5   7    3.20    2.30
  -9  -5  -7   -2.40    2.70
  -9  -5  -7   -2.10    3.20
  -9  -5  -7   -3.00    2.10
   9   5   7   -0.50    2.60
 -10  -5  -7   -1.90    2.20
 -10  -5  -7   -6.20    3.40
  10   5   7   -0.80    2.90
   5  -6  -7    3.60    2.60
  -5   6   7    1.70    2.00
  -5   6   7    1.80    2.00
   4  -6  -7   -0.30    1.40
   4  -6  -7    0.40    2.00
  -4   6   7    1.30    1.60
  -4   6   7    0.40    1.30
   3  -6  -7    0.00    2.60
   3  -6  -7    4.80    2.40
   3  -6  -7    3.00    1.70
  -3   6   7    0.40    1.50
  -3   6   7    3.00    1.90
  -3   6   7    1.00    1.80
   2  -6  -7    2.10    1.80
   2  -6  -7   -0.50    2.00
   2  -6  -7   -0.90    1.50
  -2   6   7   -0.40    1.30
  -2   6   7    1.10    1.50
  -2   6   7   -1.40    1.00
   1  -6  -7   11.70    2.70
   1  -6  -7    9.80    2.30
   1  -6  -7    8.60    1.90
   1  -6  -7   10.70    2.20
  -1   6   7   10.90    1.90
  -1   6   7    4.80    1.80
  -1   6   7    5.10    1.80
  -1   6   7    6.30    1.20
   0  -6  -7   10.80    2.10
   0  -6  -7    6.60    2.10
   0  -6  -7    9.00    1.90
   0   6   7    8.90    1.90
   0   6   7    5.30    1.60
   0   6   7    3.50    1.70
  -1  -6  -7    4.90    1.70
  -1  -6  -7    7.50    2.10
  -1  -6  -7   10.00    1.60
   1   6   7    9.00    1.90
   1   6   7    5.50    1.80
   1   6   7    4.40    1.50
  -2  -6  -7    1.40    1.60
  -2  -6  -7    0.40    1.10
  -2  -6  -7   -0.80    1.20
   2   6   7    0.30    0.90
   2   6   7   -1.00    1.20
   2   6   7    0.30    1.10
  -3  -6  -7    6.20    1.60
  -3  -6  -7    4.60    1.90
   3   6   7    3.20    1.50
   3   6   7    5.60    2.00
   3   6   7    5.60    1.50
  -4  -6  -7    0.30    1.40
  -4  -6  -7    0.60    1.80
  -4  -6  -7    0.40    1.20
   4   6   7    0.50    1.10
   4   6   7    1.00    1.70
  -5  -6  -7    0.00    1.50
  -5  -6  -7    0.60    2.00
  -5  -6  -7    0.30    2.00
   5   6   7   -3.10    1.60
   5   6   7    0.60    1.40
  -6  -6  -7    7.70    2.90
  -6  -6  -7    5.50    2.50
  -6  -6  -7    3.40    2.00
   6   6   7    7.70    2.90
   6   6   7    4.90    2.50
  -7  -6  -7    6.40    2.90
  -7  -6  -7    4.40    2.70
  -7  -6  -7    1.80    2.70
   7   6   7    2.30    2.50
   7   6   7    5.00    2.70
  -8  -6  -7   -2.40    2.60
  -8  -6  -7    2.80    2.20
  -8  -6  -7   -1.60    2.30
   8   6   7    2.50    2.70
  -9  -6  -7    2.00    2.70
  -9  -6  -7   -3.50    2.40
  -9  -6  -7   -4.60    3.10
   9   6   7   -0.30    2.10
 -10  -6  -7   -3.00    2.50
 -10  -6  -7   -0.60    2.70
 -10  -6  -7   -4.70    3.70
  10   6   7   -0.90    2.90
   5  -7  -7    3.20    2.90
  -5   7   7    2.10    2.10
  -5   7   7    3.20    2.30
   4  -7  -7   -0.70    3.20
   4  -7  -7    4.10    2.80
  -4   7   7    3.60    2.00
  -4   7   7    1.40    2.00
   3  -7  -7    5.30    3.00
   3  -7  -7    8.00    2.80
   3  -7  -7    6.10    1.60
  -3   7   7    2.80    2.00
  -3   7   7    3.70    2.00
   2  -7  -7   -0.10    2.20
   2  -7  -7    0.80    1.50
   2  -7  -7    0.20    1.40
  -2   7   7    1.20    1.50
  -2   7   7    1.90    1.50
   1  -7  -7   14.10    2.40
   1  -7  -7   15.80    2.70
   1  -7  -7   13.90    3.00
  -1   7   7    7.20    2.30
  -1   7   7    9.80    2.20
   0  -7  -7    2.60    1.70
   0  -7  -7    3.20    1.70
   0  -7  -7    2.20    1.60
   0  -7  -7    5.60    2.00
   0   7   7    1.00    1.40
   0   7   7    1.60    1.60
   0   7   7    3.60    1.40
  -1  -7  -7    0.00    1.40
  -1  -7  -7    1.10    1.50
  -1  -7  -7   -0.30    1.70
  -1  -7  -7    0.70    1.40
   1   7   7    0.60    1.30
   1   7   7   -0.30    1.10
   1   7   7    0.80    1.40
  -2  -7  -7   20.80    2.80
  -2  -7  -7   21.70    3.40
  -2  -7  -7   23.30    3.00
  -2  -7  -7   21.10    2.40
   2   7   7   23.30    4.70
   2   7   7   19.40    2.80
   2   7   7   19.30    3.60
  -3  -7  -7    1.00    1.80
  -3  -7  -7    0.90    1.50
  -3  -7  -7    1.40    0.90
   3   7   7    1.60    1.20
   3   7   7    0.10    1.10
   3   7   7   -0.30    1.40
  -4  -7  -7   26.80    3.70
  -4  -7  -7   29.70    3.30
  -4  -7  -7   29.30    3.40
   4   7   7   31.70    5.60
   4   7   7   27.20    3.60
  -5  -7  -7   13.30    2.80
  -5  -7  -7    9.80    2.40
   5   7   7    8.00    2.70
   5   7   7   10.70    2.70
  -6  -7  -7   -0.10    2.20
  -6  -7  -7   -0.30    2.00
   6   7   7    1.00    2.30
   6   7   7   -1.30    2.00
  -7  -7  -7    3.90    2.70
  -7  -7  -7   -0.70    2.60
  -7  -7  -7   -0.40    1.70
   7   7   7    1.50    2.50
   7   7   7    2.80    2.60
  -8  -7  -7   -2.80    3.00
  -8  -7  -7   -1.80    2.40
  -8  -7  -7    0.60    2.40
   8   7   7   -2.20    2.60
   8   7   7    1.00    2.60
  -9  -7  -7    0.80    2.80
  -9  -7  -7   -4.90    3.20
  -9  -7  -7    0.70    2.40
   9   7   7    1.10    2.80
 -10  -7  -7   -7.90    3.60
 -10  -7  -7   -1.70    2.70
 -10  -7  -7    0.90    2.70
  10   7   7    0.90    3.00
   4  -8  -7    0.50    2.30
   4  -8  -7    0.20    3.60
  -4   8   7    4.20    2.20
  -4   8   7    0.00    1.80
   3  -8  -7    1.30    2.10
   3  -8  -7    2.70    3.10
  -3   8   7    2.60    1.80
  -3   8   7    1.70    1.70
   2  -8  -7    0.90    1.90
   2  -8  -7    0.30    2.40
   2  -8  -7   -1.00    1.20
  -2   8   7   -0.60    1.30
  -2   8   7   -1.60    1.30
   1  -8  -7   -2.20    1.40
   1  -8  -7    0.20    2.00
   1  -8  -7    0.40    1.30
  -1   8   7   -1.60    1.10
  -1   8   7   -0.20    1.30
   0  -8  -7   15.30    2.80
   0  -8  -7   12.20    2.80
   0  -8  -7   13.60    2.50
   0   8   7    8.80    2.10
   0   8   7    6.90    2.20
  -1  -8  -7   20.50    3.00
  -1  -8  -7   19.90    3.20
  -1  -8  -7   21.50    3.20
   1   8   7    9.90    2.00
   1   8   7   11.50    2.70
   1   8   7   16.00    2.50
  -2  -8  -7   14.00    2.70
  -2  -8  -7   18.50    2.80
  -2  -8  -7   19.90    2.70
   2   8   7   16.00    2.70
   2   8   7   10.30    2.50
  -3  -8  -7    6.60    2.00
  -3  -8  -7    4.50    1.10
  -3  -8  -7    6.70    2.40
   3   8   7    2.70    1.90
   3   8   7    5.90    2.10
  -4  -8  -7   30.90    4.00
   4   8   7   32.10    5.90
   4   8   7   32.80    3.90
  -5  -8  -7    4.60    2.50
  -5  -8  -7    4.30    2.10
   5   8   7    3.70    2.30
   5   8   7    5.20    2.40
  -6  -8  -7    9.40    3.10
  -6  -8  -7    7.10    2.70
   6   8   7    4.10    2.60
   6   8   7    9.80    3.00
  -7  -8  -7   -0.40    2.40
  -7  -8  -7    0.30    2.70
   7   8   7   -1.90    2.30
   7   8   7   -3.20    2.20
  -8  -8  -7    0.70    2.70
  -8  -8  -7   -4.10    2.90
   8   8   7   -5.30    2.50
   8   8   7    2.90    2.80
  -9  -8  -7   -3.30    3.60
  -9  -8  -7    1.90    2.90
   9   8   7    4.90    3.30
   3  -9  -7   -3.10    3.20
   3  -9  -7    4.00    2.70
  -3   9   7    0.80    1.50
  -3   9   7    1.10    1.80
   2  -9  -7   10.90    3.80
   2  -9  -7    8.10    2.90
  -2   9   7    7.00    2.50
  -2   9   7    7.00    2.10
   1  -9  -7    3.60    1.80
   1  -9  -7    2.80    1.60
   1  -9  -7    4.80    2.80
  -1   9   7    2.50    1.60
  -1   9   7    1.10    1.70
   0  -9  -7    2.80    2.00
   0  -9  -7    0.10    1.70
   0  -9  -7    2.00    2.20
   0   9   7    0.20    1.50
   0   9   7   -0.90    1.20
  -1  -9  -7    0.10    1.90
  -1  -9  -7   -0.70    1.50
  -1  -9  -7   -0.10    1.90
  -1  -9  -7   -3.00    1.60
   1   9   7   -0.80    1.30
   1   9   7   -1.50    1.00
  -2  -9  -7    9.90    2.30
  -2  -9  -7   10.10    2.60
  -2  -9  -7    9.70    2.60
   2   9   7    7.60    2.30
  -3  -9  -7   14.30    2.90
  -3  -9  -7   22.20    3.30
  -3  -9  -7   13.50    3.00
   3   9   7   12.10    2.80
   3   9   7   16.70    2.90
  -4  -9  -7   -1.10    1.90
   4   9   7   -0.30    1.80
   4   9   7    2.20    1.90
  -5  -9  -7    0.60    2.20
   5   9   7    1.70    2.30
   5   9   7    2.50    2.20
  -6  -9  -7    3.20    2.70
  -6  -9  -7    1.10    2.20
   6   9   7    2.60    2.60
   6   9   7    1.60    2.50
  -7  -9  -7    0.20    2.80
  -7  -9  -7    0.90    2.70
   7   9   7   -1.30    2.20
   7   9   7   -3.10    2.50
  -8  -9  -7    4.20    3.10
  -8  -9  -7   -1.90    2.70
   8   9   7   -0.10    2.10
   8   9   7   -5.00    2.60
  -9  -9  -7   -3.50    3.60
  -9  -9  -7   -0.60    3.10
   9   9   7    1.40    3.00
   2 -10  -7   -0.20    3.10
   2 -10  -7    4.60    2.60
  -2  10   7    4.10    2.20
   1 -10  -7   -1.50    2.60
   1 -10  -7   -0.10    1.50
  -1  10   7   -0.40    1.40
   0 -10  -7    6.40    2.10
   0 -10  -7    2.90    2.10
   0 -10  -7    8.40    3.00
   0  10   7    2.70    1.80
  -1 -10  -7   -3.00    1.70
  -1 -10  -7    0.60    1.70
  -1 -10  -7    2.30    2.40
  -1 -10  -7   -1.80    1.90
   1  10   7    0.80    1.60
  -2 -10  -7    8.60    2.70
  -2 -10  -7   12.00    2.90
  -2 -10  -7    9.60    2.90
   2  10   7    6.10    2.30
  -3 -10  -7    5.20    2.70
  -3 -10  -7    3.80    2.10
  -3 -10  -7    4.40    2.10
   3  10   7    2.70    2.00
  -4 -10  -7    3.90    2.50
   4  10   7    2.50    2.20
   4  10   7    1.60    1.80
  -5 -10  -7    0.90    2.50
   5  10   7   -2.00    1.70
   5  10   7   -0.50    2.00
  -6 -10  -7   11.60    3.60
   6  10   7    5.60    3.10
   6  10   7   13.70    3.60
  -7 -10  -7   -0.60    2.80
  -7 -10  -7   -4.10    2.30
   7  10   7    1.60    2.60
  -8 -10  -7    0.30    3.00
  -8 -10  -7   -5.00    2.80
   8  10   7   -3.70    3.20
   8  10   7    2.00    2.60
   1 -11  -7    2.30    3.30
   1 -11  -7    2.70    2.30
  -1  11   7    1.90    1.70
   0 -11  -7    2.50    3.00
   0 -11  -7    0.30    1.60
   0 -11  -7   -0.60    1.70
   0  11   7    1.10    1.60
  -1 -11  -7    1.90    3.10
  -1 -11  -7    2.80    2.60
  -1 -11  -7    0.00    2.00
  -1 -11  -7    0.20    1.80
   1  11   7   -0.40    1.60
  -2 -11  -7    9.10    3.00
  -2 -11  -7    5.30    2.10
  -2 -11  -7    3.80    2.50
  -2 -11  -7    4.00    2.60
   2  11   7    2.70    2.00
  -3 -11  -7    3.70    2.30
  -3 -11  -7    0.60    2.00
  -3 -11  -7    1.50    2.60
   3  11   7   -1.20    1.80
  -4 -11  -7    1.40    2.00
  -4 -11  -7    2.70    2.70
   4  11   7    2.00    2.50
  -5 -11  -7   -1.20    2.90
   5  11   7   -2.70    2.10
  -6 -11  -7    1.80    2.80
   6  11   7    0.20    2.20
  -1 -12  -7    2.00    3.10
  -1 -12  -7    0.70    1.70
  -1 -12  -7   -0.50    1.90
   1  12   7   -1.00    1.70
  -2 -12  -7    3.80    2.60
  -2 -12  -7    6.60    3.30
  -2 -12  -7    3.80    2.00
   2  12   7    1.40    2.00
  -3 -12  -7    9.00    3.30
  -3 -12  -7    1.00    2.50
  -3 -12  -7    4.10    2.20
   3  12   7    1.20    2.20
  -4 -12  -7    3.90    3.30
  -4 -12  -7    8.40    3.20
  -4 -12  -7    3.80    2.90
   4  12   7    2.50    2.80
  -5 -12  -7   -5.30    2.80
   5  12   7   -3.00    2.30
   3   6  -8    2.40    3.50
  -3  -6   8   -1.80    3.30
   2   6  -8    2.30    2.90
  -2  -6   8   -6.00    3.20
   1   6  -8    6.70    3.30
  -1  -6   8    3.90    3.60
   0   6  -8    5.80    2.10
   0  -6   8    2.80    3.40
   0  -6   8    3.00    2.20
  -1   6  -8   -1.90    4.50
  -1   6  -8   10.80    3.20
   1  -6   8    6.30    3.80
   1  -6   8   13.20    3.20
  -2   6  -8    3.00    2.50
   2  -6   8    2.00    3.10
   2  -6   8    1.80    2.20
  -3   6  -8    4.10    2.70
   3  -6   8   -3.20    2.60
   3  -6   8    0.30    2.70
   4   5  -8    0.50    2.40
  -4  -5   8   -3.00    2.20
  -4  -5   8   -1.90    2.40
   3   5  -8    2.40    3.00
  -3  -5   8   -0.80    3.10
  -3  -5   8   -2.10    2.00
   2   5  -8   -0.10    3.50
   2   5  -8    8.20    3.60
  -2  -5   8    1.00    2.40
  -2  -5   8    9.30    4.10
   1   5  -8   -2.50    4.20
   1   5  -8    9.10    3.30
  -1  -5   8    7.90    3.90
   0   5  -8    8.80    2.80
   0   5  -8    6.90    3.10
   0  -5   8    7.30    2.30
   0  -5   8    8.20    3.60
  -1   5  -8    2.90    2.30
  -1   5  -8    2.20    2.40
  -1   5  -8   -5.30    3.30
   1  -5   8   -0.50    2.70
   1  -5   8   -0.20    1.70
  -2   5  -8   -4.90    3.20
  -2   5  -8    2.30    2.60
   2  -5   8    0.50    3.00
   2  -5   8    0.10    1.70
  -3   5  -8    2.10    2.60
   3  -5   8   -1.50    2.70
   3  -5   8   -0.20    2.10
  -4   5  -8    2.70    2.60
   4  -5   8    4.60    2.70
   4  -5   8    7.10    3.10
  -5   5  -8    2.60    2.40
   5  -5   8   -0.40    2.70
   5  -5   8    1.90    2.70
   5   4  -8   -3.40    2.80
  -5  -4   8   -5.10    2.20
  -5  -4   8    0.90    3.40
   4   4  -8    1.60    3.00
  -4  -4   8    1.70    2.60
  -4  -4   8   -1.90    2.30
   3   4  -8    4.20    4.90
   3   4  -8   24.30    4.60
  -3  -4   8   21.00    4.80
  -3  -4   8   10.30    3.20
   2   4  -8    3.40    2.90
   2   4  -8    4.10    1.80
  -2  -4   8   -0.50    2.30
  -2  -4   8    3.50    3.20
   1   4  -8    2.40    2.70
   1   4  -8   -4.30    3.30
   1   4  -8    2.10    1.70
  -1  -4   8   -0.90    2.00
  -1  -4   8   -2.50    2.60
   0   4  -8   -3.20    3.30
   0   4  -8   -0.70    2.30
   0   4  -8    2.50    2.00
   0  -4   8    3.20    2.90
  -1   4  -8   -2.80    3.20
  -1   4  -8   -0.10    2.20
  -1   4  -8    0.30    2.00
   1  -4   8   -2.90    2.30
   1  -4   8    0.20    1.50
  -2   4  -8    7.10    3.00
  -2   4  -8   11.70    3.20
  -2   4  -8    1.20    3.50
   2  -4   8    8.40    3.50
   2  -4   8    8.10    2.40
  -3   4  -8    1.60    2.40
  -3   4  -8   -0.20    3.40
   3  -4   8    4.20    2.80
   3  -4   8    7.40    2.60
   3  -4   8    6.30    2.40
  -4   4  -8   -1.10    3.30
  -4   4  -8    3.60    2.70
   4  -4   8    7.30    2.90
   4  -4   8    7.40    2.70
   4  -4   8    2.70    2.90
  -5   4  -8    0.20    1.70
   5  -4   8    1.90    2.20
   5  -4   8    1.20    2.60
   5  -4   8    0.80    2.50
  -6   4  -8    1.80    2.70
   6  -4   8   -0.70    2.70
   6  -4   8    1.40    2.40
   5   3  -8   -6.10    3.60
   5   3  -8    0.70    3.20
  -5  -3   8   -4.10    2.10
  -5  -3   8   -1.80    2.80
   4   3  -8   -3.70    3.50
   4   3  -8    1.80    2.30
  -4  -3   8    0.60    3.00
  -4  -3   8   -0.80    2.30
   3   3  -8    4.10    2.60
   3   3  -8   -4.20    3.40
  -3  -3   8    3.40    3.10
  -3  -3   8   -0.80    2.30
   2   3  -8    3.20    2.80
   2   3  -8    2.60    1.40
   2   3  -8   -3.50    3.40
  -2  -3   8   -0.60    2.20
  -2  -3   8    2.70    3.00
   1   3  -8    8.50    4.40
   1   3  -8   18.90    3.70
   1   3  -8   26.40    5.40
  -1  -3   8   12.60    3.00
   0   3  -8   13.90    3.40
   0   3  -8    9.50    2.60
   0   3  -8    6.00    3.20
   0  -3   8    7.30    2.60
   0  -3   8   11.60    3.50
  -1   3  -8    1.40    2.20
  -1   3  -8    1.30    2.00
  -1   3  -8   -3.80    2.70
   1  -3   8    1.10    1.70
   1  -3   8    0.80    2.50
  -2   3  -8   19.90    3.70
   2  -3   8   21.50    3.00
   2  -3   8   22.10    2.50
   2  -3   8   22.90    3.20
   2  -3   8   23.50    4.10
  -3   3  -8    1.50    3.20
  -3   3  -8    4.60    2.70
  -3   3  -8    9.60    2.70
   3  -3   8    8.60    2.50
   3  -3   8    7.80    3.30
   3  -3   8    6.50    2.20
  -4   3  -8    0.30    1.80
  -4   3  -8   -0.50    3.00
   4  -3   8    2.90    2.40
   4  -3   8    2.00    2.00
   4  -3   8    2.20    2.00
  -5   3  -8    3.30    2.80
  -5   3  -8   -1.70    2.80
   5  -3   8    3.40    2.40
   5  -3   8    5.50    2.70
   5  -3   8    4.20    2.90
  -6   3  -8    1.10    2.70
   6  -3   8   -0.20    2.20
   6  -3   8    2.30    2.50
   6  -3   8    2.40    2.60
  -7   3  -8    9.10    4.00
   7  -3   8   18.10    4.10
   7  -3   8   16.60    3.30
   6   2  -8    0.50    2.00
   6   2  -8    3.40    3.30
  -6  -2   8    2.40    4.10
  -6  -2   8   -2.90    2.30
   5   2  -8    0.00    1.70
   5   2  -8    2.20    3.20
  -5  -2   8    1.00    3.00
  -5  -2   8    2.10    3.20
  -5  -2   8   -0.80    2.40
   4   2  -8    3.50    1.80
   4   2  -8    2.00    3.00
   4   2  -8   -0.90    3.50
  -4  -2   8    0.90    2.60
  -4  -2   8    2.80    2.90
   3   2  -8    0.10    1.10
   3   2  -8   -4.90    2.80
   3   2  -8   -0.70    2.50
  -3  -2   8   -1.40    1.90
  -3  -2   8    0.50    2.70
   2   2  -8   -0.10    1.10
   2   2  -8   -0.30    2.20
   2   2  -8    1.50    1.20
   2   2  -8    0.80    3.40
  -2  -2   8   -0.30    2.50
  -2  -2   8   -0.80    2.00
   1   2  -8   31.00    5.00
   1   2  -8   28.90    4.40
  -1  -2   8   30.70    3.30
  -1  -2   8   33.10    4.80
   0   2  -8   -1.00    2.00
   0   2  -8    0.90    1.60
   0   2  -8   -1.80    2.00
   0  -2   8    0.00    1.80
   0  -2   8   -0.80    2.30
   0  -2   8    0.50    0.60
  -1   2  -8   17.70    3.40
   1  -2   8   10.20    2.60
   1  -2   8   19.20    2.40
   1  -2   8   17.90    3.70
   1  -2   8   16.80    2.60
  -2   2  -8    3.00    2.30
  -2   2  -8    1.70    2.30
  -2   2  -8    3.20    1.80
   2  -2   8    1.00    2.30
   2  -2   8    5.10    1.80
   2  -2   8    3.00    1.20
   2  -2   8    4.40    1.60
  -3   2  -8   -0.40    2.60
  -3   2  -8   -0.90    1.90
  -3   2  -8    0.50    2.10
   3  -2   8   -0.70    1.60
   3  -2   8    0.10    2.20
   3  -2   8    0.60    1.80
  -4   2  -8   -1.60    1.80
  -4   2  -8    0.00    2.80
  -4   2  -8    0.20    2.30
   4  -2   8    1.80    2.60
   4  -2   8    0.60    1.60
   4  -2   8   -0.60    1.70
  -5   2  -8    7.40    3.50
  -5   2  -8    9.10    3.40
   5  -2   8   19.20    3.70
   5  -2   8   16.20    3.70
   5  -2   8   16.50    3.10
  -6   2  -8   -0.50    1.80
   6  -2   8    1.20    2.40
   6  -2   8   -1.20    2.00
   6  -2   8   -0.60    1.60
  -7   2  -8   -1.00    2.50
   7  -2   8    1.20    2.30
   7  -2   8    0.50    2.60
   7  -2   8    0.40    2.30
  -8   2  -8   -3.70    2.60
   8  -2   8   -3.20    3.10
   8  -2   8    0.40    2.40
   6   1  -8    5.10    2.30
   6   1  -8    3.20    3.20
  -6  -1   8    2.00    2.80
  -6  -1   8    2.50    3.80
   5   1  -8    3.70    3.00
   5   1  -8    3.40    2.10
  -5  -1   8    2.60    3.10
  -5  -1   8   -0.30    2.70
  -5  -1   8    0.20    2.60
   4   1  -8    3.00    2.90
   4   1  -8    6.80    2.30
  -4  -1   8    5.20    3.00
  -4  -1   8    2.50    2.40
  -4  -1   8    7.30    3.40
   3   1  -8    0.40    3.20
   3   1  -8    3.40    2.70
   3   1  -8    1.90    1.60
  -3  -1   8   -0.40    1.90
  -3  -1   8    1.00    2.70
   2   1  -8    7.40    3.70
   2   1  -8    7.10    1.50
   2   1  -8   17.30    3.60
   2   1  -8   13.30    2.40
  -2  -1   8    9.60    2.60
  -2  -1   8   15.60    3.60
   1   1  -8    0.50    2.90
   1   1  -8   -0.30    1.10
   1   1  -8    0.30    2.30
  -1  -1   8    0.50    0.90
  -1  -1   8   -0.30    1.50
  -1  -1   8    0.10    2.30
   0   1  -8    0.40    1.60
   0   1  -8    2.30    2.90
   0   1  -8    0.00    1.40
   0  -1   8    0.80    0.80
   0  -1   8    1.30    0.80
   0  -1   8    0.70    1.70
   0  -1   8    0.90    2.30
  -1   1  -8    0.80    1.60
  -1   1  -8    0.20    1.70
  -1   1  -8    3.60    3.10
   1  -1   8    1.00    2.30
   1  -1   8    0.10    0.70
   1  -1   8    0.80    1.20
   1  -1   8    0.80    1.10
   1  -1   8    0.70    1.80
  -2   1  -8   20.20    3.50
  -2   1  -8   15.90    4.10
   2  -1   8   29.00    2.60
   2  -1   8   24.70    3.00
   2  -1   8   25.80    1.70
   2  -1   8   22.90    3.40
  -3   1  -8   41.50    8.30
  -3   1  -8   35.30    4.10
  -3   1  -8   30.70    6.00
   3  -1   8   34.40    4.30
   3  -1   8   34.40    3.10
  -4   1  -8    6.60    2.50
  -4   1  -8    4.80    2.90
  -4   1  -8    4.30    2.70
   4  -1   8    8.30    2.20
   4  -1   8    4.80    2.50
  -5   1  -8    1.70    2.50
  -5   1  -8    3.80    2.20
  -5   1  -8   -1.10    2.40
   5  -1   8    4.40    2.20
   5  -1   8    6.50    2.70
  -6   1  -8   -3.60    2.30
  -6   1  -8   -1.70    2.10
   6  -1   8    1.20    2.20
   6  -1   8    0.80    2.10
  -7   1  -8   -2.10    2.20
   7  -1   8   -0.80    2.20
   7  -1   8    0.00    2.20
   7  -1   8    0.70    2.10
  -8   1  -8    3.70    2.80
  -8   1  -8   -0.90    3.00
   8  -1   8   -0.40    2.30
   8  -1   8   -2.50    3.00
   6   0  -8    4.30    2.50
   6   0  -8    3.50    3.00
  -6   0   8   -1.20    3.30
  -6   0   8    0.10    2.40
   5   0  -8    0.80    2.70
   5   0  -8    3.00    2.10
  -5   0   8   -0.70    2.80
  -5   0   8    0.90    2.60
  -5   0   8   -2.50    2.10
   4   0  -8   10.50    3.40
   4   0  -8   11.80    2.70
  -4   0   8    7.90    2.80
  -4   0   8    8.80    3.40
  -4   0   8   10.90    3.30
   3   0  -8   53.29    4.20
   3   0  -8   57.79    5.60
  -3   0   8   57.99    7.10
  -3   0   8   54.29    5.50
  -3   0   8   55.89    6.30
   2   0  -8    1.00    1.40
   2   0  -8    0.30    2.30
   2   0  -8    0.00    2.60
   2   0  -8   -0.10    0.80
  -2   0   8    1.90    2.00
  -2   0   8    0.00    2.30
   1   0  -8   -0.60    1.10
   1   0  -8    0.50    2.10
   1   0  -8    1.90    2.70
  -1   0   8   -1.60    1.50
  -1   0   8    0.80    1.80
  -1   0   8    0.20    1.00
   0   0  -8   56.79    7.90
   0   0  -8   61.49    5.10
   0   0  -8   63.59    6.30
   0   0   8   66.19    5.40
   0   0   8   64.19    6.60
   0   0   8   62.69    4.90
  -1   0  -8    5.60    2.90
  -1   0  -8    5.50    1.90
  -1   0  -8   10.10    2.70
   1   0   8    4.90    2.00
   1   0   8    3.40    1.10
   1   0   8    9.00    2.50
  -2   0  -8    0.50    1.70
  -2   0  -8    3.40    2.70
  -2   0  -8    2.10    2.00
   2   0   8    0.80    1.70
   2   0   8    1.10    2.20
   2   0   8    3.90    1.30
   2   0   8    1.20    1.00
  -3   0  -8   47.20    7.10
  -3   0  -8   47.00    3.60
  -3   0  -8   48.50    7.30
  -3   0  -8   54.59    4.60
   3   0   8   52.69    4.70
   3   0   8   50.19    3.20
   3   0   8   42.20    4.50
  -4   0  -8   28.50    3.80
  -4   0  -8   28.40    3.10
   4   0   8   28.90    2.80
   4   0   8   31.70    4.10
  -5   0  -8  147.29    7.60
  -5   0  -8  144.49   11.90
  -5   0  -8  131.09   11.70
   5   0   8  147.59    7.90
   5   0   8  138.99    6.40
  -6   0  -8    1.70    2.20
  -6   0  -8   -1.50    1.60
  -6   0  -8   -0.90    2.20
   6   0   8    2.70    2.40
   6   0   8   -1.00    1.80
  -7   0  -8    8.30    3.10
   7   0   8   13.70    3.30
   7   0   8   15.50    3.60
  -8   0  -8    3.80    2.70
  -8   0  -8   -0.50    2.90
   8   0   8    1.00    2.30
  -9   0  -8    8.20    3.60
   9   0   8   -3.10    2.40
   6  -1  -8   -0.10    2.10
   6  -1  -8    0.00    2.80
  -6   1   8   -3.90    3.10
  -6   1   8    0.20    2.40
   5  -1  -8    1.00    1.90
   5  -1  -8    2.10    2.60
  -5   1   8   -0.30    2.20
  -5   1   8    0.40    2.80
   4  -1  -8    0.60    2.30
   4  -1  -8    1.60    1.80
  -4   1   8   -0.40    1.90
  -4   1   8    1.10    2.30
  -4   1   8    0.60    2.30
   3  -1  -8   62.49    4.70
   3  -1  -8   77.59    6.00
  -3   1   8   67.49    6.40
  -3   1   8   83.79    7.90
  -3   1   8   73.19    5.80
   2  -1  -8  155.58    7.70
   2  -1  -8  164.08    8.70
  -2   1   8  189.38   10.90
  -2   1   8  149.99    8.20
   1  -1  -8    0.20    1.10
   1  -1  -8    0.10    2.10
  -1   1   8    1.30    1.70
  -1   1   8    0.40    1.20
  -1   1   8   -0.80    2.10
   0  -1  -8   77.49    9.30
   0  -1  -8   70.29    6.40
   0  -1  -8   72.59    5.30
   0   1   8   72.29    5.40
   0   1   8   70.49    5.50
   0   1   8   74.09    6.50
   0   1   8   74.19    5.50
  -1  -1  -8    7.40    1.90
  -1  -1  -8    5.20    2.60
  -1  -1  -8    7.00    1.90
  -1  -1  -8   13.30    2.60
   1   1   8    6.70    1.50
   1   1   8    6.40    2.00
   1   1   8    8.90    2.40
  -2  -1  -8    5.70    2.00
  -2  -1  -8    9.10    2.50
  -2  -1  -8    6.10    2.70
   2   1   8   11.90    2.80
   2   1   8    6.30    1.50
   2   1   8    5.60    2.00
  -3  -1  -8   -1.20    1.60
  -3  -1  -8   -0.50    2.00
  -3  -1  -8    0.40    0.60
  -3  -1  -8    1.20    1.90
   3   1   8    0.50    1.90
   3   1   8    0.60    1.20
  -4  -1  -8   11.20    2.90
  -4  -1  -8   19.90    3.30
  -4  -1  -8   10.10    3.00
   4   1   8   11.10    2.20
   4   1   8   17.90    3.20
   4   1   8   18.10    2.20
  -5  -1  -8   -0.30    1.70
  -5  -1  -8   -0.10    1.80
  -5  -1  -8    0.00    1.80
   5   1   8   -1.90    1.40
   5   1   8    1.10    2.20
  -6  -1  -8   17.20    3.30
  -6  -1  -8   26.90    4.80
  -6  -1  -8    8.60    3.20
   6   1   8   18.30    3.50
  -7  -1  -8   -0.50    2.50
  -7  -1  -8    5.90    2.70
  -7  -1  -8    2.10    2.00
   7   1   8    2.20    2.60
  -8  -1  -8   -1.10    2.80
  -8  -1  -8    4.90    3.10
   8   1   8    0.70    2.80
  -9  -1  -8   -1.70    2.30
  -9  -1  -8    4.10    3.30
   9   1   8    3.10    3.00
   6  -2  -8   -0.10    2.40
   6  -2  -8   -2.60    2.40
  -6   2   8   -5.20    2.80
  -6   2   8   -0.10    2.30
   5  -2  -8    1.80    2.40
   5  -2  -8   -0.10    2.10
  -5   2   8    0.30    2.80
  -5   2   8   -0.90    2.00
   4  -2  -8   -1.30    1.60
   4  -2  -8   -0.10    2.40
  -4   2   8   -1.00    1.90
  -4   2   8   -0.30    2.20
   3  -2  -8    1.90    1.80
   3  -2  -8    0.30    2.10
  -3   2   8    0.70    2.00
  -3   2   8   -0.50    1.60
  -3   2   8    2.40    2.40
   2  -2  -8    0.50    2.10
   2  -2  -8    1.20    1.70
  -2   2   8    1.20    0.80
  -2   2   8   -1.10    1.40
  -2   2   8    1.70    1.80
  -2   2   8    1.00    2.10
  -2   2   8    1.60    1.80
   1  -2  -8  342.77   13.10
   1  -2  -8  324.97   14.10
  -1   2   8  324.47   13.00
  -1   2   8  324.97   15.60
  -1   2   8  338.77   16.10
  -1   2   8  303.07   15.10
   0  -2  -8   86.59    6.80
   0  -2  -8   79.39    5.30
   0  -2  -8   72.39    5.00
   0   2   8   83.29    6.70
   0   2   8   83.19    6.20
   0   2   8   81.69    5.90
   0   2   8   91.89    5.70
  -1  -2  -8    0.10    1.10
  -1  -2  -8    0.10    1.30
  -1  -2  -8    1.50    1.40
   1   2   8    1.00    0.80
   1   2   8    0.50    1.50
   1   2   8    0.30    1.00
   1   2   8    0.40    1.80
  -2  -2  -8   -1.10    1.60
  -2  -2  -8    0.60    1.50
   2   2   8   -0.10    1.00
   2   2   8   -1.50    1.60
   2   2   8   -0.80    1.30
  -3  -2  -8   -0.30    1.60
  -3  -2  -8   -1.80    1.60
   3   2   8   -0.20    1.80
   3   2   8    0.00    1.20
  -4  -2  -8    5.40    2.30
  -4  -2  -8    0.50    2.10
   4   2   8    1.30    1.50
   4   2   8    4.20    2.30
  -5  -2  -8    2.40    2.50
  -5  -2  -8    4.80    2.30
   5   2   8    6.00    2.60
   5   2   8    4.90    1.90
  -6  -2  -8   -2.00    2.30
  -6  -2  -8    0.30    1.90
  -6  -2  -8   -0.70    1.60
   6   2   8    0.40    2.10
  -7  -2  -8  106.69    8.50
  -7  -2  -8   91.69    6.30
  -7  -2  -8   96.69   11.80
   7   2   8   96.79    6.70
  -8  -2  -8   44.00    8.60
  -8  -2  -8   51.19    5.30
  -8  -2  -8   66.39    7.60
   8   2   8   52.89    5.40
  -9  -2  -8   -3.00    3.00
  -9  -2  -8    3.00    3.50
   9   2   8   -0.40    2.50
   6  -3  -8    0.80    2.50
   6  -3  -8    1.30    2.50
  -6   3   8    0.20    2.30
   5  -3  -8    0.20    2.00
   5  -3  -8    1.20    2.50
  -5   3   8   -2.90    2.00
  -5   3   8   -0.30    2.00
   4  -3  -8   -0.90    1.70
   4  -3  -8    2.70    2.30
  -4   3   8   -0.60    2.20
  -4   3   8   -0.30    1.80
   3  -3  -8   16.10    3.10
   3  -3  -8   19.00    3.40
  -3   3   8   10.00    2.50
  -3   3   8   18.60    3.20
   2  -3  -8   17.30    3.10
   2  -3  -8   13.00    2.80
   2  -3  -8   15.20    2.40
  -2   3   8    7.80    2.40
  -2   3   8   14.70    2.90
  -2   3   8   14.90    1.80
  -2   3   8   17.90    3.40
  -2   3   8    7.50    2.30
   1  -3  -8   45.60    4.20
   1  -3  -8   34.50    3.10
  -1   3   8   36.50    3.70
  -1   3   8   40.10    4.00
  -1   3   8   33.00    3.20
  -1   3   8   35.90    5.40
  -1   3   8   36.50    5.10
   0  -3  -8    1.50    1.30
   0  -3  -8    4.10    2.10
   0  -3  -8    1.70    1.00
   0   3   8    4.60    2.10
   0   3   8    2.10    1.30
   0   3   8    1.10    1.00
   0   3   8    2.40    1.60
   0   3   8    1.00    1.20
  -1  -3  -8   45.30    6.00
  -1  -3  -8   43.20    4.00
  -1  -3  -8   38.60    3.10
   1   3   8   40.90    4.60
   1   3   8   43.90    5.00
   1   3   8   38.10    2.50
   1   3   8   38.30    3.90
  -2  -3  -8    3.40    1.60
  -2  -3  -8    3.20    1.80
  -2  -3  -8    3.10    1.10
   2   3   8    3.60    2.00
   2   3   8    3.20    1.60
   2   3   8    3.20    1.50
  -3  -3  -8    5.70    1.90
  -3  -3  -8   10.30    2.60
   3   3   8   12.90    2.80
   3   3   8    7.00    2.00
   3   3   8    5.40    1.70
  -4  -3  -8    1.20    1.90
  -4  -3  -8    1.10    2.00
  -4  -3  -8    0.20    1.20
   4   3   8    0.30    1.40
   4   3   8    1.90    2.00
  -5  -3  -8    1.80    1.60
  -5  -3  -8    0.40    1.70
  -5  -3  -8    0.40    1.50
   5   3   8   -0.10    1.70
   5   3   8   -0.10    2.00
  -6  -3  -8    0.70    2.10
  -6  -3  -8    0.00    1.90
  -6  -3  -8    2.10    2.10
   6   3   8    2.80    2.30
   6   3   8   -0.50    2.00
  -7  -3  -8   10.70    2.90
  -7  -3  -8    8.50    3.30
   7   3   8    8.80    3.10
  -8  -3  -8   -3.30    2.40
  -8  -3  -8    1.30    2.10
  -8  -3  -8    0.20    2.40
   8   3   8   -0.30    2.30
  -9  -3  -8   14.70    4.40
   9   3   8   13.10    3.70
 -10  -3  -8    7.20    4.00
 -10  -3  -8   -5.80    3.10
  10   3   8    1.40    2.90
   5  -4  -8   -0.80    2.10
   5  -4  -8    1.50    2.40
  -5   4   8   -1.30    1.90
   4  -4  -8    1.70    1.70
   4  -4  -8    1.30    2.20
  -4   4   8    2.10    2.10
  -4   4   8   -0.70    2.00
   3  -4  -8   16.00    3.00
   3  -4  -8   10.50    2.90
  -3   4   8    5.70    2.40
  -3   4   8    8.10    2.40
  -3   4   8    5.90    2.20
   2  -4  -8    1.40    1.80
   2  -4  -8    0.00    1.50
  -2   4   8    0.30    1.00
  -2   4   8   -1.90    1.20
  -2   4   8   -1.20    1.40
  -2   4   8   -1.90    1.10
  -2   4   8    0.30    1.60
   1  -4  -8    4.00    1.80
   1  -4  -8    3.70    2.00
   1  -4  -8    5.00    1.80
  -1   4   8    1.40    1.60
  -1   4   8    1.40    1.60
  -1   4   8    5.50    2.20
   0  -4  -8   88.19    5.40
   0  -4  -8  100.09    5.70
   0   4   8   96.79    5.60
   0   4   8   90.59    7.20
   0   4   8  109.69    7.40
   0   4   8   99.99    5.10
   0   4   8   98.89    7.50
  -1  -4  -8  140.19    7.10
  -1  -4  -8  149.59   10.20
   1   4   8  149.49    9.20
   1   4   8  140.99    7.10
   1   4   8  147.99    8.60
  -2  -4  -8    3.50    1.70
  -2  -4  -8    5.40    0.80
  -2  -4  -8    4.50    0.70
  -2  -4  -8    5.00    2.10
   2   4   8    8.40    2.30
   2   4   8    3.80    1.50
   2   4   8    5.40    1.70
  -3  -4  -8   20.90    4.60
  -3  -4  -8   20.40    3.30
  -3  -4  -8   23.80    2.20
   3   4   8   25.10    4.30
   3   4   8   24.70    4.30
   3   4   8   22.50    3.30
  -4  -4  -8   59.49    2.50
  -4  -4  -8   60.59    4.90
  -4  -4  -8   55.49    7.00
  -4  -4  -8   66.99    4.50
   4   4   8   58.49    4.80
   4   4   8   67.59    6.30
  -5  -4  -8    1.10    1.50
  -5  -4  -8   -0.90    1.50
  -5  -4  -8   -0.40    1.60
   5   4   8   -0.40    1.60
   5   4   8   -1.60    1.90
  -6  -4  -8   -2.60    2.30
  -6  -4  -8   -0.20    1.60
  -6  -4  -8    0.60    2.00
   6   4   8   -0.30    1.60
   6   4   8   -2.30    1.70
  -7  -4  -8   18.00    3.60
  -7  -4  -8   18.10    4.00
   7   4   8   19.80    3.80
  -8  -4  -8   -3.50    2.60
  -8  -4  -8   -2.80    2.50
  -8  -4  -8    0.20    2.10
   8   4   8    0.60    2.50
  -9  -4  -8    1.50    3.50
  -9  -4  -8    8.00    4.00
  -9  -4  -8   13.70    3.70
   9   4   8    9.70    3.50
 -10  -4  -8   -5.90    3.20
 -10  -4  -8    0.10    3.50
  10   4   8    1.50    2.90
   5  -5  -8   -0.20    2.30
   5  -5  -8    0.90    2.00
  -5   5   8    0.30    1.70
   4  -5  -8    0.90    1.90
   4  -5  -8   -1.40    1.80
  -4   5   8    0.80    1.90
  -4   5   8    0.50    1.70
   3  -5  -8    1.60    1.60
   3  -5  -8   -1.40    1.80
  -3   5   8   -0.50    1.60
  -3   5   8    0.30    1.60
   2  -5  -8   -2.80    1.70
   2  -5  -8   -0.10    1.20
  -2   5   8   -1.90    1.10
  -2   5   8   -0.40    1.50
  -2   5   8   -0.20    1.40
   1  -5  -8    0.90    1.40
   1  -5  -8   -1.40    1.70
   1  -5  -8   -0.70    1.50
  -1   5   8   -1.20    1.20
  -1   5   8   -0.60    1.20
  -1   5   8   -0.40    1.40
   0  -5  -8   29.80    3.20
   0  -5  -8   30.40    3.80
   0   5   8   28.40    3.00
   0   5   8   34.30    5.10
   0   5   8   37.00    5.20
   0   5   8   40.30    3.60
  -1  -5  -8    2.60    2.00
  -1  -5  -8    1.30    1.70
   1   5   8    2.70    1.50
   1   5   8    2.00    1.40
   1   5   8    0.70    1.60
  -2  -5  -8    2.20    1.90
   2   5   8    2.30    1.50
   2   5   8    4.60    1.70
   2   5   8    1.60    1.80
  -3  -5  -8    3.50    1.10
  -3  -5  -8    2.10    0.70
  -3  -5  -8    4.70    2.20
  -3  -5  -8    0.70    1.70
   3   5   8    5.80    2.20
   3   5   8    2.60    1.60
   3   5   8    4.20    1.70
  -4  -5  -8    9.30    1.40
  -4  -5  -8    5.00    2.40
  -4  -5  -8    5.40    1.50
  -4  -5  -8    8.50    2.60
   4   5   8    4.60    1.80
   4   5   8    6.00    2.30
  -5  -5  -8   28.00    3.60
  -5  -5  -8   26.20    4.00
  -5  -5  -8   31.50    6.10
   5   5   8   32.40    5.70
   5   5   8   31.40    4.20
  -6  -5  -8   -2.00    2.10
  -6  -5  -8   -0.10    2.10
  -6  -5  -8    0.20    1.80
   6   5   8   -0.30    2.10
   6   5   8   -0.50    2.00
  -7  -5  -8   20.50    3.70
  -7  -5  -8   10.30    3.20
  -7  -5  -8   14.70    3.40
   7   5   8   18.60    3.80
   7   5   8   12.20    3.30
  -8  -5  -8   -2.00    2.20
  -8  -5  -8   -0.60    2.10
  -8  -5  -8    1.20    3.30
   8   5   8    3.10    2.90
  -9  -5  -8   -2.30    3.20
  -9  -5  -8    0.00    2.50
  -9  -5  -8   -1.10    3.00
   9   5   8    2.50    3.00
 -10  -5  -8   -3.50    3.60
 -10  -5  -8   -1.40    2.40
  10   5   8    0.30    2.90
   5  -6  -8    6.40    3.20
  -5   6   8    2.30    2.30
  -5   6   8    3.70    2.50
   4  -6  -8    0.10    1.60
   4  -6  -8    2.60    1.90
  -4   6   8    1.40    1.60
  -4   6   8    0.00    1.70
   3  -6  -8    2.90    1.90
   3  -6  -8    5.00    2.50
  -3   6   8    3.40    2.20
  -3   6   8    1.40    1.70
   2  -6  -8   41.40    3.90
   2  -6  -8   37.10    4.30
  -2   6   8   44.90    6.40
  -2   6   8   41.40    5.70
   1  -6  -8    2.40    2.00
   1  -6  -8    5.50    2.20
   1  -6  -8    2.80    1.80
  -1   6   8    3.50    1.90
  -1   6   8    5.30    1.70
  -1   6   8    2.80    1.70
   0  -6  -8    6.90    2.10
   0  -6  -8    8.60    2.30
   0  -6  -8    7.60    1.80
   0   6   8    4.70    1.80
   0   6   8    6.20    1.90
   0   6   8    2.70    1.80
  -1  -6  -8    6.80    2.20
  -1  -6  -8    6.80    2.30
   1   6   8    4.10    1.70
   1   6   8    4.10    1.80
   1   6   8    8.80    2.30
  -2  -6  -8    3.40    2.00
   2   6   8    1.40    1.70
   2   6   8    1.30    1.60
   2   6   8    2.50    1.50
  -3  -6  -8   31.80    2.70
  -3  -6  -8   30.50    3.70
   3   6   8   35.10    5.30
   3   6   8   30.50    4.20
   3   6   8   29.10    3.70
  -4  -6  -8    4.20    2.30
  -4  -6  -8    6.20    1.50
  -4  -6  -8    1.90    1.80
  -4  -6  -8    3.90    1.30
   4   6   8    4.70    2.30
   4   6   8    2.90    1.90
  -5  -6  -8   -0.50    1.90
  -5  -6  -8   -1.60    1.40
  -5  -6  -8   -2.20    1.80
   5   6   8    0.40    1.60
   5   6   8    0.60    1.90
  -6  -6  -8   13.40    2.80
  -6  -6  -8    8.80    2.70
  -6  -6  -8   19.40    3.70
   6   6   8   12.20    3.10
   6   6   8   18.50    3.60
  -7  -6  -8   -1.00    2.40
  -7  -6  -8    1.60    2.30
  -7  -6  -8    1.50    2.10
   7   6   8    1.00    2.50
   7   6   8   -1.90    2.40
  -8  -6  -8    0.10    2.60
  -8  -6  -8   -1.80    2.90
  -8  -6  -8   -1.30    2.60
   8   6   8   -1.80    2.70
   8   6   8    2.00    2.80
  -9  -6  -8    0.40    2.60
  -9  -6  -8   -0.70    3.00
  -9  -6  -8   -1.20    3.30
   9   6   8   -0.60    2.70
 -10  -6  -8   -4.90    2.70
 -10  -6  -8    1.00    2.80
  10   6   8   -2.70    2.60
   4  -7  -8    3.40    2.30
  -4   7   8    2.80    2.00
  -4   7   8    6.20    2.70
   3  -7  -8    1.00    1.60
   3  -7  -8   -4.50    2.90
   3  -7  -8    0.30    1.90
  -3   7   8    0.00    1.60
  -3   7   8    1.00    1.90
   2  -7  -8   -0.10    2.30
   2  -7  -8    0.90    1.70
   2  -7  -8    3.40    2.40
  -2   7   8    2.20    2.00
  -2   7   8    0.10    1.70
   1  -7  -8   24.00    3.50
   1  -7  -8   29.70    3.50
   1  -7  -8   31.30    3.90
  -1   7   8   25.80    5.30
  -1   7   8   34.70    5.10
   0  -7  -8    3.80    1.90
   0  -7  -8    2.40    1.70
   0   7   8    2.30    1.70
   0   7   8    2.60    1.80
   0   7   8    2.00    1.50
  -1  -7  -8   16.90    3.00
  -1  -7  -8   17.80    2.30
   1   7   8   10.10    2.20
   1   7   8   11.70    2.60
   1   7   8   15.40    2.60
  -2  -7  -8    3.10    2.20
  -2  -7  -8    2.30    1.60
   2   7   8    1.60    1.50
   2   7   8    2.70    1.50
   2   7   8    0.90    1.60
  -3  -7  -8    5.00    2.50
  -3  -7  -8    3.40    1.50
   3   7   8    4.50    1.60
   3   7   8    4.20    2.20
   3   7   8    3.10    1.90
  -4  -7  -8    7.30    2.00
  -4  -7  -8   10.40    2.70
   4   7   8    8.60    2.60
   4   7   8    2.70    2.10
  -5  -7  -8    0.70    2.20
  -5  -7  -8    0.60    1.50
   5   7   8    2.80    2.30
   5   7   8    0.20    1.80
  -6  -7  -8   -2.40    1.70
  -6  -7  -8   -0.80    2.00
  -6  -7  -8   -1.10    2.20
   6   7   8   -1.20    2.10
   6   7   8    0.50    2.20
  -7  -7  -8   14.00    3.50
  -7  -7  -8   31.20    4.70
  -7  -7  -8   11.50    3.40
   7   7   8   23.00    4.20
   7   7   8   14.70    3.80
  -8  -7  -8    0.70    2.90
  -8  -7  -8    1.30    2.80
  -8  -7  -8    0.40    2.80
   8   7   8    6.60    2.80
   8   7   8    0.90    2.90
  -9  -7  -8   -1.30    2.70
  -9  -7  -8   -3.40    2.50
  -9  -7  -8   -6.20    2.80
   9   7   8    1.60    3.00
 -10  -7  -8   -2.30    3.90
 -10  -7  -8    3.60    3.30
 -10  -7  -8   -1.80    3.00
  10   7   8    1.10    3.20
   3  -8  -8    3.10    2.10
   3  -8  -8   -5.50    2.70
  -3   8   8    0.00    1.60
  -3   8   8    2.80    2.30
   2  -8  -8    2.60    1.70
   2  -8  -8    3.00    2.30
   2  -8  -8   -0.20    2.80
  -2   8   8    3.30    2.20
  -2   8   8    1.80    1.90
   1  -8  -8    0.30    1.80
   1  -8  -8    0.30    1.70
   1  -8  -8   -1.30    2.00
  -1   8   8    1.70    1.90
  -1   8   8   -1.50    1.40
   0  -8  -8    8.80    2.40
   0  -8  -8   13.20    2.50
   0  -8  -8   12.20    3.00
   0   8   8    5.70    2.30
   0   8   8    8.20    2.20
  -1  -8  -8    4.00    1.70
  -1  -8  -8    2.70    2.20
   1   8   8    2.10    1.50
   1   8   8    0.60    1.40
  -2  -8  -8    4.10    1.80
  -2  -8  -8    2.40    2.20
  -2  -8  -8    4.80    1.60
   2   8   8   -0.90    1.20
   2   8   8    3.40    1.70
   2   8   8    1.60    1.80
  -3  -8  -8    7.10    2.00
  -3  -8  -8    6.50    1.60
  -3  -8  -8    5.30    2.30
   3   8   8    6.00    2.20
   3   8   8    3.10    1.40
   3   8   8    3.40    2.10
  -4  -8  -8   -0.70    1.80
  -4  -8  -8    0.40    1.60
   4   8   8   -0.10    1.80
   4   8   8    0.50    1.80
  -5  -8  -8   -0.30    1.50
  -5  -8  -8    1.50    1.90
   5   8   8    1.00    2.10
   5   8   8    0.80    2.20
  -6  -8  -8    7.60    3.00
  -6  -8  -8    3.20    2.20
   6   8   8    2.90    2.60
   6   8   8    6.00    2.80
  -7  -8  -8   -0.40    2.50
  -7  -8  -8   -2.60    2.20
   7   8   8   -2.90    2.40
   7   8   8    2.00    2.10
  -8  -8  -8   -4.70    2.50
  -8  -8  -8   -4.50    2.40
   8   8   8    0.60    2.70
   8   8   8   -5.70    2.50
  -9  -8  -8    1.40    2.90
  -9  -8  -8   -5.70    3.00
   9   8   8    1.20    2.90
   3  -9  -8    3.60    2.90
   3  -9  -8   -0.20    3.80
  -3   9   8    3.90    2.30
  -3   9   8    3.60    2.30
   2  -9  -8    0.80    3.40
   2  -9  -8    1.60    2.30
  -2   9   8    0.50    1.60
  -2   9   8    1.70    2.00
   1  -9  -8    7.00    2.10
   1  -9  -8    4.80    2.20
   1  -9  -8    4.80    2.90
  -1   9   8    3.20    1.90
  -1   9   8    3.90    2.10
   0  -9  -8    0.40    1.90
   0  -9  -8    1.10    2.00
   0  -9  -8    1.20    2.20
   0   9   8   -1.70    1.30
   0   9   8    1.10    1.70
  -1  -9  -8   24.90    3.50
  -1  -9  -8   20.40    3.40
   1   9   8   29.90    5.60
   1   9   8   14.90    2.50
  -2  -9  -8    2.30    1.90
  -2  -9  -8    1.50    2.00
  -2  -9  -8    4.70    1.90
   2   9   8    1.10    1.80
   2   9   8    0.30    1.30
  -3  -9  -8    7.00    1.90
  -3  -9  -8    3.50    2.30
  -3  -9  -8    3.30    2.00
   3   9   8    3.20    1.90
   3   9   8    2.30    1.30
   3   9   8    6.40    2.20
  -4  -9  -8   10.00    3.00
  -4  -9  -8   14.00    2.80
   4   9   8    8.50    2.80
   4   9   8   14.10    3.00
  -5  -9  -8    3.70    2.60
   5   9   8    3.90    2.40
   5   9   8    1.50    2.40
  -6  -9  -8   14.10    3.70
   6   9   8   17.50    3.80
   6   9   8    8.00    3.30
  -7  -9  -8    0.90    2.60
  -7  -9  -8   -2.50    2.30
   7   9   8   -1.30    2.00
   7   9   8    0.70    2.50
  -8  -9  -8    1.60    3.10
  -8  -9  -8   -3.20    2.80
   8   9   8   -1.30    2.60
   8   9   8   -5.10    2.80
  -9  -9  -8   -1.30    3.20
  -9  -9  -8   -5.20    2.80
   9   9   8   -7.10    3.10
   9   9   8    0.70    3.10
   2 -10  -8    3.60    4.00
   2 -10  -8    5.30    2.90
  -2  10   8    3.00    2.40
   1 -10  -8   -1.90    2.80
   1 -10  -8   -0.90    1.80
  -1  10   8   -0.70    1.70
   0 -10  -8    1.60    2.00
   0 -10  -8   -0.40    1.80
   0 -10  -8   -1.40    2.40
   0  10   8    0.30    1.50
  -1 -10  -8    5.10    2.50
  -1 -10  -8    4.50    2.30
  -1 -10  -8    5.10    2.40
   1  10   8    4.00    2.10
  -2 -10  -8    3.80    2.20
  -2 -10  -8    2.20    2.10
  -2 -10  -8    2.50    2.50
   2  10   8   -0.40    1.60
  -3 -10  -8   13.90    3.20
  -3 -10  -8   12.90    3.40
  -3 -10  -8   13.10    2.70
   3  10   8    9.40    2.80
  -4 -10  -8    0.50    1.70
  -4 -10  -8   -2.00    2.20
   4  10   8   -0.20    2.20
  -5 -10  -8    7.90    3.10
   5  10   8    2.40    2.40
   5  10   8    1.30    2.50
  -6 -10  -8    9.80    3.50
   6  10   8    6.90    3.00
   6  10   8    2.10    2.90
  -7 -10  -8   -0.40    2.70
   7  10   8   -3.90    2.60
   7  10   8    1.40    2.70
  -8 -10  -8   -1.70    2.80
   8  10   8   -6.90    3.00
   8  10   8    5.50    3.20
   0 -11  -8   -0.70    2.50
   0 -11  -8    2.30    2.20
   0 -11  -8   -1.00    1.70
   0  11   8    0.90    1.80
  -1 -11  -8    4.30    2.30
  -1 -11  -8    4.20    2.40
  -1 -11  -8    5.50    3.00
   1  11   8    2.70    2.00
  -2 -11  -8    1.00    1.80
  -2 -11  -8    3.50    2.40
  -2 -11  -8   -3.60    2.10
  -2 -11  -8    2.20    2.30
   2  11   8    2.70    2.20
  -3 -11  -8    6.20    3.10
  -3 -11  -8    2.90    2.20
  -3 -11  -8    8.70    2.70
   3  11   8    1.30    2.10
  -4 -11  -8    0.90    2.10
  -4 -11  -8    4.20    2.30
  -4 -11  -8   -0.60    2.80
   4  11   8   -0.20    2.20
  -5 -11  -8   -0.20    2.50
   5  11   8   -1.30    2.40
  -6 -11  -8    1.00    2.90
   6  11   8   -3.60    2.50
  -7 -11  -8   -3.10    2.80
   7  11   8   -5.00    2.80
   7  11   8    2.60    3.00
  -2 -12  -8    0.30    2.50
  -2 -12  -8    1.90    1.80
  -2 -12  -8    5.80    3.20
   2  12   8    0.60    2.30
  -3 -12  -8    4.50    2.70
  -3 -12  -8   -1.70    2.60
  -3 -12  -8   -1.50    1.80
   3  12   8   -1.10    2.00
  -4 -12  -8    1.00    2.20
  -4 -12  -8    1.70    2.70
  -4 -12  -8    5.50    2.40
   4  12   8    0.50    2.50
  -5 -12  -8    2.00    3.10
  -5 -12  -8    1.30    2.10
   5  12   8   -3.80    2.30
   2   5  -9   -6.10    3.30
   2   5  -9    3.20    3.30
  -2  -5   9    4.10    4.00
  -2  -5   9   -1.30    2.40
   1   5  -9    3.50    3.00
  -1  -5   9    0.80    3.70
   0   5  -9   -2.30    4.60
   0   5  -9    6.60    3.30
   0  -5   9    2.60    3.50
  -1   5  -9   10.50    3.50
   1  -5   9    9.90    2.70
   1  -5   9    6.50    3.70
  -2   5  -9   -6.90    3.80
  -2   5  -9    5.70    3.10
   2  -5   9    3.60    2.30
   2  -5   9    0.10    3.30
  -3   5  -9    3.40    2.90
   3  -5   9    4.00    3.10
   3  -5   9    4.30    2.60
   3   4  -9    1.50    3.00
  -3  -4   9    1.30    3.60
  -3  -4   9   -3.70    2.20
   2   4  -9   -0.20    2.80
   2   4  -9   -7.80    4.10
  -2  -4   9   -4.60    2.00
  -2  -4   9   -0.30    2.50
   1   4  -9    1.70    1.60
   1   4  -9    0.10    2.70
  -1  -4   9   -2.80    2.10
  -1  -4   9   -1.10    3.00
   0   4  -9    6.70    2.60
   0   4  -9    4.50    2.80
   0   4  -9   -3.50    3.90
   0  -4   9    1.40    3.30
   0  -4   9    6.90    2.00
  -1   4  -9    4.90    2.90
  -1   4  -9    2.40    2.40
  -1   4  -9   -5.30    3.60
   1  -4   9    3.60    3.10
   1  -4   9    3.50    1.70
  -2   4  -9   -2.10    2.00
  -2   4  -9    1.60    2.40
  -2   4  -9   -5.70    3.30
   2  -4   9    1.70    1.90
   2  -4   9   -2.20    3.00
  -3   4  -9   -6.30    3.60
  -3   4  -9    2.40    2.70
   3  -4   9    6.90    2.60
   3  -4   9    7.70    3.40
  -4   4  -9    1.80    2.90
  -4   4  -9   -6.80    3.80
   4  -4   9    0.60    2.00
   4  -4   9    2.70    2.50
   4  -4   9   -0.50    2.80
  -5   4  -9    1.00    2.90
   5  -4   9    0.70    2.60
   5  -4   9    1.20    2.20
   5  -4   9   -1.30    2.30
   4   3  -9   -0.80    2.70
  -4  -3   9   -4.10    2.30
  -4  -3   9   -1.20    3.20
   3   3  -9   -3.40    2.80
   3   3  -9    3.30    2.50
  -3  -3   9   -2.50    2.20
  -3  -3   9   -3.00    2.90
   2   3  -9    0.70    2.80
   2   3  -9   -1.00    3.00
  -2  -3   9   -1.70    2.20
  -2  -3   9   -3.00    2.80
   1   3  -9    5.40    2.20
   1   3  -9    0.20    4.00
   1   3  -9   13.90    3.40
  -1  -3   9   12.60    4.00
  -1  -3   9    2.90    2.50
   0   3  -9    0.50    1.90
   0   3  -9   -0.60    2.30
   0   3  -9   -2.90    2.40
   0  -3   9   -0.30    2.90
   0  -3   9   -2.90    2.30
  -1   3  -9    0.40    2.10
  -1   3  -9   -0.50    2.70
  -1   3  -9    2.60    2.60
   1  -3   9    1.40    2.90
   1  -3   9    5.40    1.90
  -2   3  -9   -0.70    2.60
  -2   3  -9   -2.60    2.00
  -2   3  -9   -1.90    1.90
   2  -3   9   -0.10    1.40
   2  -3   9    2.60    1.60
   2  -3   9   -0.50    2.60
  -3   3  -9    7.50    3.30
  -3   3  -9    2.20    3.80
  -3   3  -9    8.10    2.90
   3  -3   9   11.70    2.70
   3  -3   9   11.40    3.60
   3  -3   9   13.70    3.10
  -4   3  -9    0.90    2.80
  -4   3  -9   -5.90    3.20
   4  -3   9    0.80    2.00
   4  -3   9   -0.30    2.50
   4  -3   9    0.70    1.80
  -5   3  -9   -0.70    2.50
   5  -3   9    0.70    2.10
   5  -3   9    3.60    2.80
   5  -3   9    0.90    2.20
  -6   3  -9   -0.30    2.70
   6  -3   9    2.60    2.50
   6  -3   9    5.40    3.10
   6  -3   9   -2.70    2.40
   5   2  -9   -0.60    3.20
  -5  -2   9   -3.20    3.10
  -5  -2   9   -6.00    2.30
   4   2  -9    3.60    3.30
  -4  -2   9   -1.80    2.60
  -4  -2   9   -1.20    3.00
   3   2  -9    1.20    2.90
   3   2  -9   -4.80    3.50
  -3  -2   9    1.10    3.10
  -3  -2   9    0.40    2.50
   2   2  -9   -3.30    2.30
   2   2  -9    1.60    1.50
   2   2  -9    3.80    3.10
  -2  -2   9    3.90    3.20
  -2  -2   9   -1.00    2.10
   1   2  -9   -1.20    3.50
   1   2  -9    9.20    2.00
   1   2  -9   10.70    3.40
   1   2  -9    3.60    1.80
  -1  -2   9    3.40    2.40
  -1  -2   9    7.50    3.50
   0   2  -9   -1.10    1.40
   0   2  -9    3.50    2.70
   0   2  -9   -2.10    2.30
   0  -2   9   -0.10    2.60
   0  -2   9   -1.90    2.00
  -1   2  -9   -1.10    2.00
  -1   2  -9    0.30    2.30
  -1   2  -9   -3.40    3.00
   1  -2   9   -1.50    1.90
   1  -2   9    2.50    1.50
   1  -2   9   -2.00    2.40
   1  -2   9    0.80    1.10
  -2   2  -9   -1.10    3.00
  -2   2  -9    0.70    2.10
  -2   2  -9   -1.00    2.00
   2  -2   9   -0.80    2.50
   2  -2   9    2.80    1.50
   2  -2   9    5.20    1.80
  -3   2  -9   -1.00    2.20
  -3   2  -9   -0.70    2.00
  -3   2  -9   -0.40    3.20
   3  -2   9   -2.10    1.10
   3  -2   9   -0.20    1.40
   3  -2   9   -1.10    2.80
  -4   2  -9   28.10    4.10
   4  -2   9   26.00    3.80
   4  -2   9   31.60    4.70
   4  -2   9   24.70    3.50
  -5   2  -9   -2.30    3.10
  -5   2  -9    4.40    3.10
   5  -2   9    5.30    2.90
   5  -2   9    9.10    3.00
   5  -2   9    5.40    2.60
  -6   2  -9   -0.50    1.90
   6  -2   9    1.10    2.30
   6  -2   9   -0.60    2.50
   6  -2   9   -0.80    2.20
  -7   2  -9   -1.80    2.60
   7  -2   9    2.60    2.50
   7  -2   9   -3.10    2.30
   5   1  -9   -0.70    3.00
   5   1  -9   -0.80    1.80
  -5  -1   9   -1.80    2.90
  -5  -1   9   -5.50    2.20
   4   1  -9    0.70    1.70
   4   1  -9   -2.50    2.50
  -4  -1   9   -2.10    2.20
  -4  -1   9   -4.10    2.40
   3   1  -9   -1.20    3.40
   3   1  -9    6.30    2.00
   3   1  -9    5.10    2.60
  -3  -1   9    5.90    3.40
  -3  -1   9    0.80    2.30
   2   1  -9    0.00    3.50
   2   1  -9    6.00    3.10
   2   1  -9    4.10    1.70
  -2  -1   9    1.40    2.30
  -2  -1   9    5.70    3.20
  -2  -1   9    4.30    1.50
   1   1  -9   -0.50    1.20
   1   1  -9   -0.60    1.70
   1   1  -9   -3.60    2.90
  -1  -1   9    0.70    0.90
  -1  -1   9   -1.80    1.90
  -1  -1   9    0.10    2.50
   0   1  -9    5.90    2.00
   0   1  -9   11.80    3.30
   0   1  -9    3.10    3.60
   0  -1   9    6.20    3.00
   0  -1   9    6.80    2.50
   0  -1   9    5.80    1.30
  -1   1  -9   68.99    5.70
  -1   1  -9   65.09    8.10
  -1   1  -9   61.39    9.20
   1  -1   9   64.79    4.50
   1  -1   9   74.19    6.10
   1  -1   9   71.49    4.20
   1  -1   9   72.19    7.60
  -2   1  -9    0.20    2.30
  -2   1  -9   -1.00    1.90
  -2   1  -9    0.70    1.70
   2  -1   9    3.00    2.60
   2  -1   9    0.60    1.40
   2  -1   9   -1.10    0.90
  -3   1  -9   24.30    3.90
   3  -1   9   20.30    3.90
   3  -1   9   24.20    2.90
  -4   1  -9   40.80    9.50
  -4   1  -9   51.59    4.90
  -4   1  -9   47.80    7.70
   4  -1   9   50.29    5.30
   4  -1   9   50.49    3.90
  -5   1  -9    7.20    2.70
  -5   1  -9    2.60    3.10
  -5   1  -9    8.80    3.30
   5  -1   9   10.90    3.30
   5  -1   9   10.30    2.60
  -6   1  -9    3.90    3.20
  -6   1  -9   -1.30    3.20
   6  -1   9    6.70    2.40
   6  -1   9    4.40    2.80
   6  -1   9    3.60    2.70
  -7   1  -9   -1.90    2.70
   7  -1   9    0.00    2.20
   7  -1   9   -2.10    2.20
   7  -1   9    0.00    2.60
  -8   1  -9    0.30    3.40
   8  -1   9    2.70    3.50
   8  -1   9    5.10    3.10
   5   0  -9    1.20    2.90
   5   0  -9   -0.80    1.80
  -5   0   9   -0.30    2.60
  -5   0   9   -0.90    2.90
   4   0  -9   -3.00    2.20
   4   0  -9    1.20    1.90
  -4   0   9   -3.80    2.00
  -4   0   9   -0.40    2.60
   3   0  -9   -0.10    1.50
   3   0  -9   -1.80    2.40
  -3   0   9    2.90    2.90
  -3   0   9    0.10    2.20
   2   0  -9    5.90    3.00
   2   0  -9    7.00    2.10
  -2   0   9    7.00    3.10
  -2   0   9    3.70    1.70
  -2   0   9    3.60    2.40
   1   0  -9    0.50    3.00
   1   0  -9    2.70    2.20
   1   0  -9    1.30    1.40
  -1   0   9    1.40    2.00
  -1   0   9    2.30    2.60
  -1   0   9    3.00    1.20
   0   0  -9    1.10    1.60
   0   0  -9    0.00    2.10
   0   0  -9    0.20    2.20
   0   0   9    1.00    1.00
   0   0   9   -0.80    1.90
   0   0   9    1.30    2.50
  -1   0  -9    5.20    3.30
  -1   0  -9   12.60    2.90
  -1   0  -9    7.90    2.40
   1   0   9   13.80    3.40
   1   0   9    7.20    1.50
   1   0   9    5.20    2.40
  -2   0  -9    2.40    1.90
  -2   0  -9    1.70    1.90
  -2   0  -9    0.40    2.10
   2   0   9   -0.20    1.90
   2   0   9    1.70    1.10
   2   0   9    4.00    2.70
  -3   0  -9    2.40    2.90
  -3   0  -9    1.40    2.20
  -3   0  -9    4.90    2.40
   3   0   9    1.60    1.30
   3   0   9    4.10    2.20
  -4   0  -9    1.00    2.20
  -4   0  -9    3.20    2.20
  -4   0  -9    1.20    2.70
   4   0   9    4.40    2.60
  -5   0  -9    8.50    3.00
  -5   0  -9   13.50    3.10
  -5   0  -9    5.80    3.10
   5   0   9   10.70    2.40
   5   0   9   13.50    3.50
  -6   0  -9   -0.50    2.60
  -6   0  -9    1.20    2.00
  -6   0  -9   -3.60    2.30
   6   0   9   -4.60    1.70
   6   0   9   -0.40    2.40
  -7   0  -9    0.20    2.70
  -7   0  -9    5.00    2.70
   7   0   9   -3.30    2.10
   7   0   9   -3.60    2.30
  -8   0  -9   -3.40    2.80
  -8   0  -9    3.40    2.70
   8   0   9   -0.50    2.40
   5  -1  -9    4.70    2.60
   5  -1  -9    4.50    3.40
  -5   1   9    3.90    3.20
  -5   1   9    1.60    2.60
   4  -1  -9    1.00    1.70
   4  -1  -9   -1.70    2.50
  -4   1   9    3.00    2.70
  -4   1   9   -1.10    2.10
  -4   1   9    3.10    2.70
   3  -1  -9    1.50    2.80
   3  -1  -9    2.30    1.80
  -3   1   9   -0.40    2.00
  -3   1   9    1.40    2.60
   2  -1  -9   15.70    3.80
   2  -1  -9   14.50    2.80
  -2   1   9    8.40    2.10
  -2   1   9    8.50    2.70
  -2   1   9   16.00    3.70
   1  -1  -9    5.90    1.60
   1  -1  -9   14.70    3.40
  -1   1   9    8.10    2.60
  -1   1   9   11.70    2.90
  -1   1   9    6.90    1.90
   0  -1  -9    1.00    1.60
   0  -1  -9    2.90    2.40
   0   1   9    3.10    2.10
   0   1   9    1.30    1.90
   0   1   9    2.60    1.30
  -1  -1  -9   -0.20    1.90
  -1  -1  -9    1.20    1.60
  -1  -1  -9   -1.80    2.00
   1   1   9    0.80    1.10
   1   1   9    1.00    2.30
   1   1   9    0.50    1.90
  -2  -1  -9    0.60    2.50
  -2  -1  -9    3.20    2.10
  -2  -1  -9    4.80    2.50
   2   1   9    2.80    1.30
   2   1   9    3.70    2.10
   2   1   9    3.80    2.50
  -3  -1  -9    1.60    2.50
  -3  -1  -9    2.40    2.20
  -3  -1  -9   -0.50    2.00
   3   1   9    0.90    1.30
   3   1   9    4.80    2.60
  -4  -1  -9    5.40    2.70
  -4  -1  -9   11.70    2.90
  -4  -1  -9    2.70    2.50
   4   1   9    3.40    1.80
   4   1   9   11.50    2.90
  -5  -1  -9   15.50    3.50
  -5  -1  -9   15.80    3.80
  -5  -1  -9   27.80    4.00
   5   1   9   28.50    4.30
   5   1   9   12.20    2.50
  -6  -1  -9   42.60    8.00
  -6  -1  -9   47.20    7.10
  -6  -1  -9   48.30    4.90
   6   1   9   52.29    5.40
  -7  -1  -9    4.50    2.40
  -7  -1  -9    4.80    2.60
  -7  -1  -9   -0.40    2.80
   7   1   9    7.70    3.20
  -8  -1  -9   -2.20    2.90
  -8  -1  -9    3.60    2.80
   8   1   9    1.50    2.80
  -9  -1  -9    7.80    3.20
  -9  -1  -9   -1.00    2.60
   9   1   9    1.10    3.00
   5  -2  -9   -0.90    1.90
   5  -2  -9   -1.00    2.80
  -5   2   9   -2.60    2.00
   4  -2  -9   -1.60    2.40
   4  -2  -9   -0.60    1.80
  -4   2   9    0.20    2.20
  -4   2   9    0.80    2.40
   3  -2  -9   -0.70    2.30
   3  -2  -9   -1.80    1.40
  -3   2   9   -0.50    2.00
  -3   2   9    0.30    1.60
  -3   2   9   -0.80    1.90
  -3   2   9    2.70    2.20
   2  -2  -9    8.90    2.50
   2  -2  -9   12.70    3.30
  -2   2   9    7.60    2.60
  -2   2   9    6.00    2.10
  -2   2   9    7.40    2.90
   1  -2  -9   29.10    4.50
  -1   2   9   35.20    5.90
  -1   2   9   32.90    4.80
  -1   2   9   26.80    4.40
   0  -2  -9    2.60    2.50
   0  -2  -9    2.00    1.60
   0  -2  -9    0.70    1.70
   0   2   9    1.90    1.90
   0   2   9    2.10    1.50
   0   2   9    4.90    2.60
  -1  -2  -9   -1.70    1.30
  -1  -2  -9    0.40    1.80
  -1  -2  -9    3.00    2.30
   1   2   9    1.80    1.20
   1   2   9    3.50    2.40
   1   2   9   -0.50    1.90
   1   2   9    0.70    0.90
  -2  -2  -9    7.80    1.90
  -2  -2  -9    6.90    2.20
  -2  -2  -9   16.70    3.20
   2   2   9   11.40    3.00
   2   2   9    4.10    2.20
   2   2   9    4.80    1.60
  -3  -2  -9    0.80    2.10
  -3  -2  -9   -2.50    1.90
   3   2   9   -0.60    1.80
   3   2   9    0.30    1.30
   3   2   9   -0.80    2.20
  -4  -2  -9   10.60    2.70
  -4  -2  -9    3.20    2.50
   4   2   9    5.80    2.00
   4   2   9    7.20    2.80
  -5  -2  -9   29.70    4.10
   5   2   9   30.00    4.30
   5   2   9   30.60    5.70
  -6  -2  -9   10.00    3.50
  -6  -2  -9   15.60    3.40
  -6  -2  -9   29.80    5.10
   6   2   9   15.70    3.60
  -7  -2  -9   83.09    7.70
  -7  -2  -9   72.09    5.80
  -7  -2  -9   54.39   10.70
   7   2   9   63.99    5.90
  -8  -2  -9   -1.20    2.20
  -8  -2  -9    3.40    2.90
   8   2   9   -1.20    2.60
  -9  -2  -9    6.40    3.70
   9   2   9    4.60    3.10
   5  -3  -9   -1.80    2.30
   5  -3  -9    0.90    1.90
  -5   3   9   -0.60    2.30
   4  -3  -9    4.40    2.40
   4  -3  -9    0.80    2.80
  -4   3   9   -1.00    2.10
   3  -3  -9    1.90    2.10
   3  -3  -9    4.50    2.60
  -3   3   9    0.30    1.70
  -3   3   9   -0.10    1.90
  -3   3   9    1.20    1.90
   2  -3  -9   -1.30    1.40
   2  -3  -9   -1.30    2.30
  -2   3   9   -0.80    1.70
  -2   3   9   -2.60    1.60
  -2   3   9   -0.20    1.60
   1  -3  -9   59.39    5.30
  -1   3   9   57.49    6.90
  -1   3   9   62.79    5.20
  -1   3   9   62.29    6.80
   0  -3  -9  514.15   18.40
   0  -3  -9  530.75   24.30
   0  -3  -9  486.85   19.60
   0   3   9  486.85   16.60
   0   3   9  500.15   22.60
   0   3   9  538.05   18.60
   0   3   9  481.45   23.80
   0   3   9  523.45   21.90
  -1  -3  -9   33.90    4.20
  -1  -3  -9   38.20    6.40
  -1  -3  -9   28.30    3.30
   1   3   9   40.20    5.70
   1   3   9   29.70    4.70
   1   3   9   32.50    2.40
   1   3   9   31.50    3.60
  -2  -3  -9   19.80    3.40
  -2  -3  -9   12.40    2.80
  -2  -3  -9   15.60    2.50
   2   3   9   28.30    3.90
   2   3   9   10.30    2.30
   2   3   9   13.90    2.70
  -3  -3  -9   -1.20    1.90
  -3  -3  -9    1.40    2.00
   3   3   9   -1.30    1.90
   3   3   9    0.20    1.70
   3   3   9   -0.90    1.40
  -4  -3  -9    5.80    2.70
  -4  -3  -9   10.30    2.90
   4   3   9    5.30    2.00
   4   3   9    8.70    2.90
  -5  -3  -9    0.10    1.80
  -5  -3  -9    2.80    1.80
  -5  -3  -9    3.60    2.30
   5   3   9    3.20    2.10
   5   3   9    0.80    1.80
  -6  -3  -9    1.30    2.20
  -6  -3  -9    0.50    2.10
  -6  -3  -9    1.60    1.90
   6   3   9    2.40    2.50
   6   3   9    1.20    2.10
  -7  -3  -9    0.00    2.10
  -7  -3  -9    2.30    2.20
  -7  -3  -9    1.40    2.10
   7   3   9    1.80    2.60
  -8  -3  -9   13.70    3.40
  -8  -3  -9   11.40    3.70
   8   3   9   16.30    4.10
  -9  -3  -9    8.10    3.60
  -9  -3  -9    1.40    3.70
   9   3   9    5.20    3.00
   5  -4  -9   -1.10    2.40
   5  -4  -9   -0.40    1.70
  -5   4   9   -1.10    2.20
   4  -4  -9    2.20    2.30
   4  -4  -9    1.30    2.50
  -4   4   9    2.10    2.40
  -4   4   9    2.90    2.20
   3  -4  -9   -0.70    1.30
   3  -4  -9    0.10    2.30
  -3   4   9    0.40    1.80
  -3   4   9   -0.30    1.70
   2  -4  -9   -0.10    1.70
   2  -4  -9   -1.30    2.30
  -2   4   9    0.50    1.70
  -2   4   9   -0.40    1.60
  -2   4   9   -1.00    1.40
   1  -4  -9    2.00    2.10
   1  -4  -9    0.80    1.50
  -1   4   9    2.30    1.90
  -1   4   9    1.60    2.00
  -1   4   9    1.20    1.70
   0  -4  -9    2.60    2.20
   0  -4  -9    2.30    0.60
   0   4   9    1.80    1.70
   0   4   9    3.30    2.10
   0   4   9    4.90    2.00
   0   4   9    0.70    1.70
  -1  -4  -9  150.58    7.90
  -1  -4  -9  134.09    5.60
  -1  -4  -9  158.78   10.60
   1   4   9  163.58   10.00
   1   4   9  162.88    9.70
   1   4   9  157.88    8.00
  -2  -4  -9   58.59    3.30
  -2  -4  -9   64.79    4.80
  -2  -4  -9   68.19    7.60
  -2  -4  -9   64.09    3.10
   2   4   9   65.09    6.40
   2   4   9   70.89    6.70
   2   4   9   72.69    5.40
  -3  -4  -9    2.40    1.00
  -3  -4  -9    3.00    2.20
  -3  -4  -9    3.90    2.00
   3   4   9    1.70    1.80
   3   4   9    3.00    2.30
   3   4   9   -0.40    1.60
  -4  -4  -9    6.20    1.60
  -4  -4  -9    5.50    2.20
  -4  -4  -9    3.20    2.50
   4   4   9    2.20    1.80
   4   4   9    4.30    2.30
  -5  -4  -9   -1.60    2.20
  -5  -4  -9   -0.10    1.40
  -5  -4  -9    1.30    2.20
   5   4   9   -3.10    1.50
   5   4   9   -0.60    1.70
  -6  -4  -9    1.20    1.90
  -6  -4  -9    2.20    2.40
  -6  -4  -9   -1.80    2.50
   6   4   9    0.40    2.20
   6   4   9   -0.70    2.30
  -7  -4  -9    4.70    2.80
  -7  -4  -9    0.30    2.20
  -7  -4  -9    3.40    2.40
   7   4   9    0.60    2.40
   7   4   9   -2.40    2.20
  -8  -4  -9    0.20    3.00
  -8  -4  -9   -2.90    3.00
  -8  -4  -9    0.20    2.30
   8   4   9    2.00    2.80
  -9  -4  -9   13.80    4.40
  -9  -4  -9    5.20    3.20
  -9  -4  -9   11.40    3.60
   9   4   9    9.90    3.60
   5  -5  -9    0.40    2.20
  -5   5   9    1.70    2.40
  -5   5   9    2.50    2.10
   4  -5  -9   -1.00    1.50
   4  -5  -9   -0.50    2.20
  -4   5   9   -0.40    1.90
  -4   5   9    1.90    2.10
   3  -5  -9    3.00    2.40
   3  -5  -9    0.40    2.00
  -3   5   9   -0.80    1.60
  -3   5   9    0.80    1.80
   2  -5  -9   -1.00    1.80
   2  -5  -9    0.00    1.40
  -2   5   9    0.80    1.70
  -2   5   9    0.10    1.70
   1  -5  -9    6.30    2.50
   1  -5  -9    6.50    2.10
  -1   5   9    3.10    2.10
  -1   5   9    3.60    2.00
  -1   5   9    8.00    2.40
   0  -5  -9    8.70    2.50
   0   5   9    6.90    2.20
   0   5   9    3.80    1.90
   0   5   9    2.30    1.80
  -1  -5  -9   27.40    3.90
   1   5   9   27.70    4.90
   1   5   9   24.60    4.80
   1   5   9   27.40    3.70
  -2  -5  -9   62.09    5.20
  -2  -5  -9   63.59    7.60
   2   5   9   60.89    5.00
   2   5   9   70.69    6.40
   2   5   9   65.79    6.60
  -3  -5  -9    1.50    2.10
  -3  -5  -9    1.50    2.30
   3   5   9   -0.10    1.60
   3   5   9    1.80    1.60
   3   5   9    2.80    2.20
  -4  -5  -9    0.70    2.20
  -4  -5  -9    0.90    1.10
  -4  -5  -9   -1.60    1.40
   4   5   9   -0.40    1.70
   4   5   9    1.60    2.20
  -5  -5  -9    0.40    0.70
  -5  -5  -9   -0.40    2.30
  -5  -5  -9   -1.60    1.90
  -5  -5  -9    0.30    1.30
   5   5   9   -0.60    2.10
   5   5   9   -1.40    1.80
  -6  -5  -9    4.20    2.10
  -6  -5  -9    0.90    2.60
  -6  -5  -9    5.60    2.70
   6   5   9    5.90    2.80
   6   5   9    1.60    2.30
  -7  -5  -9    9.60    3.20
  -7  -5  -9    7.40    2.90
   7   5   9   10.80    3.30
   7   5   9    1.00    2.60
  -8  -5  -9    3.40    2.80
  -8  -5  -9   -2.30    2.80
  -8  -5  -9   -1.70    2.60
   8   5   9    4.20    3.00
  -9  -5  -9    4.70    2.90
  -9  -5  -9   -5.00    2.80
  -9  -5  -9    0.80    3.20
   9   5   9    4.30    3.20
 -10  -5  -9   -6.00    3.30
   4  -6  -9   -1.20    1.80
   4  -6  -9   -2.50    1.90
  -4   6   9    1.60    2.00
  -4   6   9    0.30    2.00
   3  -6  -9    2.20    2.10
   3  -6  -9    0.10    2.10
  -3   6   9    3.40    2.30
  -3   6   9    1.50    2.10
   2  -6  -9    9.20    2.60
   2  -6  -9   10.20    2.80
  -2   6   9    6.50    2.20
  -2   6   9    4.70    2.30
   1  -6  -9   -1.60    1.00
   1  -6  -9    1.10    1.90
  -1   6   9   -1.50    1.50
  -1   6   9    0.20    1.60
   0  -6  -9    3.70    2.40
   0   6   9   -1.50    1.50
   0   6   9    1.10    1.50
   0   6   9   -0.10    1.50
  -1  -6  -9    6.20    2.60
   1   6   9    3.10    1.90
   1   6   9    2.40    1.80
   1   6   9    3.80    1.80
  -2  -6  -9    1.90    2.20
   2   6   9    1.50    1.70
   2   6   9    1.30    1.90
   2   6   9    1.80    1.70
  -3  -6  -9   68.49    5.50
   3   6   9   68.59    7.00
   3   6   9   64.39    5.20
   3   6   9   75.09    6.70
  -4  -6  -9    0.30    2.00
  -4  -6  -9   -2.50    1.70
  -4  -6  -9   -0.30    0.80
  -4  -6  -9    0.00    0.90
   4   6   9   -1.00    1.60
   4   6   9    0.20    2.00
  -5  -6  -9    4.00    2.60
  -5  -6  -9   10.10    1.70
  -5  -6  -9   11.70    3.20
  -5  -6  -9    5.80    1.80
   5   6   9   10.10    3.00
   5   6   9    5.00    2.40
  -6  -6  -9   12.60    2.60
  -6  -6  -9   15.70    3.50
   6   6   9   12.50    3.30
   6   6   9    7.70    2.90
  -7  -6  -9    0.50    2.80
  -7  -6  -9    9.00    3.30
  -7  -6  -9    5.00    2.80
   7   6   9    5.70    2.90
   7   6   9    1.10    2.60
  -8  -6  -9    0.40    3.00
  -8  -6  -9    5.60    3.20
  -8  -6  -9   -1.30    2.90
   8   6   9   -4.30    2.70
   8   6   9    5.20    3.20
  -9  -6  -9   -4.30    2.90
  -9  -6  -9   -2.10    3.00
  -9  -6  -9    6.20    3.40
   9   6   9   -2.70    2.60
   4  -7  -9    0.50    2.70
  -4   7   9   -0.40    2.00
  -4   7   9    1.50    2.20
   3  -7  -9    1.00    2.20
   3  -7  -9    3.50    2.10
  -3   7   9    4.60    2.50
  -3   7   9    1.10    2.20
   2  -7  -9    1.20    1.90
   2  -7  -9    0.40    1.50
  -2   7   9   -0.60    1.70
  -2   7   9   -1.10    1.50
   1  -7  -9    3.10    2.20
   1  -7  -9    2.00    2.10
  -1   7   9   -1.30    1.60
  -1   7   9    1.40    1.90
   0  -7  -9   13.80    2.90
   0   7   9    8.20    2.60
   0   7   9    6.60    2.20
  -1  -7  -9    1.10    2.30
   1   7   9    0.80    1.60
   1   7   9    0.40    1.60
   1   7   9    0.80    1.50
  -2  -7  -9    7.20    2.50
   2   7   9    3.70    2.00
   2   7   9    6.30    2.30
   2   7   9    3.50    1.70
  -3  -7  -9   24.10    2.80
  -3  -7  -9   19.80    3.40
   3   7   9   22.20    3.50
   3   7   9   11.90    2.40
   3   7   9   14.10    3.00
  -4  -7  -9    1.00    2.10
  -4  -7  -9    1.40    1.20
   4   7   9   -0.60    1.30
   4   7   9    0.50    2.00
  -5  -7  -9    8.30    2.90
  -5  -7  -9    4.50    1.70
  -5  -7  -9    5.80    1.80
   5   7   9    2.10    2.30
   5   7   9    9.50    3.00
  -6  -7  -9   -1.00    1.80
  -6  -7  -9    4.30    2.70
  -6  -7  -9    1.90    2.50
   6   7   9    5.70    2.80
   6   7   9    0.30    2.40
  -7  -7  -9   -0.70    2.40
  -7  -7  -9    0.60    2.70
  -7  -7  -9    1.10    2.00
   7   7   9    4.90    2.80
   7   7   9   -1.40    2.60
  -8  -7  -9   -0.20    3.00
  -8  -7  -9    2.10    3.00
  -8  -7  -9    6.00    3.30
   8   7   9   -3.10    2.80
   8   7   9    4.70    2.80
  -9  -7  -9    0.90    3.20
  -9  -7  -9   -2.40    2.80
   9   7   9    1.60    3.10
   3  -8  -9    5.20    3.00
  -3   8   9    6.60    2.90
  -3   8   9    3.80    2.30
   2  -8  -9   -1.40    1.90
   2  -8  -9    1.10    1.80
  -2   8   9    1.70    2.10
  -2   8   9    0.10    1.80
   1  -8  -9    8.90    2.50
   1  -8  -9    8.70    3.00
  -1   8   9    4.80    2.10
  -1   8   9    5.80    2.50
   0  -8  -9   13.90    3.40
   0  -8  -9   14.90    2.90
   0   8   9    9.40    2.50
   0   8   9   12.00    3.00
  -1  -8  -9    1.30    2.10
   1   8   9    1.40    1.50
   1   8   9   -1.10    1.40
  -2  -8  -9   -0.10    1.90
   2   8   9   -0.80    1.60
   2   8   9    1.60    1.60
   2   8   9    3.70    2.00
  -3  -8  -9    1.40    1.40
  -3  -8  -9    2.10    2.20
   3   8   9    1.00    1.60
   3   8   9   -1.10    1.30
   3   8   9   -0.30    1.60
  -4  -8  -9    0.20    1.30
  -4  -8  -9    0.10    2.10
   4   8   9    1.60    2.00
   4   8   9   -1.10    1.70
  -5  -8  -9   -0.40    1.30
  -5  -8  -9    0.60    2.50
   5   8   9   -0.20    2.10
   5   8   9    1.60    2.30
  -6  -8  -9   -3.80    2.00
   6   8   9   -3.10    2.00
   6   8   9    0.80    1.90
  -7  -8  -9    3.90    3.00
   7   8   9   -1.10    2.80
   7   8   9    5.10    3.10
  -8  -8  -9    0.30    2.80
   8   8   9   -5.10    2.70
   8   8   9    4.70    3.30
  -9  -8  -9   -3.80    3.10
  -9  -8  -9    1.70    3.00
   9   8   9    0.10    2.90
   2  -9  -9    0.70    2.40
  -2   9   9    0.30    2.10
  -2   9   9   -2.30    1.60
   1  -9  -9   -1.00    1.70
   1  -9  -9   -0.70    2.10
  -1   9   9    0.10    1.90
  -1   9   9   -1.00    1.80
   0  -9  -9    1.10    1.60
   0  -9  -9    1.50    2.10
   0   9   9   -0.20    1.90
   0   9   9   -2.60    1.60
  -1  -9  -9   -0.40    2.10
   1   9   9    0.60    1.60
   1   9   9   -1.80    1.50
  -2  -9  -9    8.50    2.70
   2   9   9    5.70    2.40
   2   9   9    3.80    1.90
  -3  -9  -9    4.00    2.30
  -3  -9  -9   -0.90    1.50
   3   9   9    0.90    2.10
   3   9   9   -1.60    1.20
   3   9   9   -0.70    1.80
  -4  -9  -9   -0.30    2.40
  -4  -9  -9    0.90    1.70
   4   9   9    0.00    1.60
   4   9   9   -0.50    2.10
  -5  -9  -9    6.90    2.20
  -5  -9  -9    5.90    2.90
   5   9   9    7.10    2.80
   5   9   9    0.90    2.30
  -6  -9  -9    0.80    2.60
   6   9   9    2.60    2.70
   6   9   9   -0.90    2.50
  -7  -9  -9    1.70    3.00
   7   9   9   -1.70    2.10
   7   9   9   -0.90    2.40
  -8  -9  -9    2.20    3.10
   8   9   9    3.30    2.90
   8   9   9   -5.40    3.00
  -9  -9  -9   -0.40    3.10
   9   9   9    1.20    3.20
   1 -10  -9    0.90    2.30
  -1  10   9    1.80    2.20
   0 -10  -9    3.10    2.10
   0 -10  -9    1.80    2.10
   0  10   9    4.30    2.50
  -1 -10  -9   -2.30    1.70
  -1 -10  -9    0.90    2.30
   1  10   9    1.10    2.10
  -2 -10  -9    6.50    2.90
  -2 -10  -9    9.80    3.00
  -3 -10  -9    0.40    1.80
  -3 -10  -9   -1.40    2.10
   3  10   9   -1.00    1.90
  -4 -10  -9    5.40    2.90
  -4 -10  -9    5.80    2.50
   4  10   9    2.30    2.70
  -5 -10  -9    1.10    2.70
  -5 -10  -9    1.10    1.60
   5  10   9   -3.40    2.00
   5  10   9    1.30    2.20
  -6 -10  -9    0.90    2.80
   6  10   9    1.10    2.50
   6  10   9   -1.90    2.60
  -7 -10  -9    0.10    2.70
   7  10   9    0.20    2.70
   7  10   9   -4.40    2.80
  -8 -10  -9    0.30    3.30
   8  10   9    2.40    3.20
   0 -11  -9    4.90    2.30
   0  11   9    2.10    2.20
  -1 -11  -9    0.90    2.10
  -1 -11  -9    0.60    2.30
   1  11   9   -0.10    2.00
  -2 -11  -9    5.10    2.60
  -2 -11  -9    3.80    2.60
  -2 -11  -9    2.00    2.60
   2  11   9    3.00    2.30
  -3 -11  -9    0.00    2.70
  -3 -11  -9    0.10    1.80
   3  11   9    0.30    2.10
  -4 -11  -9    1.30    2.70
  -4 -11  -9    3.80    2.40
   4  11   9    0.90    2.50
  -5 -11  -9   -0.40    1.70
  -5 -11  -9   -0.40    2.60
   5  11   9   -2.40    2.50
  -6 -11  -9    3.00    3.00
   6  11   9   -3.30    2.80
  -7 -11  -9    3.10    3.40
   7  11   9   -6.60    2.90
   7  11   9   -0.70    2.50
  -3 -12  -9   -0.80    2.70
   3  12   9   -0.60    2.30
  -4 -12  -9    0.40    3.00
  -4 -12  -9    2.10    2.20
   4  12   9   -0.80    2.50
  -5 -12  -9    1.20    2.00
  -5 -12  -9    0.50    3.20
   5  12   9   -1.80    2.60
   2   4 -10   -1.20    2.30
  -2  -4  10   -6.00    3.00
  -2  -4  10   -5.20    2.30
   1   4 -10   -6.00    2.40
  -1  -4  10   -4.20    2.30
  -1  -4  10   -1.10    3.40
   0   4 -10    1.70    1.90
   0   4 -10   -0.20    2.80
   0  -4  10    0.40    3.50
   0  -4  10    6.70    2.10
  -1   4 -10    2.00    3.20
  -1   4 -10    1.80    2.30
  -1   4 -10   -8.30    4.10
   1  -4  10    0.40    3.30
   1  -4  10    6.00    2.10
  -2   4 -10    2.90    2.70
   2  -4  10    7.10    2.40
   2  -4  10    5.00    3.90
  -3   4 -10   11.30    3.90
  -3   4 -10   -0.40    4.80
   3  -4  10   11.50    3.10
   3  -4  10    8.00    4.10
   3   3 -10    1.70    3.30
  -3  -3  10   -3.10    2.50
  -3  -3  10    4.30    3.20
   2   3 -10    3.50    3.20
  -2  -3  10   -4.40    2.30
  -2  -3  10   -0.30    3.30
   1   3 -10    8.20    3.70
   1   3 -10   -0.50    3.30
  -1  -3  10    4.80    3.00
  -1  -3  10   10.80    4.30
   0   3 -10   -0.40    1.70
   0   3 -10   -1.20    2.80
   0  -3  10   -3.50    2.20
   0  -3  10   -1.50    2.90
  -1   3 -10   -5.40    3.70
  -1   3 -10    2.40    2.60
  -1   3 -10   -1.00    2.50
   1  -3  10    0.60    3.20
  -2   3 -10   -3.60    2.80
  -2   3 -10   -0.70    2.40
  -2   3 -10   -0.50    2.70
   2  -3  10    0.40    3.00
  -3   3 -10   -0.90    2.60
   3  -3  10    0.20    2.80
  -4   3 -10   -0.80    2.50
   4  -3  10    0.80    2.00
   4  -3  10    1.20    3.00
   4  -3  10    0.80    1.90
  -5   3 -10    0.10    2.80
   5  -3  10    0.10    2.20
   5  -3  10    1.50    2.70
   5  -3  10   -2.40    2.70
   4   2 -10    4.50    3.70
  -4  -2  10   -5.60    2.80
   3   2 -10    6.20    3.50
   3   2 -10   -5.90    3.90
  -3  -2  10   -5.30    2.50
  -3  -2  10    0.70    3.40
   2   2 -10    5.40    3.50
   2   2 -10   -5.90    3.70
  -2  -2  10    0.20    3.20
  -2  -2  10   -2.70    2.40
   1   2 -10   -1.90    2.70
   1   2 -10    3.20    3.00
  -1  -2  10   -1.60    2.90
  -1  -2  10   -3.60    2.10
   0   2 -10   -2.20    1.60
   0   2 -10   -3.30    3.60
   0   2 -10   -1.70    2.40
   0  -2  10   -3.80    2.10
   0  -2  10   -1.60    3.00
  -1   2 -10    4.60    2.50
  -1   2 -10    8.30    3.30
  -1   2 -10   -3.10    3.70
   1  -2  10    7.70    3.60
   1  -2  10    2.80    2.70
  -2   2 -10   -3.20    3.40
  -2   2 -10    1.50    2.40
  -2   2 -10   -1.00    2.20
   2  -2  10   -3.10    2.60
  -3   2 -10   -6.00    3.20
  -3   2 -10   -1.60    2.30
  -3   2 -10    1.30    2.40
   3  -2  10   -0.20    1.60
   3  -2  10   -1.70    2.60
  -4   2 -10    1.00    3.00
  -4   2 -10    5.80    2.80
  -4   2 -10   -0.30    3.90
   4  -2  10    7.10    3.40
   4  -2  10    6.00    2.70
  -5   2 -10    3.50    3.30
  -5   2 -10    0.40    4.10
   5  -2  10    7.50    3.40
   5  -2  10    7.10    3.00
  -6   2 -10   -1.30    1.90
   6  -2  10   -0.80    2.50
   6  -2  10    0.40    2.10
   4   1 -10   -0.30    1.60
   4   1 -10   -0.50    3.00
  -4  -1  10   -4.40    2.90
  -4  -1  10   -4.70    2.30
   3   1 -10   -1.10    2.80
   3   1 -10    0.90    1.40
  -3  -1  10    0.80    3.20
  -3  -1  10   -2.90    2.40
   2   1 -10   -4.40    3.30
   2   1 -10    2.00    1.60
   2   1 -10   -0.20    2.20
  -2  -1  10   -1.60    2.70
  -2  -1  10   -0.10    2.40
   1   1 -10   -0.80    1.30
   1   1 -10   -2.20    2.40
   1   1 -10   -2.90    2.50
  -1  -1  10   -2.90    2.00
  -1  -1  10   -1.20    2.70
   0   1 -10   -1.70    2.40
   0   1 -10   -3.60    3.10
   0   1 -10   -2.00    1.60
   0  -1  10   -0.60    2.70
   0  -1  10   -0.80    2.20
  -1   1 -10   -2.70    3.30
  -1   1 -10   -1.10    2.20
  -1   1 -10    0.50    2.00
   1  -1  10   -2.30    2.60
   1  -1  10    0.30    2.30
  -2   1 -10   -0.60    2.00
  -2   1 -10   -1.50    3.30
  -2   1 -10    1.70    2.50
   2  -1  10   -0.70    1.30
   2  -1  10   -0.50    2.60
  -3   1 -10   -0.80    3.30
  -3   1 -10    5.50    2.70
  -3   1 -10    1.10    2.40
   3  -1  10    3.10    1.80
   3  -1  10    4.80    3.10
  -4   1 -10    2.00    2.80
  -4   1 -10   -4.60    2.90
  -4   1 -10    1.70    2.40
   4  -1  10    1.10    2.80
   4  -1  10    4.00    2.40
  -5   1 -10   -5.00    2.90
  -5   1 -10   -1.80    2.40
  -5   1 -10   -0.40    2.30
   5  -1  10    0.30    3.00
   5  -1  10   -1.50    1.90
  -6   1 -10   -0.30    2.90
   6  -1  10    0.00    2.60
   6  -1  10    1.30    2.10
  -7   1 -10   -0.20    3.20
   7  -1  10    1.20    2.80
   4   0 -10   -1.60    1.50
   4   0 -10   -2.80    3.00
  -4   0  10   -3.20    2.60
  -4   0  10   -5.20    2.40
   3   0 -10    2.50    3.10
   3   0 -10    1.50    1.70
  -3   0  10    0.80    1.50
  -3   0  10   -3.70    2.10
  -3   0  10   -4.40    2.40
   2   0 -10    1.70    1.90
   2   0 -10    0.40    2.70
  -2   0  10    1.10    3.10
  -2   0  10    2.20    1.50
  -2   0  10    0.80    2.20
   1   0 -10    3.00    2.90
   1   0 -10   -2.30    3.00
  -1   0  10   -1.30    2.10
  -1   0  10    2.00    3.00
  -1   0  10    3.30    1.40
   0   0 -10    1.60    1.90
   0   0 -10    1.60    2.70
   0   0 -10   10.60    3.50
   0   0  10    4.70    3.10
   0   0  10    4.50    2.60
   0   0  10    3.10    1.30
  -1   0 -10   11.10    3.60
  -1   0 -10   10.30    2.70
  -1   0 -10   18.80    3.90
   1   0  10   17.90    3.30
   1   0  10   10.50    3.00
   1   0  10   23.20    4.30
  -2   0 -10   13.40    3.50
  -2   0 -10    6.10    3.50
  -2   0 -10    6.20    2.60
   2   0  10    7.30    1.70
   2   0  10   15.40    3.80
   2   0  10    9.90    2.90
  -3   0 -10    7.20    2.80
  -3   0 -10    1.10    2.40
  -3   0 -10    1.10    3.10
   3   0  10   -0.20    1.40
   3   0  10    1.50    2.60
  -4   0 -10    2.80    2.50
  -4   0 -10    1.50    3.10
  -4   0 -10    0.30    2.60
   4   0  10    4.50    2.90
  -5   0 -10   -4.60    2.60
  -5   0 -10   -0.10    2.20
  -5   0 -10   -0.60    2.60
   5   0  10   -2.20    2.50
  -6   0 -10   -2.60    1.70
  -6   0 -10   -4.20    2.60
  -6   0 -10   -0.70    2.90
   6   0  10   -1.60    2.60
  -7   0 -10    1.00    3.30
   7   0  10    0.20    2.50
  -8   0 -10   -4.00    3.10
   8   0  10    3.70    3.20
   4  -1 -10   -1.00    2.90
   4  -1 -10    0.80    2.00
  -4   1  10    2.60    1.80
  -4   1  10   -4.00    2.40
   3  -1 -10    1.20    1.90
   3  -1 -10    1.10    3.20
  -3   1  10   -1.20    2.20
  -3   1  10   -2.40    2.50
  -3   1  10    3.60    2.00
   2  -1 -10   -2.90    2.50
   2  -1 -10    0.30    1.50
  -2   1  10    0.00    2.60
  -2   1  10   -1.60    2.10
  -2   1  10    1.30    1.40
   1  -1 -10   -3.10    2.30
  -1   1  10    1.60    1.40
  -1   1  10    1.20    2.20
  -1   1  10    2.30    2.70
   0  -1 -10    1.30    2.50
   0  -1 -10    0.10    1.70
   0   1  10    1.00    1.30
   0   1  10   -1.00    2.00
   0   1  10    0.00    2.40
  -1  -1 -10    2.40    2.10
  -1  -1 -10    6.10    2.50
  -1  -1 -10    1.30    2.80
   1   1  10    3.20    2.30
   1   1  10    1.70    1.30
   1   1  10    1.20    2.20
  -2  -1 -10   -1.10    1.80
  -2  -1 -10   -0.50    2.10
  -2  -1 -10    1.10    2.40
   2   1  10   -0.60    2.30
   2   1  10   -1.00    1.10
   2   1  10   -2.40    1.80
  -3  -1 -10   22.60    4.00
  -3  -1 -10   14.80    3.50
  -3  -1 -10   13.90    3.90
   3   1  10   26.50    4.50
   3   1  10   28.10    4.50
  -4  -1 -10    4.30    2.20
  -4  -1 -10    3.20    2.80
  -4  -1 -10    0.10    2.70
   4   1  10    0.10    1.70
   4   1  10    2.20    2.70
  -5  -1 -10   -0.20    2.20
  -5  -1 -10    0.20    2.70
  -5  -1 -10   -0.60    2.50
   5   1  10    0.70    2.50
   5   1  10   -3.60    1.50
  -6  -1 -10   -1.70    2.70
  -6  -1 -10    0.70    2.30
   6   1  10    0.80    2.80
  -7  -1 -10    6.00    2.80
   7   1  10    2.00    3.10
  -8  -1 -10    8.80    3.40
  -8  -1 -10   -1.80    3.30
   8   1  10    1.00    2.80
   4  -2 -10    2.40    3.40
   4  -2 -10    3.60    2.40
  -4   2  10    3.70    2.10
  -4   2  10    0.10    2.40
   3  -2 -10    3.40    2.10
   3  -2 -10    0.40    2.70
  -3   2  10   -0.50    2.30
  -3   2  10    1.30    1.70
  -3   2  10   -1.60    2.10
   2  -2 -10    9.10    3.30
   2  -2 -10    5.70    2.10
  -2   2  10    5.80    2.90
  -2   2  10    3.30    1.80
  -2   2  10    0.80    2.30
   1  -2 -10    3.10    2.90
  -1   2  10    1.40    2.10
  -1   2  10    0.00    2.10
  -1   2  10    0.70    1.30
   0  -2 -10    1.50    2.40
   0  -2 -10   -0.20    1.50
   0   2  10    0.50    1.90
   0   2  10   -2.30    2.00
   0   2  10    0.50    1.30
  -1  -2 -10   -0.40    1.90
  -1  -2 -10    3.70    2.70
   1   2  10    5.20    2.60
   1   2  10    2.70    2.30
   1   2  10    3.50    1.50
  -2  -2 -10    0.40    2.30
  -2  -2 -10   -0.90    2.00
   2   2  10   -1.70    1.90
   2   2  10    0.30    1.20
   2   2  10   -0.20    2.30
  -3  -2 -10   39.90    7.70
  -3  -2 -10   42.90    4.70
   3   2  10   36.70    4.90
   3   2  10   40.30    4.30
   3   2  10   34.60    6.40
  -4  -2 -10    2.00    2.30
  -4  -2 -10   -0.70    2.40
   4   2  10    2.60    2.10
   4   2  10    0.90    1.70
  -5  -2 -10    1.10    2.40
  -5  -2 -10   -1.50    2.50
   5   2  10    4.80    2.80
   5   2  10   -0.60    1.80
  -6  -2 -10    4.70    2.60
  -6  -2 -10   -1.00    2.70
  -6  -2 -10    4.70    2.30
   6   2  10   -1.10    2.00
   6   2  10    3.90    2.90
  -7  -2 -10   14.10    3.50
  -7  -2 -10    7.10    3.80
  -7  -2 -10   14.50    3.70
   7   2  10   15.40    3.90
  -8  -2 -10    4.60    3.00
  -8  -2 -10   -4.50    2.90
   8   2  10   -0.60    2.70
  -9  -2 -10    9.40    3.40
   4  -3 -10   -1.70    1.80
   4  -3 -10    0.50    3.00
  -4   3  10    0.30    1.80
  -4   3  10   -3.60    1.90
   3  -3 -10    3.00    3.00
   3  -3 -10    2.80    1.90
  -3   3  10    1.90    2.00
  -3   3  10    0.10    2.40
   2  -3 -10    1.90    1.60
   2  -3 -10    6.10    3.20
  -2   3  10    1.70    1.80
  -2   3  10   -1.30    2.00
  -2   3  10    4.00    2.70
   1  -3 -10   35.50    4.80
   1  -3 -10   25.80    3.30
  -1   3  10   33.50    5.40
  -1   3  10   24.60    4.20
   0  -3 -10    1.30    1.50
   0  -3 -10    3.80    2.60
   0   3  10    1.00    1.60
   0   3  10    1.00    2.20
   0   3  10    1.30    2.00
  -1  -3 -10    6.90    2.40
  -1  -3 -10   12.20    3.20
   1   3  10   12.70    3.00
   1   3  10    6.70    2.00
   1   3  10    6.60    2.50
  -2  -3 -10    8.60    2.60
  -2  -3 -10    2.70    2.20
   2   3  10    1.50    2.10
   2   3  10    6.20    2.70
   2   3  10    2.90    1.60
  -3  -3 -10    4.00    2.20
  -3  -3 -10    1.80    2.30
   3   3  10    1.10    2.10
   3   3  10    3.00    2.10
   3   3  10    1.80    1.70
  -4  -3 -10   12.50    2.90
  -4  -3 -10    5.50    2.40
   4   3  10    5.80    2.20
   4   3  10   15.90    3.40
  -5  -3 -10   -0.20    2.70
  -5  -3 -10    6.50    2.80
  -5  -3 -10    5.70    2.00
   5   3  10    6.60    2.90
   5   3  10    2.60    2.20
  -6  -3 -10    2.10    1.90
  -6  -3 -10    0.40    2.30
  -6  -3 -10   -1.00    2.00
   6   3  10   -1.10    2.40
   6   3  10   -3.90    2.10
  -7  -3 -10    5.60    3.70
  -7  -3 -10   16.30    3.70
  -7  -3 -10   13.60    3.40
   7   3  10   15.70    3.80
  -8  -3 -10    0.20    3.40
  -8  -3 -10    6.20    3.00
  -8  -3 -10   13.40    4.00
   8   3  10    9.10    3.50
  -9  -3 -10   -1.20    3.20
   9   3  10   -3.30    2.50
   4  -4 -10    1.80    2.50
   4  -4 -10    0.50    2.80
  -4   4  10   -0.40    2.30
  -4   4  10    1.50    2.00
   3  -4 -10   -1.70    2.20
   3  -4 -10   -0.20    1.90
  -3   4  10   -0.50    2.10
  -3   4  10    1.00    2.00
   2  -4 -10    0.50    2.40
   2  -4 -10   -1.30    1.80
  -2   4  10   -0.40    1.90
  -2   4  10    1.10    1.90
   1  -4 -10    2.30    2.00
   1  -4 -10   12.40    3.50
  -1   4  10    3.70    2.30
  -1   4  10    8.10    2.80
  -1   4  10    3.40    1.90
   0  -4 -10   11.90    3.20
   0   4  10    5.80    2.20
   0   4  10   12.80    3.10
   0   4  10    6.50    2.40
  -1  -4 -10    4.60    2.70
  -1  -4 -10    2.50    1.80
   1   4  10    4.70    2.00
   1   4  10    4.90    2.20
   1   4  10    7.80    2.80
  -2  -4 -10    3.60    2.50
  -2  -4 -10    1.40    2.00
   2   4  10    1.10    1.70
   2   4  10    3.60    2.10
   2   4  10    1.80    2.30
  -3  -4 -10    2.30    2.00
  -3  -4 -10   -0.40    2.10
   3   4  10   -1.00    1.60
   3   4  10    2.10    2.20
   3   4  10    0.50    1.90
  -4  -4 -10    6.60    1.60
  -4  -4 -10    6.50    2.70
  -4  -4 -10    1.80    2.60
   4   4  10    2.10    1.90
   4   4  10    8.70    2.70
  -5  -4 -10    3.60    1.70
  -5  -4 -10   -4.10    2.20
  -5  -4 -10    1.10    2.40
   5   4  10   -1.30    1.70
   5   4  10    2.90    2.50
  -6  -4 -10    1.50    1.90
  -6  -4 -10   -0.50    2.20
   6   4  10    1.90    2.60
   6   4  10   -1.40    2.00
  -7  -4 -10    0.20    2.10
  -7  -4 -10   -2.40    2.00
  -7  -4 -10   -0.50    1.70
   7   4  10   -0.30    2.60
   7   4  10   -3.70    2.20
  -8  -4 -10   -5.90    2.90
  -8  -4 -10   -0.10    2.90
  -8  -4 -10    1.90    2.40
   8   4  10    0.80    2.80
  -9  -4 -10   11.40    4.10
   9   4  10   16.70    4.20
   4  -5 -10    5.50    2.60
   4  -5 -10    5.40    2.80
  -4   5  10    1.00    2.50
  -4   5  10    5.20    2.50
   3  -5 -10    0.50    2.50
   3  -5 -10    0.00    2.00
  -3   5  10    2.00    2.00
  -3   5  10    0.20    2.10
   2  -5 -10    0.60    1.50
   2  -5 -10    0.90    2.10
  -2   5  10    0.90    1.80
  -2   5  10   -0.60    1.80
   1  -5 -10    0.80    2.40
   1  -5 -10   -0.50    1.70
  -1   5  10   -0.70    1.70
  -1   5  10    1.20    2.00
  -1   5  10    0.00    1.70
   0  -5 -10   -0.50    2.10
   0   5  10   -0.10    1.70
   0   5  10   -1.00    1.60
   0   5  10    1.60    1.90
  -1  -5 -10  130.09    7.50
   1   5  10  122.99    9.50
   1   5  10  129.59    9.20
   1   5  10  127.39    7.40
  -2  -5 -10  139.89    7.90
  -2  -5 -10  148.69   11.70
   2   5  10  136.89    9.50
   2   5  10  137.59    7.80
   2   5  10  131.69    9.80
  -3  -5 -10   -0.70    1.90
  -3  -5 -10   -0.30    2.20
   3   5  10    0.20    1.80
   3   5  10   -1.50    1.70
   3   5  10   -0.30    1.90
  -4  -5 -10   -2.10    2.10
  -4  -5 -10    2.60    1.10
  -4  -5 -10    4.30    2.30
   4   5  10    5.20    2.70
   4   5  10    0.00    1.70
  -5  -5 -10    3.10    1.50
  -5  -5 -10    1.60    2.50
  -5  -5 -10    2.00    2.80
   5   5  10    1.90    2.10
   5   5  10    4.00    2.70
  -6  -5 -10   -0.90    2.70
  -6  -5 -10    0.20    1.70
  -6  -5 -10    0.40    2.40
   6   5  10   -2.30    2.10
   6   5  10    0.70    2.50
  -7  -5 -10    1.70    2.40
  -7  -5 -10   -0.20    2.40
  -7  -5 -10   -0.50    2.30
   7   5  10    3.50    2.80
   7   5  10   -3.50    2.30
  -8  -5 -10    4.30    3.00
  -8  -5 -10   -0.30    2.40
  -8  -5 -10    8.50    3.40
   8   5  10    0.60    2.80
   8   5  10   -3.70    2.80
  -9  -5 -10   14.30    4.10
  -9  -5 -10    9.10    4.00
   9   5  10    7.90    3.70
   3  -6 -10    0.70    2.20
   3  -6 -10    2.10    2.40
  -3   6  10    2.10    2.20
  -3   6  10    1.40    2.40
   2  -6 -10   -3.40    1.50
   2  -6 -10    0.50    2.00
  -2   6  10    1.40    1.90
  -2   6  10    0.10    2.00
   1  -6 -10    4.80    2.40
   1  -6 -10    5.00    2.40
  -1   6  10    4.70    2.30
  -1   6  10    1.40    2.00
   0  -6 -10    3.50    2.50
   0   6  10    0.20    1.70
   0   6  10    3.40    2.00
   0   6  10    1.20    1.80
  -1  -6 -10   -1.30    2.10
   1   6  10   -0.40    1.60
   1   6  10    0.20    1.60
   1   6  10    0.30    2.00
  -2  -6 -10    6.40    2.80
   2   6  10    3.10    2.00
   2   6  10    2.80    1.90
   2   6  10    5.80    2.40
  -3  -6 -10   34.10    4.60
   3   6  10   41.10    6.20
   3   6  10   45.70    6.40
   3   6  10   39.40    4.60
  -4  -6 -10   44.30    5.10
  -4  -6 -10   45.20    8.40
   4   6  10   50.09    5.00
   4   6  10   47.50    6.80
  -5  -6 -10   -0.60    1.80
  -5  -6 -10    1.10    1.90
   5   6  10   -0.60    2.10
   5   6  10    2.20    2.40
  -6  -6 -10    2.70    2.00
  -6  -6 -10    4.50    2.80
  -6  -6 -10    1.00    2.70
   6   6  10    9.00    3.30
   6   6  10    2.50    2.60
  -7  -6 -10   24.30    4.50
  -7  -6 -10   10.20    3.80
  -7  -6 -10   14.60    3.30
   7   6  10   11.10    3.60
   7   6  10   25.00    4.40
  -8  -6 -10    0.90    2.90
  -8  -6 -10    4.40    3.20
  -8  -6 -10   -1.00    2.20
   8   6  10    0.60    2.90
   8   6  10   -4.00    2.80
  -9  -6 -10   -1.10    3.00
  -9  -6 -10   -2.70    2.30
  -9  -6 -10    1.40    2.90
   9   6  10    1.00    2.40
   3  -7 -10    2.90    2.20
   3  -7 -10    4.20    2.40
  -3   7  10    0.80    2.30
  -3   7  10    3.20    2.40
   2  -7 -10    1.70    2.30
   2  -7 -10    1.60    2.30
  -2   7  10   -0.30    1.90
  -2   7  10    0.90    2.00
   1  -7 -10    0.70    2.20
   1  -7 -10    0.90    2.00
  -1   7  10   -1.70    1.70
  -1   7  10   -1.00    1.60
   0  -7 -10    1.50    2.50
   0   7  10    0.80    1.80
   0   7  10    0.80    1.90
  -1  -7 -10    6.00    2.70
   1   7  10    4.60    2.10
   1   7  10    2.40    2.00
   1   7  10    1.90    1.90
  -2  -7 -10    8.70    3.20
   2   7  10    6.40    2.50
   2   7  10   12.40    2.80
   2   7  10    5.80    2.40
  -3  -7 -10   72.39    6.20
   3   7  10   60.99    7.50
   3   7  10   67.39    6.60
   3   7  10   60.59    5.30
  -4  -7 -10   16.90    3.50
   4   7  10   13.80    3.20
   4   7  10   26.20    4.20
  -5  -7 -10   -0.30    2.20
  -5  -7 -10   -1.30    2.10
   5   7  10   -0.70    2.20
   5   7  10    0.00    2.10
  -6  -7 -10    4.20    2.80
  -6  -7 -10    3.00    2.80
   6   7  10    4.10    2.80
   6   7  10   -1.60    2.30
  -7  -7 -10    1.30    2.90
  -7  -7 -10    7.30    3.40
   7   7  10    1.70    3.10
   7   7  10    5.50    3.20
  -8  -7 -10   -1.50    2.00
  -8  -7 -10   -2.70    2.50
   8   7  10   -5.70    2.80
   8   7  10    0.10    2.70
  -9  -7 -10    1.80    3.30
   9   7  10    1.80    3.30
   2  -8 -10    1.20    1.90
   2  -8 -10    2.20    2.20
  -2   8  10    1.60    2.30
  -2   8  10   -1.50    1.90
   1  -8 -10    2.80    2.50
   1  -8 -10    1.40    2.30
  -1   8  10   -2.10    1.70
  -1   8  10    0.20    1.90
   0  -8 -10    3.40    2.40
   0  -8 -10    3.50    2.40
   0   8  10   -1.30    1.80
   0   8  10    0.30    2.00
  -1  -8 -10    2.80    2.50
   1   8  10    1.50    2.00
   1   8  10   -1.60    1.50
  -2  -8 -10   -2.10    1.80
   2   8  10   -0.30    1.80
   2   8  10   -3.20    1.50
   2   8  10   -1.00    1.90
  -3  -8 -10   -0.90    2.10
   3   8  10    1.70    2.10
   3   8  10    0.10    1.80
   3   8  10    0.70    1.80
  -4  -8 -10    1.50    2.30
  -4  -8 -10   -0.50    1.30
   4   8  10    1.20    2.10
   4   8  10   -0.60    2.10
  -5  -8 -10   23.90    4.20
   5   8  10   13.70    3.50
   5   8  10   19.80    3.90
  -6  -8 -10    6.50    3.30
   6   8  10   -0.40    2.40
   6   8  10    7.90    3.20
  -7  -8 -10   -4.00    2.30
   7   8  10    0.90    2.20
   7   8  10   -2.90    2.70
  -8  -8 -10    0.60    2.50
  -8  -8 -10   -2.60    2.70
   8   8  10   -0.60    2.10
  -9  -8 -10   -3.90    2.60
  -9  -8 -10   -2.30    2.90
   9   8  10    1.00    2.30
   1  -9 -10    2.90    2.10
   1  -9 -10    1.60    2.10
  -1   9  10    2.90    2.50
  -1   9  10   -2.80    1.80
   0  -9 -10    0.10    2.20
   0  -9 -10    0.90    2.30
   0   9  10   -2.60    1.70
   0   9  10    2.20    2.20
  -1  -9 -10   -1.20    1.90
   1   9  10   -2.80    1.60
   1   9  10   -1.10    1.80
  -2  -9 -10    3.20    2.40
   2   9  10    2.90    2.30
   2   9  10   -0.30    1.70
  -3  -9 -10   -0.40    2.10
   3   9  10   -1.50    1.50
   3   9  10    1.30    2.10
  -4  -9 -10    2.00    1.70
  -4  -9 -10   -2.10    2.00
   4   9  10    0.40    2.20
   4   9  10    0.40    2.00
  -5  -9 -10    2.20    1.70
  -5  -9 -10    2.00    2.70
   5   9  10   -0.30    2.10
   5   9  10   -2.40    2.20
  -6  -9 -10    2.50    2.90
   6   9  10   -0.10    2.70
   6   9  10    4.30    2.90
  -7  -9 -10    0.10    2.90
   7   9  10   -3.10    2.80
   7   9  10    1.70    2.80
  -8  -9 -10    2.50    3.40
   8   9  10   -5.10    3.00
   8   9  10    1.50    2.80
   0 -10 -10    0.60    2.10
   0 -10 -10   -2.00    2.10
   0  10  10    2.40    2.30
  -1 -10 -10    4.60    2.80
  -1 -10 -10    5.30    2.80
   1  10  10    4.50    2.60
  -2 -10 -10    3.70    2.70
   2  10  10    1.10    2.20
  -3 -10 -10    7.40    2.50
  -3 -10 -10    7.20    3.30
   3  10  10    3.70    2.60
  -4 -10 -10    0.60    1.90
  -4 -10 -10    1.20    2.90
   4  10  10    0.20    2.30
  -5 -10 -10    1.00    1.90
  -5 -10 -10    0.70    2.70
   5  10  10   -0.90    2.60
   5  10  10    2.50    2.80
  -6 -10 -10    0.50    2.90
   6  10  10    3.30    2.80
   6  10  10   -1.50    2.80
  -7 -10 -10    7.00    3.70
   7  10  10   -3.60    2.70
   7  10  10    0.90    2.90
  -1 -11 -10   -0.10    2.30
  -1 -11 -10    0.00    2.20
   1  11  10   -0.60    2.00
  -2 -11 -10    2.90    2.70
  -2 -11 -10    0.50    2.20
   2  11  10    1.70    2.40
  -3 -11 -10    8.50    3.20
  -3 -11 -10    6.00    2.70
   3  11  10    4.20    2.90
  -4 -11 -10    2.30    2.20
  -4 -11 -10    3.30    3.00
   4  11  10   -1.40    2.50
  -5 -11 -10   -3.60    2.80
  -5 -11 -10    1.00    1.90
   5  11  10   -4.20    2.40
  -6 -11 -10   -0.90    2.80
   6  11  10   -4.20    2.70
   1   3 -11    1.60    3.20
  -1  -3  11   -2.30    3.20
  -1  -3  11   -0.90    2.70
   0   3 -11   -0.20    2.40
   0  -3  11   -3.10    2.70
   0  -3  11   -3.70    3.20
  -1   3 -11   -0.80    2.20
  -1   3 -11   -0.90    2.80
   1  -3  11   -3.20    3.10
  -2   3 -11   -0.40    2.90
  -2   3 -11   -4.80    3.20
  -2   3 -11   -1.90    2.60
   2  -3  11   -0.70    3.20
  -3   3 -11   -0.30    5.10
  -3   3 -11   11.00    4.20
   3  -3  11   18.00    4.60
   2   2 -11   -1.50    2.80
   2   2 -11   -3.20    3.10
  -2  -2  11   -1.00    3.40
  -2  -2  11   -1.50    2.70
   1   2 -11   -6.40    3.80
   1   2 -11    1.80    3.20
  -1  -2  11   -3.30    2.50
  -1  -2  11   -3.20    3.30
   0   2 -11    2.90    3.10
   0   2 -11   -3.90    2.70
   0  -2  11   -2.60    2.80
   0  -2  11   -2.70    2.80
  -1   2 -11    2.90    3.10
  -1   2 -11   -1.30    2.00
  -1   2 -11   -2.10    2.90
   1  -2  11   -0.50    2.40
  -2   2 -11    0.70    2.60
  -2   2 -11    0.10    2.50
  -2   2 -11   -4.50    3.90
   2  -2  11   -0.20    3.10
  -3   2 -11    0.20    2.70
  -3   2 -11    0.30    2.80
  -3   2 -11   -4.10    2.70
   3  -2  11    0.80    3.10
  -4   2 -11    9.10    3.80
  -4   2 -11   -0.20    4.30
   4  -2  11   19.70    4.90
  -5   2 -11    3.20    3.50
   5  -2  11    7.70    3.70
   5  -2  11    4.40    2.60
   3   1 -11    3.50    3.80
  -3  -1  11   -2.10    2.90
  -3  -1  11    5.60    3.80
   2   1 -11   -2.40    2.80
   2   1 -11    6.50    2.40
   2   1 -11    0.70    3.20
  -2  -1  11    0.70    2.80
  -2  -1  11    6.50    3.90
   1   1 -11   -5.90    3.40
   1   1 -11    2.70    1.70
   1   1 -11    0.30    2.30
  -1  -1  11   -1.60    2.60
  -1  -1  11    1.50    3.20
   0   1 -11    8.30    3.50
   0   1 -11   -0.10    2.80
   0  -1  11    1.20    3.20
   0  -1  11    0.70    2.60
  -1   1 -11   -2.20    2.40
  -1   1 -11   -2.10    2.60
   1  -1  11   -2.40    2.20
   1  -1  11   -0.60    2.90
  -2   1 -11   -1.80    2.40
  -2   1 -11    0.80    2.70
  -2   1 -11   -5.30    3.20
   2  -1  11    2.70    3.20
  -3   1 -11    2.20    2.60
  -3   1 -11   -1.20    2.50
   3  -1  11   -2.60    2.80
  -4   1 -11   -5.20    3.30
  -4   1 -11   -0.30    2.40
  -4   1 -11   -1.40    2.80
   4  -1  11    0.10    1.80
   4  -1  11   -0.50    2.90
  -5   1 -11   -0.60    2.40
  -5   1 -11   -7.00    3.50
   5  -1  11   -0.80    2.30
   5  -1  11   -0.40    2.90
  -6   1 -11   -4.30    2.90
   6  -1  11    0.40    2.40
   6  -1  11    2.50    3.20
   3   0 -11    3.20    2.10
   3   0 -11    4.80    3.70
  -3   0  11   -2.50    2.70
  -3   0  11    3.80    3.60
   2   0 -11    5.80    3.70
   2   0 -11    0.60    1.60
  -2   0  11    2.20    3.20
  -2   0  11    1.10    2.70
   1   0 -11   -1.10    1.30
   1   0 -11   -3.60    2.50
  -1   0  11    0.20    2.20
  -1   0  11   -1.90    2.30
   0   0 -11   -1.20    3.30
   0   0 -11    3.80    3.20
   0   0  11    0.50    3.00
   0   0  11    1.20    2.60
  -1   0 -11    2.70    3.00
  -1   0 -11    1.00    2.10
  -1   0 -11   -2.10    3.10
   1   0  11   -2.80    2.60
   1   0  11   -0.20    2.30
  -2   0 -11    8.60    2.90
  -2   0 -11    1.40    3.60
  -2   0 -11    2.10    2.80
   2   0  11    1.00    2.60
   2   0  11    9.20    3.60
  -3   0 -11    4.90    3.10
  -3   0 -11   15.90    3.80
  -3   0 -11    7.00    3.30
   3   0  11    6.20    3.40
  -4   0 -11   -3.20    2.80
  -4   0 -11    6.70    2.90
  -4   0 -11    0.30    2.80
   4   0  11    2.20    3.00
  -5   0 -11    1.60    2.40
  -5   0 -11    0.80    2.40
  -5   0 -11   -0.80    3.10
   5   0  11    5.50    3.30
  -6   0 -11   -1.30    3.30
  -6   0 -11   -0.70    3.30
   6   0  11    4.90    3.30
  -7   0 -11   -2.50    2.30
   7   0  11    3.70    3.20
   3  -1 -11    2.50    3.40
   3  -1 -11   -0.10    1.90
  -3   1  11    2.10    1.60
  -3   1  11   -2.70    2.70
  -3   1  11   -1.60    2.90
   2  -1 -11   -2.00    1.60
   2  -1 -11   -2.20    2.80
  -2   1  11    1.50    1.60
  -2   1  11   -2.50    2.70
  -2   1  11   -3.10    2.10
   1  -1 -11    2.90    3.10
   1  -1 -11    0.40    1.70
  -1   1  11    0.10    2.80
  -1   1  11   -1.50    2.40
  -1   1  11    1.80    1.50
   0  -1 -11    4.30    3.10
   0   1  11    5.60    3.10
   0   1  11    2.30    1.50
   0   1  11    1.20    2.40
  -1  -1 -11    0.80    2.70
  -1  -1 -11   -1.50    1.80
   1   1  11    0.20    2.30
   1   1  11    5.00    3.20
   1   1  11    1.10    1.30
  -2  -1 -11   -0.90    2.10
  -2  -1 -11    3.50    2.30
  -2  -1 -11   -0.80    2.20
   2   1  11    2.80    2.40
   2   1  11   -0.90    1.30
   2   1  11    0.60    2.50
  -3  -1 -11    0.70    2.60
  -3  -1 -11   -2.20    2.40
  -3  -1 -11    0.90    3.10
   3   1  11    0.50    2.70
   3   1  11   -1.10    1.40
  -4  -1 -11   -1.70    2.60
  -4  -1 -11   -3.00    2.70
  -4  -1 -11   -1.90    2.20
   4   1  11    1.70    2.80
  -5  -1 -11    0.30    2.30
  -5  -1 -11    0.10    2.80
  -5  -1 -11   -1.10    2.90
   5   1  11   -0.20    2.70
  -6  -1 -11   -2.10    3.10
  -6  -1 -11    5.40    3.00
   6   1  11    5.60    3.30
   7   1  11    3.10    3.50
   3  -2 -11    1.90    2.20
   3  -2 -11    1.10    3.40
  -3   2  11    2.80    1.80
  -3   2  11   -1.50    2.70
   2  -2 -11   -2.70    2.90
   2  -2 -11   -1.10    1.60
  -2   2  11   -1.10    2.40
  -2   2  11   -1.30    2.60
  -2   2  11   -0.10    1.50
   1  -2 -11    0.60    1.90
   1  -2 -11   -1.50    2.70
  -1   2  11    1.50    1.60
  -1   2  11    0.00    2.30
  -1   2  11   -0.50    2.40
   0  -2 -11    6.50    2.30
   0  -2 -11   19.50    3.80
   0   2  11    9.90    3.30
   0   2  11   19.70    4.20
   0   2  11   10.50    2.30
  -1  -2 -11   -1.70    2.00
  -1  -2 -11    4.10    2.50
   1   2  11    1.70    1.60
   1   2  11    1.90    2.70
   1   2  11   -0.70    2.20
  -2  -2 -11   10.20    3.30
  -2  -2 -11    1.40    2.50
   2   2  11   14.20    3.80
   2   2  11    5.10    1.80
   2   2  11    4.50    2.50
  -3  -2 -11    4.00    2.90
  -3  -2 -11    8.50    2.80
   3   2  11    4.30    1.90
   3   2  11   15.90    3.60
   3   2  11    4.50    2.70
  -4  -2 -11   12.00    3.40
  -4  -2 -11    2.70    3.00
   4   2  11    9.50    3.40
   4   2  11    3.80    2.10
  -5  -2 -11   -2.10    2.60
  -5  -2 -11   -1.20    1.70
   5   2  11   -1.20    2.50
   5   2  11   -3.20    1.70
  -6  -2 -11    0.40    2.30
  -6  -2 -11   -2.40    2.80
  -6  -2 -11    5.60    2.20
   6   2  11    0.60    2.70
  -7  -2 -11    0.60    2.70
  -7  -2 -11    9.90    3.10
  -7  -2 -11    5.80    3.00
   7   2  11    3.40    3.10
  -8  -2 -11    7.50    3.00
  -8  -2 -11   -5.60    3.20
   8   2  11   -1.20    2.90
   3  -3 -11   -2.90    3.00
   3  -3 -11    4.40    2.60
  -3   3  11   -3.20    2.30
  -3   3  11    2.30    1.90
   2  -3 -11    3.80    2.40
   2  -3 -11    2.30    3.00
  -2   3  11   -0.10    2.30
  -2   3  11    2.40    2.00
   1  -3 -11    4.30    3.00
   1  -3 -11    2.10    2.00
  -1   3  11    1.10    2.40
  -1   3  11    1.70    1.60
  -1   3  11    3.30    3.00
   0  -3 -11    0.40    2.60
   0   3  11   -2.70    1.80
   0   3  11   -0.20    1.40
   0   3  11    0.20    2.40
  -1  -3 -11    1.80    2.70
  -1  -3 -11   -1.90    1.80
   1   3  11   -0.20    2.10
   1   3  11    0.50    1.40
   1   3  11   -2.30    2.20
  -2  -3 -11   -1.80    1.90
  -2  -3 -11    3.70    2.40
   2   3  11    4.00    2.80
   2   3  11   -0.20    1.40
   2   3  11    1.00    2.30
  -3  -3 -11    3.90    2.70
  -3  -3 -11   -0.80    2.60
   3   3  11    0.40    1.50
   3   3  11    8.30    3.30
   3   3  11    1.20    2.40
  -4  -3 -11   -0.50    2.40
  -4  -3 -11   -3.50    2.40
   4   3  11    0.10    1.90
   4   3  11    1.30    2.60
  -5  -3 -11   31.40    4.20
  -5  -3 -11   16.70    3.90
   5   3  11   20.40    4.00
  -6  -3 -11    0.30    3.10
  -6  -3 -11    9.00    3.30
   6   3  11    6.20    3.20
  -7  -3 -11   -2.50    2.20
  -7  -3 -11    5.60    2.60
   7   3  11   -0.60    2.60
  -8  -3 -11   -4.20    3.10
  -8  -3 -11    7.00    2.90
  -8  -3 -11    1.80    2.70
   8   3  11   -0.20    2.70
   3  -4 -11    9.70    3.50
   3  -4 -11    8.60    3.10
  -3   4  11    6.40    2.60
  -3   4  11    0.90    2.80
   2  -4 -11    0.40    2.60
   2  -4 -11   -0.40    2.00
  -2   4  11    1.20    1.80
  -2   4  11   -3.30    2.00
   1  -4 -11    0.60    1.50
   1  -4 -11    2.30    2.70
  -1   4  11   -0.20    2.30
  -1   4  11   -0.50    2.10
  -1   4  11    1.00    1.80
   0  -4 -11   35.40    4.90
   0   4  11   33.00    5.70
   0   4  11   35.80    6.60
   0   4  11   27.50    4.50
  -1  -4 -11    2.90    2.00
  -1  -4 -11    7.30    3.10
   1   4  11    3.40    2.00
   1   4  11    3.80    2.10
   1   4  11    5.20    2.80
  -2  -4 -11    4.30    2.40
  -2  -4 -11    0.00    2.00
   2   4  11    4.50    2.80
   2   4  11    1.40    2.20
   2   4  11    1.50    1.60
  -3  -4 -11    0.10    2.30
  -3  -4 -11    2.30    2.70
   3   4  11    0.30    1.70
   3   4  11    1.20    2.20
   3   4  11    0.90    2.60
  -4  -4 -11    3.50    1.30
  -4  -4 -11   -1.50    2.50
  -4  -4 -11    4.10    2.40
   4   4  11   -1.00    1.60
   4   4  11   -0.80    2.40
  -5  -4 -11    3.00    2.70
  -5  -4 -11    1.90    2.50
  -5  -4 -11    6.30    1.90
   5   4  11    0.70    2.10
   5   4  11    4.20    2.90
  -6  -4 -11    1.10    2.70
  -6  -4 -11    3.80    2.00
  -6  -4 -11    0.40    3.20
   6   4  11   -1.30    2.50
   6   4  11   -3.50    2.30
  -7  -4 -11   -5.10    3.00
  -7  -4 -11    4.00    2.90
  -7  -4 -11    2.60    2.20
   7   4  11   -4.90    2.20
   7   4  11    5.10    3.10
  -8  -4 -11    1.50    2.60
  -8  -4 -11    5.60    3.10
  -8  -4 -11   -4.60    3.40
   8   4  11    3.20    3.20
   3  -5 -11    2.80    2.50
   3  -5 -11   -1.80    2.50
  -3   5  11    0.60    1.90
  -3   5  11   -1.90    2.30
   2  -5 -11    4.00    2.60
   2  -5 -11    3.00    3.10
  -2   5  11    0.80    2.30
  -2   5  11    2.10    2.00
   1  -5 -11    2.00    2.20
   1  -5 -11    2.20    2.90
  -1   5  11    1.40    2.30
  -1   5  11    1.40    1.90
   0  -5 -11   21.40    3.90
   0   5  11   16.90    3.50
   0   5  11    9.00    2.90
   0   5  11   11.40    2.90
  -1  -5 -11    2.50    2.60
   1   5  11    0.20    1.70
   1   5  11    1.50    2.40
   1   5  11    0.50    2.00
  -2  -5 -11    7.30    3.10
  -2  -5 -11    3.50    2.50
   2   5  11    4.90    2.20
   2   5  11    8.10    2.90
   2   5  11    3.80    2.40
  -3  -5 -11    1.10    2.40
  -3  -5 -11   10.20    3.30
   3   5  11    5.80    2.30
   3   5  11    5.30    2.50
   3   5  11    5.70    2.50
  -4  -5 -11   12.80    3.20
  -4  -5 -11    5.20    3.00
   4   5  11    6.50    2.50
   4   5  11   10.20    3.30
  -5  -5 -11    1.90    2.60
  -5  -5 -11   -4.30    2.40
   5   5  11   -1.40    1.90
   5   5  11    0.40    2.40
  -6  -5 -11    0.80    2.60
  -6  -5 -11   -2.30    2.90
   6   5  11    1.10    2.70
   6   5  11   -3.00    2.50
  -7  -5 -11   10.00    3.00
  -7  -5 -11   11.90    3.60
   7   5  11   16.00    4.00
   7   5  11    2.50    2.90
  -8  -5 -11    1.10    2.60
  -8  -5 -11    1.00    2.70
   8   5  11   -2.20    2.70
  -9  -5 -11    1.80    3.10
   9   5  11   -0.80    3.10
   2  -6 -11    1.70    1.90
   2  -6 -11   -0.20    2.60
  -2   6  11    1.00    1.90
  -2   6  11   -2.60    2.10
   1  -6 -11   -1.00    1.90
   1  -6 -11   -0.40    2.40
  -1   6  11    0.40    1.90
  -1   6  11   -0.60    2.10
   0  -6 -11   -0.80    2.30
   0   6  11    0.80    1.90
   0   6  11   -0.80    1.80
  -1  -6 -11    0.30    2.50
   1   6  11   -0.20    1.90
   1   6  11    0.60    1.80
   1   6  11    0.70    2.00
  -2  -6 -11   18.90    3.90
   2   6  11    9.50    3.00
   2   6  11    7.00    2.50
   2   6  11   16.00    3.50
  -3  -6 -11    9.20    3.00
  -3  -6 -11   20.10    3.80
   3   6  11   19.80    3.80
   3   6  11   12.90    3.00
   3   6  11   14.00    3.10
  -4  -6 -11    0.50    2.50
  -4  -6 -11    0.20    2.40
   4   6  11   -1.70    1.70
   4   6  11   -1.40    2.30
  -5  -6 -11   -2.20    2.40
  -5  -6 -11    1.30    2.50
   5   6  11   -0.60    2.10
   5   6  11    1.90    2.70
  -6  -6 -11   -2.20    2.70
  -6  -6 -11    1.90    2.20
   6   6  11    4.00    3.00
  -7  -6 -11    9.10    3.40
   7   6  11    6.50    3.30
  -8  -6 -11   -4.50    3.00
  -8  -6 -11    2.60    3.10
   8   6  11    3.00    3.00
   8   6  11   -6.10    2.70
  -9  -6 -11   -2.50    3.50
  -9  -6 -11   -1.20    2.90
   9   6  11    1.70    3.40
   2  -7 -11    4.10    2.60
   2  -7 -11    3.40    2.70
  -2   7  11    4.10    2.70
  -2   7  11    1.90    2.20
   1  -7 -11   -1.10    2.50
   1  -7 -11   -1.70    1.80
  -1   7  11   -1.10    1.70
  -1   7  11    1.80    2.30
   0  -7 -11    0.40    1.60
   0  -7 -11   -0.50    2.70
   0   7  11    0.30    1.90
   0   7  11   -1.90    1.80
  -1  -7 -11    1.80    2.60
   1   7  11   -0.30    2.00
   1   7  11    0.20    1.80
  -2  -7 -11    5.40    2.90
   2   7  11    2.50    2.50
   2   7  11    0.90    2.00
   2   7  11    2.20    2.10
  -3  -7 -11   42.50    5.20
   3   7  11   31.90    6.50
   3   7  11   40.20    4.80
   3   7  11   38.00    6.10
  -4  -7 -11   47.10    5.30
   4   7  11   39.30    5.00
   4   7  11   41.00    7.20
  -5  -7 -11    1.00    2.40
  -5  -7 -11    0.80    2.50
   5   7  11   -2.00    2.10
   5   7  11    0.40    2.40
  -6  -7 -11   11.30    3.20
  -6  -7 -11    0.30    2.60
   6   7  11   10.80    3.50
   6   7  11    2.50    2.80
  -7  -7 -11    0.60    2.30
  -7  -7 -11   -2.50    2.50
   7   7  11    0.70    2.80
   7   7  11   -4.10    2.50
  -8  -7 -11   -0.20    3.00
   8   7  11    1.90    3.10
   8   7  11   -6.50    2.80
   1  -8 -11    1.70    2.60
   1  -8 -11    1.00    2.50
  -1   8  11    2.20    2.30
  -1   8  11   -0.50    2.30
   0  -8 -11    0.10    2.40
   0  -8 -11    1.80    2.40
   0   8  11    0.50    2.10
   0   8  11    0.80    2.00
  -1  -8 -11   -1.30    2.70
   1   8  11   -0.50    1.90
   1   8  11   -3.60    1.80
  -2  -8 -11    0.00    2.80
   2   8  11    0.90    2.00
   2   8  11    1.60    2.20
  -3  -8 -11    1.30    2.30
   3   8  11    0.60    2.00
   3   8  11   -2.30    1.80
   3   8  11    0.40    2.00
  -4  -8 -11   12.80    3.40
   4   8  11    3.70    2.60
   4   8  11   11.50    3.30
  -5  -8 -11   17.70    3.90
   5   8  11    9.20    3.20
   5   8  11   13.40    3.60
  -6  -8 -11    8.60    3.50
   6   8  11    7.50    3.30
  -7  -8 -11    0.20    3.00
  -7  -8 -11   -0.60    1.80
   7   8  11   -5.10    2.60
   7   8  11   -1.70    2.50
  -8  -8 -11   -0.20    3.00
  -8  -8 -11   -1.90    2.60
   8   8  11    1.40    3.30
   8   8  11   -5.40    2.90
   0  -9 -11    0.50    2.40
   0  -9 -11    0.60    2.30
   0   9  11    0.40    1.90
   0   9  11   -4.90    2.00
  -1  -9 -11   -0.20    2.10
   1   9  11   -0.40    2.10
   1   9  11   -4.60    1.90
  -2  -9 -11    0.70    2.40
   2   9  11    1.40    2.20
   2   9  11   -2.20    1.80
  -3  -9 -11    6.50    2.90
   3   9  11    0.90    2.20
   3   9  11    0.10    1.90
  -4  -9 -11    1.30    2.60
   4   9  11   -1.20    2.20
   4   9  11    2.90    2.50
  -5  -9 -11   10.90    3.50
   5   9  11    2.50    2.80
   5   9  11    8.70    3.20
  -6  -9 -11   16.90    4.20
   6   9  11   10.00    3.70
   6   9  11   15.80    4.00
  -7  -9 -11    2.10    3.10
   7   9  11   -3.70    3.00
   7   9  11   -2.10    2.60
  -8  -9 -11    0.20    3.10
   8   9  11    0.90    3.00
  -1 -10 -11    2.40    2.60
  -1 -10 -11    3.30    2.70
   1  10  11    0.20    2.30
  -2 -10 -11   10.50    3.40
   2  10  11    3.70    2.70
  -3 -10 -11   -0.80    2.70
   3  10  11    0.60    2.40
  -4 -10 -11    4.10    3.20
   4  10  11    0.00    2.50
  -5 -10 -11   -0.20    2.70
   5  10  11   -0.20    2.70
  -6 -10 -11    1.20    3.30
   6  10  11   -0.70    2.80
   6  10  11    5.30    3.20
  -7 -10 -11    4.40    3.70
   7  10  11    7.20    3.60
   7  10  11   -0.60    3.50
  -3 -11 -11    1.80    2.70
   3  11  11    0.50    2.60
  -4 -11 -11   -1.50    2.60
   4  11  11   -1.60    2.50
  -5 -11 -11    3.40    3.30
   5  11  11   -1.60    2.70
  -1   2 -12   -1.30    3.10
   1  -2  12   -1.30    3.40
  -2   2 -12   -1.50    3.00
  -2   2 -12   -5.00    2.90
  -2   2 -12   -1.80    2.90
   2  -2  12    0.20    3.40
   1   1 -12    0.80    3.40
  -1  -1  12   -4.10    2.80
  -1  -1  12   -0.80    3.50
   0   1 -12   -0.70    2.50
   0   1 -12   -6.40    3.60
   0  -1  12   -0.50    3.40
   0  -1  12   -3.30    2.60
  -1   1 -12   -3.40    4.00
  -1   1 -12    0.50    3.00
   1  -1  12   -3.70    2.60
   1  -1  12   -2.90    3.20
  -2   1 -12   -2.60    2.80
  -2   1 -12   -5.20    3.70
  -2   1 -12    0.40    2.90
   2  -1  12    2.00    3.50
  -3   1 -12   -1.60    2.50
   3  -1  12   -2.40    3.10
  -4   1 -12   -3.60    3.00
  -4   1 -12   -6.30    3.70
  -4   1 -12    0.10    2.80
   4  -1  12   -0.30    3.20
   2   0 -12   -0.90    3.30
   1   0 -12    2.10    1.90
   1   0 -12   -0.20    3.00
  -1   0  12   -0.50    3.10
  -1   0  12   -2.20    2.70
   0   0 -12   -3.90    2.80
   0   0  12   -3.10    2.80
   0   0  12   -3.20    2.40
  -1   0 -12    8.60    3.80
  -1   0 -12    1.50    4.00
   1   0  12   -0.10    2.70
   1   0  12    6.00    3.70
  -2   0 -12   -1.00    2.80
  -2   0 -12   -6.10    3.10
  -2   0 -12   -3.30    2.30
   2   0  12   -3.30    2.30
   2   0  12   -3.30    2.70
  -3   0 -12    4.80    3.20
  -3   0 -12    0.00    3.80
  -3   0 -12    1.00    3.00
   3   0  12   13.90    4.30
  -4   0 -12   -2.80    2.90
  -4   0 -12    1.80    2.70
  -4   0 -12   -4.00    3.30
   4   0  12    1.60    3.30
  -5   0 -12    4.50    3.00
  -5   0 -12   -4.20    3.40
  -5   0 -12   -2.90    3.20
   5   0  12    4.10    3.50
  -6   0 -12   -5.60    3.20
   6   0  12    3.50    3.50
   2  -1 -12    0.50    2.00
   2  -1 -12    1.30    3.30
  -2   1  12   -2.80    3.00
  -2   1  12    0.70    3.00
   1  -1 -12   10.70    2.90
   1  -1 -12   11.80    4.30
  -1   1  12    2.60    2.90
  -1   1  12    8.20    3.90
   0  -1 -12    6.30    3.50
   0   1  12    5.90    3.50
   0   1  12    0.30    2.70
  -1  -1 -12   -2.40    2.10
  -1  -1 -12   -0.20    2.80
   1   1  12   -2.00    2.30
   1   1  12    0.40    2.90
  -2  -1 -12   -0.20    2.90
   2   1  12   -1.90    2.50
   2   1  12    1.00    3.10
  -3  -1 -12   -3.80    2.40
  -3  -1 -12   -0.60    2.00
   3   1  12    0.90    3.10
  -4  -1 -12   -5.00    2.60
  -4  -1 -12    0.00    2.70
   4   1  12   -0.70    3.00
  -5  -1 -12   -3.30    3.20
  -5  -1 -12    4.30    3.00
   5   1  12    8.40    3.70
  -6  -1 -12   -1.00    2.40
   6   1  12    3.10    3.20
   2  -2 -12   -1.60    3.00
   2  -2 -12   -2.70    1.70
  -2   2  12   -3.40    2.40
  -2   2  12    2.30    1.70
   1  -2 -12   -1.60    3.00
   1  -2 -12    2.40    2.30
  -1   2  12   -2.50    2.40
  -1   2  12   -3.80    2.40
  -1   2  12    1.40    1.60
   0  -2 -12   -1.10    2.80
   0   2  12   -0.60    2.70
   0   2  12   -2.30    2.30
   0   2  12    1.10    1.60
  -1  -2 -12   -2.60    2.60
  -1  -2 -12   -3.30    1.90
   1   2  12   -0.30    2.50
   1   2  12   -0.70    2.60
   1   2  12   -0.20    1.40
  -2  -2 -12   -3.30    2.50
  -2  -2 -12   -4.00    2.00
   2   2  12   -1.80    2.60
   2   2  12   -3.50    2.10
   2   2  12   -0.70    1.40
  -3  -2 -12   -4.20    2.40
  -3  -2 -12   -4.70    2.20
   3   2  12   -3.30    1.40
   3   2  12    0.40    2.80
  -4  -2 -12    1.40    2.70
  -4  -2 -12   -2.60    2.80
   4   2  12    1.60    3.10
  -5  -2 -12    0.40    3.30
  -5  -2 -12    6.90    3.30
   5   2  12    9.10    3.80
  -6  -2 -12   -3.30    3.30
  -6  -2 -12    2.70    2.90
   6   2  12    3.70    3.30
  -7  -2 -12   -4.90    3.30
   7   2  12    4.40    3.30
   2  -3 -12    6.60    2.80
   2  -3 -12    3.50    3.20
  -2   3  12   -0.30    2.80
  -2   3  12    4.00    2.10
   1  -3 -12    2.20    3.50
   1  -3 -12    1.50    2.10
  -1   3  12    1.50    1.90
  -1   3  12    3.20    2.90
  -1   3  12    1.40    2.10
   0  -3 -12    1.20    3.10
   0   3  12   -1.90    2.50
   0   3  12    1.80    1.80
   0   3  12    2.30    2.80
  -1  -3 -12    7.20    3.50
  -1  -3 -12    1.60    2.20
   1   3  12    1.30    2.60
   1   3  12    4.80    3.10
   1   3  12    4.30    2.10
  -2  -3 -12   -2.50    2.50
  -2  -3 -12   -3.50    2.20
   2   3  12   -1.00    2.60
   2   3  12   -1.30    2.30
   2   3  12    0.30    1.50
  -3  -3 -12   -0.80    2.50
   3   3  12   -3.50    2.10
   3   3  12    0.20    2.80
   3   3  12   -2.50    1.50
  -4  -3 -12    0.60    2.20
  -4  -3 -12   -5.10    2.70
   4   3  12    1.70    2.30
   4   3  12   -1.40    1.80
  -5  -3 -12    1.00    2.70
  -5  -3 -12   -4.90    2.90
   5   3  12   -0.20    2.90
  -6  -3 -12    6.00    2.00
  -6  -3 -12    0.30    2.70
  -6  -3 -12   -2.30    2.30
   6   3  12   -0.80    2.80
   6   3  12   -5.40    2.30
  -7  -3 -12    4.40    2.10
  -7  -3 -12   -2.10    2.70
  -7  -3 -12    1.00    2.70
   7   3  12    1.10    3.20
   2  -4 -12    4.90    2.80
   2  -4 -12    1.70    3.40
  -2   4  12   -3.20    2.40
  -2   4  12    3.60    2.20
   1  -4 -12    0.20    3.00
   1  -4 -12    0.10    1.90
  -1   4  12    0.10    1.70
  -1   4  12   -2.70    2.30
   0  -4 -12   12.50    3.90
   0   4  12    8.50    2.60
   0   4  12   15.80    3.90
   0   4  12    5.60    3.00
  -1  -4 -12    1.30    1.90
  -1  -4 -12    4.60    3.20
   1   4  12    4.20    2.10
   1   4  12    6.30    3.20
   1   4  12    1.60    2.50
  -2  -4 -12    5.60    2.70
  -2  -4 -12    1.70    2.40
   2   4  12    1.90    2.50
   2   4  12    6.20    3.20
   2   4  12    3.50    2.10
  -3  -4 -12    3.40    2.90
  -3  -4 -12   -2.70    2.40
   3   4  12    0.30    2.40
   3   4  12    0.10    1.70
   3   4  12    0.50    2.60
  -4  -4 -12   -0.50    2.50
  -4  -4 -12   -4.70    2.60
   4   4  12   -2.20    1.90
   4   4  12    0.40    2.70
  -5  -4 -12   18.10    4.20
   5   4  12   18.80    4.00
  -6  -4 -12    1.50    2.90
   6   4  12   -0.70    2.70
  -7  -4 -12   -6.80    3.20
  -7  -4 -12   -0.10    2.60
   7   4  12    2.70    3.10
  -8  -4 -12    2.40    3.10
   8   4  12    1.60    3.20
   2  -5 -12    3.10    2.70
   2  -5 -12    3.80    3.10
  -2   5  12    0.00    2.80
  -2   5  12    2.30    2.20
   1  -5 -12    5.50    2.80
   1  -5 -12   10.50    3.70
  -1   5  12    5.60    2.60
  -1   5  12    2.20    2.70
   0  -5 -12    0.90    2.80
   0   5  12   -0.70    2.40
   0   5  12    0.80    1.90
  -1  -5 -12   -0.50    2.40
   1   5  12   -1.80    2.70
   1   5  12   -0.70    1.60
   1   5  12   -1.20    2.20
  -2  -5 -12   -0.80    2.60
  -2  -5 -12   -0.90    2.10
   2   5  12   -2.00    2.40
   2   5  12    0.50    2.40
   2   5  12    0.30    1.80
  -3  -5 -12   -3.40    2.10
  -3  -5 -12    2.60    2.80
   3   5  12    2.40    2.80
   3   5  12   -0.90    1.60
   3   5  12   -1.20    2.40
  -4  -5 -12   -0.30    3.00
  -4  -5 -12    4.20    3.10
   4   5  12    8.30    3.30
   4   5  12    1.30    2.10
  -5  -5 -12   -5.00    2.70
  -5  -5 -12    3.80    3.00
   5   5  12    2.60    2.90
   5   5  12   -1.20    2.10
  -6  -5 -12   -5.50    3.00
  -6  -5 -12   -1.60    2.60
   6   5  12    1.40    2.90
   6   5  12   -3.60    2.60
  -7  -5 -12   -2.50    2.40
  -7  -5 -12    2.10    3.00
   7   5  12   -6.70    2.70
   7   5  12    1.90    3.10
  -8  -5 -12   -1.10    2.80
  -8  -5 -12   -3.80    2.40
   8   5  12    3.20    3.40
   1  -6 -12    3.80    2.30
   1  -6 -12    3.90    3.20
  -1   6  12    1.40    2.10
  -1   6  12   -0.70    2.60
   0  -6 -12    0.20    2.60
   0   6  12    1.10    2.00
   0   6  12   -0.50    2.20
  -1  -6 -12    1.80    2.90
   1   6  12    1.30    2.30
   1   6  12   -0.10    1.90
   1   6  12   -1.60    2.20
  -2  -6 -12    3.60    3.00
   2   6  12   -0.50    2.30
   2   6  12   -2.60    2.00
   2   6  12    0.20    1.90
  -3  -6 -12   -2.20    2.60
   3   6  12    1.90    2.60
   3   6  12    0.20    2.00
   3   6  12   -1.40    2.10
  -4  -6 -12    3.70    3.00
  -4  -6 -12   -4.10    2.30
   4   6  12    2.30    2.70
   4   6  12   -0.60    2.10
  -5  -6 -12   -0.20    2.80
   5   6  12   -1.30    2.10
   5   6  12    1.30    2.70
  -6  -6 -12   -2.60    3.10
  -6  -6 -12    4.30    3.00
   6   6  12    1.20    2.20
   6   6  12   -3.20    2.30
  -7  -6 -12    8.80    3.50
  -7  -6 -12    0.50    3.20
   7   6  12    9.70    3.80
   7   6  12   -3.00    2.80
  -8  -6 -12    5.20    3.30
  -8  -6 -12   -2.40    3.40
   8   6  12    4.30    3.50
   1  -7 -12    1.10    2.70
   1  -7 -12    2.10    2.50
  -1   7  12   -2.60    2.60
  -1   7  12    1.00    2.20
   0  -7 -12   -1.50    1.90
   0  -7 -12    1.30    2.70
   0   7  12   -1.90    2.10
   0   7  12    0.60    2.00
  -1  -7 -12    2.80    2.90
   1   7  12   -1.00    2.30
   1   7  12    0.20    2.00
  -2  -7 -12   -1.20    2.90
   2   7  12    0.60    2.40
   2   7  12   -0.40    2.10
   2   7  12    1.60    2.10
  -3  -7 -12    4.00    3.10
   3   7  12    2.80    2.30
   3   7  12   -2.30    2.20
   3   7  12    1.40    2.50
  -4  -7 -12    6.80    3.50
   4   7  12    7.30    3.20
   4   7  12    4.00    2.70
  -5  -7 -12    1.00    2.20
  -5  -7 -12    4.20    2.90
   5   7  12    4.50    2.50
   5   7  12    0.20    2.50
  -6  -7 -12   -0.10    3.10
  -6  -7 -12   -1.30    2.50
   6   7  12   -2.20    2.50
   6   7  12   -0.50    2.00
  -7  -7 -12   -3.40    2.90
  -7  -7 -12    2.30    2.60
   7   7  12   -3.30    2.80
   7   7  12    4.50    3.30
  -8  -7 -12    4.20    3.60
  -8  -7 -12   -3.90    3.00
   8   7  12    4.70    3.60
   8   7  12   -6.80    3.10
   0  -8 -12    2.00    3.00
   0  -8 -12    1.50    2.30
   0   8  12   -2.40    2.50
   0   8  12    1.10    2.30
  -1  -8 -12    2.60    2.80
   1   8  12   -1.00    2.50
   1   8  12    1.60    2.30
  -2  -8 -12    1.40    3.10
   2   8  12    1.60    2.30
   2   8  12   -0.70    2.10
  -3  -8 -12    6.30    3.50
   3   8  12    2.30    2.30
   3   8  12    3.30    2.60
  -4  -8 -12    2.60    2.70
   4   8  12    0.00    2.20
   4   8  12    1.70    2.60
  -5  -8 -12    5.00    3.10
   5   8  12   -2.20    2.30
   5   8  12    4.70    3.00
  -6  -8 -12    4.70    3.20
   6   8  12   -0.60    2.60
   6   8  12   -2.30    2.70
  -7  -8 -12    3.50    3.30
  -7  -8 -12    0.10    3.00
   7   8  12   -3.80    2.70
   7   8  12    3.90    2.70
  -1  -9 -12    3.20    2.80
   1   9  12   -5.00    2.30
   1   9  12    0.70    2.20
  -2  -9 -12   -0.80    2.60
   2   9  12   -2.10    2.00
   2   9  12   -2.00    2.10
  -3  -9 -12    2.10    2.80
   3   9  12    2.90    2.60
  -4  -9 -12   -0.20    2.50
   4   9  12   -1.40    2.40
  -5  -9 -12   15.90    4.10
   5   9  12    8.70    3.70
   5   9  12   21.60    4.30
  -6  -9 -12    7.40    3.70
   6   9  12    9.30    3.70
   6   9  12    3.30    3.40
  -7  -9 -12   -0.90    3.10
   7   9  12    1.80    3.10
   7   9  12   -4.30    3.00
  -2 -10 -12    2.60    2.70
   2  10  12   -0.60    2.20
  -3 -10 -12    2.50    2.80
   3  10  12    1.00    2.60
  -4 -10 -12   -0.90    2.60
   4  10  12   -1.70    2.60
  -5 -10 -12    2.30    3.00
   5  10  12   -1.20    2.90
  -6 -10 -12    2.10    3.20
  -1   0 -13    4.40    3.80
   1   0  13   -5.40    2.60
   1   0  13   -0.20    3.30
  -2   0 -13   -0.90    3.00
  -2   0 -13   -4.70    3.60
   2   0  13   -4.10    2.90
  -3   0 -13   -3.50    3.00
  -3   0 -13    9.70    4.20
  -3   0 -13   -4.40    3.80
   3   0  13    1.00    3.80
   0  -1 -13   -1.60    3.20
   0   1  13   -3.40    2.80
   0   1  13   -0.40    3.20
  -1  -1 -13   -3.80    2.90
   1   1  13   -3.10    2.70
   1   1  13    0.70    3.40
  -2  -1 -13   -4.10    2.30
  -2  -1 -13   -2.40    3.00
   2   1  13   -1.20    3.30
   2   1  13   -4.60    2.40
  -3  -1 -13    0.90    3.20
   3   1  13   -2.00    3.10
  -4  -1 -13    2.90    3.00
  -4  -1 -13   -3.90    3.00
   4   1  13    3.70    3.50
  -5  -1 -13    0.30    2.90
  -5  -1 -13   -6.40    3.30
   5   1  13    2.90    3.50
   0  -2 -13    2.10    3.60
   0   2  13   -5.70    2.60
   0   2  13   -2.90    2.70
  -1  -2 -13   -0.10    3.20
   1   2  13   -2.00    2.80
   1   2  13   -4.50    2.50
  -2  -2 -13    8.70    3.80
  -2  -2 -13   -2.70    2.70
   2   2  13    7.50    3.80
   2   2  13   -1.10    2.80
  -3  -2 -13    2.90    3.20
   3   2  13    3.90    3.50
  -4  -2 -13   -1.50    2.60
   4   2  13   -0.80    3.10
  -5  -2 -13    3.30    3.10
   5   2  13    1.30    3.20
  -6  -2 -13   12.80    4.10
  -6  -2 -13   -3.80    3.80
   6   2  13    4.80    3.70
   1  -3 -13    1.60    3.20
   1  -3 -13   -1.80    1.90
  -1   3  13    0.70    1.90
  -1   3  13   -4.70    2.60
   0  -3 -13    6.40    3.80
   0   3  13    5.50    3.20
   0   3  13    7.80    3.80
   0   3  13    4.40    2.10
  -1  -3 -13    7.60    3.70
   1   3  13   11.40    4.10
   1   3  13    0.60    3.00
   1   3  13    3.90    2.00
  -2  -3 -13   -4.30    2.30
  -2  -3 -13   -0.60    3.10
   2   3  13    1.10    1.80
   2   3  13   -2.80    2.50
   2   3  13    4.80    3.30
  -3  -3 -13   -5.50    2.90
  -3  -3 -13    9.00    3.70
   3   3  13    2.50    3.20
   3   3  13   -0.20    1.90
   3   3  13   -4.40    2.40
  -4  -3 -13    4.70    2.90
   4   3  13    2.20    3.00
  -5  -3 -13    1.90    3.20
   5   3  13    2.50    3.40
  -6  -3 -13    0.50    2.90
   6   3  13   -1.20    3.00
   1  -4 -13   -0.70    3.20
   1  -4 -13    1.10    2.30
  -1   4  13   -0.50    1.70
  -1   4  13   -5.00    2.70
   0  -4 -13    2.70    3.30
   0   4  13    4.00    2.30
   0   4  13    3.50    3.10
   0   4  13    1.60    2.90
  -1  -4 -13    5.20    3.60
   1   4  13    0.90    2.80
   1   4  13    1.00    1.80
   1   4  13    1.20    2.90
  -2  -4 -13   -4.10    2.00
  -2  -4 -13    1.30    3.10
   2   4  13   -2.60    2.40
   2   4  13   -2.40    2.70
   2   4  13   -0.50    1.80
  -3  -4 -13   -2.70    2.70
  -3  -4 -13   -4.50    2.30
   3   4  13   -2.50    2.50
   3   4  13   -2.10    1.70
   3   4  13    1.30    2.90
  -4  -4 -13   -2.40    2.50
   4   4  13    1.20    3.10
   4   4  13   -3.10    1.90
  -5  -4 -13    2.30    2.90
   5   4  13    1.80    3.00
  -6  -4 -13    3.40    3.20
   6   4  13    2.50    3.20
  -7  -4 -13    6.60    3.40
   7   4  13    4.30    3.60
   0  -5 -13   10.40    4.10
   0   5  13    0.70    2.70
   0   5  13    3.80    2.30
  -1  -5 -13    2.10    3.20
   1   5  13    5.60    3.20
   1   5  13    1.70    3.00
   1   5  13    2.50    2.10
  -2  -5 -13   -0.70    2.20
   2   5  13   -1.60    2.40
   2   5  13    1.10    3.10
   2   5  13   -2.00    1.80
  -3  -5 -13   -1.50    2.90
  -3  -5 -13   -1.60    2.40
   3   5  13   -2.00    2.00
   3   5  13    0.60    2.80
   3   5  13   -3.00    2.30
  -4  -5 -13    0.50    2.90
  -4  -5 -13   -5.60    2.60
   4   5  13   -2.00    2.40
   4   5  13   -3.90    2.10
  -5  -5 -13    3.00    3.10
   5   5  13   -4.00    2.20
   5   5  13    1.50    3.00
  -6  -5 -13    0.50    3.10
   6   5  13    2.00    3.20
  -7  -5 -13    4.30    3.30
  -7  -5 -13   -2.60    3.60
   7   5  13    3.80    3.50
   0  -6 -13    7.00    3.50
   0  -6 -13    5.60    2.80
   0   6  13    2.90    2.30
   0   6  13    0.00    2.80
  -1  -6 -13    2.70    3.20
   1   6  13   -0.50    2.00
   1   6  13    0.30    2.60
  -2  -6 -13   -1.30    2.90
   2   6  13   -2.20    2.30
   2   6  13    0.90    2.70
   2   6  13    0.30    2.00
  -3  -6 -13    1.30    3.00
   3   6  13   -4.30    2.50
   3   6  13   -1.30    2.60
   3   6  13   -0.50    2.20
  -4  -6 -13   -1.80    2.80
   4   6  13    1.10    2.90
   4   6  13   -0.90    2.10
  -5  -6 -13   -2.40    2.60
  -5  -6 -13   -3.60    2.70
   5   6  13   -3.10    2.20
   5   6  13   -1.00    2.70
  -6  -6 -13    0.40    2.80
  -6  -6 -13   -3.80    3.20
   6   6  13   -4.20    2.50
   6   6  13    1.00    3.00
  -7  -6 -13    5.10    3.40
  -7  -6 -13    3.80    3.20
   7   6  13   -5.00    2.80
   7   6  13    9.60    4.00
  -1  -7 -13    2.30    3.10
   1   7  13    1.20    2.20
   1   7  13   -0.40    2.60
  -2  -7 -13   -0.60    2.80
   2   7  13   -3.10    2.10
   2   7  13   -0.20    2.00
  -3  -7 -13    0.70    3.00
   3   7  13   -2.40    2.40
   3   7  13    2.30    2.70
   3   7  13   -3.30    1.90
  -4  -7 -13    0.50    3.20
   4   7  13    1.40    2.80
   4   7  13   -4.20    2.20
  -5  -7 -13   -2.20    2.50
  -5  -7 -13   -2.60    2.60
   5   7  13   -5.00    2.10
   5   7  13    0.00    2.60
  -6  -7 -13    6.70    3.60
  -6  -7 -13   -1.50    3.30
   6   7  13   -3.40    2.70
   6   7  13    5.90    3.40
  -7  -7 -13   -3.90    3.00
  -7  -7 -13    1.60    2.60
   7   7  13   -6.50    2.70
   7   7  13    8.80    3.70
  -1  -8 -13    4.90    3.60
   1   8  13    1.50    2.40
   1   8  13   -2.60    2.70
  -2  -8 -13    2.70    3.30
   2   8  13   -0.10    2.80
   2   8  13    2.10    2.50
  -3  -8 -13    6.50    3.70
   3   8  13   -1.50    2.20
   3   8  13   -2.00    2.40
  -4  -8 -13    2.00    2.90
   4   8  13    5.10    3.10
   4   8  13    2.40    2.80
  -5  -8 -13   -0.50    2.80
   5   8  13   -1.70    2.50
   5   8  13   -0.30    2.80
  -6  -8 -13    0.20    2.90
   6   8  13   -3.60    2.70
   6   8  13    3.80    3.30
  -3  -9 -13    1.50    2.90
   3   9  13    0.50    2.60
   3   9  13   -4.10    2.20
  -4  -9 -13   -1.90    2.60
   4   9  13   -2.00    2.60
  -5  -9 -13    2.00    3.00
   5   9  13   -4.30    2.50
  -2  -3 -14    0.10    3.30
   2   3  14   -5.50    2.70
   2   3  14   -0.10    3.40
  -3  -3 -14   -1.00    2.90
   3   3  14    1.40    3.20
  -4  -3 -14    2.80    3.30
   4   3  14    4.40    3.10
  -2  -4 -14   -0.40    3.40
   2   4  14   -1.30    1.80
   2   4  14   -2.10    3.00
   2   4  14   -3.30    2.70
  -3  -4 -14   -2.30    3.00
   3   4  14   -1.10    3.20
   3   4  14   -3.00    1.90
  -4  -4 -14    3.10    3.40
   4   4  14    1.40    3.30
  -5  -4 -14   -2.40    2.90
  -2  -5 -14    4.70    3.70
   2   5  14    1.60    3.20
   2   5  14   -2.10    2.90
   2   5  14    1.60    2.30
  -3  -5 -14    7.70    4.10
  -3  -5 -14   -0.30    2.50
   3   5  14    0.60    2.40
   3   5  14    6.20    3.70
   3   5  14    0.30    3.00
  -4  -5 -14   -2.10    3.00
  -4  -5 -14    7.00    3.90
   4   5  14   -2.50    2.00
   4   5  14    6.60    3.20
  -5  -5 -14   -0.30    3.10
   5   5  14    0.50    3.00
  -2  -6 -14    4.80    3.90
   2   6  14   -0.50    1.90
   2   6  14   -5.60    2.60
  -3  -6 -14   -2.50    3.20
   3   6  14   -1.60    2.20
   3   6  14   -3.10    2.80
   3   6  14    0.90    3.00
  -4  -6 -14   -1.00    3.20
  -4  -6 -14   -1.20    2.90
   4   6  14   -3.80    2.20
   4   6  14   -2.80    2.60
  -5  -6 -14    2.30    3.70
   5   6  14   -4.70    2.60
   5   6  14    2.90    3.40
  -3  -7 -14   -2.20    3.20
   3   7  14   -2.90    2.60
   3   7  14   -2.60    2.20
  -4  -7 -14   -3.30    3.10
   4   7  14   -3.20    2.30
   4   7  14   -1.20    2.90
;
_shelx_hkl_checksum              52843
_shelx_res_file
;
TITL tp10cg
CELL  0.71073   8.1296   9.5899  10.8824   66.840   71.533   71.350
ZERR     2.00   0.0006   0.0006   0.0008    0.004    0.004    0.004
LATT   1
SFAC  C    H    N    O
UNIT  30   26   6    8
MERG   2
OMIT    -2.00  53.1
FMAP   2
PLAN   20
SIZE   0.10  0.15  0.15
TEMP 21.0
ACTA
BOND   $H
CONF
HTAB
L.S.  20
WGHT    0.065500    0.192300
FVAR       0.72968
C1    1    0.554074    0.628409    0.665613    11.00000    0.04836    0.04877 =
         0.05236   -0.01270   -0.01352   -0.00530
O1    4    0.662903    0.555682    0.597966    11.00000    0.07791    0.06866 =
         0.07193   -0.03071   -0.02315    0.02492
O2    4    0.539390    0.579107    0.808624    11.00000    0.05552    0.05662 =
         0.05591   -0.01120   -0.01910    0.00538
C11   1    0.422865    0.771576    0.622509    11.00000    0.04356    0.03738 =
         0.04656   -0.01196   -0.01066   -0.00646
C12   1    0.424839    0.839121    0.482294    11.00000    0.04237    0.04801 =
         0.04918   -0.02189   -0.00685   -0.00452
AFIX  43
H12   2    0.505997    0.790671    0.421010    11.00000   -1.20000
AFIX   0
C13   1    0.308342    0.975568    0.435220    11.00000    0.04409    0.04289 =
         0.04512   -0.01566   -0.01028   -0.00679
C14   1    0.185308    1.048838    0.527510    11.00000    0.04875    0.03818 =
         0.04995   -0.01356   -0.01263   -0.00545
C15   1    0.182773    0.980955    0.665661    11.00000    0.05327    0.04831 =
         0.05200   -0.02267   -0.00204   -0.00294
AFIX  43
H15   2    0.100594    1.028356    0.727320    11.00000   -1.20000
AFIX   0
C16   1    0.301278    0.843280    0.712949    11.00000    0.05464    0.04423 =
         0.04422   -0.01280   -0.00716   -0.00827
AFIX  43
H16   2    0.299141    0.798670    0.806183    11.00000   -1.20000
AFIX   0
O13   4    0.299353    1.054053    0.300897    11.00000    0.06780    0.06061 =
         0.04707   -0.01782   -0.01628    0.00634
C131  1    0.423325    0.990082    0.201016    11.00000    0.07697    0.08002 =
         0.05245   -0.02946   -0.00844   -0.00622
AFIX 137
H13A  2    0.541984    0.975786    0.209744    11.00000   -1.50000
H13B  2    0.409386    1.059637    0.111230    11.00000   -1.50000
H13C  2    0.402579    0.891490    0.214417    11.00000   -1.50000
AFIX   0
O14   4    0.078845    1.183745    0.470767    11.00000    0.06951    0.04937 =
         0.06123   -0.02050   -0.01477    0.01449
C141  1   -0.036033    1.273388    0.555353    11.00000    0.07272    0.05596 =
         0.08140   -0.03106   -0.00454    0.01385
AFIX 137
H14A  2   -0.114209    1.212740    0.627744    11.00000   -1.50000
H14B  2   -0.105114    1.365286    0.501458    11.00000   -1.50000
H14C  2    0.033684    1.302644    0.593952    11.00000   -1.50000
AFIX   0
N21   3    0.666031    0.446984    0.852662    11.00000    0.05200    0.04553 =
         0.06152   -0.00678   -0.02224   -0.00230
N22   3    0.625761    0.307453    0.898096    11.00000    0.06379    0.05954 =
         0.07050   -0.00552   -0.02427   -0.01923
N23   3    0.767722    0.203303    0.933526    11.00000    0.06843    0.04717 =
         0.06883   -0.00396   -0.02835   -0.01287
C23A  1    0.898271    0.279272    0.908003    11.00000    0.05092    0.04563 =
         0.04488   -0.00997   -0.01291   -0.00934
C24   1    1.071712    0.220826    0.926858    11.00000    0.05892    0.05252 =
         0.06046   -0.01367   -0.01968   -0.00169
AFIX  43
H24   2    1.116254    0.114665    0.964263    11.00000   -1.20000
AFIX   0
C25   1    1.173324    0.325430    0.888303    11.00000    0.05036    0.07616 =
         0.08373   -0.02177   -0.01932   -0.00844
AFIX  43
H25   2    1.290578    0.289880    0.898219    11.00000   -1.20000
AFIX   0
C26   1    1.105669    0.485843    0.833872    11.00000    0.06425    0.06851 =
         0.08422   -0.01111   -0.01847   -0.02802
AFIX  43
H26   2    1.179783    0.553280    0.809561    11.00000   -1.20000
AFIX   0
C27   1    0.935752    0.547013    0.815122    11.00000    0.07128    0.04249 =
         0.06610   -0.00503   -0.01965   -0.01457
AFIX  43
H27   2    0.891158    0.653410    0.779149    11.00000   -1.20000
AFIX   0
C27A  1    0.834204    0.437931    0.853976    11.00000    0.04837    0.04436 =
         0.04579   -0.01093   -0.01130   -0.00669
HKLF 4
REM  tp10cg
REM R1 =  0.0519 for    1667 Fo > 4sig(Fo)  and  0.1064 for all    2992 data
REM    201 parameters refined using      0 restraints
END
WGHT      0.0655      0.1924
REM Instructions for potential hydrogen bonds
EQIV $1 x-1, y+1, z
HTAB C141 O1_$1
EQIV $2 -x+1, -y+2, -z+1
HTAB C27 O14_$2
REM Highest difference peak  0.173,  deepest hole -0.210,  1-sigma level  0.044
Q1    1   0.4281  0.6389  0.8916  11.00000  0.05    0.17
Q2    1   0.1983  1.1824  0.2429  11.00000  0.05    0.15
Q3    1   0.9220  0.7514  0.6643  11.00000  0.05    0.15
Q4    1   0.5347  0.7580  0.4036  11.00000  0.05    0.15
Q5    1   0.4225  0.8658  0.2409  11.00000  0.05    0.14
Q6    1   0.3994  0.5129  0.8138  11.00000  0.05    0.14
Q7    1   0.0491  1.1016  0.4164  11.00000  0.05    0.13
Q8    1   0.1994  1.2587  0.3688  11.00000  0.05    0.13
Q9    1   0.2945  0.9510  0.1752  11.00000  0.05    0.13
Q10   1   1.2217  0.2956  0.9995  11.00000  0.05    0.13
Q11   1   0.7935  0.4562  0.6258  11.00000  0.05    0.13
Q12   1   0.3226  0.7613  0.8538  11.00000  0.05    0.13
Q13   1   0.5303  0.3190  0.7761  11.00000  0.05    0.13
Q14   1   0.5478  0.7902  0.3785  11.00000  0.05    0.12
Q15   1   0.7718  0.4389  0.8623  11.00000  0.05    0.12
Q16   1   0.9771  0.2669  0.9025  11.00000  0.05    0.12
Q17   1   0.4440  0.5328  0.5579  11.00000  0.05    0.12
Q18   1   0.2404  0.8931  0.9038  11.00000  0.05    0.12
Q19   1   0.2237  0.9748  0.3139  11.00000  0.05    0.12
Q20   1   0.4492  0.3521  0.8836  11.00000  0.05    0.12
;
_shelx_res_checksum              24836
_shelxl_version_number           2.014
loop_
_space_group_symop_operation_xyz
'x, y, z'
'-x, -y, -z'
loop_
_atom_site_type_symbol
_atom_site_label
_atom_site_fract_x
_atom_site_fract_y
_atom_site_fract_z
_atom_site_U_iso_or_equiv
_atom_site_adp_type
_atom_site_calc_flag
_atom_site_occupancy
C C1 0.5541(3) 0.6284(3) 0.6656(3) 0.0519(6) Uani d 1
O O1 0.6629(3) 0.5557(2) 0.5980(2) 0.0792(6) Uani d 1
O O2 0.5394(2) 0.57911(18) 0.80862(17) 0.0612(5) Uani d 1
C C11 0.4229(3) 0.7716(2) 0.6225(2) 0.0435(5) Uani d 1
C C12 0.4248(3) 0.8391(2) 0.4823(2) 0.0468(6) Uani d 1
H H12 0.5060 0.7907 0.4210 0.056 Uiso calc 1
C C13 0.3083(3) 0.9756(2) 0.4352(2) 0.0442(5) Uani d 1
C C14 0.1853(3) 1.0488(2) 0.5275(2) 0.0465(6) Uani d 1
C C15 0.1828(3) 0.9810(3) 0.6657(2) 0.0537(6) Uani d 1
H H15 0.1006 1.0284 0.7273 0.064 Uiso calc 1
C C16 0.3013(3) 0.8433(2) 0.7129(2) 0.0499(6) Uani d 1
H H16 0.2991 0.7987 0.8062 0.060 Uiso calc 1
O O13 0.2994(2) 1.05405(19) 0.30090(17) 0.0628(5) Uani d 1
C C131 0.4233(4) 0.9901(3) 0.2010(3) 0.0716(8) Uani d 1
H H13A 0.5420 0.9758 0.2097 0.107 Uiso calc 1
H H13B 0.4094 1.0596 0.1112 0.107 Uiso calc 1
H H13C 0.4026 0.8915 0.2144 0.107 Uiso calc 1
O O14 0.0788(2) 1.18375(18) 0.47077(17) 0.0663(5) Uani d 1
C C141 -0.0360(4) 1.2734(3) 0.5554(3) 0.0776(9) Uani d 1
H H14A -0.1142 1.2127 0.6277 0.116 Uiso calc 1
H H14B -0.1051 1.3653 0.5015 0.116 Uiso calc 1
H H14C 0.0337 1.3026 0.5940 0.116 Uiso calc 1
N N21 0.6660(3) 0.4470(2) 0.8527(2) 0.0562(6) Uani d 1
N N22 0.6258(3) 0.3075(2) 0.8981(2) 0.0659(6) Uani d 1
N N23 0.7677(3) 0.2033(2) 0.9335(2) 0.0630(6) Uani d 1
C C23A 0.8983(3) 0.2793(3) 0.9080(2) 0.0485(6) Uani d 1
C C24 1.0717(3) 0.2208(3) 0.9269(3) 0.0599(7) Uani d 1
H H24 1.1163 0.1147 0.9643 0.072 Uiso calc 1
C C25 1.1733(4) 0.3254(3) 0.8883(3) 0.0717(8) Uani d 1
H H25 1.2906 0.2899 0.8982 0.086 Uiso calc 1
C C26 1.1057(4) 0.4858(3) 0.8339(3) 0.0728(8) Uani d 1
H H26 1.1798 0.5533 0.8096 0.087 Uiso calc 1
C C27 0.9358(4) 0.5470(3) 0.8151(3) 0.0624(7) Uani d 1
H H27 0.8912 0.6534 0.7791 0.075 Uiso calc 1
C C27A 0.8342(3) 0.4379(3) 0.8540(2) 0.0481(6) Uani d 1
loop_
_atom_site_aniso_label
_atom_site_aniso_U_11
_atom_site_aniso_U_22
_atom_site_aniso_U_33
_atom_site_aniso_U_12
_atom_site_aniso_U_13
_atom_site_aniso_U_23
C1 0.0484(14) 0.0488(13) 0.0524(15) -0.0053(11) -0.0135(11) -0.0127(12)
O1 0.0779(13) 0.0687(12) 0.0719(13) 0.0249(10) -0.0231(10) -0.0307(10)
O2 0.0555(10) 0.0566(10) 0.0559(11) 0.0054(8) -0.0191(8) -0.0112(8)
C11 0.0436(12) 0.0374(11) 0.0466(13) -0.0065(10) -0.0107(10) -0.0120(10)
C12 0.0424(12) 0.0480(13) 0.0492(14) -0.0045(10) -0.0069(10) -0.0219(11)
C13 0.0441(12) 0.0429(12) 0.0451(13) -0.0068(10) -0.0103(10) -0.0157(10)
C14 0.0487(13) 0.0382(12) 0.0499(14) -0.0055(10) -0.0126(11) -0.0136(11)
C15 0.0533(14) 0.0483(13) 0.0520(15) -0.0029(11) -0.0020(11) -0.0227(12)
C16 0.0546(14) 0.0442(13) 0.0442(13) -0.0083(11) -0.0072(11) -0.0128(11)
O13 0.0678(11) 0.0606(10) 0.0471(10) 0.0063(8) -0.0163(8) -0.0178(8)
C131 0.0770(19) 0.0800(19) 0.0524(16) -0.0062(15) -0.0084(14) -0.0295(14)
O14 0.0695(11) 0.0494(10) 0.0612(11) 0.0145(9) -0.0148(9) -0.0205(9)
C141 0.0727(18) 0.0560(16) 0.081(2) 0.0138(14) -0.0045(15) -0.0311(15)
N21 0.0520(12) 0.0455(11) 0.0615(13) -0.0023(9) -0.0222(10) -0.0068(10)
N22 0.0638(14) 0.0595(14) 0.0705(15) -0.0192(11) -0.0243(12) -0.0055(12)
N23 0.0684(14) 0.0472(12) 0.0688(15) -0.0129(11) -0.0283(12) -0.0040(11)
C23A 0.0509(14) 0.0456(13) 0.0449(13) -0.0093(11) -0.0129(11) -0.0100(10)
C24 0.0589(16) 0.0525(14) 0.0605(16) -0.0017(12) -0.0197(13) -0.0137(12)
C25 0.0504(15) 0.0762(19) 0.084(2) -0.0084(14) -0.0193(14) -0.0218(16)
C26 0.0642(18) 0.0685(18) 0.084(2) -0.0280(15) -0.0185(15) -0.0111(16)
C27 0.0713(18) 0.0425(13) 0.0661(17) -0.0146(13) -0.0196(14) -0.0050(12)
C27A 0.0484(14) 0.0444(13) 0.0458(13) -0.0067(10) -0.0113(10) -0.0109(10)
loop_
_atom_type_symbol
_atom_type_description
_atom_type_scat_dispersion_real
_atom_type_scat_dispersion_imag
_atom_type_scat_source
C C 0.0033 0.0016 'International Tables Vol C Tables 4.2.6.8 and 6.1.1.4'
H H 0.0000 0.0000 'International Tables Vol C Tables 4.2.6.8 and 6.1.1.4'
N N 0.0061 0.0033 'International Tables Vol C Tables 4.2.6.8 and 6.1.1.4'
O O 0.0106 0.0060 'International Tables Vol C Tables 4.2.6.8 and 6.1.1.4'
loop_
_geom_angle_atom_site_label_1
_geom_angle_atom_site_label_2
_geom_angle_atom_site_label_3
_geom_angle
O1 C1 O2 120.6(2)
O1 C1 C11 128.8(2)
O2 C1 C11 110.59(19)
N21 O2 C1 112.32(17)
C16 C11 C12 119.57(19)
C16 C11 C1 122.8(2)
C12 C11 C1 117.59(19)
C13 C12 C11 120.3(2)
C13 C12 H12 119.8
C11 C12 H12 119.8
C12 C13 O13 125.7(2)
C12 C13 C14 120.0(2)
O13 C13 C14 114.26(18)
O14 C14 C15 125.2(2)
O14 C14 C13 115.4(2)
C15 C14 C13 119.44(19)
C16 C15 C14 120.5(2)
C16 C15 H15 119.8
C14 C15 H15 119.8
C11 C16 C15 120.2(2)
C11 C16 H16 119.9
C15 C16 H16 119.9
C13 O13 C131 117.62(18)
O13 C131 H13A 109.5
O13 C131 H13B 109.5
H13A C131 H13B 109.5
O13 C131 H13C 109.5
H13A C131 H13C 109.5
H13B C131 H13C 109.5
C14 O14 C141 118.8(2)
O14 C141 H14A 109.5
O14 C141 H14B 109.5
H14A C141 H14B 109.5
O14 C141 H14C 109.5
H14A C141 H14C 109.5
H14B C141 H14C 109.5
N22 N21 C27A 113.22(19)
N22 N21 O2 119.18(19)
C27A N21 O2 127.6(2)
N23 N22 N21 106.6(2)
N22 N23 C23A 108.39(19)
N23 C23A C27A 109.3(2)
N23 C23A C24 130.3(2)
C27A C23A C24 120.4(2)
C25 C24 C23A 117.1(2)
C25 C24 H24 121.4
C23A C24 H24 121.4
C24 C25 C26 121.6(3)
C24 C25 H25 119.2
C26 C25 H25 119.2
C27 C26 C25 122.7(3)
C27 C26 H26 118.6
C25 C26 H26 118.6
C26 C27 C27A 114.8(2)
C26 C27 H27 122.6
C27A C27 H27 122.6
N21 C27A C23A 102.4(2)
N21 C27A C27 134.2(2)
C23A C27A C27 123.3(2)
loop_
_geom_bond_atom_site_label_1
_geom_bond_atom_site_label_2
_geom_bond_distance
C1 O1 1.186(3)
C1 O2 1.414(3)
C1 C11 1.455(3)
O2 N21 1.377(2)
C11 C16 1.378(3)
C11 C12 1.401(3)
C12 C13 1.363(3)
C12 H12 0.9300
C13 O13 1.370(3)
C13 C14 1.404(3)
C14 O14 1.341(2)
C14 C15 1.380(3)
C15 C16 1.379(3)
C15 H15 0.9300
C16 H16 0.9300
O13 C131 1.417(3)
C131 H13A 0.9600
C131 H13B 0.9600
C131 H13C 0.9600
O14 C141 1.422(3)
C141 H14A 0.9600
C141 H14B 0.9600
C141 H14C 0.9600
N21 N22 1.341(3)
N21 C27A 1.346(3)
N22 N23 1.311(3)
N23 C23A 1.372(3)
C23A C27A 1.384(3)
C23A C24 1.390(3)
C24 C25 1.358(4)
C24 H24 0.9300
C25 C26 1.403(4)
C25 H25 0.9300
C26 C27 1.364(4)
C26 H26 0.9300
C27 C27A 1.392(3)
C27 H27 0.9300
loop_
_geom_hbond_atom_site_label_D
_geom_hbond_atom_site_label_H
_geom_hbond_atom_site_label_A
_geom_hbond_site_symmetry_A
_geom_hbond_distance_DH
_geom_hbond_distance_HA
_geom_hbond_distance_DA
_geom_hbond_angle_DHA
_geom_hbond_publ_flag
C27 H27 O14 2_676 0.93 2.52 3.175(3) 127 no
loop_
_geom_torsion_atom_site_label_1
_geom_torsion_atom_site_label_2
_geom_torsion_atom_site_label_3
_geom_torsion_atom_site_label_4
_geom_torsion
O1 C1 O2 N21 2.2(3)
C11 C1 O2 N21 -177.67(19)
O1 C1 C11 C16 178.9(3)
O2 C1 C11 C16 -1.2(3)
O1 C1 C11 C12 -2.4(4)
O2 C1 C11 C12 177.50(19)
C16 C11 C12 C13 0.5(3)
C1 C11 C12 C13 -178.2(2)
C11 C12 C13 O13 178.8(2)
C11 C12 C13 C14 -0.2(3)
C12 C13 C14 O14 178.9(2)
O13 C13 C14 O14 -0.2(3)
C12 C13 C14 C15 -0.5(3)
O13 C13 C14 C15 -179.6(2)
O14 C14 C15 C16 -178.5(2)
C13 C14 C15 C16 0.8(4)
C12 C11 C16 C15 -0.3(3)
C1 C11 C16 C15 178.4(2)
C14 C15 C16 C11 -0.4(4)
C12 C13 O13 C131 -1.1(3)
C14 C13 O13 C131 178.0(2)
C15 C14 O14 C141 6.0(4)
C13 C14 O14 C141 -173.3(2)
C1 O2 N21 N22 -93.7(2)
C1 O2 N21 C27A 84.8(3)
C27A N21 N22 N23 1.5(3)
O2 N21 N22 N23 -179.79(19)
N21 N22 N23 C23A -0.8(3)
N22 N23 C23A C27A -0.1(3)
N22 N23 C23A C24 -179.4(2)
N23 C23A C24 C25 178.2(3)
C27A C23A C24 C25 -0.9(4)
C23A C24 C25 C26 1.0(4)
C24 C25 C26 C27 -0.5(5)
C25 C26 C27 C27A -0.1(4)
N22 N21 C27A C23A -1.5(3)
O2 N21 C27A C23A 179.9(2)
N22 N21 C27A C27 178.4(3)
O2 N21 C27A C27 -0.2(4)
N23 C23A C27A N21 1.0(3)
C24 C23A C27A N21 -179.7(2)
N23 C23A C27A C27 -179.0(2)
C24 C23A C27A C27 0.4(4)
C26 C27 C27A N21 -179.7(3)
C26 C27 C27A C23A 0.2(4)

_cod_database_fobs_code 2020955
