#------------------------------------------------------------------------------
#$Date: 2017-02-04 05:55:42 +0200 (Sat, 04 Feb 2017) $
#$Revision: 191418 $
#$URL: file:///home/coder/svn-repositories/cod/cif/2/02/06/2020690.cif $
#------------------------------------------------------------------------------
#
# This file is available in the Crystallography Open Database (COD),
# http://www.crystallography.net/. The original data for this entry
# were provided by IUCr Journals, http://journals.iucr.org/.
#
# The file may be used within the scientific community so long as
# proper attribution is given to the journal article from which the
# data were obtained.
#
data_2020690
loop_
_publ_author_name
'Ardan, Bohdan'
'Kinzhybalo, Vasyl'
'Slyvka, Yurii'
'Shyyka, Olga'
'Luk`yanov, Mykhaylo'
'Lis, Tadeusz'
'Mys`kiv, Marian'
_publ_section_title
;
 Ligand-forced dimerization of copper(I)--olefin complexes bearing a
 1,3,4-thiadiazole core
;
_journal_issue                   1
_journal_name_full               'Acta Crystallographica Section C'
_journal_page_first              36
_journal_page_last               46
_journal_paper_doi               10.1107/S2053229616018751
_journal_volume                  73
_journal_year                    2017
_chemical_formula_iupac          '[Cu2 (N O3)2 (C6 H9 N3 S)2]'
_chemical_formula_moiety         'C12 H18 Cu2 N8 O6 S2'
_chemical_formula_sum            'C12 H18 Cu2 N8 O6 S2'
_chemical_formula_weight         561.54
_chemical_name_systematic
Bis[\m-5-methyl-<i>N</i>-(prop-2-en-1-yl)-1,3,4-thiadiazol-2-amine]bis[nitratocopper(I)]
_space_group_crystal_system      triclinic
_space_group_IT_number           2
_space_group_name_Hall           '-P 1'
_space_group_name_H-M_alt        'P -1'
_symmetry_space_group_name_Hall  '-P 1'
_symmetry_space_group_name_H-M   'P -1'
_atom_sites_solution_hydrogens   mixed
_audit_creation_method
;
Olex2 1.2
(compiled 2015.01.26 svn.r3150 for OlexSys, GUI svn.r4998)
;
_cell_angle_alpha                105.42(3)
_cell_angle_beta                 98.15(3)
_cell_angle_gamma                112.43(3)
_cell_formula_units_Z            1
_cell_length_a                   7.235(3)
_cell_length_b                   7.548(3)
_cell_length_c                   10.297(4)
_cell_measurement_reflns_used    3143
_cell_measurement_temperature    100(2)
_cell_measurement_theta_max      38.4994
_cell_measurement_theta_min      3.1006
_cell_volume                     482.0(4)
_computing_cell_refinement
;
CrysAlis PRO (Rigaku OD, 2015)
;
_computing_data_collection
;
CrysAlis PRO (Rigaku OD, 2015)
;
_computing_data_reduction
;
CrysAlis PRO (Rigaku OD, 2015)
;
_computing_molecular_graphics
;
OLEX2 (Dolomanov <i>et al.</i>,  2009)
;
_computing_publication_material
;
OLEX2 (Dolomanov <i>et al.</i>,  2009)
;
_computing_structure_refinement
;
SHELXL2014 (Sheldrick, 2015b)
;
_computing_structure_solution
;
SHELXT (Sheldrick, 2015a)
;
_diffrn_ambient_temperature      100(2)
_diffrn_detector_area_resol_mean 8.1956
_diffrn_measured_fraction_theta_full 0.998
_diffrn_measured_fraction_theta_max 0.807
_diffrn_measurement_device       'four-circle diffractometer'
_diffrn_measurement_device_type  'Rigaku Xcalibur Onyx'
_diffrn_measurement_method       '\w and \f scans'
_diffrn_radiation_monochromator  graphite
_diffrn_radiation_type           MoK\a
_diffrn_radiation_wavelength     0.71073
_diffrn_reflns_av_R_equivalents  0.020
_diffrn_reflns_limit_h_max       12
_diffrn_reflns_limit_h_min       -7
_diffrn_reflns_limit_k_max       12
_diffrn_reflns_limit_k_min       -13
_diffrn_reflns_limit_l_max       14
_diffrn_reflns_limit_l_min       -14
_diffrn_reflns_number            8459
_diffrn_reflns_theta_full        26.000
_diffrn_reflns_theta_max         38.502
_diffrn_reflns_theta_min         3.101
_exptl_absorpt_coefficient_mu    2.474
_exptl_absorpt_correction_T_max  0.768
_exptl_absorpt_correction_T_min  0.542
_exptl_absorpt_correction_type   analytical
_exptl_absorpt_process_details
;
[CrysAlis PRO (Rigaku OD, 2015), based on expressions
derived by Clark & Reid (1995)]
;
_exptl_crystal_colour            'clear colourless'
_exptl_crystal_density_diffrn    1.934
_exptl_crystal_description       block
_exptl_crystal_F_000             284
_exptl_crystal_size_max          0.431
_exptl_crystal_size_mid          0.206
_exptl_crystal_size_min          0.136
_refine_diff_density_max         0.881
_refine_diff_density_min         -1.032
_refine_ls_extinction_method     none
_refine_ls_goodness_of_fit_ref   1.056
_refine_ls_hydrogen_treatment    mixed
_refine_ls_matrix_type           full
_refine_ls_number_parameters     141
_refine_ls_number_reflns         8459
_refine_ls_number_restraints     0
_refine_ls_restrained_S_all      1.056
_refine_ls_R_factor_all          0.0466
_refine_ls_R_factor_gt           0.0343
_refine_ls_shift/su_max          0.000
_refine_ls_shift/su_mean         0.000
_refine_ls_structure_factor_coef Fsqd
_refine_ls_weighting_details
'w=1/[\s^2^(Fo^2^)+(0.0610P)^2^] where P=(Fo^2^+2Fc^2^)/3'
_refine_ls_weighting_scheme      calc
_refine_ls_wR_factor_gt          0.0903
_refine_ls_wR_factor_ref         0.0956
_reflns_number_gt                6900
_reflns_number_total             8459
_reflns_threshold_expression     'I > 2\s(I)'
_cod_data_source_file            fn3225sup1.cif
_cod_data_source_block           1
_cod_depositor_comments
'Adding full bibliography for 2020689--2020694.cif.'
_cod_database_code               2020690
_cod_database_fobs_code          2020690
_shelx_space_group_comment
;
The symmetry employed for this shelxl refinement is uniquely defined
by the following loop, which should always be used as a source of
symmetry information in preference to the above space-group names.
They are only intended as comments.
;
_shelx_hkl_file
;
   6   2 -10 904.864 391.802   1
   0  -6  12-245.848 336.779  -2
   0   6 -12-245.848 336.779   1
   1   6 -13 9.71742 423.934   1
   8  -2  -6-38.7228 239.512   1
   6   1  -7 782.302 270.589   1
   7   1  -9 1041.39 397.221   1
  -1   4  -5-48.4961 131.493   1
   3   1  -3 57.5719 131.241   1
   7  -3  -3 335.666 154.993   1
  -1   5  -7-119.598 190.876   1
   4   4 -10-63.2765 378.092   1
   8  -1  -7-125.065 286.806   1
  -2   6  -9 83.1514 221.124   1
   7   1  -8-127.139 301.379   1
   2   6 -12-146.135 395.104   1
   5  -8   9 1042.53 460.114  -2
   5   4 -11 1042.53 460.114   1
   6   2  -8 20.1980 316.205   1
   3   5 -10 1023.99 387.181   1
   8   0  -8 11.9620 362.608   1
   6   3 -10 3742.16 509.890   1
   1   6 -10 1198.66 330.964   1
   0  -6   9 635.727 298.792  -2
   0   6  -9 635.727 298.792   1
   2   6 -11 232.776 358.123   1
   2   2  -3 135.775 138.660   1
   4   5 -11 87.5259 449.343   1
   0  -7  12 1037.18 412.406  -2
   0   7 -12 1037.18 412.406   1
   3   4  -7 2096.73 325.135   1
   1   5  -7 468.821 242.782   1
   4   4  -8 1409.59 352.266   1
   6   3  -9 2076.08 456.339   1
   4   3  -6 1748.30 318.901   1
   5  -4   1 193.495 156.635  -2
   5   0  -3 193.495 156.635   1
   6   2  -7-38.2227 348.461   1
   0  -7  11 589.789 378.667  -2
   0   7 -11 589.789 378.667   1
   1   7 -12 595.656 442.068   1
   6   0  -4 18.3024 204.859   1
   8   0  -7 411.162 351.103   1
   3   6 -11 847.022 451.999   1
   1   7 -11-255.747 424.819   1
   7   2  -8 918.178 411.697   1
   0  -7  10 81.6470 350.063  -2
   0   7 -10 81.6470 350.063   1
   3   4  -6 1877.66 311.442   1
   4   2  -4-109.918 220.116   1
   8   1  -8 370.684 427.663   1
   3   6 -10 3120.97 470.643   1
   1   5  -6 1417.99 271.126   1
  -3   6  -7 283.169 171.026   1
  -1   7  -9 1701.38 328.835   1
   6   2  -6 542.100 324.380   1
   1   7 -10-166.010 373.127   1
   2   7 -11 2336.15 466.279   1
   4   3  -5 975.350 282.092   1
   0  -6   7 162.109 255.754  -2
   0   6  -7 162.109 255.754   1
   3   3  -4 197.605 219.829   1
   3   5  -7 1779.72 367.600   1
   4   5  -8 462.196 362.426   1
   8   1  -7-343.484 376.249   1
   2   7 -10 1187.28 412.753   1
   1   6  -7 96.2082 277.732   1
   3  -4   1 61.6365 76.9879   1
  -2   6  -6 168.385 197.372   1
  -1   6  -6 588.240 209.730   1
   6   1  -4 65.1210 218.705   1
   1   8 -11 1750.54 478.843   1
   6   4  -8 755.684 395.615   1
   3   6  -8 3313.48 454.528   1
   6   2  -5 1499.45 301.369   1
   7   1  -5-248.954 282.866   1
   4   6  -9 411.152 431.793   1
   2   6  -7 986.742 341.469   1
   2   7  -9 1027.21 410.724   1
   0  -8  10 2060.91 395.669  -2
   0   8 -10 2060.91 395.669   1
   5  -9   6 4193.65 525.615  -2
   5   5  -8 4193.65 525.615   1
   1   7  -8 349.188 343.542   1
  -1   4  -3 36.1481 124.869   1
   1   8 -10 4243.50 485.522   1
   8   1  -6-32.6579 345.471   1
  -1   7  -7 346.306 254.489   1
   6   4  -7 1017.18 426.582   1
   4   6  -8 2306.97 489.084   1
   0  -5   4 338.283 199.225  -2
   0   5  -4 338.283 199.225   1
   3   4  -4 627.563 263.456   1
   4   5  -6 678.624 373.032   1
   1   5  -4 241.658 237.871   1
   6   1  -3 1589.32 266.654   1
   3   7  -8 229.437 435.475   1
   0  -8   8 464.002 339.920  -2
   0   8  -8 464.002 339.920   1
   7   3  -6 513.182 373.966   1
   5  -8   3 725.796 350.171  -2
   5   4  -5 725.796 350.171   1
   8   1  -5 3044.09 409.827   1
   6   4  -6 498.827 398.046   1
   2   5  -4 1400.75 305.775   1
   4   4  -4 483.018 297.859   1
   1   8  -8 3174.95 464.219   1
   8   0  -4 377.470 261.059   1
   2   6  -5 219.553 333.954   1
   6  -2  -1 1054.76 143.617   1
   3   7  -7 1175.68 428.424   1
   2   8  -8 289.207 435.206   1
   4   6  -6 1967.96 469.409   1
   2   7  -6 2327.44 427.621   1
   6   3  -4 324.019 339.851   1
   7  -1  -2-15.5446 173.945   1
   1   8  -7 114.092 360.517   1
   7   3  -5 1598.21 422.894   1
   3   6  -5 1567.08 395.857   1
   1   6  -4 139.396 280.369   1
   8   2  -5-403.334 385.615   1
   7   1  -3 77.5876 271.556   1
  -2   5  -3 83.7957 148.363   1
   0  -9   8 3049.37 481.497  -2
   0   9  -8 3049.37 481.497   1
   3   7  -6 884.056 416.952   1
   2   5  -3-105.195 271.694   1
   4   4  -3 450.894 308.883   1
   6   1  -2 1599.71 286.521   1
   1  -3   0 284.688 110.877   1
   6  -1  -1 69.5175 154.770   1
   4   6  -5 2226.91 458.068   1
  -2   8  -6 109.182 241.833   1
   2   7  -5 460.812 358.487   1
   1   8  -6-113.787 404.427   1
   2   3  -1 1105.93 207.465   1
  -1   9  -7-312.213 379.199   1
   0  -9   7 2967.75 476.022  -2
   0   9  -7 2967.75 476.022   1
   2   8  -6 158.285 425.906   1
   6   3  -3 579.123 344.093   1
   7   2  -3 229.837 309.155   1
   8   2  -4 2362.35 413.066   1
   1   7  -4 1127.89 359.565   1
   6   0  -1 79.9659 196.691   1
   6   2  -2 671.972 300.978   1
   0  -8   5-230.251 340.145  -2
   0   8  -5-230.251 340.145   1
   4   5  -3 3216.72 446.851   1
  -3   5  -3 316.972 134.979   1
   4   4  -2 1286.11 345.941   1
   7   1  -2 409.963 283.831   1
   1   4  -1 429.306 216.838   1
  -1   9  -6 360.135 360.938   1
   5  -6  -1 2436.21 318.098  -2
   5   2  -1 2436.21 318.098   1
   1   9  -6 3960.38 574.062   1
   3   6  -3 2464.42 442.912   1
   6   5  -4 4615.24 569.184   1
   4   3  -1 1940.32 295.769   1
   3   5  -2 803.034 334.527   1
   6   4  -3 2283.70 453.155   1
   7   3  -3 2110.62 421.085   1
   3   2   0 576.810 219.644   1
   6   3  -2 1420.15 396.160   1
   5  -8   0 269.514 364.158  -2
   5   4  -2 269.514 364.158   1
  -1   8  -4 111.233 303.171   1
   1   6  -2 542.293 331.917   1
   8   2  -3-160.949 434.475   1
   4   6  -3 1984.13 482.762   1
   7   2  -2 2431.28 403.493   1
   0  -9   5 1500.62 411.315  -2
   0   9  -5 1500.62 411.315   1
   4   5  -2-192.608 394.156   1
  -1   9  -5 678.916 379.948   1
   2   6  -2 182.979 336.383   1
   1   9  -5 2093.31 527.393   1
   2   8  -4 4262.19 575.036   1
  -2   8  -4 1093.77 301.335   1
   7   0  -1 142.067 217.313   1
  -2   7  -3 1718.74 295.770   1
   8   1  -2 134.302 363.417   1
   3   5  -1 1423.50 373.897   1
   7   3  -2 574.520 392.984   1
   1   7  -2 2971.43 453.809   1
  -3   8  -4 1534.16 290.434   1
   4   6  -2 4323.07 572.727   1
   1   9  -4 180.144 490.975   1
   2   7  -2 489.183 422.530   1
   2   8  -3-107.786 442.201   1
   8   2  -2 3779.10 485.451   1
  -3   7  -3 101.980 213.951   1
  -2   9  -4 3491.51 460.956   1
   7   2  -1 3655.86 448.403   1
   3   7  -2 365.320 433.595   1
  -1   6  -1-200.905 251.758   1
  -2   7  -2 104.386 238.350   1
   2  -3  -1 10.1007 95.6622   1
  -1   3   0 208.000 126.895   1
   0  -8   2 2976.44 469.470  -2
   0   8  -2 2976.44 469.470   1
   1   8  -2 134.197 428.994   1
   6   2   0 1476.34 357.018   1
   3   5   0 458.495 340.320   1
  -1   8  -2 52.2364 319.254   1
   0  -7   1 922.183 347.288  -2
   0   7  -1 922.183 347.288   1
   7   3  -1 428.216 405.258   1
   4   6  -1 1127.84 464.353   1
  -3   8  -3 174.449 249.747   1
  -1   5   0 91.4564 209.115   1
   1   6   0 171.378 323.431   1
   4   5   0 1845.53 456.454   1
   6   3   0 1078.04 365.821   1
   1  -2  -1 645.667 98.1476   1
   3   7  -1 77.7148 448.922   1
   4   3   1 1535.93 350.145   1
   3   4   1 24.8130 300.331   1
   7   2   0 1336.77 357.277   1
   1   8  -1 560.569 420.400   1
  -1   9  -2 1086.38 436.980   1
   5  -9  -2 3714.30 551.236  -2
   5   5   0 3714.30 551.236   1
   6   4   0 1596.82 446.018   1
   2   5   1 2851.32 387.566   1
   5  -7  -3 1213.69 394.987  -2
   5   3   1 1213.69 394.987   1
   4   6   0 549.540 443.834   1
   2   7   0 1125.15 442.088   1
   6   0   1 666.525 230.652   1
  -2   9  -2-336.851 351.899   1
   7   3   0 1986.75 486.123   1
  -2   5   0 76.0049 175.305   1
  -2   8  -1 847.318 346.936   1
   2   6   1 561.331 427.805   1
  -2   6   0 1156.38 252.792   1
   3   3   2 1952.02 318.930   1
  -1   4   1 530.900 188.872   1
   4   2   2 174.306 230.143   1
   1   8   0 3676.75 529.825   1
   3   6   1-449.642 425.633   1
  -1   9  -1 1427.08 396.779   1
   7   1   1 3202.05 380.453   1
   1   7   1 2135.27 512.920   1
   6   4   1 2978.49 528.211   1
  -2   9  -1 840.421 361.021   1
   7   0   1 714.524 253.176   1
   7   2   1 162.885 367.467   1
  -3   4  -1 33.7784 95.0447   1
  -4   6  -2 560.438 149.986   1
  -2   8   0 2477.66 409.535   1
  -1   7   1 100.775 341.667   1
   0  -5  -2 573.149 303.744  -2
   0   5   2 573.149 303.744   1
   3   0   2 208.389 120.690   1
   4   5   2 3212.46 535.832   1
  -1   9   0 224.385 445.595   1
   6   1   2 697.379 260.818   1
   3   6   2 1376.38 494.855   1
  -2   6   1 266.965 258.761   1
  -2   9   0 1460.35 423.151   1
   1   7   2 1064.52 453.189   1
   2   3   3 100.890 248.859   1
   3   4   3 2126.00 417.960   1
   4   2   3 2359.11 333.115   1
  -1   6   2 709.410 319.044   1
   4   4   3 1460.80 463.442   1
   7   2   2 2387.19 419.636   1
   2   6   3 1611.80 478.694   1
   4   5   3 858.895 505.358   1
   0  -4  -3 1914.56 301.240  -2
   0   4   3 1914.56 301.240   1
  -2   9   1 459.299 446.120   1
  -1   8   2 524.077 405.855   1
   1   7   3 14.0299 485.605   1
   6   2   3 1840.06 418.964   1
   6   3   3-11.4818 460.237   1
  -2   7   2 967.029 363.321   1
   6   1   3-186.249 277.995   1
   6  -1   2-174.021 164.453   1
   3   4   4 675.153 426.801   1
   2   3   4 165.653 281.111   1
  -2   3   1 31.8902 102.667   1
  -2   8   2 688.786 434.972   1
   2   5   4-271.129 405.305   1
   4   3   4-253.614 354.103   1
   3   5   4 634.347 468.604   1
   4   4   4 1881.90 481.067   1
   1   5   4 145.583 358.116   1
   3   2   4 232.258 251.752   1
  -3   5   1 157.217 176.077   1
   4   2   4 1106.50 325.323   1
  -1   8   3 689.699 476.102   1
   0  -6  -4 433.550 397.354  -2
   0   6   4 433.550 397.354   1
   0  -4  -4 445.014 270.884  -2
   0   4   4 445.014 270.884   1
  -3   7   2 2978.44 379.205   1
   0  -7  -4-52.2389 416.785  -2
   0   7   4-52.2389 416.785   1
  -3   8   2 2913.43 461.155   1
  -2   8   3 2953.53 486.584   1
  -2   5   3 98.9842 250.707   1
   6   2   4-476.350 409.446   1
  -3   9   2-187.574 453.348   1
   2   4   5 1387.66 411.082   1
   2   5   5 3367.72 572.448   1
   3   3   5 644.460 385.823   1
  -4   7   1 166.272 257.486   1
   4   3   5 1359.32 420.552   1
   6   1   4 2765.70 372.487   1
   2   1   4 1201.12 206.541   1
   1   6   5-321.979 466.518   1
   0  -5  -5-55.5825 359.636  -2
   0   5   5-55.5825 359.636   1
   0  -6  -5 4094.37 513.478  -2
   0   6   5 4094.37 513.478   1
   1   3   5 28.0495 281.456   1
  -3   7   3 1560.76 360.576   1
  -2   8   4 1524.61 465.548   1
  -3   6   3 1639.18 306.110   1
  -3   9   3 917.752 519.800   1
  -1   6   5 2045.21 465.525   1
  -1   7   5-58.5102 457.688   1
  -4   7   2 125.116 257.259   1
   4   1   5 149.964 257.932   1
  -1   5   5 1730.57 382.952   1
   2   5   6 5078.57 606.938   1
   2   4   6 3527.96 509.045   1
   6   2   5 471.934 486.313   1
  -1   3   4 1706.02 237.786   1
   4  -1   3 499.704 128.018   1
   3   1   5 103.855 216.310   1
   4   3   6 512.998 418.861   1
  -3   5   3 638.045 234.342   1
  -3   7   4 2007.00 403.066   1
  -2   7   5 686.727 407.913   1
  -2   6   5 2561.75 457.607   1
  -4   5   1 1130.21 174.310   1
  -4   7   3 1752.84 327.789   1
  -2   5   5 1637.71 349.821   1
   3  -2  -2 319.278 89.5286   1
  -1   5   6 159.287 358.093   1
   2   4   7 909.727 476.223   1
   1   5   7 2165.58 552.875   1
  -3   8   5 541.279 508.997   1
   3   3   7 3094.58 492.224   1
   1   4   7-667.371 418.777   1
  -3   7   5-262.174 417.767   1
   4   3   7-378.542 452.602   1
   6   0   5 947.883 266.571   1
  -1   4   6 2583.21 369.262   1
   0  -5  -7 943.869 431.703  -2
   0   5   7 943.869 431.703   1
  -2   6   6 1400.39 423.468   1
  -3   6   5-133.184 317.561   1
   4   2   7 1028.28 392.898   1
   2   1   6 964.782 249.171   1
   5  -6  -9 4500.73 525.763  -2
   5   2   7 4500.73 525.763   1
  -3   3  -4 143.934 79.9076   1
  -1   3   6 998.099 280.675   1
  -4   8   5 139.505 475.276   1
  -2   6   7 4110.78 576.994   1
  -3   6   6 375.477 365.940   1
  -4   5   3 1845.49 252.278   1
   2   3   8-206.818 402.253   1
   4   1   7 371.541 307.541   1
   0  -4  -8 1399.69 431.733  -2
   0   4   8 1399.69 431.733   1
   1   3   8 449.499 401.410   1
   3   0   6 102.756 197.972   1
   4   2   8 2889.48 471.828   1
  -3   5   6-292.263 308.172   1
  -4   7   6 693.584 382.007   1
  -2   6   8 1865.73 469.864   1
   0  -3  -8 1274.92 384.550  -2
   0   3   8 1274.92 384.550   1
  -3   6   7 3881.15 514.885   1
   1   2   8 1750.36 364.220   1
   2   3   9 3171.13 518.421   1
   2   0   6 1435.67 232.916   1
  -4   4  -1 111.281 48.8298   1
   0  -4  -9 3355.10 525.740  -2
   0   4   9 3355.10 525.740   1
   1   1   7 1326.77 258.499   1
   3   1   8 477.865 308.421   1
  -3   4   6 610.684 269.793   1
  -4   7   7 3549.75 514.933   1
  -3   6   8-312.881 417.395   1
  -3   3   4-12.4106 155.137   1
  -1   4   9 608.873 441.410   1
  -1   2   7 111.654 239.599   1
  -2   5   9 975.946 466.307   1
   4  -1   6 1440.38 217.470   1
   1   1   8 2157.67 314.057   1
   1   0   6 4.05208 168.147   1
   2  -1   4 235.402 106.618   1
   4   0   8-31.2180 284.887   1
  -4   4   4 1360.32 209.677   1
  -1   3   9 1360.91 381.868   1
   3   0   8-4.89648 263.002   1
   2   1   9 816.489 356.769   1
   0  -2  -9 1286.40 363.330  -2
   0   2   9 1286.40 363.330   1
  -1   4  10 462.364 455.767   1
  -1   2   8 414.701 270.602   1
  -4   5   7 1859.36 370.180   1
  -3   5   9-378.482 390.946   1
   1   1   9 1696.89 345.048   1
   4   0   9 226.589 304.776   1
  -2   3   9 162.603 341.377   1
  -4   6   9-150.344 488.522   1
  -3   3   7 130.544 243.529   1
   2   1  10 370.028 361.522   1
  -1   2   9 543.384 320.272   1
  -3   4   9-140.447 360.440   1
  -4   4   7 610.132 280.510   1
   0  -1  -9 38.2371 299.107  -2
   0   1   9 38.2371 299.107   1
   4  -1   8-221.374 227.272   1
  -4   5   9 297.997 400.431   1
  -3   3   8 2128.66 334.054   1
  -1   3  11 2884.46 508.531   1
  -2   3  10 1885.51 429.235   1
   0  -2 -11 519.226 422.029  -2
   0   2  11 519.226 422.029   1
   4   0  10 466.025 393.051   1
   0   0  -7 1732.18 245.072  -2
   0   0   7 1732.18 245.072   1
   2   1  11 1197.73 408.935   1
  -3   3   9 2594.81 399.815   1
  -3   2   5 178.702 160.410   1
  -5  -2  -7 3164.40 493.197  -2
  -5   6   9 3164.40 493.197   1
  -2   3  11 1116.53 442.526   1
  -4   4   9 2321.74 398.658   1
   3  -1   9 1840.00 305.411   1
  -3   2   7 67.2875 211.453   1
  -3   2   2 194.080 86.9818   1
   1   0  10 197.746 309.313   1
   3   0  11 365.342 392.152   1
  -4   3   7 1057.98 254.513   1
   4  -2   6 1068.61 168.251   1
  -2   1   7 259.215 202.462   1
  -1   1  10 639.257 336.504   1
  -4   4  10 1715.19 419.833   1
   1  -1   7 854.446 197.441   1
   2  -1   9 1645.85 266.298   1
  -4   3   8 42.3436 191.684   1
   1   0  -2 63.4661 61.2408   1
  -1   0   7 1199.75 208.947   1
   1  -1   8 42.0145 221.887   1
   0  -1 -12 2226.50 445.161  -2
   0   1  12 2226.50 445.161   1
  -4   4  11 1114.15 450.488   1
  -1   1  11 1593.97 380.150   1
  -6   5   5 2105.42 281.013   1
  -2   3  -4 507.152 89.7501   1
  -2   2  12 3803.15 520.090   1
  -5   0  -7 2630.55 401.813  -2
  -5   4   9 2630.55 401.813   1
  -6   5   7-111.109 289.505   1
  -4   3  10 398.494 362.476   1
   3  -2   7 261.799 177.946   1
  -2   1  10 2050.38 359.816   1
   1   0  12 230.835 372.012   1
  -1   0   9 1782.69 306.789   1
  -1   1  12-21.7969 418.819   1
  -3   2  11 3632.29 465.926   1
  -1   0  10 1574.15 328.959   1
   4  -2   9 437.003 249.747   1
   0   0 -12 994.821 431.790  -2
   0   0  12 994.821 431.790   1
   3  -2   9 22.4817 225.929   1
   3  -1  12 3893.60 481.695   1
  -3   2  12 926.524 450.791   1
  -2   1  12 2386.92 486.703   1
   2  -1  12 572.444 353.888   1
  -3   1   5 471.488 156.229   1
  -3   1  10-357.141 305.239   1
  -6   4   8 470.490 291.740   1
  -4   2  11 2766.55 443.962   1
  -1   0   2 111.939 70.6393   1
  -6   4   9 1143.69 356.669   1
  -5   1  -9 3346.53 461.772  -2
  -5   3  11 3346.53 461.772   1
  -6   4  10 226.193 397.852   1
  -6   4   5 98.3035 210.554   1
  -1   0  13 1162.49 457.676   1
  -2   0  11-224.289 312.316   1
   1  -1  13 300.326 403.269   1
   3  -2  12 1027.49 366.512   1
   1  -2  10 2190.08 311.183   1
   0   1 -13 487.035 399.397  -2
   0  -1  13 487.035 399.397   1
   2  -2  12-67.1210 331.781   1
  -2   0  13 360.676 416.552   1
  -4   1  11 703.928 339.632   1
  -5   2  -9 1671.68 422.644  -2
  -5   2  11 1671.68 422.644   1
   1  -2  12 441.757 333.115   1
  -6   3   8 618.262 256.008   1
   2  -2  13 1521.85 416.400   1
  -4   1  12 3653.95 473.155   1
  -1  -1   5 6.43088 124.764   1
  -1  -1  13 416.116 392.868   1
  -6   3  11 643.932 421.832   1
   4  -3   9 480.628 210.166   1
   1   1  -3 522.988 96.7997   1
   1  -2  13 251.109 370.423   1
  -2  -1   9-176.241 252.012   1
   3  -3  10 57.6950 222.130   1
  -3   0  13 592.849 393.462   1
  -2  -1  11 2743.29 386.244   1
   4  -3   6 216.329 127.233   1
   3  -3  12 1637.63 354.351   1
  -6   3   5 861.862 198.624   1
  -1  -2  11 2723.92 374.552   1
  -4   0  11 229.648 321.836   1
  -4   0  10 2651.85 360.798   1
  -1  -2   9 604.947 246.913   1
  -6   2  12 1474.94 457.541   1
  -4   0   9 325.684 254.217   1
  -1  -2  13 1822.35 435.718   1
   2  -3  13 2085.04 381.488   1
  -1  -2   8 250.333 208.543   1
  -3  -1  11 1775.89 345.551   1
  -6   2   8 150.345 257.215   1
  -3  -1  10 2207.78 360.425   1
  -3  -1   9 521.171 264.466   1
   1  -3  13 1186.15 361.189   1
   1  -3   8 1153.63 213.286   1
  -6   3   4 555.946 172.952   1
  -3  -1   8 1087.94 259.003   1
  -2  -2  12 1879.01 397.932   1
  -2  -2  11 1054.64 348.263   1
   0   3 -11 2470.18 341.984  -2
   0  -3  11 2470.18 341.984   1
   0   3 -12 1935.72 379.607  -2
   0  -3  12 1935.72 379.607   1
  -2  -2  13-70.7695 388.013   1
  -2  -1   5 76.5829 147.176   1
   0   3 -13 924.023 395.708  -2
   0  -3  13 924.023 395.708   1
  -6   1  12 2101.62 479.061   1
  -6   1  11 388.718 367.388   1
  -6   2   6 630.917 248.747   1
  -6   1  10 331.494 359.558   1
  -4  -1  12 1245.02 417.997   1
  -4  -1  13 3580.99 557.609   1
   3  -4  10 414.054 247.613   1
  -2  -2   8 48.2395 251.222   1
  -7   2  10 1171.27 393.567   1
  -1  -1   3 672.506 108.899   1
  -1  -3  11 534.390 359.388   1
   4  -4   9 176.594 211.859   1
   2  -4  12 1977.77 376.037   1
   2  -4  11 524.175 308.579   1
  -3  -2  12 2159.42 449.402   1
  -7   2   9 33.7027 332.451   1
   2  -4  13 2351.49 424.109   1
  -4  -1   9 1883.50 325.060   1
  -3  -2  10 2699.02 386.043   1
   4  -4   8 1165.57 198.073   1
   1  -4  13 662.991 394.091   1
  -1  -3   9 648.619 260.463   1
   1  -4  11 2732.62 387.591   1
   3  -4   8 37.6121 178.436   1
  -2  -3  12 3474.55 469.472   1
  -6   0  12-219.632 417.724   1
   2  -4   8 30.7213 188.966   1
   0   4 -11 1680.07 350.900  -2
   0  -4  11 1680.07 350.900   1
  -4  -2  12 936.760 407.017   1
  -7   1  10 3213.95 455.596   1
   4  -4   7 969.099 155.601   1
  -2  -2   6 288.817 187.100   1
  -3  -3  13-162.298 394.177   1
  -6   0   9 987.878 330.343   1
  -2  -3   9 393.738 275.249   1
   3  -3   4 76.7032 78.9069   1
  -1  -4  12 1561.23 418.132   1
  -4  -2  10 2852.05 390.812   1
  -7   1   9 61.6005 325.301   1
  -6   1   6 947.988 240.610   1
  -7   2   6 353.846 222.261   1
  -6  -1  12 2273.27 469.465   1
   1  -5  13 2923.02 422.885   1
  -7   1   8 2460.96 342.950   1
  -2  -4  13 898.266 437.312   1
  -6  -1  11 2924.65 454.652   1
  -7   0  11 190.570 404.716   1
   3  -5  10 2152.83 295.793   1
   2  -3   4 549.615 105.238   1
  -2  -4  12 3481.55 454.976   1
  -4  -3  12 1277.17 404.306   1
  -3  -3   9-115.114 273.737   1
  -7   0  10 202.906 332.763   1
  -6  -1  10 146.150 329.971   1
   0   5 -12 2545.45 396.860  -2
   0  -5  12 2545.45 396.860   1
  -6   0   7 559.584 260.785   1
  -7   1   7 640.960 287.955   1
  -3  -4  12 170.139 384.006   1
  -3  -3   8 165.910 256.245   1
  -1  -5  12-45.0985 371.358   1
  -4  -2   7 1880.64 297.729   1
  -3  -4  11 222.118 374.789   1
  -2  -4   9 52.5092 278.076   1
   3  -5   8 470.702 192.772   1
  -5   7 -10 3364.93 531.591  -2
  -5  -3  12 3364.93 531.591   1
   2   5 -11 17140.8 680.289   1
   1   2  -3 122834. 857.618   1
   4   2  -6 17358.5 513.133   1
   4   4 -11 4886.27 492.017   1
   3   4  -9 15398.0 597.660   1
  -2   5  -7 13921.3 397.127   1
   5  -4   2 32663.1 575.764  -2
   5   0  -4 32663.1 575.764   1
   5  -7   8 16534.5 692.331  -2
   5   3 -10 16534.5 692.331   1
   6  -1  -4 1684.85 211.360   1
   4   3  -8 15532.3 582.808   1
   1   5  -9 31114.0 750.341   1
   0  -5   8 12806.4 467.020  -2
   0   5  -8 12806.4 467.020   1
   1  -3   2 71715.0 590.951   1
   0  -6  11 11904.7 569.688  -2
   0   6 -11 11904.7 569.688   1
   3   5 -12 14375.4 707.054   1
   2   5 -10 3337.92 408.435   1
  -1   6 -10 7872.22 442.153   1
   7   0  -7 3312.45 365.133   1
   2   0  -1 35034.8 340.785   1
   6   2  -9 14657.3 656.870   1
   4   1  -4 9788.62 349.661   1
   1   6 -12 10559.9 622.581   1
   5  -6   5 20134.2 626.444  -2
   5   2  -7 20134.2 626.444   1
   8   0  -9 8338.12 601.098   1
   2  -1   0 258866. 2121.32   1
   7  -2  -4 4078.41 265.738   1
   2   4  -7 4418.24 347.830   1
   1   4  -6 8696.95 374.913   1
   2   3  -5 26337.5 559.119   1
   5  -7   7 16907.6 678.085  -2
   5   3  -9 16907.6 678.085   1
   3   3  -6 7536.49 391.985   1
   6   0  -5 13328.7 459.900   1
   3   5 -11 5997.99 549.698   1
   0  -1   1 15796.1 187.994  -2
   0   1  -1 15796.1 187.994   1
  -1  -1   1 15385.6 250.193   1
  -2  -1   1 23760.1 368.076   1
   3  -5   2 52039.9 584.387   1
   3   4  -8 7953.42 458.817   1
   5  -5   3 86541.5 1050.42  -2
   5   1  -5 86541.5 1050.42   1
   0  -6  10 47314.9 966.435  -2
   0   6 -10 47314.9 966.435   1
  -2   3  -3 15373.5 246.958   1
   2  -4   2 2355.75 150.014   1
   1   6 -11 14315.5 648.563   1
   1   5  -8 19875.3 607.136   1
   2   1  -2 45339.2 504.448   1
  -4   1  -1 13149.8 244.436   1
   7  -1  -5 26522.0 612.880   1
   2   5  -9 19001.4 654.479   1
  -4   2  -2 525.696 53.5332   1
   4   3  -7 5416.65 395.282   1
  -1   6  -9 7360.59 422.694   1
  -3   3  -3 53975.6 345.872   1
   1   3  -4 12756.3 354.629   1
   0  -5   7 30770.0 658.488  -2
   0   5  -7 30770.0 658.488   1
   0  -4   5 78186.8 866.244  -2
   0   4  -5 78186.8 866.244   1
   4   4  -9 14384.1 626.097   1
   3   2  -4 7270.14 312.997   1
   7   2 -10 5517.01 555.168   1
   4   2  -5 22571.6 566.070   1
  -3   0   0 4752.55 174.683   1
   6   1  -6 8499.90 449.070   1
  -1   3  -3 111151. 751.167   1
   5  -7   6 6001.24 460.583  -2
   5   3  -8 6001.24 460.583   1
   7   0  -6 6412.49 414.511   1
  -2   5  -6 35243.8 580.027   1
   0  -2   2 41877.1 432.013  -2
   0   2  -2 41877.1 432.013   1
  -3   5  -6 40520.9 563.998   1
   5  -6   4 24072.5 654.313  -2
   5   2  -6 24072.5 654.313   1
   8  -2  -5 3122.45 307.346   1
  -2   6  -8 7543.31 365.556   1
   5  -8   8 12175.2 650.673  -2
   5   4 -10 12175.2 650.673   1
   2   4  -6 13410.0 484.441   1
   2   5  -8 8874.78 484.360   1
  -1   5  -6 1985.44 232.398   1
   8  -1  -6 4147.75 379.262   1
  -1   6  -8 55125.9 920.208   1
   3   5  -9 14224.7 649.856   1
   7   2  -9 5163.33 520.356   1
   3   3  -5 60092.1 903.263   1
   8   1  -9 4953.23 533.492   1
   1   4  -5 59534.3 843.316   1
   7   1  -7 3790.42 428.438   1
   5  -3   0 40816.9 538.489  -2
   5  -1  -2 40816.9 538.489   1
   1   6  -9 15139.5 621.524   1
   2   6 -10 6317.35 535.369   1
   6  -1  -3 12150.0 376.556   1
  -2   4  -4 114627. 838.025   1
   0  -3   3 2203.91 162.416  -2
   0   3  -3 2203.91 162.416   1
   4   5 -10 19697.6 812.151   1
   4   0  -2 38783.5 533.654   1
   2   3  -4 9184.85 355.626   1
   0  -5   6 3926.19 301.101  -2
   0   5  -6 3926.19 301.101   1
   0  -6   8 59452.0 1020.35  -2
   0   6  -8 59452.0 1020.35   1
   5  -7   5 21865.8 710.684  -2
   5   3  -7 21865.8 710.684   1
   5  -8   7 37070.4 1008.97  -2
   5   4  -9 37070.4 1008.97   1
   5  -5   2 30839.1 644.601  -2
   5   1  -4 30839.1 644.601   1
   4   1  -3 7835.32 320.273   1
  -1   4  -4 2679.47 198.544   1
  -1   7 -10 12305.2 565.076   1
  -2   0   0 4886.88 144.141   1
   6  -2  -2 19765.2 383.925   1
   7  -1  -4 4458.58 311.081   1
   6   1  -5 2704.92 327.983   1
   2   5  -7 12967.6 541.461   1
   3   5  -8 4549.66 444.879   1
  -3   4  -4 63031.6 538.056   1
   4  -1  -1 33414.2 403.340   1
   1  -2   1 6387.90 146.977   1
  -2   6  -7 10559.7 412.762   1
   6   3  -8 5296.28 495.418   1
   2   6  -9 45418.4 1032.32   1
   7   0  -5 4151.37 362.370   1
   1   2  -2 24551.7 395.368   1
   5  -6   3 35322.6 757.944  -2
   5   2  -5 35322.6 757.944   1
   4   4  -7 24225.1 741.266   1
  -1  -2   1 35119.8 485.539   1
   7  -2  -3 3924.23 250.741   1
   4   5  -9 21732.9 792.482   1
   1   6  -8 5683.75 441.425   1
  -1   6  -7 9529.62 422.002   1
   0  -4   4 13917.6 383.432  -2
   0   4  -4 13917.6 383.432   1
   3   1  -2 20480.8 402.879   1
   1   1  -1 14532.5 243.350   1
   2   4  -5 5634.48 342.564   1
   4  -5   1 2256.08 158.701   1
   5  -2  -1 39170.2 414.923  -2
   5  -2  -1 39170.2 414.923   1
  -3   1  -1 33805.0 308.921   1
   3   2  -3 60274.0 772.351   1
   5  -8   6 12498.8 629.575  -2
   5   4  -8 12498.8 629.575   1
   1   3  -3 12503.4 346.838   1
   7   1  -6 15215.0 598.331   1
   0   2  -1 388402. 5308.19  -2
   0  -2   1 388402. 5308.19   1
  -2   5  -5 10689.8 332.798   1
  -1   5  -5 16168.8 431.566   1
   8  -1  -5 5005.39 361.408   1
   3   0  -1 99975.5 702.023   1
   5  -7   4 61259.1 1073.86  -2
   5   3  -6 61259.1 1073.86   1
   0  -7   9 48524.5 1007.61  -2
   0   7  -9 48524.5 1007.61   1
   8   0  -6 4122.24 396.683   1
  -1   0   0 157954. 2014.24   1
   6   4  -9 6117.84 585.580   1
   2   6  -8 11546.6 580.916   1
   3   6  -9 4018.56 476.326   1
   7   2  -7 4011.79 476.906   1
   1   4  -4 49888.8 747.114   1
   0  -5   5 29893.6 615.380  -2
   0   5  -5 29893.6 615.380   1
  -3   5  -5 6497.85 249.719   1
   6   3  -7 15447.6 652.577   1
   2   5  -6 44064.2 867.647   1
   4   4  -6 32679.5 812.857   1
   5  -9   7 5049.90 531.351  -2
   5   5  -9 5049.90 531.351   1
   1   7  -9 10368.7 586.226   1
   0  -8  11 22106.3 817.306  -2
   0   8 -11 22106.3 817.306   1
  -2   7  -8 7557.54 396.461   1
   2  -3   1 31891.6 347.476   1
   3   4  -5 14257.5 528.528   1
  -1   7  -8 23974.6 676.442   1
   5  -8   5 21032.4 750.473  -2
   5   4  -7 21032.4 750.473   1
   2   2  -2 7813.73 275.983   1
   3  -5   1 70853.3 731.962   1
   2   3  -3 3396.70 246.504   1
   7   3  -8 4622.53 534.144   1
   5  -5   1 61530.7 845.438  -2
   5   1  -3 61530.7 845.438   1
   6   0  -3 15105.0 448.627   1
  -2  -1   0 2555.03 157.277   1
   1   5  -5 11396.1 450.297   1
   0  -7   8 78372.6 1232.92  -2
   0   7  -8 78372.6 1232.92   1
   5  -6   2 21533.3 602.427  -2
   5   2  -4 21533.3 602.427   1
   1  -3   1 38650.6 470.049   1
   7   0  -4 22788.7 590.644   1
   0  -6   6 43882.1 835.569  -2
   0   6  -6 43882.1 835.569   1
   6  -3  -1 43733.1 385.258   1
   2   4  -4 10464.0 424.770   1
   5  -4   0 59622.4 733.014  -2
   5   0  -2 59622.4 733.014   1
   2   1  -1 22221.7 359.203   1
   4   5  -7 4337.94 457.707   1
   4   2  -3 15564.9 463.796   1
   2  -4   1 30223.8 456.601   1
  -3   6  -6 8456.27 315.926   1
   5  -7   3 25527.4 703.731  -2
   5   3  -5 25527.4 703.731   1
   3   5  -6 27453.6 772.294   1
   4   1  -2 40903.5 627.757   1
   7   2  -6 13219.5 617.224   1
   4   3  -4 28566.9 683.817   1
   7  -1  -3 2225.76 242.337   1
   6   3  -6 32174.6 859.686   1
   6  -1  -2 8386.38 302.431   1
   8   0  -5 3153.20 356.290   1
   1   6  -6 5221.82 397.537   1
   2   5  -5 43015.4 862.834   1
  -1   3  -2 67479.8 589.558   1
   0  -4   3 8426.25 309.702  -2
   0   4  -3 8426.25 309.702   1
   0  -3   2 44890.8 558.349  -2
   0   3  -2 44890.8 558.349   1
   5  -8   4 18703.8 709.122  -2
   5   4  -6 18703.8 709.122   1
  -1   8  -9 11978.9 572.376   1
  -2   7  -7 6458.30 368.019   1
   4   4  -5 18092.8 626.369   1
   8  -1  -4 2583.72 281.323   1
  -1   5  -4 84658.7 934.598   1
   7   3  -7 5629.10 527.547   1
  -4   4  -4 1441.73 70.3246   1
   3   3  -3 76864.6 997.558   1
  -2   4  -3 27389.1 412.300   1
   3   7  -9 14318.0 753.193   1
   8   2  -7 18044.5 740.774   1
   0  -7   7 7939.44 469.987  -2
   0   7  -7 7939.44 469.987   1
   0  -8   9 9782.95 595.953  -2
   0   8  -9 9782.95 595.953   1
   3   6  -7 7894.55 558.963   1
   3   2  -2 63544.2 802.016   1
   2   7  -8 6597.57 553.771   1
  -2   5  -4 47488.8 640.030   1
   1   4  -3 51804.0 774.069   1
   4   0  -1 9751.82 286.603   1
   1   3  -2 151643. 1137.53   1
   2   6  -6 12181.2 571.255   1
   5  -9   5 16533.4 752.317  -2
   5   5  -7 16533.4 752.317   1
  -1   6  -5 10070.2 412.348   1
   1   8  -9 14808.8 705.526   1
   1   7  -7 16301.1 669.638   1
   1   0   0 161723. 2078.86   1
   5  -3  -1 80994.7 723.576  -2
   5  -1  -1 80994.7 723.576   1
   0  -6   5 105177. 1257.74  -2
   0   6  -5 105177. 1257.74   1
  -2   6  -5 11781.4 397.125   1
   3   5  -5 7484.86 468.613   1
   6   2  -4 26694.2 726.949   1
   3  -1   0 45799.1 354.547   1
  -1  -1   0 138636. 783.077   1
   0  -2   1 364681. 5148.84  -2
   0   2  -1 364681. 5148.84   1
  -1   8  -8 5398.88 443.549   1
   7  -2  -2 23879.4 455.430   1
   3   1  -1 1527.42 162.060   1
   6   3  -5 10508.8 558.796   1
   7   2  -5 3992.39 423.930   1
   7   1  -4 10796.8 476.943   1
   5  -6   1 101591. 1211.58  -2
   5   2  -3 101591. 1211.58   1
   5  -7   2 19834.7 635.018  -2
   5   3  -4 19834.7 635.018   1
  -2   3  -2 33893.0 348.751   1
   4  -2   0 12497.9 161.184   1
   4   6  -7 6623.26 583.212   1
   2   8  -9 8299.29 646.028   1
   1   6  -5 20148.6 637.447   1
   2   4  -3 76151.5 1011.93   1
   1   2  -1 31302.8 454.484   1
   2   7  -7 17496.7 721.669   1
  -1   7  -6 4416.88 359.529   1
   2   3  -2 24525.9 530.452   1
   3   6  -6 13144.8 628.579   1
   7   0  -3 33901.3 703.950   1
   5  -5   0 33747.0 651.857  -2
   5   1  -2 33747.0 651.857   1
   4   3  -3 61144.5 966.791   1
   8   2  -6 14624.7 689.294   1
   0  -7   6 7948.63 472.918  -2
   0   7  -6 7948.63 472.918   1
  -3   5  -4 5701.67 222.845   1
  -2   7  -6 8757.28 409.433   1
  -3   6  -5 11623.1 360.559   1
   6   0  -2 19998.8 501.968   1
   4   2  -2 5445.69 326.050   1
   5  -9   4 4513.70 496.495  -2
   5   5  -6 4513.70 496.495   1
  -1   2  -1 6107.70 149.416   1
   1   7  -6 7665.78 519.948   1
   4   5  -5 13447.1 637.217   1
   2   0   0 4763.68 148.844   1
   4  -5   0 21633.0 402.670   1
   2   2  -1 37288.7 567.466   1
  -1   8  -7 10096.7 547.213   1
   3   4  -3 17812.5 572.484   1
   0  -9   9 14447.2 754.186  -2
   0   9  -9 14447.2 754.186   1
   0  -8   7 44683.2 1028.34  -2
   0   8  -7 44683.2 1028.34   1
  -3   4  -3 33977.6 380.030   1
  -2   8  -7 6901.72 446.806   1
   0  -5   3 139684. 1300.95  -2
   0   5  -3 139684. 1300.95   1
   3   5  -4 15138.9 606.118   1
   3   3  -2 2810.78 272.373   1
  -1   5  -3 3474.55 256.892   1
  -1   6  -4 8124.82 393.300   1
   0  -6   4 31105.3 718.209  -2
   0   6  -4 31105.3 718.209   1
   0  -4   2 31290.0 564.379  -2
   0   4  -2 31290.0 564.379   1
   4   1  -1 36110.5 602.444   1
   1   5  -3 21565.3 596.207   1
   7   2  -4 10519.1 543.882   1
   5  -4  -1 64825.8 771.780  -2
   5   0  -1 64825.8 771.780   1
   6   4  -5 4770.60 501.517   1
   6   2  -3 20516.0 638.472   1
   0   2   0 19929.2 337.197  -2
   0  -2   0 19929.2 337.197   1
   5  -8   2 24183.1 773.740  -2
   5   4  -4 24183.1 773.740   1
   1   4  -2 83033.2 984.616   1
   5  -7   1 20999.4 658.056  -2
   5   3  -3 20999.4 658.056   1
  -1   7  -5 5112.65 385.419   1
  -1   4  -2 60582.8 695.109   1
   0  -7   5 14109.8 572.123  -2
   0   7  -5 14109.8 572.123   1
  -2   6  -4 10561.2 377.260   1
  -2   1  -1 58896.6 288.610   1
   5  -9   3 4158.63 510.013  -2
   5   5  -5 4158.63 510.013   1
   3   2  -1 6586.09 301.978   1
   8   1  -4 12661.9 576.397   1
   2   8  -7 8315.22 633.047   1
  -2   7  -5 26749.7 638.412   1
  -4   2  -3 21566.8 298.188   1
   5  -6   0 47764.5 858.025  -2
   5   2  -2 47764.5 858.025   1
   1   7  -5 5271.75 458.694   1
  -2   0  -1 47704.1 454.471   1
   4   5  -4 15082.6 652.811   1
   3   0   0 4138.72 177.064   1
   2   6  -4 38334.3 917.341   1
   2   4  -2 56714.6 899.918   1
  -1   8  -6 17761.7 662.545   1
   0  -8   6 49302.7 1081.62  -2
   0   8  -6 49302.7 1081.62   1
   4   3  -2 15610.4 541.343   1
   1   3  -1 26344.5 510.907   1
   0  -3   1 37868.3 538.615  -2
   0   3  -1 37868.3 538.615   1
   4  -1   0 3196.84 152.762   1
   0   1   0 41830.4 338.118  -2
   0  -1   0 41830.4 338.118   1
   3  -4   0 9929.57 261.847   1
   4  -4   0 17710.7 282.966   1
   8   0  -3 5185.59 388.208   1
   1   1   0 132128. 762.831   1
   3   5  -3 14510.0 595.511   1
   7   0  -2 5416.90 358.714   1
   3   6  -4 13316.3 637.407   1
  -3   7  -5 3013.79 277.510   1
   2   1   0 2630.38 171.161   1
   3   4  -2 3437.47 347.768   1
  -3   6  -4 22105.3 478.187   1
  -2   4  -2 2068.11 156.346   1
   6   4  -4 8257.75 581.900   1
   7   3  -4 7410.57 548.453   1
  -3   1  -2 207239. 927.877   1
   5  -5  -1 8787.62 382.262  -2
   5   1  -1 8787.62 382.262   1
   4   2  -1 2642.62 283.187   1
   6   5  -5 6045.99 614.489   1
   0  -6   3 2960.85 338.533  -2
   0   6  -3 2960.85 338.533   1
   0  -7   4 26130.0 750.293  -2
   0   7  -4 26130.0 750.293   1
   3   7  -5 15689.2 754.602   1
   5  -8   1 18561.2 699.220  -2
   5   4  -3 18561.2 699.220   1
   5  -9   2 10417.5 642.796  -2
   5   5  -4 10417.5 642.796   1
   1   9  -7 20015.4 863.451   1
  -1   6  -3 13969.3 477.857   1
  -1   7  -4 9691.49 472.491   1
   1   6  -3 39980.1 881.571   1
  -1   3  -1 35214.5 461.047   1
   0  -5   2 139341. 1339.71  -2
   0   5  -2 139341. 1339.71   1
   1   5  -2 6029.24 378.530   1
   3   3  -1 9447.12 419.254   1
   5  -7   0 6834.52 457.931  -2
   5   3  -2 6834.52 457.931   1
  -1   8  -5 8183.67 495.215   1
   4   0   0 5624.17 244.543   1
   2  -3   0 152167. 850.674   1
   3   1   0 69637.2 762.480   1
  -1   5  -2 53956.9 782.482   1
   2   6  -3 15476.6 639.555   1
   4   6  -4 9007.35 608.070   1
  -2   7  -4 20619.0 576.174   1
   1   8  -5 7974.14 591.370   1
  -4   5  -4 17006.7 282.012   1
   2   5  -2 5432.76 405.864   1
   1  -2   0 6805.24 171.893   1
   8   1  -3 5278.04 431.386   1
   2   7  -4 4319.04 491.655   1
  -2   6  -3 11830.0 410.410   1
  -2   8  -5 3598.55 352.390   1
   0  -9   6 11160.7 673.418  -2
   0   9  -6 11160.7 673.418   1
   0  -4   1 21525.0 498.192  -2
   0   4  -1 21525.0 498.192   1
   0  -1   0 40503.1 339.083  -2
   0   1   0 40503.1 339.083   1
   1   2   0 24704.2 443.595   1
   2   8  -5 6898.94 588.852   1
   2   2   0 18347.1 430.544   1
   5  -2  -2 7250.37 169.724  -2
   5  -2   0 7250.37 169.724   1
   2   4  -1 12240.4 482.453   1
   7  -2  -1 15689.4 353.711   1
   3   7  -4 17993.9 797.657   1
  -1  -1  -1 3161.25 156.242   1
   5  -3  -2 2161.81 164.106  -2
   5  -1   0 2161.81 164.106   1
   6   1  -1 9898.08 453.775   1
   4   1   0 22974.1 517.000   1
   5  -9   1 5321.77 540.889  -2
   5   5  -3 5321.77 540.889   1
  -2   5  -2 19710.2 454.116   1
   0  -7   3 74017.7 1227.92  -2
   0   7  -3 74017.7 1227.92   1
   7  -1  -1 7810.47 332.078   1
  -1   4  -1 62771.2 757.060   1
  -3   7  -4 4525.54 313.496   1
   0  -8   4 14480.9 677.363  -2
   0   8  -4 14480.9 677.363   1
   1   7  -3 9353.03 569.901   1
   3   4  -1 17079.1 596.425   1
   0  -6   2 25230.5 687.392  -2
   0   6  -2 25230.5 687.392   1
  -1   7  -3 11644.4 522.140   1
   0  -2   0 19791.8 347.282  -2
   0   2   0 19791.8 347.282   1
   5  -4  -2 57084.9 753.285  -2
   5   0   0 57084.9 753.285   1
   3  -3   0 89428.1 547.821   1
   1   8  -4 25362.6 900.500   1
   2   7  -3 6636.20 576.580   1
  -1   6  -2 27000.5 663.164   1
   0   2   1 219057. 1168.46  -2
   0  -2  -1 219057. 1168.46   1
   1   3   0 2562.74 232.433   1
   2   3   0 31930.7 658.971   1
   1   5  -1 3342.64 344.341   1
   5  -7  -1 19100.7 673.773  -2
   5   3  -1 19100.7 673.773   1
  -3   6  -3 17043.4 439.721   1
   0  -5   1 36771.0 747.132  -2
   0   5  -1 36771.0 747.132   1
   4   2   0 52426.2 880.471   1
   6   2  -1 3571.33 407.546   1
  -2   9  -5 8414.01 535.344   1
   4   4  -1 14645.3 615.748   1
   2   5  -1 7774.05 485.609   1
   5  -5  -2 38713.9 730.301  -2
   5   1   0 38713.9 730.301   1
   3   7  -3 4861.63 593.618   1
   3   6  -2 18288.0 764.429   1
   3   3   0 20673.5 605.397   1
   0  -3   0 7717.78 291.260  -2
   0   3   0 7717.78 291.260   1
   3  -4  -1 31934.6 493.303   1
   6   4  -2 9765.74 631.510   1
  -1   5  -1 35291.3 685.420   1
  -2   6  -2 108667. 1186.64   1
   5  -9   0 29305.0 962.347  -2
   5   5  -2 29305.0 962.347   1
   7   1  -1 10270.5 522.873   1
   0  -8   3 10143.0 624.847  -2
   0   8  -3 10143.0 624.847   1
  -2   0  -2 22044.2 353.952   1
  -2   3  -1 31869.6 378.751   1
   0  -7   2 16449.6 658.666  -2
   0   7  -2 16449.6 658.666   1
   1   8  -3 9518.44 653.381   1
   1   4   0 46222.3 820.349   1
   0  -9   4 27117.5 948.441  -2
   0   9  -4 27117.5 948.441   1
  -1   8  -3 10376.4 567.500   1
   6  -1   0 10554.9 341.351   1
   2   4   0 12005.4 502.212   1
  -1   9  -4 22314.9 817.642   1
   4   3   0 18802.3 633.889   1
   5  -6  -2 35131.8 793.338  -2
   5   2   0 35131.8 793.338   1
   6   0   0 16680.3 488.304   1
   5  -8  -1 21881.6 778.864  -2
   5   4  -1 21881.6 778.864   1
  -3   4  -2 24500.5 347.167   1
  -1   7  -2 33534.1 816.125   1
   6   3  -1 10553.9 588.386   1
   1   6  -1 16660.9 649.895   1
  -2   4  -1 29310.6 477.500   1
  -3   1  -3 21026.9 351.455   1
   0  -4   0 33807.5 655.206  -2
   0   4   0 33807.5 655.206   1
   0  -6   1 36589.2 834.027  -2
   0   6  -1 36589.2 834.027   1
   4   5  -1 18516.6 770.139   1
   3   4   0 27423.0 760.035   1
   2   6  -1 8466.77 560.228   1
  -2   8  -3 23127.1 724.636   1
   4  -4  -1 27734.1 421.287   1
   6   1   0 57852.4 963.417   1
  -3   5  -2 46716.3 605.926   1
   3   1   1 129531. 1091.94   1
   6  -2   0 5574.30 184.731   1
   2   1   1 71651.5 727.462   1
   3   6  -1 30794.2 947.806   1
   3   0   1 20499.8 363.182   1
   2  -2   0 50651.7 339.643   1
   1   5   0 37641.3 830.539   1
   2   2   1 56304.1 769.996   1
   5  -7  -2 18961.9 677.855  -2
   5   3   0 18961.9 677.855   1
  -2   5  -1 23442.4 511.789   1
   4   4   0 12291.2 579.036   1
   2   5   0 36778.2 876.932   1
   3   2   1 14655.8 461.244   1
  -1  -1  -2 25804.9 406.852   1
   0  -5   0 15341.8 523.938  -2
   0   5   0 15341.8 523.938   1
   0  -9   3 5052.59 558.373  -2
   0   9  -3 5052.59 558.373   1
   6   4  -1 7006.17 587.714   1
   4   1   1 37626.6 664.483   1
   5  -9  -1 20083.8 826.499  -2
   5   5  -1 20083.8 826.499   1
   4   0   1 46005.0 610.187   1
  -1   4   0 11649.8 369.416   1
  -1   9  -3 19107.3 771.443   1
  -1   2   0 7069.09 182.605   1
   1   2   1 118753. 997.461   1
   5   0  -1 41918.1 444.174  -2
   5  -4  -1 41918.1 444.174   1
   1   7  -1 26354.5 854.068   1
  -3   6  -2 2964.11 251.348   1
   2   3   1 56004.5 881.248   1
  -1   0  -1 8642.94 154.093   1
   2   8  -2 14504.7 798.533   1
   4   2   1 49948.7 876.025   1
   2   0   1 48460.8 446.803   1
   2   7  -1 8623.06 629.043   1
   3   3   1 9771.70 449.384   1
   1   3   1 10825.7 390.793   1
  -2   6  -1 19177.4 545.209   1
   7   0   0 7514.07 385.009   1
   1   1   1 3286.30 161.093   1
  -1   7  -1 4378.68 404.717   1
  -2   9  -3 6872.46 531.120   1
   5  -8  -2 17126.7 736.064  -2
   5   4   0 17126.7 736.064   1
   7  -1   0 23316.6 497.825   1
   5  -5  -3 49680.0 831.656  -2
   5   1   1 49680.0 831.656   1
   5  -4  -3 52378.4 729.680  -2
   5   0   1 52378.4 729.680   1
  -2   8  -2 6567.61 467.760   1
   2   6   0 16383.2 713.032   1
   7   1   0 12166.1 525.390   1
   2   4   1 19156.5 621.974   1
   0  -6   0 33451.6 823.010  -2
   0   6   0 33451.6 823.010   1
   1   4   1 45650.6 844.692   1
  -4   3  -4 12895.7 210.584   1
  -3   7  -2 16588.6 519.962   1
  -4   6  -3 11295.5 325.603   1
  -4   5  -3 40289.5 421.383   1
   5  -6  -3 8172.22 452.256  -2
   5   2   1 8172.22 452.256   1
   3   6   0 10191.3 641.551   1
   4  -1   1 13772.4 262.279   1
   0  -9   2 14415.4 765.691  -2
   0   9  -2 14415.4 765.691   1
   0  -3  -1 37750.5 618.964  -2
   0   3   1 37750.5 618.964   1
   0   1   1 211221. 3423.16  -2
   0  -1  -1 211221. 3423.16   1
   0  -8   1 10258.0 623.279  -2
   0   8  -1 10258.0 623.279   1
  -2   7  -1 30010.0 746.877   1
  -1   6   0 18935.2 613.261   1
   0  -4  -1 151068. 1390.75  -2
   0   4   1 151068. 1390.75   1
   1   5   1 13025.2 571.433   1
   4   4   1 3785.19 439.472   1
   0  -2  -1 219788. 1189.28  -2
   0   2   1 219788. 1189.28   1
  -1   8  -1 12968.0 628.888   1
   1   7   0 19013.1 791.933   1
   5  -3  -3 7900.86 250.791  -2
   5  -1   1 7900.86 250.791   1
   0  -7   0 33274.4 917.504  -2
   0   7   0 33274.4 917.504   1
   6   1   1 7520.07 445.497   1
   3   5   1 5501.78 502.033   1
  -3   8  -2 10310.0 493.097   1
   0  -5  -1 34612.9 783.317  -2
   0   5   1 34612.9 783.317   1
   3  -1   1 34878.7 314.796   1
   6   2   1 14515.8 601.796   1
   3  -3  -1 1113.84 110.610   1
  -1   7   0 26224.2 808.527   1
  -2   4   0 37516.5 558.629   1
   5  -8  -3 12549.4 669.849  -2
   5   4   1 12549.4 669.849   1
   1   6   1 8553.82 544.607   1
  -3   5  -1 69783.6 768.793   1
   4   5   1 10749.6 648.017   1
   3   2   2 4386.08 324.863   1
  -3   6  -1 16337.6 470.985   1
   0  -9   1 31903.0 1047.99  -2
   0   9  -1 31903.0 1047.99   1
   2   3   2 13924.0 512.423   1
   2   2   2 3192.85 264.256   1
   0  -6  -1 63131.4 1133.39  -2
   0   6   1 63131.4 1133.39   1
   6   3   1 4768.68 474.617   1
   3   1   2 26763.9 527.658   1
   0  -8   0 6362.24 565.924  -2
   0   8   0 6362.24 565.924   1
   4   1   2 27792.7 596.932   1
   6  -1   1 28062.4 476.081   1
  -1   5   1 66835.8 992.283   1
   2   4   2 26060.7 733.376   1
  -3   7  -1 8388.35 414.544   1
   1   3   2 4955.05 317.067   1
   4   3   2 52138.0 1025.56   1
   3   4   2 3319.01 420.603   1
   1   4   2 3242.54 348.758   1
   5   0   0 38287.9 504.907  -2
   5  -4  -2 38287.9 504.907   1
  -2   7   0 22078.1 679.002   1
   5  -9  -3 11705.0 700.079  -2
   5   5   1 11705.0 700.079   1
  -1   3   1 61957.4 697.311   1
  -1   8   0 19876.4 777.101   1
  -2   1  -2 3238.50 106.014   1
   2   1   2 21337.7 430.360   1
  -1   6   1 30330.6 780.628   1
   1   2   2 205698. 1363.69   1
   5  -6  -4 26295.3 733.341  -2
   5   2   2 26295.3 733.341   1
   1  -2  -2 1944.70 145.906   1
   2   7   1 6171.97 610.463   1
   5  -5  -4 26879.0 647.391  -2
   5   1   2 26879.0 647.391   1
  -3   2  -3 83851.4 502.876   1
   0  -7  -1 6553.31 552.295  -2
   0   7   1 6553.31 552.295   1
   2   5   2 25656.6 817.019   1
  -2   3   0 150930. 849.532   1
   4   4   2 11727.8 635.815   1
   1   5   2 6942.60 477.837   1
  -3   8  -1 5287.57 391.157   1
  -4   7  -2 27065.7 587.349   1
   3   5   2 24260.6 848.769   1
   5  -7  -4 13003.4 631.192  -2
   5   3   2 13003.4 631.192   1
   4   0   2 15552.4 375.746   1
   1   0   1 8860.19 154.257   1
   0  -4  -2 22956.3 606.206  -2
   0   4   2 22956.3 606.206   1
   0  -1  -1 214387. 3471.19  -2
   0   1   1 214387. 3471.19   1
   7   3   1 13562.1 685.862   1
   0  -3  -2 21014.0 496.255  -2
   0   3   2 21014.0 496.255   1
   5  -4  -4 2920.56 231.957  -2
   5   0   2 2920.56 231.957   1
   1   6   2 18660.9 743.895   1
   2   6   2 15002.3 747.055   1
   5  -8  -4 33544.6 997.393  -2
   5   4   2 33544.6 997.393   1
   1   8   1 8535.53 716.238   1
   6   2   2 19385.7 696.874   1
   0  -8  -1 10321.2 692.537  -2
   0   8   1 10321.2 692.537   1
   0   1   2 224710. 1032.00  -2
   0  -1  -2 224710. 1032.00   1
  -3   9  -1 4266.20 452.514   1
   0  -6  -2 11615.3 593.667  -2
   0   6   2 11615.3 593.667   1
  -2   5   1 57250.2 862.222   1
   3  -3  -2 37430.2 489.586   1
   6   3   2 6635.14 556.443   1
  -3   6   0 4848.36 307.806   1
  -1   0  -2 66168.2 499.002   1
  -1   8   1 6861.93 561.752   1
  -3   7   0 6800.80 430.046   1
   3   3   3 12467.7 565.933   1
   1   1   2 29300.9 439.099   1
  -2   7   1 29001.6 800.038   1
   2   4   3 67437.3 1194.40   1
   2   7   2 5843.63 654.006   1
   3   2   3 22584.9 609.065   1
   6   0   2 16929.3 496.173   1
  -1   5   2 15599.4 554.419   1
   4  -3  -1 3363.24 137.517   1
  -3   5   0 4064.99 245.524   1
   0  -7  -2 9156.13 626.866  -2
   0   7   2 9156.13 626.866   1
   4   3   3 16421.8 678.178   1
  -2   4   1 20012.0 447.927   1
  -1   2   1 875.747 110.005   1
   0  -2  -2 386937. 1701.13  -2
   0   2   2 386937. 1701.13   1
  -1   4   2 11039.5 413.950   1
  -3   8   0 6374.30 460.475   1
   1   4   3 11077.1 531.762   1
   2   2   3 60653.2 879.596   1
   2   5   3 6077.18 531.788   1
  -4   5  -2 1908.70 128.951   1
   2  -2  -1 15634.1 243.495   1
   1   3   3 41931.9 787.717   1
   1   5   3 8249.77 531.847   1
   3   5   3 23193.6 894.287   1
  -3   2  -4 7740.43 208.465   1
  -2   8   1 5725.78 520.068   1
  -4   7  -1 61128.6 911.148   1
   7   1   2 11933.4 558.609   1
  -1   9   1 10884.1 772.287   1
   4   1   3 37256.6 711.667   1
  -1   7   2 21140.1 804.616   1
   5  -6  -5 51982.8 1035.96  -2
   5   2   3 51982.8 1035.96   1
   2   0   2 22311.4 342.212   1
   5  -7  -5 5150.30 515.932  -2
   5   3   3 5150.30 515.932   1
   3   1   3 15225.8 437.269   1
   0  -8  -2 22066.1 927.294  -2
   0   8   2 22066.1 927.294   1
   1   6   3 24710.2 893.147   1
  -3   9   0 9103.64 594.936   1
   0  -5  -3 118711. 1536.68  -2
   0   5   3 118711. 1536.68   1
  -2   1  -3 1859.60 116.990   1
   5  -5  -5 4033.74 351.333  -2
   5   1   3 4033.74 351.333   1
   5  -8  -5 6739.12 635.156  -2
   5   4   3 6739.12 635.156   1
  -4   6  -1 19241.4 445.742   1
  -1   3   2 71764.2 803.920   1
   0  -6  -3 49861.8 1122.18  -2
   0   6   3 49861.8 1122.18   1
   1   2   3 4730.21 270.032   1
   5  -3  -4 15613.9 334.860  -2
   5  -1   2 15613.9 334.860   1
  -2   6   2 4717.49 396.205   1
  -1   0  -3 182169. 967.850   1
   2   1   3 4126.72 239.512   1
  -3   7   1 25088.2 720.379   1
   0  -3  -3 33995.2 656.892  -2
   0   3   3 33995.2 656.892   1
  -3   6   1 5101.92 350.236   1
   5  -2  -3 49194.5 326.924  -2
   5  -2   1 49194.5 326.924   1
  -2   5   2 53368.9 871.185   1
   4  -1   2 30690.1 397.295   1
   6  -2   1 12903.1 217.128   1
   0  -7  -3 16881.3 806.436  -2
   0   7   3 16881.3 806.436   1
  -3   8   1 13101.7 615.713   1
  -3   4   0 10307.2 260.949   1
   2   4   4 4870.02 470.728   1
   3   3   4 11842.8 575.707   1
  -1   5   3 21902.6 666.099   1
  -1   6   3 9546.35 562.544   1
   4   0   3 3201.48 241.211   1
   5  -4  -5 7120.46 339.450  -2
   5   0   3 7120.46 339.450   1
   1   4   4 6092.54 465.706   1
  -1   7   3 22497.5 831.771   1
   4  -3  -2 49745.7 531.360   1
  -4   7   0 5956.01 365.796   1
  -3   9   1 9833.24 634.500   1
  -1   4   3 13217.6 473.290   1
   2   6   4 9643.99 704.083   1
   2  -2  -2 56800.0 534.022   1
  -2   4   2 33147.1 593.790   1
   1   6   4 5053.38 542.393   1
   1   3   4 19404.6 587.461   1
   5  -7  -6 11724.3 665.778  -2
   5   3   4 11724.3 665.778   1
  -2   9   2 7837.74 657.132   1
   2   2   4 42041.3 771.423   1
   3   0   3 27369.1 466.517   1
   0  -5  -4 44248.3 1013.72  -2
   0   5   4 44248.3 1013.72   1
   5  -1  -1 54973.7 432.402  -2
   5  -3  -1 54973.7 432.402   1
   5  -6  -6 7336.01 505.095  -2
   5   2   4 7336.01 505.095   1
   6   0   3 4456.76 313.946   1
   0  -2  -3 3773.03 231.986  -2
   0   2   3 3773.03 231.986   1
  -4   6   0 5534.07 286.770   1
   4   1   4 11035.6 437.197   1
   2  -1   1 59223.2 262.894   1
  -2   6   3 14535.3 599.770   1
   1   1   3 5080.22 229.058   1
  -4   5  -1 2331.40 151.242   1
  -2   7   3 20109.7 776.779   1
   0  -1  -2 222663. 1029.59  -2
   0   1   2 222663. 1029.59   1
   3   1   4 10968.5 405.532   1
  -3   6   2 27116.4 671.402   1
   5  -5  -6 4718.02 366.880  -2
   5   1   4 4718.02 366.880   1
  -1   3   3 87673.8 953.089   1
  -1   2   2 2204.58 153.288   1
  -1   6   4 4509.22 489.398   1
   1   2   4 49776.8 782.575   1
  -4   8   1 32116.5 850.430   1
   3   4   5 26397.3 921.023   1
   3  -1   2 207924. 847.096   1
   0  -3  -4 121643. 1287.64  -2
   0   3   4 121643. 1287.64   1
  -1   5   4 3154.67 392.465   1
  -1   7   4 8581.48 643.194   1
   1   5   5 11441.6 665.387   1
   4   4   5 6851.84 665.732   1
   2   3   5 9705.71 529.733   1
   1   4   5 3279.88 431.368   1
   1  -1  -1 22611.2 240.797   1
  -3   5   2 6121.22 333.443   1
  -3   4   1 33275.5 501.306   1
  -1   4   4 33315.4 745.690   1
   2   0   3 2604.08 165.727   1
   3   2   5 3556.39 371.181   1
   4   2   5 20986.8 698.485   1
   1   0   2 65666.9 491.458   1
  -2   4   3 3603.91 280.278   1
   5  -7  -7 25819.9 909.386  -2
   5   3   5 25819.9 909.386   1
  -4   4  -4 1605.08 76.0213   1
  -2   3   2 139970. 1005.89   1
  -3   3  -1 30687.3 228.002   1
   5  -1   0 1690.67 137.561  -2
   5  -3  -2 1690.67 137.561   1
  -3   8   3 28305.4 920.993   1
  -2   2   0 50687.3 327.873   1
  -2   7   4 5000.81 513.404   1
  -4   6   1 8293.16 350.683   1
  -2   6   4 32724.6 882.246   1
   2   2   5 5582.38 385.770   1
   5  -6  -7 5290.02 495.346  -2
   5   2   5 5290.02 495.346   1
   5  -4  -6 79470.4 976.604  -2
   5   0   4 79470.4 976.604   1
   0  -4  -5 11470.5 542.368  -2
   0   4   5 11470.5 542.368   1
   4   0   4 28614.2 564.362   1
   5  -3  -5 47508.0 591.279  -2
   5  -1   3 47508.0 591.279   1
  -4   8   2 17695.3 699.976   1
  -4   5   0 19582.2 375.221   1
   6  -1   3 18498.4 416.680   1
  -2   5   4 10253.4 488.614   1
   0  -2  -4 66591.2 836.161  -2
   0   2   4 66591.2 836.161   1
   6   0   4 4530.62 337.423   1
   3   4   6 14119.8 766.009   1
   1  -1  -2 20947.8 293.094   1
   3   0   4 103206. 952.771   1
   5  -5  -7 11896.8 542.427  -2
   5   1   5 11896.8 542.427   1
   1   5   6 26361.2 964.004   1
   0  -3  -5 83455.7 1134.36  -2
   0   3   5 83455.7 1134.36   1
   3   3   6 4165.02 478.018   1
   1   1   4 74796.4 821.915   1
   1   2   5 4991.51 345.425   1
   1  -1  -3 58492.5 567.218   1
   1   4   6 8439.31 569.519   1
   2   3   6 36960.7 923.739   1
  -1   2   3 2327.92 181.889   1
   0  -6  -6 6439.53 645.685  -2
   0   6   6 6439.53 645.685   1
  -1   4   5 3586.57 366.371   1
  -3   8   4 9020.64 661.678   1
   0  -5  -6 7864.00 607.401  -2
   0   5   6 7864.00 607.401   1
  -3   4   2 54002.9 684.729   1
   0  -1  -3 86139.8 733.972  -2
   0   1   3 86139.8 733.972   1
   3  -2  -1 34679.0 325.519   1
   6   1   5 14078.3 599.066   1
  -4   6   2 29200.5 646.992   1
  -2   4   4 23401.8 589.958   1
   3   2   6 36000.5 870.060   1
   2   1   5 19874.1 520.160   1
   4   2   6 23534.1 770.375   1
  -4   8   3 5116.24 514.768   1
   1   3   6 26294.1 756.030   1
  -3   6   4 12147.1 546.890   1
   0  -4  -6 55313.1 1106.60  -2
   0   4   6 55313.1 1106.60   1
  -2   3   3 59290.2 727.330   1
  -1   6   6 21448.4 880.654   1
   2   2   6 9344.70 480.881   1
   5  -6  -8 20365.9 780.489  -2
   5   2   6 20365.9 780.489   1
   3  -2  -3 37824.7 493.711   1
   2   0   4 34870.1 526.194   1
   5  -4  -7 26623.4 630.600  -2
   5   0   5 26623.4 630.600   1
   4   0   5 14151.6 457.477   1
   0  -2  -5 5629.26 329.609  -2
   0   2   5 5629.26 329.609   1
  -1   3   5 25285.2 621.780   1
  -3   5   4 36477.3 764.728   1
   4   1   6 11694.1 521.110   1
   0  -3  -6 3805.76 371.620  -2
   0   3   6 3805.76 371.620   1
  -1   1   1 21738.3 235.128   1
   3  -1   3 20933.9 326.304   1
  -2   2   1 17345.9 253.596   1
   1   0   3 178452. 950.147   1
   1   2   6 8400.97 434.277   1
  -4   6   3 15504.4 528.393   1
   6  -2   2 1672.36 106.541   1
  -2   7   6 5502.27 635.241   1
   2   3   7 12883.2 660.946   1
  -3   3   0 90981.7 523.793   1
   3   1   6 11847.3 497.712   1
   5  -5  -8 39365.6 898.301  -2
   5   1   6 39365.6 898.301   1
  -4   8   4 10159.1 635.174   1
  -3   4   3 40331.9 655.078   1
   1   1   5 109026. 1076.79   1
   5  -3  -6 58701.3 704.308  -2
   5  -1   4 58701.3 704.308   1
   3   0   5 67193.4 844.044   1
  -2   4   5 46086.3 856.831   1
  -1   2   4 27472.0 517.456   1
   6  -1   4 10478.7 361.410   1
  -4   7   4 17853.1 679.144   1
   0   0   3 3060.38 142.113  -2
   0   0  -3 3060.38 142.113   1
  -4   5   2 24736.4 517.007   1
   1   3   7 40575.3 969.363   1
   0  -4  -7 57796.7 1199.89  -2
   0   4   7 57796.7 1199.89   1
   3   2   7 14275.6 643.516   1
  -1   6   7 8850.70 683.501   1
  -2   3   4 6276.20 304.119   1
   0  -1  -4 40752.9 575.018  -2
   0   1   4 40752.9 575.018   1
  -2   5   6 21890.2 747.229   1
   4  -1   4 38098.4 533.158   1
  -1   5   7 7932.41 604.479   1
   2   2   7 5906.64 475.540   1
  -3   5   5 10329.4 488.666   1
   0   0   2 204844. 3100.96  -2
   0   0  -2 204844. 3100.96   1
  -3   7   6 6158.97 596.201   1
   5  -2  -4 29810.7 270.110  -2
   5  -2   2 29810.7 270.110   1
  -4   6   4 3033.56 369.392   1
  -3   3   1 991.699 106.506   1
   0  -2  -6 4709.19 343.580  -2
   0   2   6 4709.19 343.580   1
   0  -3  -7 54624.1 1052.28  -2
   0   3   7 54624.1 1052.28   1
   1   4   8 17361.3 815.370   1
  -3   4   4 5214.34 310.956   1
   3   3   8 5808.17 623.593   1
   2   0   5 36408.3 593.980   1
  -2   2   2 56620.4 535.828   1
  -1   4   7 41347.4 981.071   1
   0  -5  -8 15720.1 835.771  -2
   0   5   8 15720.1 835.771   1
   2  -1   2 3169.03 103.085   1
   4   0   6 22007.5 578.494   1
   5  -4  -8 13553.4 507.253  -2
   5   0   6 13553.4 507.253   1
   1   2   7 21685.8 665.603   1
  -4   7   5 6585.16 519.939   1
  -2   4   6 19534.6 627.324   1
  -2   2  -4 22571.5 324.669   1
   3   1   7 11539.6 519.336   1
  -1   1   2 18839.7 281.354   1
  -1   2   5 124232. 1160.02   1
   5  -5  -9 7549.79 532.056  -2
   5   1   7 7549.79 532.056   1
   1   1   6 24804.0 585.487   1
  -5  -2   1 2731.27 227.316  -2
  -5   6   1 2731.27 227.316   1
   1   0   4 6173.90 228.990   1
  -2   3   5 19729.6 529.033   1
  -2   5   7 33829.6 953.374   1
   3   2   8 4585.21 507.340   1
   4  -2  -3 1205.61 134.371   1
  -1   5   8 6149.94 578.354   1
   0  -1  -5 151005. 1195.05  -2
   0   1   5 151005. 1195.05   1
   3  -1   4 31527.1 450.910   1
  -3   3   2 38544.7 491.302   1
   2   1   7 42750.2 841.471   1
  -4   6   5 4117.15 404.223   1
  -1   1  -3 86452.1 562.918   1
   5  -3  -7 17834.6 446.958  -2
   5  -1   5 17834.6 446.958   1
  -3   7   7 11866.8 756.930   1
   2   2   8 6556.06 502.361   1
  -3   4   5 11229.9 452.471   1
  -4   5   4 14826.1 483.564   1
  -1   3   7 20828.2 661.590   1
  -5  -2   0 33125.8 616.637  -2
  -5   6   2 33125.8 616.637   1
  -2   2   3 53182.9 591.493   1
   0  -2  -7 27251.4 691.844  -2
   0   2   7 27251.4 691.844   1
   4  -1   5 11798.9 350.540   1
  -1   4   8 10049.6 596.010   1
   2  -1  -3 4516.67 176.215   1
  -5  -3  -2 9664.25 523.031  -2
  -5   7   4 9664.25 523.031   1
  -2   4   7 13314.3 580.016   1
   4  -2  -2 71274.3 574.707   1
  -1   1   3 58146.1 563.473   1
  -4   4   0 17158.9 264.859   1
  -1   2   6 23071.6 568.763   1
  -3   3   3 1825.23 177.889   1
  -2   3   6 2261.24 288.367   1
  -3   3  -3 57726.1 348.032   1
  -4   4   1 27290.8 393.366   1
  -2   5   8 7544.03 578.663   1
   4   1   8 12573.9 600.752   1
   4   0   7 25026.8 644.069   1
   5  -4  -9 3040.48 352.183  -2
   5   0   7 3040.48 352.183   1
  -5  -2  -1 6735.84 351.171  -2
  -5   6   3 6735.84 351.171   1
  -4   6   6 6254.82 480.846   1
   1   3   9 4491.29 550.091   1
   1   0   5 44741.8 615.419   1
   2  -1   3 1890.37 116.486   1
  -3   5   7 13386.4 613.034   1
   5  -5 -10 7965.05 575.816  -2
   5   1   8 7965.05 575.816   1
   0  -1  -6 46453.2 734.366  -2
   0   1   6 46453.2 734.366   1
  -4   5   5 14971.7 523.043   1
  -2   2  -3 56189.0 403.715   1
  -2   2   4 6607.44 263.943   1
   3   0   7 8922.32 411.880   1
  -4   4   2 13021.9 321.194   1
   3   2   9 7488.57 587.411   1
  -5  -3  -3 4954.36 437.706  -2
  -5   7   5 4954.36 437.706   1
   2   1   8 4215.93 390.524   1
  -1   3   8 7406.49 497.197   1
   2   2   9 14753.4 679.198   1
   3  -1   5 4062.11 222.914   1
   4  -2  -1 166990. 717.283   1
   0   0  -2 197182. 2988.19  -2
   0   0   2 197182. 2988.19   1
   0  -2  -8 38998.7 863.111  -2
   0   2   8 38998.7 863.111   1
  -1   1   4 29736.8 462.644   1
   0  -3  -9 27283.5 866.541  -2
   0   3   9 27283.5 866.541   1
  -2   4   8 10947.0 566.413   1
  -5  -2  -2 22830.4 618.244  -2
  -5   6   4 22830.4 618.244   1
   5  -3  -8 12932.1 419.222  -2
   5  -1   6 12932.1 419.222   1
   2  -1  -2 17001.3 255.445   1
  -4   4   3 45527.6 638.211   1
  -2   3   7 4345.03 353.257   1
   5  -2  -5 9859.88 194.025  -2
   5  -2   3 9859.88 194.025   1
   1   2   9 6177.11 505.499   1
  -4   6   7 21739.2 791.263   1
  -4   5   6 13171.3 542.179   1
   2   0   7 19802.4 534.844   1
  -2   2   5 30389.7 563.163   1
  -3   5   8 18373.2 746.387   1
  -1   1  -2 12016.4 165.205   1
  -3   4   7 10079.1 503.120   1
  -5  -3  -4 8619.58 571.724  -2
  -5   7   6 8619.58 571.724   1
   0   0  -3 2724.39 136.057  -2
   0   0   3 2724.39 136.057   1
   4  -2   0 6407.51 105.519   1
   4   1   9 14155.0 671.746   1
   0  -1  -7 7002.56 364.156  -2
   0   1   7 7002.56 364.156   1
   3   1   9 3837.55 472.745   1
  -3   3   5 72454.5 901.071   1
  -5  -2  -3 42323.7 860.953  -2
  -5   6   5 42323.7 860.953   1
   5  -4 -10 6807.41 450.911  -2
   5   0   8 6807.41 450.911   1
  -1   1   5 9810.51 319.306   1
  -2   4   9 6116.69 549.904   1
   2   2  10 15944.2 751.389   1
   3  -1   6 25134.8 500.520   1
   0  -3 -10 28310.3 950.342  -2
   0   3  10 28310.3 950.342   1
  -2   3   8 14431.6 590.869   1
  -4   6   8 13526.9 704.645   1
   0   0  -4 12629.5 288.964  -2
   0   0   4 12629.5 288.964   1
  -2   2   6 27138.1 586.002   1
  -4   4   5 6107.80 339.501   1
  -5  -1   0 28154.9 489.486  -2
  -5   5   2 28154.9 489.486   1
  -5  -3  -5 20826.9 805.448  -2
  -5   7   7 20826.9 805.448   1
  -3   3   6 80004.0 1027.49   1
   5  -2   0 7428.17 215.069  -2
   5  -2  -2 7428.17 215.069   1
  -3   4   8 15609.6 649.021   1
  -5  -1   1 9491.14 264.479  -2
  -5   5   1 9491.14 264.479   1
  -5  -2  -4 5454.02 428.286  -2
  -5   6   6 5454.02 428.286   1
   1   2  10 6323.99 579.891   1
   5  -3  -9 22952.2 571.551  -2
   5  -1   7 22952.2 571.551   1
  -5  -1  -1 38699.6 630.415  -2
  -5   5   3 38699.6 630.415   1
   2   0   8 5877.52 385.093   1
   2  -1   5 43911.4 559.490   1
   1   0   7 67345.9 896.032   1
  -1   1   6 15370.6 430.972   1
   0  -1  -8 79336.5 1106.83  -2
   0   1   8 79336.5 1106.83   1
   4  -1   7 11443.0 415.176   1
  -5  -1  -2 21777.5 535.297  -2
  -5   5   4 21777.5 535.297   1
   3   1  10 4576.34 496.389   1
   0   0  -5 73707.4 748.609  -2
   0   0   5 73707.4 748.609   1
  -1   3  10 6578.81 539.662   1
  -4   4   6 2992.03 310.746   1
   5  -2  -6 11197.0 248.755  -2
   5  -2   4 11197.0 248.755   1
   4  -2   2 513.082 42.4192   1
  -2   4  10 9753.70 656.106   1
  -2   2   7 3993.48 329.540   1
  -4   5   8 6676.71 534.858   1
  -5  -1   2 33495.4 382.109  -2
  -5   5   0 33495.4 382.109   1
   0  -2 -10 4389.64 485.032  -2
   0   2  10 4389.64 485.032   1
   3   0   9 5199.87 414.162   1
  -5  -2  -5 3778.37 435.562  -2
  -5   6   7 3778.37 435.562   1
   1   0  -3 18058.4 290.468   1
   2  -1  -1 778013. 5231.85   1
   3  -1   7 37989.9 663.477   1
  -5  -1  -3 3196.05 305.538  -2
  -5   5   5 3196.05 305.538   1
   3  -1  -3 3497.47 164.495   1
  -1   1   7 23082.1 564.157   1
   2  -1   6 3813.55 237.772   1
   1   0   8 39608.9 764.655   1
   0   0  -6 74550.9 838.503  -2
   0   0   6 74550.9 838.503   1
   2   0   9 9439.99 477.642   1
   4  -2   3 19519.6 239.757   1
   1   1  10 10695.4 589.841   1
  -2   2   8 7281.91 423.748   1
  -5  -1  -4 3305.37 328.300  -2
  -5   5   6 3305.37 328.300   1
   5  -3 -10 17221.2 553.506  -2
   5  -1   8 17221.2 553.506   1
  -5  -2  -6 13840.1 683.771  -2
  -5   6   8 13840.1 683.771   1
   5  -2  -1 36521.6 373.969  -2
   5  -2  -1 36521.6 373.969   1
   5  -2  -7 29717.7 445.519  -2
   5  -2   5 29717.7 445.519   1
  -1   2  10 6596.52 506.658   1
  -1   1   8 77966.2 1079.31   1
  -3   4  10 6755.84 575.285   1
  -4   4   8 12452.0 570.060   1
   3  -1   8 14641.4 499.137   1
   3   0  10 7787.39 538.511   1
   4  -2   4 5065.44 174.326   1
   2  -1   7 7016.10 330.907   1
  -5  -1  -5 10963.2 529.094  -2
  -5   5   7 10963.2 529.094   1
   1   0   9 3505.83 365.241   1
  -3   2   4 39426.1 558.835   1
   0  -1 -10 54778.0 1077.02  -2
   0   1  10 54778.0 1077.02   1
  -2   2   9 17235.4 626.560   1
  -2   2  -2 121410. 430.099   1
  -3   2   3 41259.8 505.218   1
  -4   5  10 6884.13 644.900   1
   2   0  10 15007.8 604.724   1
   1   1  11 4678.29 486.703   1
  -4   3   4 7604.15 293.358   1
  -4   3   5 7498.10 335.475   1
   4  -2   5 31008.4 441.641   1
  -2   1   4 2327.16 165.321   1
   1  -1   4 17282.9 306.951   1
  -1   1   9 18651.6 607.024   1
  -3   2   6 28255.0 585.186   1
  -2   1   5 10559.9 326.532   1
   0   0  -8 47272.7 807.075  -2
   0   0   8 47272.7 807.075   1
   4  -1   9 8900.60 455.477   1
  -4   3   3 45880.3 572.823   1
  -5  -1  -6 35962.4 914.033  -2
  -5   5   8 35962.4 914.033   1
  -1   2  11 10263.0 636.458   1
   1  -1   5 39609.0 516.566   1
   5  -2  -8 8220.63 298.441  -2
   5  -2   6 8220.63 298.441   1
   2  -1   8 15257.2 470.644   1
  -4   3   6 15870.9 489.669   1
  -2   1   6 28166.4 548.763   1
  -2   1   3 4503.57 176.555   1
   1  -1   3 81208.9 532.066   1
  -2   2  10 4583.42 437.643   1
  -3   3  10 5931.04 511.956   1
   1  -1   6 5667.47 253.465   1
   0  -1 -11 28144.4 856.642  -2
   0   1  11 28144.4 856.642   1
  -5  -1   3 54166.6 322.554  -2
  -5   5  -1 54166.6 322.554   1
  -1   2  -4 62628.9 541.353   1
  -5   0  -3 7104.40 335.376  -2
  -5   4   5 7104.40 335.376   1
   3  -1  -2 20355.4 292.995   1
  -5  -1  -7 5265.39 488.205  -2
  -5   5   9 5265.39 488.205   1
  -5   0  -2 2512.15 225.039  -2
  -5   4   4 2512.15 225.039   1
   0   0  -9 34814.4 754.985  -2
   0   0   9 34814.4 754.985   1
  -4   3   2 50853.9 515.463   1
   2   0  11 6469.97 489.406   1
   4  -1  -3 120927. 846.055   1
  -5   0  -4 61833.6 929.306  -2
  -5   4   6 61833.6 929.306   1
  -3   2   8 36815.1 767.872   1
  -5   0  -1 47379.7 611.171  -2
  -5   4   3 47379.7 611.171   1
   5  -2  -9 21907.3 476.899  -2
   5  -2   7 21907.3 476.899   1
  -1   0   5 36839.8 521.933   1
  -2   1   8 2244.15 289.460   1
   4  -1  10 9919.64 510.178   1
  -5   0  -5 18997.1 593.751  -2
  -5   4   7 18997.1 593.751   1
  -1   0   6 40495.0 609.911   1
  -3   3  11 9025.79 598.914   1
  -2   2  11 21434.4 781.690   1
  -1   0   4 38704.3 479.074   1
   3  -1  10 3196.37 357.167   1
   5  -2  -2 7616.36 147.067  -2
   5  -2   0 7616.36 147.067   1
   4  -2   7 8509.11 327.342   1
  -5  -1  -8 6764.82 571.880  -2
  -5   5  10 6764.82 571.880   1
   1   0  11 3729.23 424.778   1
  -2   1   2 14492.2 236.825   1
  -3   2   9 39662.3 860.409   1
   0   0 -10 5657.46 428.938  -2
   0   0  10 5657.46 428.938   1
  -4   3   9 3757.44 405.251   1
  -5   0  -6 13947.4 568.951  -2
  -5   4   8 13947.4 568.951   1
   3  -2   5 35197.5 454.625   1
  -2   1   9 18340.7 590.037   1
   0  -1   3 119354. 672.537  -2
   0   1  -3 119354. 672.537   1
   3  -2   6 13790.5 339.341   1
   3  -2   4 7029.96 184.646   1
  -1   0   8 4719.18 321.616   1
   2  -1  10 7729.07 461.742   1
  -6   5   6 3965.58 346.226   1
  -5   0   0 52486.9 564.449  -2
  -5   4   2 52486.9 564.449   1
  -3   2  10 7031.77 475.366   1
   1  -1   2 11557.5 159.971   1
   1  -1   9 4240.02 349.112   1
   4  -2   8 11199.0 397.924   1
  -1   0   3 17588.6 285.643   1
   0   0 -11 26785.1 790.126  -2
   0   0  11 26785.1 790.126   1
   3  -1  11 5631.18 443.984   1
  -6   5   8 5509.97 455.551   1
  -3   4  -4 64953.0 508.738   1
  -5   0  -8 6006.72 506.706  -2
  -5   4  10 6006.72 506.706   1
   2   0  -3 80505.0 633.026   1
  -3   2   1 35302.8 321.771   1
   3  -2   8 13798.7 428.682   1
   2  -1  11 4855.76 450.317   1
  -4   3   1 3189.61 127.925   1
   1  -1  10 4166.27 374.201   1
  -4   3  11 9265.92 606.300   1
  -6   5   9 6852.80 522.210   1
  -2   1  11 12037.9 607.500   1
   0   1  -6 76364.7 800.632  -2
   0  -1   6 76364.7 800.632   1
   0   1  -7 4199.90 265.643  -2
   0  -1   7 4199.90 265.643   1
   3  -2   3 81816.3 451.398   1
   0   1  -8 60181.1 858.405  -2
   0  -1   8 60181.1 858.405   1
  -4   2   7 2907.64 284.046   1
  -5   0  -9 14804.0 765.414  -2
  -5   4  11 14804.0 765.414   1
   0   1  -5 7564.15 251.583  -2
   0  -1   5 7564.15 251.583   1
  -4   2   6 49712.4 761.751   1
  -4   2   8 5125.92 375.568   1
  -3   1   7 16144.4 484.681   1
  -3   1   6 59035.0 794.469   1
  -3   1   8 5040.73 349.627   1
   1  -1  11 27790.9 787.435   1
  -1   0  11 15065.9 638.299   1
  -5   1  -5 19342.8 582.316  -2
  -5   3   7 19342.8 582.316   1
   0   1  -9 120389. 1313.75  -2
   0  -1   9 120389. 1313.75   1
   2  -2   6 2867.47 207.905   1
   2  -2   7 12876.2 382.799   1
  -4   2   5 3916.40 245.518   1
  -5   1  -4 69055.3 944.091  -2
  -5   3   6 69055.3 944.091   1
   4  -1  -2 3565.49 158.691   1
  -4   2   9 5034.99 422.379   1
  -5   1  -6 11812.8 522.472  -2
  -5   3   8 11812.8 522.472   1
  -3   1   9 10306.7 499.537   1
   4  -2  10 4303.39 367.955   1
   2  -2   8 49672.3 766.806   1
  -5   1  -7 20698.8 718.766  -2
  -5   3   9 20698.8 718.766   1
  -5   1  -3 50088.8 751.475  -2
  -5   3   5 50088.8 751.475   1
   2  -2   5 7264.46 237.638   1
  -4   2  10 7798.51 512.058   1
   0   1 -10 26684.4 708.402  -2
   0  -1  10 26684.4 708.402   1
   3  -2  10 22700.8 647.010   1
  -2   0   7 2130.36 247.403   1
  -2   0   8 14915.3 496.025   1
   0   1  -4 290955. 4926.49  -2
   0  -1   4 290955. 4926.49   1
  -1   0  12 14628.3 693.279   1
   2  -2   9 29954.8 667.710   1
  -5   0   1 48881.1 461.939  -2
  -5   4   1 48881.1 461.939   1
  -5   1  -8 15796.8 688.931  -2
  -5   3  10 15796.8 688.931   1
   1  -1  12 7212.69 548.971   1
  -2   0   9 28109.1 704.051   1
  -6   4   7 3563.06 347.372   1
  -2   0   6 2909.02 237.751   1
  -4   2   4 1941.00 184.036   1
  -6   4   6 15700.9 518.291   1
   2  -1   0 235625. 1989.02   1
  -3   1  11 12226.6 621.331   1
   0   1 -11 35828.9 866.810  -2
   0  -1  11 35828.9 866.810   1
  -2   0  10 21491.5 679.746   1
   3  -1  -1 77436.9 482.918   1
  -5   1  -2 12209.4 357.053  -2
  -5   3   4 12209.4 357.053   1
   2  -2  10 4176.40 346.579   1
  -3   1   4 49777.9 595.371   1
   3  -2  11 16145.4 613.363   1
  -2   0   5 29071.7 488.267   1
  -2   1   1 795387. 5329.77   1
  -4   2  12 8882.20 622.245   1
   5  -3   0 38504.2 494.605  -2
   5  -1  -2 38504.2 494.605   1
  -1   2  -3 10341.2 201.182   1
  -3   1  12 10766.9 621.306   1
   2  -2   4 22494.1 317.279   1
   0   1 -12 20757.5 744.748  -2
   0  -1  12 20757.5 744.748   1
  -1  -1   8 10768.4 415.877   1
   2  -2  11 15616.1 587.925   1
   1  -2   8 14882.3 442.098   1
  -1  -1   9 44271.9 812.695   1
   1  -2   7 6276.66 287.046   1
  -1  -1   7 12540.2 392.551   1
   1  -2   9 41551.7 757.710   1
  -2   0  12 6605.25 532.589   1
  -1  -1  10 30311.4 739.476   1
   3   0  -3 2940.97 165.730   1
  -6   4   4 28390.7 534.102   1
  -4   2   3 1212.83 137.711   1
   1  -2   6 50837.3 627.968   1
  -1  -1   6 169782. 1201.64   1
  -1  -1  11 4562.24 411.783   1
  -2   0   4 10362.7 274.071   1
  -4   1   9 21515.5 642.725   1
   0   1  -3 118180. 671.212  -2
   0  -1   3 118180. 671.212   1
   1  -2  11 5800.09 438.178   1
  -5   2  -7 23376.2 697.170  -2
  -5   2   9 23376.2 697.170   1
   5  -2  -3 4294.86 93.3580  -2
   5  -2   1 4294.86 93.3580   1
  -5   1  -1 5923.84 234.581  -2
  -5   3   3 5923.84 234.581   1
  -4   1   8 4257.97 338.610   1
  -5   2  -6 9513.16 449.485  -2
  -5   2   8 9513.16 449.485   1
  -4   1  10 23595.9 720.893   1
  -5   2  -8 12870.7 607.119  -2
  -5   2  10 12870.7 607.119   1
  -1  -1  12 5110.33 479.790   1
  -5   2  -5 24238.2 606.505  -2
  -5   2   7 24238.2 606.505   1
  -3   1   3 3622.15 170.589   1
  -4   1   7 5616.75 335.958   1
  -3   0   9 10776.4 473.289   1
  -6   3   9 3859.01 422.711   1
  -3   0  10 43698.5 910.426   1
  -3   0   8 3097.30 300.288   1
  -6   3  10 4296.91 453.848   1
   4  -3   8 26219.3 526.238   1
  -3   0  11 4111.59 422.668   1
  -5   2 -10 19467.2 798.815  -2
  -5   2  12 19467.2 798.815   1
   1  -2   5 81947.0 706.633   1
   4  -3   7 20319.8 413.657   1
  -6   3   7 29470.5 695.914   1
   2   0  -2 82699.6 564.535   1
   0   2  -9 21423.7 565.726  -2
   0  -2   9 21423.7 565.726   1
  -5   2  -4 8532.78 362.946  -2
  -5   2   6 8532.78 362.946   1
  -3   0   7 56069.5 818.797   1
   0   2 -10 6639.15 401.898  -2
   0  -2  10 6639.15 401.898   1
  -4   1   6 1628.10 214.129   1
  -3   0  12 5411.64 502.233   1
   0   2  -8 25233.7 561.420  -2
   0  -2   8 25233.7 561.420   1
   4  -3  10 5066.49 355.067   1
   0   2 -11 47061.3 941.983  -2
   0  -2  11 47061.3 941.983   1
   3  -3   9 19857.7 523.075   1
   3  -3   8 20924.8 483.910   1
  -6   4   3 53339.7 638.670   1
  -2  -1  10 4487.38 390.866   1
   0  -1   2 193574. 2877.49  -2
   0   1  -2 193574. 2877.49   1
  -6   3   6 17027.0 505.732   1
   0   2  -7 154816. 1218.23  -2
   0  -2   7 154816. 1218.23   1
   4  -1  -1 31009.4 362.064   1
   0   2 -12 31518.5 852.403  -2
   0  -2  12 31518.5 852.403   1
  -2  -1   8 12792.2 450.687   1
  -2   3  -3 15980.1 241.782   1
   3  -3   7 7968.64 292.185   1
  -3   0   6 23584.0 506.826   1
  -2  -1  12 28588.5 850.587   1
   3  -3  11 3613.70 366.891   1
  -5   2  -3 9183.76 343.277  -2
  -5   2   5 9183.76 343.277   1
   0   2 -13 5176.82 512.500  -2
   0  -2  13 5176.82 512.500   1
  -4   1   5 3865.33 241.554   1
  -2  -1  13 4274.02 487.249   1
   2  -3   9 9124.29 388.238   1
   2  -3  10 4109.88 332.319   1
  -2  -1   7 62228.5 833.432   1
   2  -2   3 55750.8 394.189   1
  -4   5  -3 40539.8 365.246   1
  -2   0   3 78421.6 625.165   1
   1   0  -1 36009.7 263.880   1
   2  -3  11 17630.0 609.007   1
   2  -3   8 3449.81 266.133   1
   5  -3  -1 72380.8 627.338  -2
   5  -1  -1 72380.8 627.338   1
   0   2  -6 208074. 1290.85  -2
   0  -2   6 208074. 1290.85   1
  -1  -1   4 78185.0 674.910   1
   3  -3   6 2400.17 178.761   1
  -5   3  -9 18766.8 709.098  -2
  -5   1  11 18766.8 709.098   1
  -5   3  -8 12803.8 566.997  -2
  -5   1  10 12803.8 566.997   1
  -1  -2  10 11941.5 495.102   1
   2  -3  12 8914.49 520.840   1
  -4   2   2 69015.6 565.058   1
  -5   3 -10 13475.1 689.516  -2
  -5   1  12 13475.1 689.516   1
   5  -1  -7 36053.6 355.978  -2
   5  -3   5 36053.6 355.978   1
  -5   3  -7 5160.90 398.030  -2
  -5   1   9 5160.90 398.030   1
  -6   2  11 9635.15 592.401   1
  -6   2  10 14819.8 636.416   1
  -1  -2  12 22226.0 749.131   1
   1  -2   4 63858.6 548.793   1
  -4   0  12 10995.0 626.767   1
  -3   4  -3 36156.6 355.113   1
  -3   0   5 29451.4 510.693   1
  -5   1   0 1894.54 137.391  -2
  -5   3   2 1894.54 137.391   1
  -6   2   9 6147.97 449.698   1
   2  -3   7 25708.7 488.187   1
  -2  -1   6 57737.4 741.437   1
  -4   0  13 15056.9 745.072   1
  -4   3   0 15148.6 162.774   1
  -5   3  -6 7857.43 407.825  -2
  -5   1   8 7857.43 407.825   1
   1  -3  10 3115.30 323.304   1
   1  -3  11 10267.3 491.442   1
   4  -3   5 4199.85 160.184   1
   1  -3   9 3999.11 316.469   1
  -3  -1  12 14763.0 666.695   1
   1  -3  12 7303.92 472.624   1
  -4   0   8 32391.9 706.619   1
  -3  -1  13 8232.97 589.394   1
  -5   2  -2 41036.8 587.512  -2
  -5   2   4 41036.8 587.512   1
   3   0  -2 2575.77 145.422   1
  -3   1   2 20281.2 299.487   1
  -4   1   4 64921.5 704.127   1
  -5   3  -5 42810.0 769.143  -2
  -5   1   7 42810.0 769.143   1
   0   2  -5 27548.1 441.476  -2
   0  -2   5 27548.1 441.476   1
  -1  -2   7 20927.0 490.678   1
  -6   2   7 8214.11 410.732   1
   2  -3   6 102605. 845.027   1
  -4   0   7 72979.3 963.512   1
  -2  -2  10 18121.2 611.240   1
   0   3 -10 50595.3 897.773  -2
   0  -3  10 50595.3 897.773   1
   3  -3   5 71547.7 587.950   1
   1  -3   7 8888.70 340.111   1
   0   1  -2 197590. 2966.89  -2
   0  -1   2 197590. 2966.89   1
  -5   0   2 33103.8 244.111  -2
  -5   4   0 33103.8 244.111   1
   0  -2   3 129220. 792.739  -2
   0   2  -3 129220. 792.739   1
   0   3  -9 14361.0 493.098  -2
   0  -3   9 14361.0 493.098   1
  -3   0   4 18010.0 382.377   1
  -2  -2   9 4985.54 374.607   1
  -5   3  -4 29453.6 615.892  -2
  -5   1   6 29453.6 615.892   1
  -5   4 -10 8176.30 575.686  -2
  -5   0  12 8176.30 575.686   1
  -5   4  -9 6734.27 533.727  -2
  -5   0  11 6734.27 533.727   1
  -3  -1   7 23682.7 570.257   1
  -1   0   1 36431.7 270.754   1
  -1  -2   6 24129.6 491.426   1
  -5   4  -8 22096.3 737.467  -2
  -5   0  10 22096.3 737.467   1
  -3   2   0 70812.0 307.985   1
  -4   0   6 6727.75 327.236   1
  -7   2  11 5411.92 583.728   1
  -4  -1  11 9242.51 562.212   1
   3  -4  11 10566.0 490.879   1
   3  -4  12 4528.28 422.926   1
   0   3  -8 6474.92 345.403  -2
   0  -3   8 6474.92 345.403   1
  -6   1   9 8980.48 501.325   1
  -1  -3  12 13951.1 640.806   1
  -4  -1  10 19956.5 684.869   1
  -5   4  -7 8843.75 485.910  -2
  -5   0   9 8843.75 485.910   1
  -1  -3  13 7299.79 580.218   1
   3  -4   9 11350.1 415.553   1
  -3  -2  13 12097.2 684.169   1
  -1  -3  10 21733.1 663.253   1
   2  -4  10 23751.1 625.480   1
   1  -3   6 24149.4 457.382   1
  -3  -2  11 9333.69 553.945   1
  -5   2  -1 82395.8 759.460  -2
  -5   2   3 82395.8 759.460   1
   3  -1   0 44828.9 327.309   1
   2  -3   5 51288.4 552.034   1
  -6   1   8 32790.9 783.426   1
  -3  -1   6 6617.40 329.253   1
  -5   4  -6 12111.9 516.244  -2
  -5   0   8 12111.9 516.244   1
   0   2  -4 57648.6 585.280  -2
   0  -2   4 57648.6 585.280   1
  -5   3  -3 11893.7 393.283  -2
  -5   1   5 11893.7 393.283   1
  -2   0   2 83435.4 584.521   1
   1  -4  12 11126.8 593.242   1
  -2  -2   7 8094.39 368.834   1
   2  -4   9 28125.3 625.821   1
  -4   1   3 136253. 944.190   1
   0   3  -7 20688.2 493.152  -2
   0  -3   7 20688.2 493.152   1
  -6   2   5 40502.0 686.554   1
  -7   2   8 5266.80 427.061   1
   5  -3  -2 2002.05 148.956  -2
   5  -1   0 2002.05 148.956   1
   1  -2   3 10095.1 204.136   1
  -2  -1   4 44601.9 569.201   1
   1   1  -2 13900.7 246.386   1
  -6   3   3 6042.94 255.020   1
  -4  -1   8 7625.97 423.523   1
  -4   0   5 21604.8 481.278   1
   1  -4  10 6444.69 407.078   1
  -2  -3  13 15806.9 724.646   1
  -1   2  -2 25793.0 276.066   1
  -1  -2   5 53075.2 656.067   1
  -3  -2   9 15904.7 564.050   1
  -5   5 -10 4618.60 527.473  -2
  -5  -1  12 4618.60 527.473   1
   4  -1   0 3583.63 143.366   1
  -2  -3  11 6602.82 499.589   1
  -6   1   7 9529.92 441.664   1
  -6   0  11 11371.7 642.178   1
   0   4 -13 32677.2 920.662  -2
   0  -4  13 32677.2 920.662   1
  -5   4  -5 15439.9 507.357  -2
  -5   0   7 15439.9 507.357   1
   0   4 -12 27683.3 810.667  -2
   0  -4  12 27683.3 810.667   1
  -1  -3   8 65859.9 925.291   1
  -7   1  11 5620.22 592.702   1
  -5   5  -9 11787.5 635.534  -2
  -5  -1  11 11787.5 635.534   1
   4  -3   4 12779.2 181.576   1
  -1   3  -3 116646. 765.220   1
   1  -4   9 8764.00 406.762   1
  -4  -2  13 5923.74 623.558   1
  -7   2   7 15796.4 553.097   1
  -2  -3  10 24152.9 698.697   1
   2   0  -1 34288.2 333.714   1
  -6   0  10 9152.34 528.585   1
  -3   0   3 3199.24 177.147   1
  -3  -2   8 34924.6 733.982   1
  -5   5  -8 6169.52 483.333  -2
  -5  -1  10 6169.52 483.333   1
  -4  -1   7 9208.91 412.704   1
   3  -4   7 8311.16 293.266   1
  -4  -2  11 18900.6 710.478   1
   0   4 -10 23597.8 656.480  -2
   0  -4  10 23597.8 656.480   1
  -3  -1   5 121063. 1051.66   1
   0   3  -6 1875.38 195.876  -2
   0  -3   6 1875.38 195.876   1
   1  -3   5 4875.72 218.291   1
  -1  -4  13 5597.55 522.242   1
   1  -4   8 2769.32 268.617   1
  -1  -3   7 70107.4 890.908   1
  -3  -3  12 7659.61 576.002   1
  -4   2   1 169408. 735.963   1
  -5   5  -7 6827.05 452.131  -2
  -5  -1   9 6827.05 452.131   1
  -5   1   1 69250.3 483.334  -2
  -5   3   1 69250.3 483.334   1
  -5   3  -2 66406.4 762.440  -2
  -5   1   4 66406.4 762.440   1
   5  -2  -4 28555.9 258.589  -2
   5  -2   2 28555.9 258.589   1
   2  -4   7 10225.5 334.849   1
  -5   4  -4 43524.6 740.062  -2
  -5   0   6 43524.6 740.062   1
   0   4  -9 13586.8 490.953  -2
   0  -4   9 13586.8 490.953   1
  -6   2   4 61999.6 752.679   1
   4   0  -1 8693.12 249.015   1
   2   1  -2 45403.3 497.116   1
  -1  -4  11 36147.3 866.575   1
  -3  -3  11 30069.8 840.544   1
   2  -5  13 9707.85 549.805   1
   3   0  -1 100510. 677.417   1
  -3  -2   7 10978.9 424.607   1
   2  -5  12 17884.8 634.441   1
   3  -5  11 3788.22 353.136   1
  -4   0   4 27157.2 492.987   1
  -4  -2   9 15557.4 578.377   1
  -6   0   8 3736.05 370.826   1
  -2  -3   8 43024.0 795.165   1
  -1  -4  10 46650.0 909.560   1
  -4  -1   6 10809.9 402.705   1
   2  -5  11 2649.33 335.244   1
  -3  -3  10 27524.4 769.700   1
  -5   5  -6 40135.6 832.362  -2
  -5  -1   8 40135.6 832.362   1
  -5   6 -10 15034.4 726.192  -2
  -5  -2  12 15034.4 726.192   1
  -1  -2   4 216188. 1198.46   1
   1  -5  12 3908.12 413.148   1
   0   4  -8 6894.48 361.639  -2
   0  -4   8 6894.48 361.639   1
   1  -4   7 79233.5 886.492   1
  -2  -2   5 43793.4 633.668   1
   2  -5  10 12550.2 486.584   1
   1  -5  11 9262.42 480.042   1
  -5   6  -9 44681.1 1048.49  -2
  -5  -2  11 44681.1 1048.49   1
  -2  -1   3 6957.60 224.575   1
   0   5 -13 10201.1 598.163  -2
   0  -5  13 10201.1 598.163   1
   3  -4   6 41606.8 520.055   1
  -1  -3   6 2830.45 240.629   1
  -1  -4   9 4963.56 366.742   1
  -2  -4  11 4185.38 443.898   1
  -4  -2   8 33761.8 756.997   1
  -3   1   1 75164.3 481.663   1
   0   2  -3 124990. 760.383  -2
   0  -2   3 124990. 760.383   1
   0   3  -5 88198.7 821.719  -2
   0  -3   5 88198.7 821.719   1
  -5   2   0 7622.29 220.113  -2
  -5   2   2 7622.29 220.113   1
  -2   3  -2 34899.3 330.711   1
   4  -4   6 34751.6 428.691   1
  -3  -1   4 64162.7 724.051   1
  -6   1   5 9643.21 378.193   1
  -1  -1   2 12814.7 233.313   1
  -3  -2   6 8723.88 361.687   1
   3  -5   9 4163.28 299.071   1
  -2  -3   7 34988.2 681.488   1
  -5   4  -3 47114.4 723.727  -2
  -5   0   5 47114.4 723.727   1
   1  -5  10 61094.0 977.180   1
  -5   6  -8 7690.30 504.636  -2
  -5  -2  10 7690.30 504.636   1
   2  -4   6 26656.4 463.684   1
  -4  -3  11 13009.9 634.714   1
  -4   1   2 3574.86 170.072   1
  -5   5  -5 69563.3 1009.64  -2
  -5  -1   7 69563.3 1009.64   1
  -3  -4  13 4794.84 556.945   1
   0   5 -11 23078.7 712.655  -2
   0  -5  11 23078.7 712.655   1
  -2  -4  10 15055.9 599.279   1
   2  -5   9 4750.70 341.081   1
  -1  -5  13 15265.0 712.354   1
  -7   0   9 14373.9 612.031   1
  -6  -1   9 12025.5 556.733   1
  -6   3   2 43344.8 483.637   1
   0   4  -7 114825. 1121.42  -2
   0  -4   7 114825. 1121.42   1
  -4   5  -2 1756.30 120.301   1
   0  -2   2 42621.9 429.002  -2
   0   2  -2 42621.9 429.002   1
  -1  -4   8 3499.51 307.922   1
  -4  -1   5 61381.8 809.648   1
   5  -3  -3 7186.36 215.977  -2
   5  -1   1 7186.36 215.977   1
   2  -2   2 117600. 1659.99   1
  -4  -3  10 7721.60 518.211   1
   1  -3   4 52026.7 539.686   1
  -5   6  -7 9539.66 519.127  -2
  -5  -2   9 9539.66 519.127   1
   0   5 -10 6275.98 429.851  -2
   0  -5  10 6275.98 429.851   1
   1  -5   9 24270.2 617.114   1
  -3   4  -2 23526.4 294.190   1
   1  -4   6 43737.9 627.767   1
  -5   3  -1 12732.1 332.151  -2
  -5   1   3 12732.1 332.151   1
  -1  -5  11 5500.43 468.607   1
  -6   2   3 2068.67 190.174   1
  -7  -1  11 8783.63 629.876   1
   2  -6  13 4617.23 478.231   1
  -6   0   6 13168.6 470.846   1
  -2  -5  13 921.124 431.432   1
  -6  -2  11 13775.5 700.555   1
   2  -5   8 71.6567 193.265   1
  -3   0   2 2815.12 147.813   1
  -7   0   8 20881.9 667.838   1
  -6  -1   8 7438.67 454.003   1
  -4  -3   9 24202.1 718.150   1
  -2  -3   6 3454.05 275.008   1
  -7   1   6 13649.8 496.360   1
  -1  -3   5-67.4810 149.517   1
   1  -6  13 13783.1 637.780   1
  -4   0   3 1436.11 166.598   1
  -5   5  -4 8364.53 395.988  -2
  -5  -1   6 8364.53 395.988   1
   0  -1   1 16662.0 190.207  -2
   0   1  -1 16662.0 190.207   1
   2  -6  12 626.626 336.236   1
  -2  -2   4 51458.1 652.228   1
   4  -5   8 4466.45 245.831   1
   0   5  -9 3819.45 354.429  -2
   0  -5   9 3819.45 354.429   1
  -2  -7  -6 1690.07 507.916   1
  -2  -2 -11 1903.50 420.152   1
  -1  -8  -3 353.772 388.658   1
  -2  -5  -9 2361.48 520.630   1
  -1  -5  -8 2740.00 456.742   1
  -2  -4 -10 904.280 488.934   1
  -2  -6  -8 390.654 517.612   1
  -1  -6  -7 3664.53 517.905   1
   1  -4  -1 384.340 166.202   1
  -3  -2 -12 2142.94 480.676   1
  -1   0 -10-135.098 248.239   1
  -2  -8  -5 636.984 519.195   1
   0   3   8 1623.40 319.230  -2
   0  -3  -8 1623.40 319.230   1
  -3  -5 -10 1303.60 556.267   1
  -1  -9   0 553.098 380.155   1
  -2  -3 -11 3467.05 533.295   1
   1  -3  -4 1348.21 220.122   1
  -1  -7  -6 1170.57 468.745   1
  -3  -4 -11 4194.99 606.852   1
   0   7   4 844.262 362.721  -2
   0  -7  -4 844.262 362.721   1
   0   5   7 2167.63 382.219  -2
   0  -5  -7 2167.63 382.219   1
  -2  -9  -3 71.8310 467.977   1
   1  -5   0 246.829 162.761   1
   0   4   8 1120.41 379.975  -2
   0  -4  -8 1120.41 379.975   1
  -3  -3 -12 277.735 471.987   1
  -1  -5  -9 1900.74 467.064   1
   1  -6  -2 865.280 240.695   1
  -2  -5 -10 1593.33 549.027   1
  -2  -8  -6 288.518 517.987   1
  -2  -6  -9 387.247 549.953   1
   0   2   9 1668.95 336.231  -2
   0  -2  -9 1668.95 336.231   1
  -1  -4 -10 1293.48 445.831   1
  -2  -9  -4 458.862 515.766   1
  -2 -10   0 588.628 445.404   1
  -2  -2 -12 1473.77 437.644   1
  -1  -7  -7 1475.52 492.659   1
   1  -5  -5 2114.06 320.533   1
  -1  -2 -11 1345.66 373.243   1
   0   1   9-7.33263 224.175  -2
   0  -1  -9-7.33263 224.175   1
   0   6   7 493.678 416.703  -2
   0  -6  -7 493.678 416.703   1
   1  -3  -6 1371.62 270.945   1
  -1  -9  -3 392.971 492.736   1
  -2 -10  -1 176.095 466.753   1
   1  -3   0 271.699 99.9688   1
   1  -6   1 222.034 176.729   1
  -1  -3 -11 1063.72 424.947   1
  -2  -3 -12 2113.75 505.518   1
   1  -7  -1 149.020 252.665   1
  -1  -8  -6 148.990 529.143   1
   1  -5  -6 604.094 332.667   1
  -1  -6  -9 1247.71 511.721   1
   1  -6  -5 2189.89 353.998   1
  -1  -5 -10 2132.04 502.440   1
  -1  -9  -4 1705.48 516.173   1
   0   9   1 354.013 365.961  -2
   0  -9  -1 354.013 365.961   1
  -1  -7  -8 3556.18 603.783   1
  -2  -5 -11 1268.47 561.684   1
  -1 -10   0 2487.67 455.055   1
  -1  -4 -11 64.9624 445.171   1
   0   9   2 2481.21 433.032  -2
   0  -9  -2 2481.21 433.032   1
  -1 -10  -1 1488.54 455.907   1
   0   7   7 1999.18 504.223  -2
   0  -7  -7 1999.18 504.223   1
   1  -2  -7 289.626 207.527   1
  -2  -4 -12 4769.82 623.393   1
  -1  -8  -7 3747.09 587.658   1
  -1  -9  -5 1423.82 539.080   1
   0   9   3 1937.25 458.979  -2
   0  -9  -3 1937.25 458.979   1
  -2  -2 -13-55.7753 407.198   1
   0   4  10 2475.04 444.547  -2
   0  -4 -10 2475.04 444.547   1
  -1  -2 -12 1440.50 414.646   1
  -1 -10  -2 1045.56 454.523   1
   1  -7  -5 487.401 373.956   1
   1  -8  -2 432.016 331.552   1
   0   8   6 536.308 496.191  -2
   0  -8  -6 536.308 496.191   1
  -1  -6 -10 3398.47 601.159   1
   1  -8  -3 309.583 343.374   1
  -1  -7  -9 569.959 552.289   1
  -1 -10  -3 4256.99 560.420   1
  -2  -3 -13 944.999 485.138   1
   1  -2  -8 597.168 239.577   1
   0   7   8 396.742 516.740  -2
   0  -7  -8 396.742 516.740   1
   0   5  10 585.092 484.888  -2
   0  -5 -10 585.092 484.888   1
   1  -7  -6 106.189 420.232   1
   1  -8  -4 3007.96 433.967   1
   0   2  11 659.010 362.325  -2
   0  -2 -11 659.010 362.325   1
  -1  -4 -12 1685.43 505.890   1
   1  -3  -9 2272.61 366.227   1
   1  -4  -9 715.468 357.126   1
   0   4  11 1085.38 458.470  -2
   0  -4 -11 1085.38 458.470   1
   1  -6  -8 127.794 401.835   1
   1  -7  -7 1806.74 485.212   1
   1  -8   2 34.2428 214.457   1
   1  -2  -9 581.137 272.017   1
   2  -5  -3 218.958 235.847   1
   0   6  10 66.4191 504.927  -2
   0  -6 -10 66.4191 504.927   1
  -1  -2 -13 753.088 437.818   1
   0   7   9 379.025 538.670  -2
   0  -7  -9 379.025 538.670   1
   1  -9   0 128.515 316.669   1
   0  10   3 972.311 465.543  -2
   0 -10  -3 972.311 465.543   1
   2  -5  -5 2284.06 328.724   1
   0   9   6 42.4333 514.661  -2
   0  -9  -6 42.4333 514.661   1
   1  -9  -3 634.410 388.650   1
  -1  -3 -13 39.2561 460.934   1
   2  -6  -5 2319.17 367.433   1
   1  -9   1 1668.68 319.021   1
   1  -9  -4 1776.61 457.700   1
   1  -4 -10 702.133 396.419   1
   0  10   4 1298.41 503.121  -2
   0 -10  -4 1298.41 503.121   1
   0   3  12 2034.07 431.496  -2
   0  -3 -12 2034.07 431.496   1
   2  -7  -2 1166.50 279.777   1
   1  -6  -9 1680.93 490.946   1
   2  -6  -1 491.275 212.298   1
   2  -6  -6 664.724 387.536   1
  -1  -4 -13 543.827 490.900   1
   1  -8  -7-176.940 462.244   1
   2  -7  -5 494.346 362.755   1
   1  -5 -10 3227.93 484.599   1
   1  -9   2 1115.68 272.924   1
   2  -8  -2 959.762 326.946   1
   1 -10  -1-48.6207 352.675   1
   1 -10  -2 2111.76 442.287   1
   2  -8  -4 197.102 346.563   1
   1  -9  -6 894.180 526.169   1
   1 -10   0 1353.97 367.520   1
   1  -6 -10-199.132 496.460   1
   1  -3 -11 2655.25 439.742   1
   1 -10  -3 1804.79 490.774   1
   1  -8  -8 2655.89 580.181   1
   2  -8  -5 3188.05 469.441   1
   2  -7  -7-89.5851 400.820   1
   2  -6  -8 814.065 430.811   1
   1  -1 -10 194.380 214.704   1
   0   3  13 243.052 428.235  -2
   0  -3 -13 243.052 428.235   1
   1 -10  -4 1746.81 527.339   1
   1  -5 -11-286.374 470.225   1
   2  -5   0 166.551 145.313   1
   1  -9  -7 387.786 503.472   1
   0   4  13 113.168 475.497  -2
   0  -4 -13 113.168 475.497   1
   2  -5  -9 616.620 405.778   1
   1  -7 -10-40.3268 529.527   1
   1 -10  -5 133.247 503.223   1
   2  -9  -1-110.769 330.652   1
   2  -9  -4 220.077 402.696   1
   2  -7  -8 2200.16 508.996   1
   1  -8  -9-53.8848 545.885   1
   2  -8  -7-233.330 462.960   1
   2  -3  -9 828.554 274.982   1
   1  -3 -12-78.3427 373.633   1
   1  -4 -12 3020.55 512.918   1
   2  -8   1 599.404 239.721   1
   2  -9   0 1371.45 319.247   1
   1  -1 -11 1733.83 281.154   1
   1 -11  -1 2304.78 435.100   1
   1 -11  -2 381.493 413.965   1
   1  -5 -12 644.835 502.205   1
   1   0  -9 1253.02 175.126   1
   2  -5 -10 425.451 414.367   1
   1  -2 -12-413.723 311.467   1
   2  -9  -6-360.534 483.455   1
   2  -7  -9 1557.67 516.292   1
   1 -11  -3 384.062 476.408   1
   2  -8  -8 1894.03 500.102   1
   2  -6 -10 897.963 452.698   1
   2 -10  -2 79.9789 363.734   1
   2  -3 -10 1727.40 316.130   1
   2 -10  -3-94.2645 380.942   1
   2  -9   1 989.985 262.331   1
   3  -6  -5 191.620 311.738   1
   2 -10  -1 234.474 328.826   1
   3  -7  -4 1614.98 348.321   1
   3  -7  -5 142.528 356.195   1
   3  -6  -6-348.957 354.747   1
   2  -9  -7 664.682 473.514   1
   3  -7  -3 1728.63 307.371   1
   1   0 -10 1345.64 197.958   1
   3  -5  -6-361.136 279.415   1
   3  -6  -3 898.203 250.537   1
   1  -3 -13 2194.35 419.213   1
   2  -5 -11 448.469 413.520   1
   2  -7 -10 2539.95 511.852   1
   2  -8  -9 460.937 502.101   1
   2  -7   2 134.353 171.434   1
   1  -1 -12 260.345 253.222   1
   3  -8  -5 806.597 387.899   1
   1  -5 -13 838.571 422.631   1
   2  -3 -11 1671.49 335.235   1
   2  -6 -11 1887.32 444.715   1
   2  -9  -8 2656.47 519.722   1
   3  -8  -6 469.747 374.945   1
   2 -10  -6 665.396 449.596   1
   3  -6  -8-138.397 371.012   1
   3  -5  -3 750.675 216.974   1
   3  -4  -6 184.750 228.832   1
   2  -9   2 109.169 213.550   1
   2  -3  -1 312.121 94.9234   1
   3  -7  -8 1054.27 407.829   1
   3  -9  -4 1338.27 373.442   1
   3  -9  -3 760.071 329.795   1
   3  -8  -7 454.437 392.048   1
   2 -11  -3 3155.70 484.395   1
   2  -7 -11 742.317 506.818   1
   2  -4 -12 491.727 411.427   1
   3  -9  -2 794.664 334.913   1
   3  -5  -9 131.073 381.002   1
   2  -5 -12 3803.88 522.856   1
   2 -11  -4 461.705 423.094   1
   2  -1  -7 237.804 135.489   1
   1  -4   3 140.535 58.4302   1
   3  -7  -9 1017.38 466.220   1
   1  -4 -14 957.135 438.931   1
   2  -3 -12 1310.61 376.131   1
   1  -3 -14 402.222 384.710   1
   2  -6 -12 4203.02 567.220   1
   3  -4  -9-86.6912 314.023   1
   3  -9  -7 2766.51 501.936   1
   3  -5 -10 507.420 394.148   1
   3 -10  -4 649.599 386.909   1
   3  -3  -7 337.291 213.051   1
   3  -7 -10 197.459 435.835   1
   2  -4 -13 1265.71 435.631   1
   3  -9  -8 1670.41 495.873   1
   2  -5 -13 2199.02 498.444   1
   3 -10  -6 1695.89 487.657   1
   3 -10  -1 1512.51 349.211   1
   3  -5 -11-326.532 423.865   1
   3  -6 -11 936.026 459.596   1
   3  -8 -10 1285.76 512.717   1
   3  -5  -1 253.390 149.687   1
   3  -4 -11 3040.35 421.249   1
   3  -7 -11 431.633 484.274   1
   4  -7  -6 68.5731 376.971   1
   3 -10   0 2183.45 347.767   1
   3 -11  -3 547.335 377.583   1
   3 -11  -4 121.752 414.433   1
   4  -8  -5 128.833 350.178   1
   4  -7  -7 2338.62 448.676   1
   4  -8  -6 1593.23 407.255   1
   3 -11  -2 117.099 355.755   1
   4  -8  -7 3682.60 504.566   1
   2  -2 -13-210.450 321.024   1
   3  -3  -4 65.6642 140.919   1
   3  -5 -12-317.017 420.748   1
   4  -7  -8 112.655 426.159   1
   2  -4 -14 156.818 403.015   1
   3 -11  -1 307.034 345.715   1
   3  -6 -12 1350.93 471.007   1
   4  -9  -5 427.065 399.386   1
   4  -9  -4 797.089 372.438   1
   4  -7  -3 1873.83 298.773   1
   3  -4 -12-478.209 371.967   1
   4  -8  -8 647.619 483.038   1
   2  -3 -14 2676.49 447.945   1
   4  -5  -7 1330.41 323.655   1
   4  -6  -9-246.873 405.481   1
   2  -1 -12 1724.58 272.314   1
   4  -9  -7 1621.04 488.502   1
   3 -10   1-188.410 279.551   1
   4  -8  -9 3713.03 553.944   1
   3  -2  -7 133.144 171.981   1
   4  -5  -9-24.1805 347.988   1
   4 -10  -5 2604.73 502.537   1
   4  -9  -2-105.465 327.312   1
   4  -9  -8 453.611 490.737   1
   4  -6 -10 610.959 443.075   1
   4 -10  -6 1905.19 482.087   1
   3  -5 -13 4121.15 543.359   1
   4  -7 -10 2859.18 523.233   1
   4  -7  -2 30.7942 228.935   1
   3  -4 -13 2614.82 469.118   1
   4 -10  -7-258.598 488.951   1
   4 -10  -2 1209.14 394.768   1
   4  -8 -10-470.431 483.691   1
   4  -9  -9 1151.81 548.501   1
   4  -4  -7 728.588 241.161   1
   4  -6 -11-541.886 460.691   1
   4  -4  -9 1933.60 325.520   1
   4  -7 -11-965.498 511.740   1
   4 -11  -4 739.850 455.958   1
   4 -11  -3 232.601 389.129   1
   3  -3 -13 2703.89 393.300   1
   4 -10  -1 39.2805 312.311   1
   4  -4 -10 1478.98 351.495   1
   3  -5 -14 497.453 465.796   1
   3  -2  -5 97.4430 138.265   1
   4  -7  -1 377.803 234.695   1
   4 -11  -2 247.639 393.412   1
   2   0 -11 208.723 177.039   1
   3  -4 -14 265.936 420.211   1
   3  -2 -12 1778.66 316.530   1
   4  -6 -12 652.563 478.996   1
   4  -7 -12 1662.03 544.692   1
   4  -4 -11 1245.73 371.811   1
   4  -5 -12 733.958 439.885   1
   4  -9   0-0.29401 279.802   1
   5   4   4 1923.97 457.478  -2
   5  -8  -6 1923.97 457.478   1
   4 -11  -1 561.615 384.072   1
   5   4   6 2986.74 526.101  -2
   5  -8  -8 2986.74 526.101   1
   5   3   6 2190.99 462.453  -2
   5  -7  -8 2190.99 462.453   1
   5   5   5 4.67277 469.353  -2
   5  -9  -7 4.67277 469.353   1
   4  -3  -8 213.155 230.373   1
   5   5   6 1450.94 512.841  -2
   5  -9  -8 1450.94 512.841   1
   4  -4 -12 380.133 364.434   1
   5   4   7 3696.63 565.460  -2
   5  -8  -9 3696.63 565.460   1
   3  -2 -13 1669.35 324.922   1
   4  -6 -13 3106.55 562.556   1
   4  -3 -10 596.533 258.462   1
   4  -3  -7 1015.27 205.784   1
   4  -5 -13 248.914 436.579   1
   5   6   5 1349.59 534.048  -2
   5 -10  -7 1349.59 534.048   1
   5   6   2 493.966 434.399  -2
   5 -10  -4 493.966 434.399   1
   3  -1 -10 66.9682 194.143   1
   5   4   8 1223.47 555.794  -2
   5  -8 -10 1223.47 555.794   1
   5   7   3 1125.10 483.881  -2
   5 -11  -5 1125.10 483.881   1
   5   3   9 4025.75 579.097  -2
   5  -7 -11 4025.75 579.097   1
   4  -9   1 306.247 249.915   1
   5   7   2 1044.57 455.702  -2
   5 -11  -4 1044.57 455.702   1
   5   2   9 3116.07 492.021  -2
   5  -6 -11 3116.07 492.021   1
   5   3   1 1202.81 276.859  -2
   5  -7  -3 1202.81 276.859   1
   4  -5 -14 473.903 453.427   1
   1   1  -5 19.9798 56.0393   1
   5   6   0 1227.32 416.419  -2
   5 -10  -2 1227.32 416.419   1
   3  -8   3 181.912 166.602   1
   5   3  10 3715.46 626.320  -2
   5  -7 -12 3715.46 626.320   1
   5   2  10 55.3130 483.132  -2
   5  -6 -12 55.3130 483.132   1
   2  -5   3 80.5703 84.4207   1
   4  -3 -13-111.342 346.943   1
   5   1  10 1338.02 436.373  -2
   5  -5 -12 1338.02 436.373   1
   4  -5  -1 1202.22 173.761   1
   6  -9  -7 1422.33 506.337   1
   6  -8  -7-649.162 433.212   1
   5   2  11 1952.29 519.615  -2
   5  -6 -13 1952.29 519.615   1
   6  -8  -8 758.973 489.246   1
   6  -9  -6-1151.73 457.624   1
   6  -9  -8-308.040 521.704   1
   5   7  -1 1091.04 371.644  -2
   5 -11  -1 1091.04 371.644   1
   1   0  -2 67.4978 43.3792   1
   6  -8  -6-214.778 409.143   1
   6  -8  -9-639.582 505.012   1
   6  -9  -5 199.680 459.118   1
   6 -10  -6 1432.70 521.486   1
   4  -3 -14 1384.63 375.691   1
   6 -10  -7 2723.89 541.599   1
   6  -9  -9 2263.66 578.101   1
   6  -7  -9 766.551 449.682   1
   6 -10  -5-705.944 426.748   1
   5   1  11 1349.14 431.654  -2
   5  -5 -13 1349.14 431.654   1
   3  -7   3 197.209 130.098   1
   6  -8 -10 2557.40 601.120   1
   6  -7  -6-351.545 375.293   1
   6  -7 -10-1028.81 497.734   1
   6 -10  -4 1230.27 438.689   1
   6 -11  -5-205.563 394.040   1
   6  -6  -9-490.830 388.019   1
   6  -6  -8-337.111 358.030   1
   4  -2 -13 74.3999 269.844   1
   6  -7 -11-913.023 474.244   1
   6  -7  -5 1458.92 372.217   1
   6  -6 -10 110.956 422.537   1
   3  -1  -5 412.696 118.310   1
   6  -6  -7-114.720 344.587   1
   5   1  12 2707.41 479.584  -2
   5  -5 -14 2707.41 479.584   1
   6 -10  -3 690.076 379.259   1
   5   0  11 1523.09 398.944  -2
   5  -4 -13 1523.09 398.944   1
   6  -9  -3 1885.82 390.697   1
   2   1  -9 28.4508 107.818   1
   6  -6 -11 2665.67 493.510   1
   6  -7 -12-27.2724 505.874   1
   6 -11  -3 3050.61 457.663   1
   5   4  -2 193.644 243.594  -2
   5  -8   0 193.644 243.594   1
   6  -7  -4 110.934 291.264   1
   6  -8  -3 682.349 321.246   1
   6  -6 -12 1642.10 493.882   1
   1   2  -9 720.336 92.8756   1
   6 -10  -2 165.505 383.082   1
   6  -5 -10-341.744 371.879   1
   6 -11  -2 630.408 364.206   1
   5   6  -3 941.843 291.107  -2
   5 -10   1 941.843 291.107   1
   6  -5  -7-180.202 300.209   1
   6  -6 -13-173.729 456.216   1
   5  -1  11 3046.77 396.424  -2
   5  -3 -13 3046.77 396.424   1
   6  -5 -12 324.788 396.595   1
   4  -1 -11 672.903 229.806   1
   7  -9  -8 2079.92 522.964   1
   7  -9  -7 1153.88 497.291   1
   6  -8  -2-358.982 269.189   1
   7 -10  -7-422.957 472.694   1
   7  -9  -9-631.701 517.522   1
   3  -2  -2 285.805 94.9386   1
   7  -8  -9-974.083 507.844   1
   7 -10  -6-422.081 465.772   1
   7  -9  -6 51.3085 445.079   1
   7  -8  -7 318.708 437.956   1
   6 -10  -1-235.337 350.781   1
   3  -4   1 28.3735 91.2610   1
   7  -8 -10 3465.88 558.241   1
   6 -11  -1 1081.11 376.031   1
   6  -5 -13 257.196 406.406   1
   7  -8  -6 271.412 407.410   1
   7  -9  -5 761.072 432.906   1
   7  -7  -9 3443.67 502.949   1
   6  -4 -10 775.067 331.315   1
   1   2  -8 299.578 77.1943   1
   7  -7 -10-47.8884 445.014   1
   7 -11  -5 2068.30 473.762   1
   6  -4  -9 1103.02 309.364   1
   6  -4 -11 1171.92 354.859   1
   7  -7  -7 426.750 359.277   1
   7  -7 -11 111.837 479.617   1
   7  -8  -5 2610.31 451.582   1
   6  -4  -8 308.077 289.790   1
   7 -11  -4 322.419 449.849   1
   7  -9  -4 3373.63 455.557   1
   6  -8  -1 1341.21 277.613   1
   7  -6  -9 3003.88 453.323   1
   7  -6 -10-55.9682 401.199   1
   6  -4 -13 1265.11 411.437   1
   7 -10  -3-370.811 413.929   1
   6 -10   0 146.819 325.605   1
   7  -6 -11 1939.02 475.263   1
   4  -8   3 1214.31 185.511   1
   7 -11  -3 572.746 387.250   1
   7  -8  -4 1360.45 368.564   1
   5  -2  11 1798.44 319.429  -2
   5  -2 -13 1798.44 319.429   1
   7  -9  -3 2680.38 409.797   1
   7  -6  -7-75.9548 354.146   1
   7  -6 -12 1295.28 442.481   1
   6  -4 -14 261.269 379.808   1
   7  -6 -13 273.639 477.093   1
   7  -6  -6 1571.14 359.648   1
   7 -11  -2 2246.82 458.119   1
   7 -10  -2 1467.53 413.260   1
   7  -5 -10-74.7840 364.650   1
   6  -3 -11 1091.57 321.142   1
   7  -8  -3 2270.70 354.729   1
   7  -5  -9 972.482 352.585   1
   8  -9  -8-47.7778 475.958   1
   8 -10  -7 152.160 526.157   1
   7  -7  -4 249.862 295.926   1
   8  -9  -7 448.009 475.050   1
   4  -6   2 581.587 136.628   1
   8 -10  -6 354.001 497.383   1
   7  -5  -8 755.317 343.002   1
   8  -8 -10 231.848 510.363   1
   6  -3 -13 1281.01 361.099   1
   8  -9  -6 196.225 425.564   1
   7  -6  -5 2007.30 315.490   1
   7  -5 -13 299.270 407.296   1
   6  -4  -5 103.283 221.731   1
   8  -8  -7 506.169 431.162   1
   6  -3  -8 563.874 259.879   1
   8 -10  -5 818.804 487.089   1
   6  -3 -14 1004.41 347.564   1
   8  -7 -10 466.301 442.593   1
   8  -7  -9 109.280 402.275   1
   4   0 -11 175.979 179.753   1
   7 -10  -1 1658.23 364.958   1
   8  -8  -6 269.190 375.479   1
   8  -7 -11 568.039 472.144   1
   8  -7  -8 963.962 426.880   1
   7  -7  -3 2401.67 336.802   1
   7  -8  -2 2395.62 335.021   1
   8 -11  -4 1407.90 483.269   1
   8 -10  -4-140.638 403.927   1
   6  -9   1 739.482 263.604   1
   7  -4 -11 1560.37 352.653   1
   8  -7  -7 1715.31 409.610   1
   7  -4 -12 311.296 354.091   1
   7  -9  -1 1050.41 322.115   1
   8  -8  -5 226.473 379.591   1
   8  -6 -10 1740.57 421.115   1
   4   0  -9 105.775 160.062   1
   7  -4 -13 48.8363 338.346   1
   8  -6 -11 713.162 407.518   1
   8 -11  -3 438.792 397.616   1
   8  -6 -12 2631.02 500.782   1
   7  -4  -8 1141.16 313.044   1
   8  -6  -8 1813.84 396.103   1
   3   1  -9 332.365 125.101   1
   6  -2 -12 1373.45 290.413   1
   7  -4 -14 583.079 362.380   1
   7  -5  -5 208.113 251.087   1
   7 -10   0 603.455 298.604   1
   8  -8  -4 460.787 365.131   1
   7  -7  -2 1104.17 276.667   1
   6  -2 -13 1522.98 314.911   1
   6  -5  -2 168.004 199.079   1
   8  -9  -3 224.267 365.466   1
   7  -8  -1 151.563 268.752   1
   8  -6  -7 914.131 341.857   1
   9  -9  -8 1447.99 491.001   1
   8 -11  -2 105.174 335.358   1
   3  -5   3 608.909 92.2188   1
   9  -9  -7-65.3584 455.363   1
   8  -5 -11 21.5296 382.865   1
   9 -10  -6 521.394 440.093   1
   8  -5 -10 912.491 368.258   1
   9  -8  -9 2969.60 519.691   1
   8  -5 -12 3038.63 445.275   1
   9  -8  -8 556.591 435.364   1
   8  -5  -9 452.294 362.796   1
   7  -3 -11 680.897 315.774   1
   9  -9  -6 42.9565 450.184   1
   8  -5 -13 1193.73 412.926   1
   6  -3  -5 726.224 204.137   1
   7  -5  -4 637.944 241.405   1
   6  -2  -8 92.4544 216.872   1
   9 -10  -5 1577.13 479.401   1
   7  -4  -6 296.008 239.315   1
   6  -9   2 1593.04 254.371   1
   8  -7  -4 1155.29 315.198   1
   9  -8  -7 1451.38 406.519   1
   8  -9  -2 289.775 314.650   1
   8  -5  -8 319.177 319.054   1
   9  -7 -10-426.476 449.068   1
   5   4  -5 849.336 181.043  -2
   5  -8   3 849.336 181.043   1
   9  -7  -9 3313.42 496.433   1
   7  -3  -9 1727.61 317.658   1
   8 -11  -1 606.222 391.932   1
   7  -3 -14-63.1513 317.194   1
   9 -11  -4 1056.84 442.059   1
   9  -9  -5 2619.10 467.942   1
   9  -8  -6 3176.47 451.206   1
   8  -6  -5 848.728 315.900   1
   9  -7  -8 3212.71 460.822   1
   2   1  -5 40.8336 63.9808   1
   9 -10  -4 250.667 432.216   1
   7  -8   0 836.819 259.922   1
   4  -4   1 185.340 112.525   1
   9  -7  -7 499.478 401.194   1
   8  -4 -11 1589.41 371.034   1
   8  -4 -12 353.015 366.225   1
   7  -4  -5 955.763 264.523   1
   9  -6 -11 194.936 437.201   1
   9  -9  -4 185.856 420.575   1
   9 -11  -3-248.693 442.655   1
   8  -4 -10 1942.88 391.801   1
   9  -8  -5 2105.28 438.573   1
   9  -6 -10-212.668 409.599   1
   8  -4 -13 1051.91 405.419   1
   8  -9  -1 665.703 312.089   1
   9  -6  -9-406.247 401.988   1
   6  -3  -4 758.341 184.278   1
   8  -5  -6 2415.49 344.084   1
   6  -8   2 1570.24 229.927   1
   9 -10  -3 3385.05 470.664   1
   8  -4  -9 910.774 362.126   1
   9  -7  -6-327.804 410.100   1
   6  -1 -11 94.6019 250.828   1
   9  -6  -8 914.013 410.448   1
   6  -4  -2 852.836 194.629   1
   6  -2  -6 175.876 200.012   1
   6  -1 -10 161.517 229.885   1
   9  -8  -4-627.841 400.084   1
   7  -2 -12-105.919 314.642   1
   9  -9  -3 697.640 402.215   1
   9 -11  -2 420.489 404.204   1
   8 -10   0 613.093 334.024   1
   7  -2 -13 1056.97 320.575   1
   9  -7  -5 1153.83 389.500   1
   9  -5 -11 1561.34 456.069   1
   9  -5 -12-131.119 418.709   1
   7  -6  -1 82.9331 232.477   1
   7  -2 -10 1303.31 290.388   1
   8  -7  -2 261.649 297.161   1
   9 -10  -2 1095.72 416.284   1
   8  -8  -1 1033.28 313.906   1
  10   0   4 1073.07 469.179  -2
  10  -8  -8 1073.07 469.179   1
   7  -3  -6 494.265 230.594   1
  10   1   2-551.392 468.328  -2
  10  -9  -6-551.392 468.328   1
   2   2  -8 164.024 83.3142   1
   7  -8   1 913.913 250.050   1
   8  -3 -12 379.869 361.740   1
  10   0   3 2393.31 520.776  -2
  10  -8  -7 2393.31 520.776   1
   7  -2  -9-64.5427 264.779   1
   9  -6  -6 1939.98 387.724   1
   7  -5  -2 987.053 238.479   1
   8  -3 -13 1292.31 371.888   1
   9  -8  -3 1381.82 371.621   1
   6  -6   1 274.967 171.090   1
  10  -1   5 3093.56 524.694  -2
  10  -7  -9 3093.56 524.694   1
   9  -9  -2 515.097 380.254   1
   9  -7  -4 1161.61 393.111   1
   9 -11  -1 1418.88 421.280   1
   9  -5  -8-42.5312 390.279   1
  10   1   1-512.792 476.949  -2
  10  -9  -5-512.792 476.949   1
   6  -7   2-8.86796 193.650   1
  10   2   0 979.062 442.682  -2
  10 -10  -4 979.062 442.682   1
  10  -1   4 1271.69 463.846  -2
  10  -7  -8 1271.69 463.846   1
   8  -4  -6 1524.78 306.874   1
   7  -9   2 781.671 269.782   1
   8  -3  -9 2171.46 365.111   1
   9 -10  -1-386.300 360.584   1
   7  -3  -5 1264.09 257.506   1
   9  -6  -5-336.578 350.200   1
   9  -5  -7 1973.44 385.622   1
  10  -1   3 1257.58 448.072  -2
  10  -7  -7 1257.58 448.072   1
   9  -4 -12-154.058 377.671   1
   9  -4 -11 1986.80 428.877   1
  10  -2   6 190.276 453.263  -2
  10  -6 -10 190.276 453.263   1
   9  -4 -13 3665.62 485.290   1
  10   1   0 1591.16 489.135  -2
  10  -9  -4 1591.16 489.135   1
  10   0   1 1599.42 476.180  -2
  10  -8  -5 1599.42 476.180   1
   9  -4 -10 1676.31 407.006   1
   8  -6  -2 1180.66 303.593   1
   8  -3  -8 1967.53 343.042   1
   9  -8  -2 291.007 341.269   1
  10  -2   5 499.526 430.833  -2
  10  -6  -9 499.526 430.833   1
  10   2  -1-908.352 407.961  -2
  10 -10  -3-908.352 407.961   1
   7  -6   0 488.106 222.656   1
   9  -9  -1-90.9702 362.398   1
  10  -1   2-314.658 417.267  -2
  10  -7  -6-314.658 417.267   1
   8  -4  -5 1552.28 332.530   1
   9  -4  -9-313.879 355.220   1
   9  -5  -6-88.9317 334.814   1
  10  -2   4 273.502 413.376  -2
  10  -6  -8 273.502 413.376   1
   9  -6  -4 1821.85 367.938   1
   7  -1 -12 68.6433 269.933   1
  10   0   0 2246.80 468.469  -2
  10  -8  -4 2246.80 468.469   1
   8  -3  -7 512.189 299.971   1
  10   1  -1 3551.32 478.223  -2
  10  -9  -3 3551.32 478.223   1
   7  -8   2 1242.46 256.188   1
   4  -4   2 215.182 107.713   1
   9 -10   0 1810.24 366.734   1
   8  -2 -12 348.502 312.018   1
  10  -3   7 1238.00 445.256  -2
  10  -5 -11 1238.00 445.256   1
  10  -1   1 412.752 411.190  -2
  10  -7  -5 412.752 411.190   1
   8  -2 -11 185.042 319.758   1
  10   2  -2 270.557 417.019  -2
  10 -10  -2 270.557 417.019   1
  10  -3   6 3508.42 508.355  -2
  10  -5 -10 3508.42 508.355   1
   5   0  -3 386.775 138.728  -2
   5  -4   1 386.775 138.728   1
   9  -5  -5 1709.21 338.608   1
   7  -2  -6 427.426 219.043   1
   6  -1  -6 906.564 193.074   1
   8  -2 -10 265.882 294.771   1
   8  -7   0 850.002 290.468   1
   9  -3 -12 488.212 372.215   1
   9  -3 -13 476.498 378.877   1
  10  -2   2 2828.35 449.625  -2
  10  -6  -6 2828.35 449.625   1
   9  -3 -11 1230.34 375.148   1
   7  -1  -9 143.952 230.403   1
   9  -6  -3 1855.98 351.824   1
  10   0  -1 1039.62 380.634  -2
  10  -8  -3 1039.62 380.634   1
  11  -9  -5 201.872 441.892   1
   9  -9   0 736.061 332.252   1
   8  -8   1 664.294 270.284   1
  10   1  -2 1647.24 416.481  -2
  10  -9  -2 1647.24 416.481   1
  11  -7  -8 2350.37 532.177   1
  11  -8  -6 350.003 478.752   1
  10  -1   0 2936.24 446.938  -2
  10  -7  -4 2936.24 446.938   1
   9  -3 -10 738.868 372.434   1
   6   0  -9 854.443 221.189   1
   6  -4   0 91.7309 162.757   1
  10   2  -3 1844.14 416.214  -2
  10 -10  -1 1844.14 416.214   1
   9  -4  -6 257.596 337.181   1
   9  -3  -9 852.281 361.083   1
  11  -7  -7 2687.06 519.311   1
  10  -4   8 1273.47 413.855  -2
  10  -4 -12 1273.47 413.855   1
   7  -3  -3 655.611 215.057   1
  10  -4   7 2864.38 446.185  -2
  10  -4 -11 2864.38 446.185   1
  11  -9  -4 415.893 403.023   1
   8  -9   2 240.616 279.502   1
  11  -8  -5 827.566 445.235   1
   7  -7   2 280.501 208.822   1
  11  -6  -9 458.461 454.181   1
  10  -4   6 2939.82 475.646  -2
  10  -4 -10 2939.82 475.646   1
   9  -7  -1 1984.49 351.176   1
  10   0  -2 1839.90 391.480  -2
  10  -8  -2 1839.90 391.480   1
  11  -7  -6 288.768 451.706   1
  10   1  -3 1751.41 419.727  -2
  10  -9  -1 1751.41 419.727   1
  11  -6  -8 940.797 466.977   1
  10  -4   5 164.633 416.845  -2
  10  -4  -9 164.633 416.845   1
   9  -4  -5 1877.93 334.636   1
   8  -2  -7 2091.64 148.851   1
   7  -1  -7 378.457 232.226   1
   8  -7   1 444.468 256.819   1
  11  -9  -3 653.131 414.742   1
   9  -9   1 56.6882 292.361   1
   8  -1 -12 1176.61 316.387   1
   9  -5  -3 428.173 318.257   1
  11  -6  -7 156.744 415.557   1
  10  -4   4 2405.17 417.518  -2
  10  -4  -8 2405.17 417.518   1
   9  -2 -12 1539.05 367.865   1
   9  -3  -7 660.052 317.203   1
   8  -5  -1 588.909 255.779   1
  11 -10  -2 1065.93 435.279   1
  11  -7  -5-175.099 433.409   1
  11  -5 -10-336.461 445.849   1
   9  -2 -11 2409.76 388.213   1
   8  -8   2 121.294 250.088   1
   7   0 -11 643.992 261.162   1
   6   0  -7 824.181 212.047   1
   2   2  -6 361.937 73.6536   1
   8  -1 -10 1040.23 287.488   1
  11  -5  -9 926.276 435.158   1
  10  -3   1 1615.66 378.662  -2
  10  -5  -5 1615.66 378.662   1
  10   0  -3 719.056 375.841  -2
  10  -8  -1 719.056 375.841   1
  10  -5   8-74.6895 359.564  -2
  10  -3 -12-74.6895 359.564   1
   9  -2 -10 150.903 332.549   1
  11  -6  -6 403.188 446.891   1
   8  -2  -6 390.411 289.956   1
  10  -5   7 530.791 388.254  -2
  10  -3 -11 530.791 388.254   1
   7   0 -10 142.179 250.317   1
   9  -7   0 90.9486 294.998   1
   9  -4  -4 2103.31 327.768   1
   6  -5   2-17.4209 172.018   1
  11  -9  -2 1324.96 410.849   1
  10   1  -4 1325.38 353.338  -2
  10  -9   0 1325.38 353.338   1
  10  -2  -1 1614.82 368.888  -2
  10  -6  -3 1614.82 368.888   1
  11  -5  -8 1996.00 471.975   1
  11  -7  -4 763.636 450.990   1
   8  -1  -9 1435.95 307.451   1
  10  -5   6 1409.86 420.085  -2
  10  -3 -10 1409.86 420.085   1
   9  -8   1 1960.77 348.687   1
   9  -2  -9 419.834 327.280   1
   7  -5   1-23.4520 205.092   1
  11 -10  -1 1012.01 391.768   1
  10  -5   5 3060.30 435.236  -2
  10  -3  -9 3060.30 435.236   1
  11  -6  -5 1666.21 446.266   1
  11  -5  -7 1766.49 448.111   1
   7  -4   0 45.0842 191.318   1
   7  -7   3 27.6576 203.365   1
   9  -2  -8 110.531 302.389   1
   6   1 -10 239.799 196.183   1
   8  -1  -8 359.123 271.580   1
   8  -6   1 801.983 245.759   1
  11  -4 -10-59.0209 411.836   1
   4  -4   3 193.832 103.313   1
   8  -3  -3 229.007 267.114   1
   6  -3   0 700.328 196.959   1
  11  -8  -2 298.994 409.978   1
  11  -7  -3 389.305 396.197   1
   9  -4  -3 1070.37 310.668   1
  11  -4  -9 1481.86 453.470   1
  10  -2  -2 879.711 366.889  -2
  10  -6  -2 879.711 366.889   1
  11  -5  -6 132.867 431.184   1
  11  -6  -4 758.897 398.463   1
  10   1  -5 624.053 335.826  -2
  10  -9   1 624.053 335.826   1
   9  -2  -7 1243.16 321.272   1
   9  -1 -12-127.423 313.117   1
   9  -6   0 1242.05 319.173   1
   8  -1  -7-101.733 285.536   1
  11  -4  -8 675.267 442.762   1
  12  -7  -5 1011.42 464.385   1
   9  -1 -11 574.214 340.518   1
   9  -8   2-210.799 285.944   1
   8   0 -11 1949.36 315.447   1
   6  -2  -1 1172.81 207.448   1
  11  -5  -5 1718.80 430.987   1
   9  -1 -10 2515.54 358.059   1
   9  -3  -4 633.463 314.569   1
   8  -2  -4-302.140 256.567   1
  11  -8  -1-267.070 373.527   1
   4  -2   1 112.236 107.541   1
  10  -6   6 1392.90 383.467  -2
  10  -2 -10 1392.90 383.467   1
  12  -6  -6-420.378 446.405   1
  11  -4  -7 181.039 407.595   1
  11  -3 -11 496.660 415.826   1
  12  -8  -3-659.885 448.733   1
  11  -9   0 3503.14 442.132   1
   8   0 -10 1565.74 305.266   1
  10  -4   0 2953.65 411.873  -2
  10  -4  -4 2953.65 411.873   1
  11  -6  -3 581.134 397.269   1
  10  -2  -3 2490.86 383.726  -2
  10  -6  -1 2490.86 383.726   1
  12  -7  -4 685.125 454.465   1
  10  -5   2 1419.36 371.540  -2
  10  -3  -6 1419.36 371.540   1
  11  -3 -10 145.913 398.531   1
  10  -6   5 641.667 366.620  -2
  10  -2  -9 641.667 366.620   1
  10   0  -5 2177.68 374.788  -2
  10  -8   1 2177.68 374.788   1
   8  -6   2 1678.26 282.073   1
  11  -3  -9-76.8493 383.813   1
  12  -6  -5 46.7507 431.898   1
  11  -4  -6 1703.77 449.180   1
  12  -5  -7 617.476 463.638   1
  11  -5  -4-473.875 390.317   1
   5  -4   1 417.054 148.752  -2
   5   0  -3 417.054 148.752   1
  10  -6   4 80.2722 355.684  -2
  10  -2  -8 80.2722 355.684   1
   8  -4   0 252.232 248.267   1
   9  -6   1 647.843 301.659   1
   7   1 -10-121.604 239.284   1
  12  -8  -2 1901.87 443.104   1
  11  -7  -1 1213.94 422.615   1
   6   1  -7 898.330 195.737   1
   9  -5   0 1572.10 331.435   1
  12  -7  -3 320.125 474.996   1
  11  -8   0 1099.67 426.771   1
   7  -7   4 1377.21 227.201   1
   8  -2  -3 1720.20 297.508   1
  11  -3  -8 99.2328 443.110   1
   3   1  -3 272.384 94.7297   1
  10  -4  -1 608.312 364.557  -2
  10  -4  -3 608.312 364.557   1
  11  -6  -2 2123.62 445.534   1
   6   0  -4 49.5581 178.233   1
  12  -5  -6 3315.08 499.667   1
   8   0  -8 434.371 267.501   1
  11  -4  -5 351.247 432.787   1
  12  -6  -4-93.9716 481.045   1
  11  -9   1 161.016 402.431   1
  10  -6   3 468.408 384.666  -2
  10  -2  -7 468.408 384.666   1
   7   1  -9 1347.19 275.813   1
   9  -4  -1 336.716 317.109   1
   8  -3  -1-74.8721 253.514   1
  10  -1  -5-425.549 360.367  -2
  10  -7   1-425.549 360.367   1
   9  -1  -7 177.059 315.986   1
   9  -8   3 144.020 310.785   1
  11  -5  -3 150.734 386.366   1
  10  -7   7 178.655 353.916  -2
  10  -1 -11 178.655 353.916   1
  11  -3  -7 1336.65 464.817   1
  11  -2 -11-43.7712 396.689   1
   9   0 -11 1834.22 359.030   1
  12  -5  -5 1520.10 502.342   1
  10  -5   0 531.139 369.632  -2
  10  -3  -4 531.139 369.632   1
  12  -8  -1 1177.36 449.074   1
   9  -2  -4 58.9990 309.118   1
  12  -7  -2 449.470 461.078   1
  11  -2 -10 3190.54 482.093   1
   8   0  -7 650.716 306.042   1
  12  -4  -7-348.091 483.589   1
   7   1  -8-140.332 252.121   1
  11  -7   0-715.979 388.354   1
   9   0 -10-210.299 315.459   1
  11  -4  -4 1421.20 433.218   1
  12  -6  -3 1208.62 464.596   1
  11  -6  -1-238.853 386.801   1
  10  -7   5 3010.88 444.038  -2
  10  -1  -9 3010.88 444.038   1
  11  -8   1 1470.78 424.297   1
  11  -2  -9 3816.88 524.712   1
   3   2  -5 610.763 107.974   1
   8  -6   3 82.2366 260.067   1
   7  -5   3 281.803 230.352   1
  11  -5  -2 73.7840 389.267   1
   9   0  -9 730.115 337.603   1
  12  -4  -6 1729.60 518.987   1
  12  -5  -4-358.169 483.964   1
   6  -1  -1 184.170 187.779   1
   9  -7   3 91.3164 298.949   1
  11  -2  -8 371.753 411.420   1
  12  -7  -1-119.978 466.125   1
   8  -7   4 1047.68 268.324   1
   7  -1  -2 43.8342 242.526   1
  10  -3  -4 644.292 381.213  -2
  10  -5   0 644.292 381.213   1
   9  -2  -3-19.9919 331.915   1
  11  -3  -5 643.332 464.146   1
  12  -8   0 529.839 455.606   1
  12  -6  -2 2429.15 494.163   1
   9  -1  -5 2305.10 352.224   1
   9   0  -8 32.4191 307.828   1
  12  -4  -5 458.235 495.479   1
  10  -4  -3 1103.79 386.870  -2
  10  -4  -1 1103.79 386.870   1
   9  -3  -1 1346.07 344.057   1
  11  -2  -7 791.712 453.610   1
  11  -6   0 2562.72 459.009   1
  11  -7   1 598.488 390.259   1
  10  -7   3 2600.72 412.468  -2
  10  -1  -7 2600.72 412.468   1
  12  -5  -3 777.821 465.854   1
   7  -2   0 323.224 221.698   1
  12  -3  -7 484.491 473.930   1
   6   2  -8 73.6722 199.546   1
  11  -5  -1 648.271 431.952   1
   8  -2  -1 27.7066 272.092   1
  11  -8   2 773.225 382.278   1
   3   3  -8 545.866 110.574   1
  11  -3  -4 204.088 423.560   1
  11  -1 -10 955.344 412.147   1
   9   0  -7 2101.06 364.382   1
   8   1  -8 563.198 306.255   1
  11  -2  -6-48.2871 418.773   1
  12  -7   0 2755.41 455.781   1
  11  -4  -2 3106.14 461.601   1
  12  -4  -4 1842.27 501.221   1
   9  -5   2 603.333 311.285   1
  12  -6  -1-131.630 445.504   1
   9  -2  -2 1236.97 339.401   1
  12  -3  -6 714.884 481.191   1
   8  -4   2 2186.41 311.804   1
  11  -1  -9 285.451 419.696   1
   9  -6   3 365.223 310.246   1
  12  -8   1 336.059 404.460   1
   6   1  -4 226.057 189.561   1
  12  -5  -2 626.438 457.527   1
   6   2  -7 113.841 197.770   1
  10  -8   5 1377.45 382.857  -2
  10   0  -9 1377.45 382.857   1
   7  -4   3 834.608 242.778   1
  10  -1  -7 2333.76 379.817  -2
  10  -7   3 2333.76 379.817   1
   8   1  -7-141.089 296.940   1
  11  -6   1 542.013 398.089   1
  11  -1  -8 90.8686 411.313   1
   9  -3   0 2046.10 354.044   1
  11  -3  -3-385.730 412.026   1
   8   0  -4 447.136 280.155   1
   7   1  -5 173.476 237.383   1
  11  -7   2 1883.04 404.523   1
  12  -3  -5 536.453 493.198   1
  12  -4  -3 1185.26 468.317   1
  10  -7   1 16.9593 374.090  -2
  10  -1  -5 16.9593 374.090   1
   3   3  -7 872.338 118.903   1
  11  -4  -1 43.4999 409.585   1
   7   2  -8 1445.78 272.137   1
   7  -2   1 1944.49 268.851   1
  12  -2  -7 1962.84 479.628   1
  12  -6   0 1666.13 476.059   1
  11  -1  -7 2402.24 459.048   1
   6  -3   3 606.071 188.847   1
   6   2  -6 266.846 199.759   1
   6  -4   4 70.5517 171.452   1
   8   1  -6-292.196 292.309   1
   9   0  -5 468.172 329.976   1
  12  -5  -1-75.0194 458.947   1
   4   2  -4 72.8024 135.680   1
  10  -8   3 672.500 399.610  -2
  10   0  -7 672.500 399.610   1
  11  -2  -4 3342.47 496.807   1
   9   1  -8-183.901 321.013   1
  12  -3  -4 1312.63 490.302   1
   3  -3   4 54.8625 87.8056   1
  11  -3  -2-200.803 412.111   1
   6   0  -1 165.165 199.700   1
  10  -3  -6 1836.01 400.714  -2
  10  -5   2 1836.01 400.714   1
  10  -6  -2 1512.77 420.181  -2
  10  -2  -2 1512.77 420.181   1
  12  -2  -6 1231.01 486.344   1
  12  -4  -2-141.226 457.177   1
  10  -2  -7 396.991 367.894  -2
  10  -6   3 396.991 367.894   1
  11  -1  -6 1248.89 453.974   1
   8  -1  -1 208.592 281.442   1
  11  -6   2 854.153 399.150   1
  11  -5   1 2990.23 474.297   1
   9  -6   4 332.944 285.013   1
   9  -3   1 1528.14 370.983   1
   8   2  -9-252.636 306.623   1
   8  -3   2-136.654 284.758   1
  11   0  -9-10.5449 385.323   1
   9  -1  -2 1599.52 359.999   1
  11  -7   3 29.1349 369.488   1
  11  -4   0-137.935 402.019   1
   9   0  -4 1205.05 357.816   1
  12  -6   1-14.3376 453.374   1
   2   2  -3 91.8850 75.3683   1
   6   2  -5 1315.02 242.810   1
  11  -2  -3 2013.89 487.723   1
  12  -3  -3 1187.67 527.074   1
  12  -2  -5 729.284 496.653   1
  12  -5   0 2467.14 522.348   1
  12  -7   2 417.802 396.052   1
  11  -1  -5 1070.29 436.003   1
   7  -3   3 1385.77 256.162   1
  11   0  -8 1865.39 447.667   1
  10  -9   5 3083.97 445.882  -2
  10   1  -9 3083.97 445.882   1
  12  -4  -1 1379.78 504.179   1
  10  -6  -3 2069.29 426.221  -2
  10  -2  -1 2069.29 426.221   1
   9   1  -6-112.456 331.811   1
   7   0  -1-69.6122 254.584   1
   8   0  -2-10.7787 309.853   1
   7   1  -3 85.6531 273.550   1
   7  -5   5 310.488 221.112   1
   6   1  -2 1848.76 264.206   1
  -2  -8  -4 8290.80 615.730   1
   0   7   2 10170.3 444.583  -2
   0  -7  -2 10170.3 444.583   1
  -2  -9  -1 13832.5 641.906   1
  -1  -7  -5 15193.8 673.164   1
   0   5   6 10950.0 501.508  -2
   0  -5  -6 10950.0 501.508   1
   0   4   7 60311.1 938.565  -2
   0  -4  -7 60311.1 938.565   1
  -1  -1 -10 10080.4 450.381   1
   0   6   5 5169.30 426.625  -2
   0  -6  -5 5169.30 426.625   1
   0   7   3 18984.2 597.305  -2
   0  -7  -3 18984.2 597.305   1
   1  -4  -2 10486.9 334.835   1
   0   7  -3 74625.9 743.182  -2
   0  -7   3 74625.9 743.182   1
  -2  -9  -2 4903.67 564.435   1
  -1  -4  -9 6006.19 514.772   1
   0   2   8 43503.8 744.424  -2
   0  -2  -8 43503.8 744.424   1
  -1  -2 -10 5880.82 448.243   1
   1  -4  -3 11747.4 379.624   1
   0   0   7 2127.13 184.713  -2
   0   0  -7 2127.13 184.713   1
   1  -3  -2 67720.8 627.612   1
   1  -3  -3 83439.3 764.607   1
   0   1   8 83104.8 865.473  -2
   0  -1  -8 83104.8 865.473   1
  -1  -9   1 17353.6 582.412   1
   1  -5  -2 14861.6 417.181   1
   1  -5  -1 67251.0 741.481   1
  -1  -9   2 5893.29 409.013   1
  -2  -7  -7 8686.56 696.461   1
   1  -4  -4 30518.3 593.033   1
  -1  -8  -4 4247.77 520.575   1
   1  -5  -3 19829.5 488.042   1
  -1  -3 -10 5377.36 482.633   1
   0   8   0 6811.54 396.719  -2
   0  -8   0 6811.54 396.719   1
   1  -3  -1 62578.9 539.643   1
   0   8  -1 11356.6 427.853  -2
   0  -8   1 11356.6 427.853   1
   1  -4   0 11870.0 275.915   1
   0   6   6 7722.70 508.159  -2
   0  -6  -6 7722.70 508.159   1
   0   8   1 10913.2 479.502  -2
   0  -8  -1 10913.2 479.502   1
  -1  -9  -1 4549.80 476.075   1
   1  -5  -4 3746.91 328.006   1
   0   8  -2 3053.79 292.222  -2
   0  -8   2 3053.79 292.222   1
   1  -3  -5 22101.1 488.225   1
  -2  -1 -12 11191.1 565.711   1
   0   8   2 21714.0 642.034  -2
   0  -8  -2 21714.0 642.034   1
   1  -4  -5 3605.23 308.967   1
   1  -6  -1 29947.3 554.387   1
  -1  -6  -8 8345.61 610.596   1
  -1  -9  -2 5695.52 532.936   1
   1  -2  -3 2300.96 157.471   1
   0   7   5 36184.4 860.249  -2
   0  -7  -5 36184.4 860.249   1
  -1   1 -10 3555.44 254.003   1
   1  -2  -4 24054.6 391.967   1
  -1  -8  -5 5937.37 601.127   1
   0   7  -4 26210.0 427.302  -2
   0  -7   4 26210.0 427.302   1
   1  -6   0 22159.7 461.990   1
   1  -6  -3 10673.7 435.389   1
   0   0   8 47852.5 577.834  -2
   0   0  -8 47852.5 577.834   1
  -2  -4 -11 5497.40 592.267   1
   0   3   9 31821.3 736.591  -2
   0  -3  -9 31821.3 736.591   1
   0   8   3 8119.09 504.323  -2
   0  -8  -3 8119.09 504.323   1
  -1  -1 -11 4450.73 404.061   1
  -2  -7  -8 9494.09 729.097   1
   1  -5   1 39942.1 501.718   1
   0   5   8 18223.2 675.814  -2
   0  -5  -8 18223.2 675.814   1
   1  -2  -5 122322. 902.961   1
   1  -2  -2 2230.39 134.739   1
   0  -1   5 8702.77 156.939  -2
   0   1  -5 8702.77 156.939   1
   0   8  -3 10184.3 361.136  -2
   0  -8   3 10184.3 361.136   1
   1  -4  -6 2612.30 325.676   1
   1  -6  -4 4363.85 377.087   1
   0  -1   4 286866. 2688.92  -2
   0   1  -4 286866. 2688.92   1
  -1   2  -9 39951.6 442.951   1
  -1   0 -11 4434.99 330.496   1
   0   4   9 4977.39 458.699  -2
   0  -4  -9 4977.39 458.699   1
   0   7   6 4788.58 520.448  -2
   0  -7  -6 4788.58 520.448   1
   0   8   4 4932.08 500.103  -2
   0  -8  -4 4932.08 500.103   1
   1  -4   1 66812.6 529.909   1
   1  -7  -2 22790.3 580.925   1
   0  -1   6 75650.0 485.213  -2
   0   1  -6 75650.0 485.213   1
   1  -2  -6 22056.1 447.462   1
   1  -7   0 26284.4 546.902   1
   1  -7  -3 23526.3 616.104   1
   0   9   0 5545.02 419.122  -2
   0  -9   0 5545.02 419.122   1
   1  -3  -7 18556.4 513.812   1
   0   9  -1 34384.8 706.858  -2
   0  -9   1 34384.8 706.858   1
   1  -4  -7 37823.8 761.660   1
   0   2  10 5306.80 427.566  -2
   0  -2 -10 5306.80 427.566   1
   0   6   8 9500.46 604.456  -2
   0  -6  -8 9500.46 604.456   1
   0   8   5 11435.5 631.321  -2
   0  -8  -5 11435.5 631.321   1
   0   5   9 9401.47 583.331  -2
   0  -5  -9 9401.47 583.331   1
   0   3  10 32945.9 790.355  -2
   0  -3 -10 32945.9 790.355   1
   0   0   9 37292.2 549.341  -2
   0   0  -9 37292.2 549.341   1
   1  -7   1 4951.60 284.009   1
   1  -7  -4 8277.21 471.545   1
   0   9  -2 15352.3 489.041  -2
   0  -9   2 15352.3 489.041   1
   1  -2  -1 833.618 96.2595   1
   1  -6  -6 19078.5 649.129   1
   1  -5  -7 6742.11 468.201   1
   0   1  10 58889.7 820.902  -2
   0  -1 -10 58889.7 820.902   1
   0  -1   7 4033.86 162.698  -2
   0   1  -7 4033.86 162.698   1
   1  -6   2 35248.1 488.208   1
  -1  -1 -12 4954.89 439.202   1
   1  -5   2 66978.8 565.947   1
   1  -8  -1 7505.18 406.624   1
   1  -3  -8 7014.58 408.272   1
   1  -4  -8 9559.10 502.799   1
   1  -1  -5 9948.58 243.393   1
   1  -8   0 21920.6 553.293   1
   1  -1  -4 32463.1 362.226   1
  -1  -3 -12 10729.2 644.127   1
   0   5  -5 30013.0 260.611  -2
   0  -5   5 30013.0 260.611   1
   0   9   4 26459.6 823.710  -2
   0  -9  -4 26459.6 823.710   1
  -1  -5 -11 7662.65 640.613   1
   0   6   9 17799.8 741.112  -2
   0  -6  -9 17799.8 741.112   1
   1  -7   2 40966.1 575.787   1
   1  -6  -7 8914.68 535.158   1
   1  -1  -6 15248.1 314.205   1
   1  -5  -8 5164.95 481.445   1
   1  -8   1 12889.2 428.520   1
   0  -1   8 58902.5 527.556  -2
   0   1  -8 58902.5 527.556   1
   0   3  11 18628.1 674.901  -2
   0  -3 -11 18628.1 674.901   1
   0   0  10 6118.38 306.279  -2
   0   0 -10 6118.38 306.279   1
   1  -1  -3 60533.6 430.691   1
   0   8   7 4733.00 617.002  -2
   0  -8  -7 4733.00 617.002   1
   1  -1  -7 22056.4 405.926   1
   0   9   5 4983.99 604.495  -2
   0  -9  -5 4983.99 604.495   1
   0  10   0 5573.89 486.060  -2
   0 -10   0 5573.89 486.060   1
   0  10   1 19896.1 707.191  -2
   0 -10  -1 19896.1 707.191   1
   0   1  11 31283.5 659.372  -2
   0  -1 -11 31283.5 659.372   1
   1  -8  -5 13998.8 632.519   1
   1  -3   1 39698.5 320.998   1
   0  10   2 17376.3 692.695  -2
   0 -10  -2 17376.3 692.695   1
   1  -9  -1 13362.9 543.970   1
   2  -5  -4 9243.15 409.564   1
   1  -9  -2 11915.4 574.792   1
   1  -5  -9 15157.6 662.803   1
   1  -4   2 73331.3 472.315   1
   2  -6  -3 16024.8 493.896   1
   2  -6  -4 33361.2 693.112   1
   1  -1  -8 72796.4 741.059   1
   2  -6  -2 4690.94 309.565   1
   1  -8  -6 8707.31 603.756   1
   2  -4  -4 22762.6 486.071   1
   2  -5  -2 52614.8 683.835   1
   0   5  11 5017.13 592.698  -2
   0  -5 -11 5017.13 592.698   1
   2  -4  -5 41034.8 673.373   1
   0   8   8 21636.4 894.908  -2
   0  -8  -8 21636.4 894.908   1
   1  -6   3 17691.3 325.194   1
   0  -1   9 114990. 783.144  -2
   0   1  -9 114990. 783.144   1
   1  -7   3 14198.3 341.634   1
   2  -4  -3 3798.75 241.419   1
   2  -5  -6 20314.2 606.068   1
   1  -3 -10 5563.60 435.027   1
   2  -7  -3 19521.5 564.882   1
   0   2  12 25861.4 724.490  -2
   0  -2 -12 25861.4 724.490   1
   2  -4  -6 16772.3 485.338   1
   1  -7  -8 8093.16 615.467   1
   2  -7  -4 4727.04 409.076   1
   0   0  11 27640.4 538.072  -2
   0   0 -11 27640.4 538.072   1
   2  -7  -1 29785.9 601.135   1
   0   4  12 13871.1 687.077  -2
   0  -4 -12 13871.1 687.077   1
   2  -5  -1 56291.9 644.336   1
   1  -2 -10 5669.24 376.208   1
   1  -9  -5 4317.10 529.513   1
   2  -5  -7 29133.9 721.398   1
   1  -1  -9 18265.8 427.874   1
   2  -4  -2 36530.2 492.920   1
   0   1  12 2656.42 344.196  -2
   0  -1 -12 2656.42 344.196   1
   2  -4  -7 11824.1 458.925   1
   1  -2   0 7406.12 136.423   1
   0   7  10 5769.58 660.710  -2
   0  -7 -10 5769.58 660.710   1
   1  -1  -2 21249.2 229.900   1
   1  -8   3 11619.8 351.591   1
   0   6  11 7443.46 670.476  -2
   0  -6 -11 7443.46 670.476   1
   2  -3  -5 18385.0 411.177   1
   2  -3  -6 2103.72 244.280   1
   2  -6  -7 4224.71 465.412   1
   2  -3  -4 6303.28 248.172   1
   2  -8  -3 3709.77 408.031   1
   2  -7  -6 4819.21 475.766   1
   1  -5   3 4889.28 163.034   1
   2  -6   0 1533.78 208.159   1
   1  -7  -9 4388.46 574.058   1
   2  -7   0 26257.6 531.118   1
   0   5  12 8821.24 675.350  -2
   0  -5 -12 8821.24 675.350   1
   0  -1  10 26704.7 425.302  -2
   0   1 -10 26704.7 425.302   1
   2  -8  -1 6477.40 390.910   1
   2  -5  -8 7107.72 513.941   1
   2  -3  -7 3720.96 294.543   1
   2  -4  -8 10455.0 491.276   1
   1  -4 -11 7129.77 544.227   1
   2  -3  -3 57334.5 567.612   1
   1 -10   1 10509.8 484.479   1
   1  -2 -11 9547.03 453.407   1
   0   2  13 32037.7 815.720  -2
   0  -2 -13 32037.7 815.720   1
   2  -8   0 2555.82 299.667   1
   2  -4  -1 19057.9 333.565   1
   2  -3  -8 14881.6 466.822   1
   1   0  -6 41371.4 404.560   1
   1   0  -7 1540.88 150.095   1
   2  -8  -6 8973.84 589.552   1
   2  -9  -2 6792.27 465.506   1
   2  -9  -3 10430.6 545.127   1
   2  -4  -9 5609.09 427.498   1
   1   0  -8 4888.25 210.694   1
   2  -7   1 35669.4 563.631   1
   1   0  -5 38354.4 348.666   1
   1  -6 -11 5654.68 595.553   1
   2  -6  -9 9347.98 588.357   1
   2  -2  -6 25516.0 425.127   1
   2  -9  -5 5401.00 557.452   1
   2  -6   1 23057.6 406.807   1
   2  -3  -2 134507. 772.274   1
   1  -7   4 12291.7 279.215   1
   2  -2  -7 4057.75 255.035   1
   2  -2  -5 30705.1 429.012   1
   2  -4 -10 10537.8 523.461   1
   2  -2  -8 6921.37 303.821   1
   2  -2  -4 6640.57 203.677   1
   3  -6  -4 10771.5 453.841   1
   2 -10  -4 6556.13 539.256   1
   1  -6 -12 4888.51 580.120   1
   1  -6   4 10016.2 215.132   1
   2  -2  -9 16518.1 445.704   1
   2  -4   0 40559.5 416.876   1
   3  -5  -5 10384.5 409.808   1
   1   0  -4 40025.8 312.399   1
   3  -7  -6 5716.49 469.074   1
   2 -10   0 5321.97 385.364   1
   2  -5   1 27030.3 370.076   1
   2 -10  -5 8387.91 573.568   1
   2  -4 -11 7400.93 502.587   1
   1  -4 -13 6428.80 539.569   1
   3  -6  -7 3983.47 444.088   1
   3  -8  -4 8252.92 485.604   1
   3  -5  -4 39442.2 642.154   1
   2  -8   2 8345.84 329.274   1
   3  -5  -7 11519.2 510.526   1
   3  -8  -3 27766.4 684.326   1
   3  -7  -2 3284.87 330.772   1
   3  -7  -7 11758.3 575.758   1
   1  -2 -13 10853.2 501.621   1
   2  -2 -10 4212.15 303.374   1
   3  -8  -2 2489.75 328.443   1
   3  -6  -2 25816.8 521.893   1
   3  -5  -8 18504.9 625.799   1
   2 -10   1 11322.9 449.337   1
   2  -2  -3 53366.5 456.427   1
   3  -4  -7 9809.80 399.185   1
   3  -4  -5 10886.9 354.849   1
   1   0 -11 14242.9 375.273   1
   2 -11  -2 6249.84 489.290   1
   3  -9  -5 5716.64 492.076   1
   2  -6   2 124523. 796.068   1
   3  -7  -1 26651.1 553.506   1
   1  -1  -1 25038.4 201.015   1
   3  -8  -1 13051.8 470.788   1
   3  -4  -8 16091.1 522.278   1
   3  -6  -9 9266.46 585.821   1
   2 -11  -1 5544.81 469.969   1
   0  -2   8 24297.5 263.628  -2
   0   2  -8 24297.5 263.628   1
   3  -4  -4 5886.81 267.489   1
   3  -9  -6 7425.13 540.115   1
   1  -3   2 71005.6 333.720   1
   2  -2 -11 21005.7 539.038   1
   3  -8  -8 5264.86 539.627   1
   2  -1  -8 2178.59 191.254   1
   0  -2   9 19953.2 268.696  -2
   0   2  -9 19953.2 268.696   1
   3  -5  -2 5250.27 261.954   1
   3  -6  -1 5236.50 278.014   1
   3  -9  -1 10647.1 465.833   1
   0  -2   7 146179. 543.022  -2
   0   2  -7 146179. 543.022   1
   2  -1  -6 28611.5 383.593   1
   2  -1  -9 17803.9 395.636   1
   3  -6 -10 7208.29 567.547   1
   3 -10  -3 5506.86 474.221   1
   3  -8   0 6840.97 356.733   1
   3 -10  -2 14654.3 588.564   1
   3 -10  -5 4367.16 525.464   1
   3  -8  -9 7685.37 625.060   1
   3  -4  -3 39165.1 516.369   1
   3  -4 -10 6645.40 448.603   1
   3  -7   0 6311.98 307.216   1
   3  -3  -6 84279.0 801.249   1
   3  -3  -8 2249.77 255.143   1
   2  -8   3 29072.5 476.561   1
   3  -9   0 10391.5 423.968   1
   2  -1 -10 2048.21 223.794   1
   2  -2 -12 3444.50 343.935   1
   2  -1  -5 11052.7 231.387   1
   3  -3  -9 2279.08 294.157   1
   2  -3 -13 15841.6 618.281   1
   3  -3  -5 72036.1 694.526   1
   2  -7   3 2158.70 169.968   1
   2  -2  -2 58278.3 431.680   1
   1   0  -3 17672.5 182.224   1
   3  -6   0 4997.91 246.400   1
   4  -7  -5 6412.04 449.442   1
   2  -1 -11 10660.6 370.543   1
   2  -4   1 29085.4 315.015   1
   3  -3 -10 6372.80 379.731   1
   4  -6  -6 6723.80 428.385   1
   4  -8  -4 9324.44 501.911   1
   1   1  -8 10735.8 219.916   1
   2  -5   2 22758.3 299.320   1
   4  -7  -4 16946.9 550.180   1
   1   1  -9 42873.8 441.465   1
   4  -6  -7 21828.8 665.173   1
   1  -5   4 100163. 461.152   1
   0  -2   6 201767. 2111.20  -2
   0   2  -6 201767. 2111.20   1
   3  -8   1 5529.30 303.690   1
   4  -6  -5 3316.07 355.802   1
   3  -4  -2 58562.9 574.954   1
   3  -9   1 5508.99 334.247   1
   4  -6  -8 13185.3 576.748   1
   4  -8  -3 3723.22 381.435   1
   1   1 -10 28487.1 393.629   1
   4  -9  -6 4571.76 510.091   1
   3  -3 -11 8681.48 430.468   1
   4  -6  -4 2586.34 308.673   1
   1   1  -7 12554.4 210.714   1
   1  -2   1 6544.84 100.247   1
   3  -7   1 8566.03 298.832   1
   4  -9  -3 3857.41 438.517   1
   4  -7  -9 4400.32 542.044   1
   4  -5  -6 13041.0 447.850   1
   4  -5  -8 6008.64 415.789   1
   2  -3   0 160632. 2699.62   1
   2  -1  -4 2257.81 120.129   1
   3  -2  -8 35907.4 542.146   1
   4  -8  -2 19540.2 570.084   1
   4  -5  -5 14375.9 438.515   1
   3  -2  -9 41438.6 622.172   1
   4 -10  -4 3784.87 475.841   1
   4  -6  -3 15308.9 436.581   1
   4 -10  -3 7713.66 512.299   1
   3  -3 -12 2672.10 364.117   1
   2  -6   3 14168.0 257.206   1
   3  -2 -10 7448.08 340.259   1
   3  -2  -6 27601.2 431.657   1
   4  -5 -10 5873.77 487.490   1
   3  -3  -3 1980.39 159.789   1
   4  -5  -4 13430.0 398.051   1
   3  -5   0 4624.21 198.033   1
   4  -4  -8 11142.7 428.641   1
   3  -9   2 4357.19 296.089   1
   4  -9  -1 2807.72 342.640   1
   4  -8  -1 30827.1 633.806   1
   2   0  -9 25834.3 398.653   1
   3  -2 -11 3467.00 312.859   1
   1   1  -6 167539. 642.626   1
   3  -6   1 16862.3 336.927   1
   3  -8   2 12393.8 358.610   1
   2   0  -8 14827.6 294.304   1
   4  -4  -6 3318.42 280.061   1
   4 -11  -5 6968.30 594.773   1
   4  -5 -11 5096.42 492.491   1
   2   0 -10 19602.4 384.133   1
   3  -4  -1 33291.2 407.631   1
   4  -6  -2 29603.0 529.361   1
   4  -5  -3 1674.61 218.892   1
   2   0  -7 2187.96 148.167   1
   4  -4  -5 6183.25 287.981   1
   5   4   5 6654.57 582.473  -2
   5  -8  -7 6654.57 582.473   1
   3  -7   2 18977.5 370.886   1
   5   3   5 26697.3 781.197  -2
   5  -7  -7 26697.3 781.197   1
   5   4   3 6310.91 486.916  -2
   5  -8  -5 6310.91 486.916   1
   5   3   4 12099.2 561.532  -2
   5  -7  -6 12099.2 561.532   1
   5   5   4 6791.91 561.605  -2
   5  -9  -6 6791.91 561.605   1
   4  -8   0 24547.7 538.383   1
   5   5   3 6001.11 517.408  -2
   5  -9  -5 6001.11 517.408   1
   2  -2  -1 17555.5 223.293   1
   4 -10   0 2924.75 349.374   1
   3  -3 -14 6971.80 479.562   1
   2  -1  -3 4600.11 137.691   1
   5   3   3 5033.70 419.660  -2
   5  -7  -5 5033.70 419.660   1
   5   5   2 17568.4 679.197  -2
   5  -9  -4 17568.4 679.197   1
   5   4   2 30789.4 764.908  -2
   5  -8  -4 30789.4 764.908   1
   4  -3  -9 4264.54 319.620   1
   5   3   7 5643.91 578.435  -2
   5  -7  -9 5643.91 578.435   1
   4  -4  -4 1619.13 204.020   1
   2  -7   4 24482.8 339.355   1
   5   2   5 4396.01 405.379  -2
   5  -6  -7 4396.01 405.379   1
   5   2   6 14873.7 582.294  -2
   5  -6  -8 14873.7 582.294   1
   3  -3  -2 38777.8 420.734   1
   5   6   3 9214.24 605.840  -2
   5 -10  -5 9214.24 605.840   1
   5   6   4 5179.82 573.871  -2
   5 -10  -6 5179.82 573.871   1
   4  -6  -1 8309.86 295.718   1
   5   2   4 6350.52 416.841  -2
   5  -6  -6 6350.52 416.841   1
   5   2   7 3672.10 466.229  -2
   5  -6  -9 3672.10 466.229   1
   2   0  -6 2940.95 139.099   1
   3  -1  -9 10660.6 322.958   1
   3  -2  -4 45077.2 468.236   1
   5   3   8 5862.44 618.701  -2
   5  -7 -10 5862.44 618.701   1
   5   3   2 10514.7 465.119  -2
   5  -7  -4 10514.7 465.119   1
   5   5   7 11363.6 750.301  -2
   5  -9  -9 11363.6 750.301   1
   5   5   1 9370.27 542.621  -2
   5  -9  -3 9370.27 542.621   1
   4  -5  -2 25920.8 454.662   1
   4  -7   0 6349.18 300.243   1
   3  -1  -8 4502.46 229.519   1
   5   4   1 11290.8 493.048  -2
   5  -8  -3 11290.8 493.048   1
   4  -3 -11 9071.16 427.067   1
   5   2   8 7182.09 544.356  -2
   5  -6 -10 7182.09 544.356   1
   5   2   3 45218.3 766.431  -2
   5  -6  -5 45218.3 766.431   1
   5   6   1 4231.40 470.378  -2
   5 -10  -3 4231.40 470.378   1
   4  -3  -6 16921.0 398.239   1
   3  -1 -11 12442.6 383.194   1
   4  -4 -13 5449.06 499.451   1
   5   1   6 38086.3 762.953  -2
   5  -5  -8 38086.3 762.953   1
   4 -10   1 2674.15 335.013   1
   5   1   7 5502.82 419.345  -2
   5  -5  -9 5502.82 419.345   1
   5   1   5 12306.4 456.571  -2
   5  -5  -7 12306.4 456.571   1
   3  -1  -7 16512.7 327.462   1
   5   5   0 2866.15 370.001  -2
   5  -9  -2 2866.15 370.001   1
   4  -3 -12 7572.99 434.687   1
   3  -5   1 69801.3 565.251   1
   5   1   8 8753.58 523.823  -2
   5  -5 -10 8753.58 523.823   1
   5   7   1 9219.32 597.607  -2
   5 -11  -3 9219.32 597.607   1
   3  -1 -12 11304.0 397.023   1
   5   2   2 24655.3 561.390  -2
   5  -6  -4 24655.3 561.390   1
   4  -4  -3 45088.2 559.104   1
   5   4   0 13784.8 498.650  -2
   5  -8  -2 13784.8 498.650   1
   5   1   4 3167.83 311.618  -2
   5  -5  -6 3167.83 311.618   1
   2  -4   2 2544.83 107.250   1
   4  -8   1 5396.37 301.812   1
   3  -4   0 10521.6 227.312   1
   4  -3  -5 8156.25 283.402   1
   3  -6   2 3518.06 179.450   1
   5   1   9 5041.17 481.927  -2
   5  -5 -11 5041.17 481.927   1
   4  -4 -14 9474.50 581.853   1
   5   7   0 7505.10 517.972  -2
   5 -11  -2 7505.10 517.972   1
   5   1   3 3857.75 290.005  -2
   5  -5  -5 3857.75 290.005   1
   3  -1  -6 60001.9 548.736   1
   5   5  -1 17537.7 549.666  -2
   5  -9  -1 17537.7 549.666   1
   5   6  -1 5739.39 432.486  -2
   5 -10  -1 5739.39 432.486   1
   4  -6   0 6329.80 258.881   1
   5   3   0 15012.8 453.798  -2
   5  -7  -2 15012.8 453.798   1
   2   0  -5 27806.2 301.849   1
   4  -2  -9 4644.62 291.487   1
   4  -2 -10 8171.39 359.207   1
   5   0   7 3422.25 348.815  -2
   5  -4  -9 3422.25 348.815   1
   5   2   1 7302.02 348.203  -2
   5  -6  -3 7302.02 348.203   1
   5   0   6 14633.3 471.729  -2
   5  -4  -8 14633.3 471.729   1
   5   0   8 6019.31 405.447  -2
   5  -4 -10 6019.31 405.447   1
   3  -2  -3 41592.0 419.447   1
   4  -2 -11 3025.60 297.671   1
   4  -2  -8 5134.88 264.141   1
   2  -3   1 31748.4 279.059   1
   5   4  -1 18007.6 503.075  -2
   5  -8  -1 18007.6 503.075   1
   5   0   5 20839.4 509.101  -2
   5  -4  -7 20839.4 509.101   1
   4  -7   1 63597.4 683.131   1
   5   0   9 15109.0 565.951  -2
   5  -4 -11 15109.0 565.951   1
   6  -7  -8 15732.7 670.321   1
   6  -7  -7 9730.77 536.221   1
   4  -2 -12 8676.94 411.444   1
   5   1   2 22978.1 485.449  -2
   5  -5  -4 22978.1 485.449   1
   4  -3  -4 8459.23 261.435   1
   4  -9   2 18293.3 452.774   1
   6  -8  -5 3358.03 419.503   1
   3  -3  -1 986.668 107.349   1
   4  -2  -7 2444.03 205.619   1
   5   0  10 8912.24 505.728  -2
   5  -4 -12 8912.24 505.728   1
   6  -9  -4 4850.80 508.151   1
   4  -4  -2 14452.2 319.337   1
   5   0   4 66170.7 797.824  -2
   5  -4  -6 66170.7 797.824   1
   5   6  -2 8078.38 445.222  -2
   5 -10   0 8078.38 445.222   1
   5   5  -2 23038.8 564.638  -2
   5  -9   0 23038.8 564.638   1
   1  -1   0 73796.9 280.026   1
   2  -6   4 13487.6 217.397   1
   6  -8  -4 11270.7 528.941   1
   2   1 -10 3986.97 187.401   1
   5   2   0 32167.1 556.736  -2
   5  -6  -2 32167.1 556.736   1
   5   3  -1 17827.1 454.138  -2
   5  -7  -1 17827.1 454.138   1
   6 -11  -4 4110.53 501.321   1
   4  -8   2 8598.31 309.803   1
   2  -1  -2 16955.4 209.504   1
   4  -2  -6 48745.9 564.431   1
   5   0   3 6947.50 311.944  -2
   5  -4  -5 6947.50 311.944   1
   6  -6  -6 6956.14 434.201   1
   5  -1   8 14701.5 488.674  -2
   5  -3 -10 14701.5 488.674   1
   5  -1   7 19254.6 505.437  -2
   5  -3  -9 19254.6 505.437   1
   5   1   1 40814.7 597.923  -2
   5  -5  -3 40814.7 597.923   1
   3   0 -10 41399.4 530.769   1
   3   0 -11 4165.26 241.371   1
   5  -1   9 4220.49 366.736  -2
   5  -3 -11 4220.49 366.736   1
   5  -1   6 11131.2 390.608  -2
   5  -3  -8 11131.2 390.608   1
   3   0  -9 10565.1 281.440   1
   6  -5  -9 6736.50 467.324   1
   5   0  12 4300.86 490.194  -2
   5  -4 -14 4300.86 490.194   1
   5  -1  10 3232.38 385.407  -2
   5  -3 -12 3232.38 385.407   1
   6  -5  -8 6598.24 423.805   1
   6  -6  -5 16839.5 521.902   1
   6  -9  -2 20788.7 627.408   1
   4  -3  -3 48652.6 521.064   1
   6  -5 -11 3667.57 451.000   1
   4  -6   1 19606.5 363.728   1
   4  -5   0 22261.4 365.568   1
   2   1  -8 11922.3 229.603   1
   5  -1   5 17900.1 439.149  -2
   5  -3  -7 17900.1 439.149   1
   3   0  -8 2843.52 174.400   1
   2  -2   0 52065.0 338.652   1
   5   5  -3 3709.73 310.400  -2
   5  -9   1 3709.73 310.400   1
   4  -1 -10 22243.1 456.954   1
   6  -7  -3 6335.79 374.885   1
   4  -2  -5 4156.45 198.222   1
   5   0   2 2481.99 223.490  -2
   5  -4  -4 2481.99 223.490   1
   2   0  -4 10460.8 178.269   1
   3  -5   2 48134.4 431.103   1
   5   2  -1 2648.87 228.723  -2
   5  -6  -1 2648.87 228.723   1
   7  -8  -8 4457.17 545.381   1
   4  -1 -12 4480.14 307.383   1
   4  -1  -9 22148.9 431.961   1
   5   3  -2 5996.27 301.306  -2
   5  -7   0 5996.27 301.306   1
   4  -7   2 29124.4 444.400   1
   6  -5  -6 4353.02 340.182   1
   6  -6  -4 2392.45 304.010   1
   4  -4  -1 29487.3 403.126   1
   7 -10  -5 4378.68 535.137   1
   5  -1   4 63833.5 717.693  -2
   5  -3  -6 63833.5 717.693   1
   5   1   0 29865.5 486.497  -2
   5  -5  -2 29865.5 486.497   1
   5  -1  12 6507.07 450.884  -2
   5  -3 -14 6507.07 450.884   1
   3  -1  -4 52769.5 453.792   1
   6  -9  -1 13415.6 509.294   1
   7  -7  -8 3682.84 496.050   1
   3  -6   3 18822.5 292.177   1
   4  -1  -8 3953.17 226.472   1
   5   4  -3 14362.9 398.941  -2
   5  -8   1 14362.9 398.941   1
   7 -10  -4 8616.53 575.082   1
   3   0  -7 54753.8 504.409   1
   6  -5  -5 2323.26 293.163   1
   1   1  -4 80032.0 343.740   1
   6  -4 -12 5856.87 466.281   1
   6  -5 -14 4810.69 540.951   1
   2   1  -7 63569.4 456.777   1
   5  -2   9 2800.55 314.280  -2
   5  -2 -11 2800.55 314.280   1
   6  -7  -2 11638.3 426.572   1
   5  -2   8 12737.2 412.929  -2
   5  -2 -10 12737.2 412.929   1
   7  -7  -6 8906.06 496.208   1
   5  -2  10 19785.6 531.094  -2
   5  -2 -12 19785.6 531.094   1
   6  -6  -3 8889.42 375.350   1
   5  -2   7 24839.3 505.353  -2
   5  -2  -9 24839.3 505.353   1
   5   0   1 48820.2 597.385  -2
   5  -4  -3 48820.2 597.385   1
   6  -4  -7 3530.98 327.525   1
   7  -6  -8 4229.66 449.756   1
   5  -1   3 49099.0 612.199  -2
   5  -3  -5 49099.0 612.199   1
   3  -3   0 94645.7 563.959   1
   4  -1  -7 5826.12 239.630   1
   4  -2  -4 1680.05 153.299   1
   4  -3  -2 56421.2 531.395   1
   7  -7  -5 8324.59 468.930   1
   5  -2   6 9443.70 340.931  -2
   5  -2  -8 9443.70 340.931   1
   6  -9   0 10105.3 443.800   1
   6  -5  -4 6916.13 336.566   1
   5   5  -4 8521.48 345.950  -2
   5  -9   2 8521.48 345.950   1
   5   2  -2 37511.0 532.423  -2
   5  -6   0 37511.0 532.423   1
   6  -4  -6 16398.4 451.824   1
   3  -7   4 4881.90 180.457   1
   5   3  -3 20800.3 428.306  -2
   5  -7   1 20800.3 428.306   1
   5   1  -1 9431.00 299.368  -2
   5  -5  -1 9431.00 299.368   1
   6  -3 -10 4907.63 368.189   1
   7  -5 -11 6717.69 496.691   1
   3   0  -6 23415.2 324.107   1
   5  -2   5 26216.9 468.135  -2
   5  -2  -7 26216.9 468.135   1
   6  -3 -12 6623.17 413.857   1
   4  -5   1 2538.16 166.091   1
   6  -7  -1 2030.51 249.281   1
   6  -3  -9 4269.44 336.159   1
   7  -5 -12 5727.90 516.947   1
   6  -6  -2 8743.96 355.696   1
   7  -9  -2 13345.4 553.269   1
   8  -8  -9 6399.49 627.209   1
   4  -1  -6 2033.23 173.080   1
   8  -8  -8 6449.78 566.187   1
   5  -1   2 12788.7 324.541  -2
   5  -3  -4 12788.7 324.541   1
   6  -8   0 11288.4 408.406   1
   6 -10   1 2624.10 327.800   1
   4  -4   0 18673.7 311.962   1
   5   4  -4 20663.6 433.424  -2
   5  -8   2 20663.6 433.424   1
   7  -5  -7 17282.8 551.282   1
   1   2  -7 20546.1 209.082   1
   5   0   0 53699.0 594.340  -2
   5  -4  -2 53699.0 594.340   1
   6  -5  -3 20601.9 460.307   1
   7 -11  -1 5804.28 495.582   1
   2   1  -6 54879.1 395.663   1
   3  -1  -3 3862.02 142.247   1
   8  -9  -5 9029.66 559.280   1
   5  -2   4 9111.21 301.296  -2
   5  -2  -6 9111.21 301.296   1
   4  -7   3 2919.95 185.257   1
   4   0 -10 2289.37 209.219   1
   3  -2  -1 38688.6 356.123   1
   6  -3  -7 28956.1 547.202   1
   4  -2  -3 1317.05 133.678   1
   2  -4   3 30332.8 250.445   1
   5  -3   9 17826.3 442.443  -2
   5  -1 -11 17826.3 442.443   1
   7  -5  -6 8878.81 410.868   1
   5  -3  10 11864.0 399.137  -2
   5  -1 -12 11864.0 399.137   1
   7  -4 -10 6112.19 413.527   1
   3   1 -10 2661.78 174.708   1
   2  -1  -1 802021. 5091.38   1
   7  -6  -4 10111.5 432.728   1
   2   0  -3 78800.4 423.545   1
   5  -3   8 11992.5 373.288  -2
   5  -1 -10 11992.5 373.288   1
   8  -9  -4 6316.39 507.391   1
   7  -4  -9 9726.88 454.827   1
   6  -4  -4 29056.9 520.207   1
   8  -6  -9 4261.33 480.048   1
   8  -7  -6 11735.9 558.909   1
   6  -7   0 7191.75 319.691   1
   6  -6  -1 3359.03 260.066   1
   8 -10  -3 5198.37 504.512   1
   4  -3  -1 3466.98 165.244   1
   4  -1  -5 3991.92 188.561   1
   5  -3   7 4976.65 278.853  -2
   5  -1  -9 4976.65 278.853   1
   2  -5   4 52621.1 328.891   1
   5   2  -3 82664.3 729.140  -2
   5  -6   1 82664.3 729.140   1
   6  -3  -6 17739.4 432.010   1
   6  -2 -11 9470.29 403.631   1
   3   0  -5 30393.6 341.950   1
   5  -1   1 6120.96 237.391  -2
   5  -3  -3 6120.96 237.391   1
   2  -3   2 35149.2 261.762   1
   5   1  -2 35929.9 479.431  -2
   5  -5   0 35929.9 479.431   1
   6  -2 -10 13653.2 442.106   1
   6  -8   1 20328.7 474.355   1
   5  -2   3 9075.75 284.644  -2
   5  -2  -5 9075.75 284.644   1
   8  -7  -5 4165.47 406.522   1
   5   3  -4 18893.5 382.899  -2
   5  -7   2 18893.5 382.899   1
   7  -4  -7 3799.26 331.876   1
   4   0  -8 30275.6 429.397   1
   7  -6  -3 7297.18 357.850   1
   3  -4   2 24169.9 280.417   1
   6  -2  -9 6180.96 330.844   1
   5  -3   6 7423.27 280.391  -2
   5  -1  -8 7423.27 280.391   1
   8 -10  -2 9307.69 528.335   1
   7  -9   0 3211.57 331.119   1
   5   0  -1 50371.9 548.871  -2
   5  -4  -1 50371.9 548.871   1
   8  -6  -6 3405.28 383.715   1
   7  -3 -12 6504.35 433.272   1
   8  -8  -3 7607.18 465.308   1
   6  -4  -3 56122.4 666.735   1
   3   1  -8 987.777 125.462   1
   7  -3 -10 4369.76 357.252   1
   7  -3 -13 6187.82 434.199   1
   5  -3   5 40516.2 534.525  -2
   5  -1  -7 40516.2 534.525   1
   3  -3   1 37230.5 336.814   1
   3  -6   4 24130.2 287.682   1
   4  -5   2 2139.17 145.505   1
   4   0  -7 69320.5 601.483   1
   7  -7  -1 8444.78 360.651   1
   4  -2  -2 71434.6 559.935   1
   7 -10   1 3703.73 343.100   1
   6  -6   0 6831.27 283.584   1
   8 -10  -1 8850.56 496.763   1
   8  -5  -7 6648.68 438.326   1
   4  -1  -4 65710.1 553.073   1
   7  -6  -2 11461.7 407.766   1
   6  -7   1 3399.05 256.288   1
   5  -2   2 40415.4 503.075  -2
   5  -2  -4 40415.4 503.075   1
   6  -2  -7 8533.77 329.879   1
   2   2  -9 5047.62 151.851   1
   7  -3  -8 2812.25 304.069   1
   4  -6   3 11785.7 254.229   1
   6  -5  -1 11054.7 331.101   1
   5  -1   0 2032.00 172.164  -2
   5  -3  -2 2032.00 172.164   1
   3  -1  -2 20586.0 265.093   1
   8  -8  -2 6564.19 430.904   1
   8  -7  -3 9346.07 460.732   1
   2  -2   1 4557.28 107.606   1
   7  -5  -3 8131.66 352.894   1
   7  -9   1 7660.70 377.465   1
   6  -1 -12 2355.51 294.253   1
   8  -6  -4 6369.14 416.167   1
   5  -4   9 7608.44 308.995  -2
   5   0 -11 7608.44 308.995   1
   3   0  -4 17393.2 255.957   1
   7  -3  -7 15242.7 463.235   1
   1   2  -6 21759.8 187.656   1
   3   1  -7 23088.6 311.580   1
   5  -3   4 27619.0 441.643  -2
   5  -1  -6 27619.0 441.643   1
   5   1  -3 68083.0 628.477  -2
   5  -5   1 68083.0 628.477   1
   5   2  -4 21624.9 378.009  -2
   5  -6   2 21624.9 378.009   1
   1   0  -1 36372.8 194.081   1
   4  -3   0 18941.9 295.935   1
   8  -4  -8 3635.03 386.560   1
   5  -4   8 19679.0 413.883  -2
   5   0 -10 19679.0 413.883   1
   4   0  -6 6187.21 212.228   1
   7  -2 -11 6275.96 381.336   1
   4  -7   4 12112.5 260.247   1
   9  -6  -7 9141.07 516.892   1
   7  -4  -4 2883.44 280.049   1
   8  -5  -5 10910.0 457.930   1
   7  -7   0 30269.3 570.401   1
   3  -2   0 78378.6 479.814   1
   5   0  -2 45239.3 506.755  -2
   5  -4   0 45239.3 506.755   1
   9  -5 -10 5203.39 483.815   1
   6  -1  -9 7700.09 332.806   1
   5   3  -5 20880.6 371.834  -2
   5  -7   3 20880.6 371.834   1
   8  -4  -7 13632.0 487.393   1
   5  -4   7 8382.74 286.817  -2
   5   0  -9 8382.74 286.817   1
   4   1 -10 17311.2 340.673   1
   8  -6  -3 2998.92 348.235   1
   1   1  -3 523.715 44.4209   1
   9  -5  -9 3529.75 465.175   1
   5  -2   1 75125.1 658.539  -2
   5  -2  -3 75125.1 658.539   1
   8  -9   0 6335.54 412.409   1
   8  -3 -11 4900.84 413.011   1
   6  -3  -3 6249.14 279.102   1
   8  -3 -10 4232.44 399.364   1
   4  -1  -3 134134. 769.454   1
   6  -5   0 7081.24 289.303   1
   6  -2  -5 38777.9 565.332   1
   5  -3   3 11668.7 304.163  -2
   5  -1  -5 11668.7 304.163   1
   6  -1  -8 30529.1 541.520   1
  10   0   2 4209.16 531.740  -2
  10  -8  -6 4209.16 531.740   1
   2   0  -2 83629.9 421.866   1
   8  -5  -4 24961.0 591.524   1
   5  -1  -1 74196.3 646.035  -2
   5  -3  -1 74196.3 646.035   1
   4   1  -9 2233.74 174.981   1
   7  -2  -8 5224.67 336.486   1
   5  -4   6 10898.4 308.950  -2
   5   0  -8 10898.4 308.950   1
   4  -2  -1 176040. 859.391   1
   3   1  -6 6387.26 178.488   1
   7  -4  -3 6772.67 322.249   1
   6  -4  -1 23650.9 437.982   1
   8  -7  -1 6495.94 384.956   1
   4   0  -5 19640.8 321.565   1
   8  -8   0 4126.06 366.093   1
   6  -8   3 3020.08 254.503   1
   9  -7  -3 14017.2 547.459   1
   6  -1  -7 8713.02 316.762   1
   7  -2  -7 17215.1 469.516   1
   7  -7   1 4948.00 306.235   1
   8  -9   1 7413.66 412.723   1
   2   1  -4 43906.1 320.543   1
   4   1  -8 6722.39 227.250   1
   7  -5  -1 26863.8 514.225   1
   8  -5  -3 2780.08 318.005   1
   5  -4   5 14650.9 334.483  -2
   5   0  -7 14650.9 334.483   1
   6  -2  -4 62412.4 681.943   1
   2  -1   0 266227. 2850.71   1
   3   0  -3 3050.92 129.474   1
   7  -1 -11 5748.93 370.723   1
   4  -5   3 45940.6 439.445   1
   9  -4  -8 6200.44 441.087   1
   6   0 -11 9720.07 364.653   1
   8  -2 -13 4309.65 392.675   1
   7  -3  -4 1717.22 240.788   1
   6  -3  -2 47377.2 587.372   1
   5   1  -4 22746.3 371.580  -2
   5  -5   2 22746.3 371.580   1
  10  -2   3 5331.91 503.751  -2
  10  -6  -7 5331.91 503.751   1
   2   2  -7 7158.15 156.558   1
   5  -3   2 62943.9 607.523  -2
   5  -1  -4 62943.9 607.523   1
   5  -2   0 9471.25 261.642  -2
   5  -2  -2 9471.25 261.642   1
   3  -1  -1 75328.8 481.301   1
   7  -1 -10 3602.79 320.992   1
   5   2  -5 33883.0 444.408  -2
   5  -6   3 33883.0 444.408   1
   3  -4   3 37836.0 331.171   1
   7  -4  -2 4752.28 283.970   1
   6   0 -10 9179.97 339.335   1
   9  -7  -2 4507.67 411.074   1
   9  -8  -1 9214.22 476.224   1
  10  -3   5 4539.85 512.797  -2
  10  -5  -9 4539.85 512.797   1
   8  -4  -4 2420.15 317.561   1
   9  -4  -7 4367.15 421.263   1
   8  -6  -1 8501.86 399.491   1
   4  -6   4 15396.6 270.256   1
   4  -3   1 24373.6 330.183   1
   6  -6   2 4522.01 244.933   1
   6  -5   1 7350.84 282.115   1
   8  -3  -6 10350.3 429.759   1
   3   2  -9 14549.2 260.086   1
   3  -3   2 712.311 84.9578   1
   3  -5   4 6764.22 157.569   1
   8  -2  -9 5947.75 391.325   1
  10  -3   4 3910.41 483.757  -2
  10  -5  -8 3910.41 483.757   1
   4  -1  -2 3508.62 162.753   1
   4   1  -7 7905.89 234.420   1
   8  -5  -2 4172.77 325.409   1
   5  -4   4 43147.9 525.333  -2
   5   0  -6 43147.9 525.333   1
   6  -7   3 3208.56 233.974   1
   5  -1  -2 41836.3 485.099  -2
   5  -3   0 41836.3 485.099   1
   3   1  -5 120726. 644.776   1
   4   0  -4 27438.8 364.298   1
   5  -5   8 5546.14 258.122  -2
   5   1 -10 5546.14 258.122   1
   5   3  -6 52921.9 550.877  -2
   5  -7   4 52921.9 550.877   1
   9  -5  -4 7383.69 446.062   1
   7  -6   1 4857.54 298.362   1
  10  -2   1 8935.23 526.553  -2
  10  -6  -5 8935.23 526.553   1
   7  -1  -8 2426.71 275.948   1
   6  -2  -3 2508.24 213.736   1
  10  -3   3 8062.84 524.966  -2
  10  -5  -7 8062.84 524.966   1
   8  -2  -8 6444.71 376.889   1
   7  -2  -5 20297.5 470.661   1
   7  -5   0 4191.56 272.680   1
   8  -3  -5 21208.4 542.840   1
   6  -1  -5 10234.6 327.487   1
   8  -4  -3 4135.55 323.237   1
   6   0  -8 4196.96 269.317   1
   9  -8   0 6483.31 414.451   1
   9  -3  -8 8030.44 460.593   1
  10  -1  -1 9359.47 524.243  -2
  10  -7  -3 9359.47 524.243   1
   9  -6  -2 7101.11 433.619   1
   5  -5   7 6953.08 265.069  -2
   5   1  -9 6953.08 265.069   1
   4  -2   0 13990.4 259.907   1
   6  -3  -1 52975.6 616.100   1
   5  -3   1 12676.2 300.646  -2
   5  -1  -3 12676.2 300.646   1
   1  -1   1 25573.0 153.627   1
   7  -4  -1 15418.9 416.361   1
  10  -3   2 4639.29 448.233  -2
  10  -5  -6 4639.29 448.233   1
   3  -2   1 17388.9 237.035   1
   3   2  -8 33267.4 362.321   1
   8  -6   0 6175.24 350.898   1
   7  -8   3 25387.7 513.503   1
  10  -2   0 3390.33 432.117  -2
  10  -6  -4 3390.33 432.117   1
  11  -8  -4 5773.40 556.798   1
   1   2  -5 48431.5 253.331   1
   5  -2  -1 40986.6 483.168  -2
   5  -2  -1 40986.6 483.168   1
  10   2  -4 3986.60 427.760  -2
  10 -10   0 3986.60 427.760   1
   8  -1 -11 11871.9 471.405   1
   5  -4   3 47350.5 536.325  -2
   5   0  -5 47350.5 536.325   1
   4   1  -6 11037.6 252.368   1
   7  -2  -4 4781.65 288.812   1
   8  -3  -4 8524.67 384.266   1
   5  -5   6 38800.9 508.288  -2
   5   1  -8 38800.9 508.288   1
  10  -1  -2 8121.28 496.387  -2
  10  -7  -2 8121.28 496.387   1
   7  -3  -2 6288.51 311.916   1
   2  -3   3 16445.8 172.117   1
  10  -4   3 3419.68 450.147  -2
  10  -4  -7 3419.68 450.147   1
   8  -4  -2 22048.5 523.798   1
  11  -8  -3 6157.63 539.255   1
   3   0  -2 2792.42 124.348   1
   6  -1  -4 1521.49 200.284   1
   6  -2  -2 20365.7 405.527   1
   7  -1  -6 14409.2 410.395   1
   9  -6  -1 12740.0 482.774   1
   9  -3  -6 8655.32 454.489   1
   2  -4   4 116227. 421.289   1
   5   1  -5 76610.4 638.759  -2
   5  -5   3 76610.4 638.759   1
   5   0  -4 34326.8 441.368  -2
   5  -4   2 34326.8 441.368   1
   6  -6   3 25027.2 436.891   1
   6  -4   1 14585.2 353.088   1
   4   0  -3 1430.41 137.298   1
   7  -6   2 18939.2 446.388   1
   9  -5  -2 8954.73 431.796   1
   7   0  -9 13797.1 421.916   1
   4  -1  -1 32312.5 382.891   1
   2   0  -1 34347.9 273.515   1
  10  -4   2 6931.60 495.762  -2
  10  -4  -6 6931.60 495.762   1
   3   1  -4 65792.9 474.047   1
  10  -3   0 5087.57 443.348  -2
  10  -5  -4 5087.57 443.348   1
   2   1  -3 6920.13 136.123   1
   3   2  -7 10567.3 215.416   1
   5   2  -6 24884.6 376.887  -2
   5  -6   4 24884.6 376.887   1
   5  -1  -3 11346.7 273.269  -2
   5  -3   1 11346.7 273.269   1
   6   0  -6 12965.6 351.841   1
   9  -9   2 5895.71 399.882   1
   4   2  -9 14175.5 288.260   1
   5  -5   5 67618.1 647.829  -2
   5   1  -7 67618.1 647.829   1
   5  -3   0 39391.4 482.945  -2
   5  -1  -2 39391.4 482.945   1
   2  -2   2 123557. 473.982   1
   8  -2  -5 3672.48 333.680   1
   3  -1   0 43630.7 373.650   1
   6  -7   4 3189.79 221.249   1
  10  -1  -3 4238.65 423.925  -2
  10  -7  -1 4238.65 423.925   1
   8  -5   0 2402.61 305.049   1
   7  -2  -3 4736.15 291.383   1
   8  -7   2 6854.35 367.860   1
   9  -3  -5 4533.74 381.795   1
   5  -4   2 32933.1 452.795  -2
   5   0  -4 32933.1 452.795   1
  10   0  -4 3286.72 404.736  -2
  10  -8   0 3286.72 404.736   1
  10  -5   4 4080.67 425.654  -2
  10  -3  -8 4080.67 425.654   1
  11  -9  -1 4121.56 461.623   1
   4  -3   2 27922.2 345.156   1
   7  -1  -5 26712.5 524.462   1
   4  -5   4 21254.6 299.029   1
   4   1  -5 59760.0 530.568   1
   7   0  -8 21781.7 496.630   1
  10  -4   1 9244.92 494.591  -2
  10  -4  -5 9244.92 494.591   1
   6   1  -9 12210.7 358.628   1
   8  -4  -1 5581.43 327.841   1
   7  -3  -1 7987.74 321.570   1
   9  -7   1 4387.09 368.170   1
   8  -8   3 7002.17 356.402   1
   6  -1  -3 11718.3 338.874   1
  10  -6   8 5057.13 461.256  -2
  10  -2 -12 5057.13 461.256   1
  10  -3  -1 5736.19 456.732  -2
  10  -5  -3 5736.19 456.732   1
  10  -5   3 4113.38 436.152  -2
  10  -3  -7 4113.38 436.152   1
   5  -2  -2 10163.7 264.915  -2
   5  -2   0 10163.7 264.915   1
  10  -6   7 4158.31 424.457  -2
  10  -2 -11 4158.31 424.457   1
   9  -5  -1 2729.21 344.819   1
   4   2  -8 32866.8 412.041   1
   6   0  -5 11894.3 340.017   1
  11  -7  -2 7616.98 518.743   1
   7   0  -7 3295.36 276.139   1
   5  -5   4 7156.31 251.070  -2
   5   1  -6 7156.31 251.070   1
   8  -3  -2 2772.39 307.526   1
   6   1  -8 7087.49 291.172   1
   9  -2  -6 11569.5 487.937   1
  10  -1  -4 4083.88 421.966  -2
  10  -7   0 4083.88 421.966   1
   9  -4  -2 5777.76 390.142   1
   7  -1  -4 4386.62 280.720   1
   8  -1  -6 4805.15 333.122   1
   7  -5   2 3059.13 248.135   1
   9  -1  -9 9500.17 447.336   1
   7  -2  -2 25282.5 487.375   1
   4  -6   5 3781.06 151.329   1
   3   2  -6 8522.84 193.538   1
   7  -6   3 8360.08 326.849   1
   6  -5   3 3502.42 222.361   1
   6  -4   2 21220.6 403.548   1
   7  -4   1 8515.54 330.722   1
   8  -5   1 7958.78 362.947   1
   2   2  -5 41245.8 313.295   1
  10  -3  -2 8076.15 456.099  -2
  10  -5  -2 8076.15 456.099   1
   4   0  -2 34785.0 395.809   1
   8   0  -9 9091.37 404.460   1
   1   1  -2 12893.5 127.819   1
   3  -3   3 59659.8 407.073   1
   2  -1   1 58299.3 342.040   1
   8  -7   3 9338.42 395.014   1
   9  -1  -8 3175.34 366.752   1
   7   0  -6 6939.86 328.051   1
   5  -3  -1 73436.8 640.848  -2
   5  -1  -1 73436.8 640.848   1
   6  -6   4 1896.80 202.409   1
   6  -3   1 2682.92 208.363   1
   9  -3  -3 8609.01 431.987   1
   4   1  -4 8751.83 225.049   1
   9  -2  -5 6203.67 415.758   1
   3  -4   4 67577.3 421.897   1
   5  -6   7 8787.48 284.840  -2
   5   2  -9 8787.48 284.840   1
   4   2  -7 1707.00 147.882   1
  10  -5   1 4771.64 458.772  -2
  10  -3  -5 4771.64 458.772   1
   9  -7   2 5048.82 379.080   1
   7  -3   0 9033.47 345.359   1
   6  -1  -2 7973.45 300.065   1
   5   0  -5 52496.0 535.440  -2
   5  -4   3 52496.0 535.440   1
   3   0  -1 98609.8 571.199   1
   4  -1   0 3449.89 159.662   1
   8  -1  -5 5868.77 347.319   1
   5  -1  -4 58839.6 574.053  -2
   5  -3   2 58839.6 574.053   1
   5  -5   3 86654.5 729.222  -2
   5   1  -5 86654.5 729.222   1
   3  -2   2 65004.8 447.717   1
   5   1  -6 7192.06 230.727  -2
   5  -5   4 7192.06 230.727   1
  10  -2  -4 4742.71 424.842  -2
  10  -6   0 4742.71 424.842   1
   7  -1  -3 2508.85 257.433   1
   6  -2   0 6996.80 285.720   1
  10  -3  -3 4462.59 441.865  -2
  10  -5  -1 4462.59 441.865   1
  10   0  -6 3911.63 416.999  -2
  10  -8   2 3911.63 416.999   1
   5  -6   6 23974.4 413.731  -2
   5   2  -8 23974.4 413.731   1
   7  -2  -1 18629.1 448.053   1
  10  -7   6 4521.82 424.354  -2
  10  -1 -10 4521.82 424.354   1
   7   0  -5 4845.32 299.441   1
   5  -2  -3 68491.3 632.572  -2
   5  -2   1 68491.3 632.572   1
   6   1  -6 9305.78 328.598   1
   9  -3  -2 14588.5 519.136   1
  10  -6   2 12186.3 551.049  -2
  10  -2  -6 12186.3 551.049   1
  10  -4  -2 3181.66 406.115  -2
  10  -4  -2 3181.66 406.115   1
   1   0   0 160005. 1710.20   1
  11  -3  -6 5250.34 526.053   1
   5   2  -7 16670.0 320.995  -2
   5  -6   5 16670.0 320.995   1
   8  -1  -4 2433.83 325.857   1
   9  -1  -6 3523.49 381.272   1
   8  -5   2 21845.6 531.196   1
   8  -2  -2 2873.14 328.136   1
   4   2  -6 17161.9 314.258   1
   3  -5   5 7438.30 153.359   1
   2   1  -2 45459.8 336.410   1
   7  -4   2 12423.8 389.762   1
   8  -4   1 3134.71 313.031   1
   9  -6   2 3207.35 356.148   1
   5  -4   0 57458.1 600.344  -2
   5   0  -2 57458.1 600.344   1
   9  -5   1 10262.4 450.732   1
   3  -1   1 34030.3 342.758   1
   4  -3   3 28452.9 360.576   1
   6   0  -3 15589.3 389.170   1
   4  -4   4 1999.62 143.815   1
   9  -4   0 10713.5 472.155   1
   8   0  -6 4727.17 351.880   1
   7  -6   4 6480.81 317.008   1
   5  -5   2 27867.1 436.415  -2
   5   1  -4 27867.1 436.415   1
   1   2  -4 210485. 2075.16   1
  10  -7   4 5603.69 457.520  -2
  10  -1  -8 5603.69 457.520   1
   8   1 -10 5292.24 380.447   1
   7  -3   1 28092.5 525.065   1
  10  -2  -5 9206.45 484.206  -2
  10  -6   1 9206.45 484.206   1
   5  -6   5 19099.7 378.627  -2
   5   2  -7 19099.7 378.627   1
   6   2  -9 14565.3 387.703   1
  10  -5  -1 4941.68 443.328  -2
  10  -3  -3 4941.68 443.328   1
   4   1  -3 7847.03 226.111   1
   7   1  -7 4223.45 301.178   1
   4   0  -1 9486.07 239.899   1
   6  -4   3 34422.9 513.562   1
  10  -6   1 8913.30 521.439  -2
  10  -2  -5 8913.30 521.439   1
   8  -3   0 3188.54 325.921   1
  10  -1  -6 3896.84 419.300  -2
  10  -7   2 3896.84 419.300   1
   5  -3  -2 2340.63 194.977  -2
   5  -1   0 2340.63 194.977   1
   4  -2   2 1054.34 140.406   1
   7   0  -4 23338.0 510.374   1
  11  -4  -3 5364.81 499.663   1
   6  -3   2 14943.0 365.952   1
   6  -5   4 10107.4 312.223   1
   6   1  -5 2909.64 238.118   1
   2   0   0 4833.40 126.168   1
   8   1  -9 5758.68 387.555   1
   8  -1  -3 10157.7 418.782   1
   2   2  -4 50308.4 360.040   1
   4  -5   5 8287.83 206.613   1
   6  -2   1 18328.8 409.786   1
   3   1  -2 20703.8 289.891   1
   8   0  -5 3779.03 340.347   1
   7   1  -6 17013.1 455.223   1
  10  -6   0 6320.84 476.236  -2
  10  -2  -4 6320.84 476.236   1
   6  -6   5 6247.37 266.129   1
   4   2  -5 21854.9 352.558   1
  10  -5  -2 9425.10 524.830  -2
  10  -3  -2 9425.10 524.830   1
   4  -1   1 13209.1 274.361   1
   5  -6   4 23802.1 420.790  -2
   5   2  -6 23802.1 420.790   1
  10  -8   6 5503.03 460.986  -2
  10   0 -10 5503.03 460.986   1
   5  -1  -5 13924.8 318.160  -2
   5  -3   3 13924.8 318.160   1
   9  -1  -4 20192.5 595.583   1
   5   0  -6 46015.4 520.381  -2
   5  -4   4 46015.4 520.381   1
   6   0  -2 20732.1 435.359   1
  10  -7   2 6624.98 471.701  -2
  10  -1  -6 6624.98 471.701   1
   8  -5   3 2622.86 300.014   1
   3   0   0 4340.11 155.500   1
   9  -4   1 8287.85 451.249   1
   7   0  -3 36713.5 622.723   1
  10  -2  -6 11427.3 540.741  -2
  10  -6   2 11427.3 540.741   1
  10  -3  -5 4695.79 431.908  -2
  10  -5   1 4695.79 431.908   1
   5  -4  -1 61775.3 632.655  -2
   5   0  -1 61775.3 632.655   1
   5  -5   1 61795.0 639.085  -2
   5   1  -3 61795.0 639.085   1
   5  -2  -4 37911.8 490.243  -2
   5  -2   2 37911.8 490.243   1
   7  -1  -1 8689.12 356.115   1
   3   2  -4 7238.35 193.292   1
   8  -6   4 14291.7 454.645   1
   8  -3   1 3550.88 333.512   1
   2   3  -7 31735.8 281.818   1
   7   2  -9 5948.90 334.531   1
   6  -1   0 9770.42 335.813   1
   9   0  -6 3199.75 394.795   1
  10  -4  -4 3830.46 433.257  -2
  10  -4   0 3830.46 433.257   1
   9   1 -10 4190.36 399.201   1
   8  -1  -2 4190.53 345.860   1
   9  -7   4 4399.06 371.133   1
   7  -5   4 2497.86 269.197   1
   7  -3   2 3479.92 273.843   1
  11  -2  -5 4232.19 493.376   1
  10  -6  -1 3891.08 430.181  -2
  10  -2  -3 3891.08 430.181   1
   5   1  -7 70136.0 615.698  -2
   5  -5   5 70136.0 615.698   1
  11  -5   0 4894.30 475.426   1
   4   1  -2 40035.7 462.872   1
   4   3  -8 14566.4 295.053   1
  10  -8   4 3977.56 439.969  -2
  10   0  -8 3977.56 439.969   1
   9   1  -9 4153.93 379.672   1
  10  -5  -3 7485.75 484.316  -2
  10  -3  -1 7485.75 484.316   1
   8  -2   0 15982.7 486.482   1
   9  -1  -3 4116.81 400.382   1
   5  -6   3 34894.9 495.080  -2
   5   2  -5 34894.9 495.080   1
   5  -3  -3 7799.68 270.349  -2
   5  -1   1 7799.68 270.349   1
  12  -7   1 4704.06 515.844   1
   4   0   0 5859.64 209.681   1
   7  -6   5 12445.6 384.157   1
   9  -2  -1 5503.93 412.259   1
   2  -2   3 57184.9 343.340   1
   3  -2   3 85050.3 532.334   1
   7   0  -2 6372.16 332.855   1
   6  -2   2 2645.24 233.438   1
   6   1  -3 1797.82 230.393   1
   9  -5   3 7407.85 431.405   1
  10  -7   0 6415.41 507.313  -2
  10  -1  -4 6415.41 507.313   1
   9  -4   2 3641.36 388.963   1
   8   0  -3 6203.48 396.025   1
   7   1  -4 11961.3 421.728   1
   6  -5   5 34034.3 512.356   1
   7   2  -7 4573.46 329.292   1
  10  -4  -5 11802.6 543.964  -2
  10  -4   1 11802.6 543.964   1
   4   3  -7 5398.70 211.745   1
   7  -1   0 24553.6 526.700   1
   8  -4   3 5697.58 348.925   1
   5  -5   0 34762.0 500.815  -2
   5   1  -2 34762.0 500.815   1
   5  -7   6 5896.69 255.522  -2
   5   3  -8 5896.69 255.522   1
   2   1  -1 22250.3 255.347   1
   4  -3   4 15092.0 284.193   1
   4  -2   3 22237.5 346.782   1
   2  -1   2 3385.11 111.611   1
   3  -1   2 206842. 3470.88   1
   2  -3   4 575.294 62.0492   1
   8  -5   4 3883.82 341.287   1
   9   1  -7 7026.36 449.872   1
  10  -8   2 4912.25 461.003  -2
  10   0  -6 4912.25 461.003   1
   3   1  -1 1675.77 128.439   1
   5  -4  -2 51905.4 601.325  -2
   5   0   0 51905.4 601.325   1
  10  -1  -8 7448.56 459.841  -2
  10  -7   4 7448.56 459.841   1
   8   1  -5 3685.51 351.519   1
  10  -5  -4 6265.33 467.550  -2
  10  -3   0 6265.33 467.550   1
   6  -1   1 29597.4 526.918   1
   5  -6   2 23293.9 438.626  -2
   5   2  -4 23293.9 438.626   1
   3   3  -6 7177.06 200.560   1
   3   2  -3 59739.8 505.312   1
   2   3  -6 3131.83 118.587   1
   8  -2   1 4107.46 351.454   1
   9  -2   0 12632.9 523.967   1
   4  -1   2 29259.1 404.647   1
   7  -4   4 18436.6 462.643   1
   8  -6   5 13442.5 457.495   1
   8   2  -8 8000.25 415.452   1
   4  -4   5 53520.1 490.304   1
  10  -7  -1 5504.30 501.706  -2
  10  -1  -3 5504.30 501.706   1
   7   2  -6 13373.9 448.932   1
  11  -3  -1 4719.83 537.859   1
   3  -4   5 841.049 97.0005   1
   5  -1  -6 27707.2 442.054  -2
   5  -3   4 27707.2 442.054   1
   5  -7   5 21002.9 418.184  -2
   5   3  -7 21002.9 418.184   1
   4   1  -1 37214.9 472.562   1
   5  -2  -5 11352.1 316.020  -2
   5  -2   3 11352.1 316.020   1
   7  -2   2 7768.06 360.042   1
  10  -8   1 4523.25 484.304  -2
  10   0  -5 4523.25 484.304   1
   4   3  -6 1822.34 175.593   1
   4   2  -3 15496.1 327.752   1
   1   1  -1 15042.9 162.469   1
   6   3  -8 6036.02 316.868   1
   5   0  -7 15270.2 333.739  -2
   5  -4   5 15270.2 333.739   1
  10  -9   4 8299.42 527.024  -2
  10   1  -8 8299.42 527.024   1
   3   0   1 18620.9 293.401   1
  11   0  -7 460.352 432.801   1
   8   1  -4 16300.7 527.548   1
  12  -2  -4-581.919 499.733   1
  10  -3  -7 5442.20 451.467  -2
  10  -5   3 5442.20 451.467   1
   8  -1   0 2289.02 348.460   1
  10  -4  -6 8604.81 516.777  -2
  10  -4   2 8604.81 516.777   1
   9   0  -3-373.899 366.110   1
   8   2  -7 20617.5 579.125   1
   6   0   0 17026.3 438.613   1
  11  -5   2 44.3408 426.236   1
   5  -3  -4 15925.0 377.371  -2
   5  -1   2 15925.0 377.371   1
  12  -3  -2 71.5651 499.572   1
   9  -1  -1 843.825 392.109   1
   9  -4   3-148.115 343.296   1
  11  -1  -4 22.1399 448.717   1
  11  -2  -2 628.819 469.617   1
   2   0   1 47283.0 371.159   1
  11  -6   3 791.637 434.252   1
  11  -4   1 1734.17 457.575   1
   9  -5   4 6523.09 425.590   1
  10  -2  -8-293.618 331.312  -2
  10  -6   4-293.618 331.312   1
   7  -1   1 14722.2 459.116   1
   6   2  -4 28828.0 541.726   1
   9  -3   2 11201.5 505.397   1
   4   0   1 42496.4 501.441   1
   4   8 -13 4583.85 588.082   1
   0 -12   9 351.585 538.572  -2
   0  12  -9 351.585 538.572   1
   1  11  -9 2.90544 531.600   1
   3   7  -7 2058.35 416.691   1
   4   3  -6 1972.70 274.711   1
   2   8  -6 368.973 402.908   1
   5 -10  12 4168.70 523.502  -2
   5   6 -14 4168.70 523.502   1
   4   8 -12 887.531 522.029   1
   2   5  -3 282.560 239.642   1
   2  10  -9 198.744 500.364   1
   4   6  -8 2601.35 408.281   1
   1   4  -1 370.604 170.682   1
  -1   4   1 378.616 106.131   1
   3   4  -4 842.721 245.608   1
   2   9  -7 1952.50 478.094   1
   5 -10  10 1797.67 477.667  -2
   5   6 -12 1797.67 477.667   1
  -2   6   1 425.295 157.379   1
   1   9  -5 2336.00 433.406   1
   4   8 -11 953.612 523.004   1
   1   6  -2 803.362 253.070   1
   4   7  -9 3676.85 501.271   1
   0 -12   8-151.833 513.334  -2
   0  12  -8-151.833 513.334   1
   5 -11  12 4318.91 567.642  -2
   5   7 -14 4318.91 567.642   1
   3   9  -9 108.978 484.769   1
  -1   9  -2 1329.22 319.467   1
  -2   9  -1 681.777 253.258   1
  -1  12  -6 585.510 457.829   1
   3   6  -5 1897.76 358.276   1
   3   7  -6 1392.71 403.351   1
   1  10  -6 1509.41 468.086   1
   3  10 -11 3817.18 642.005   1
  -1  10  -3 207.417 337.807   1
   4   8 -10 72.8492 488.327   1
   4   9 -12 4016.24 622.883   1
   4   3  -5 1281.86 258.233   1
   5 -11  10 2810.24 537.627  -2
   5   7 -12 2810.24 537.627   1
   4   5  -6 1192.18 339.409   1
   2   9  -6 528.613 442.272   1
   3   1  -3 3.23418 121.422   1
  -1  11  -4 566.529 392.710   1
   3  10 -10 265.522 534.740   1
   0 -12   7 254.427 510.872  -2
   0  12  -7 254.427 510.872   1
   0  -7   1 1123.50 269.087  -2
   0   7  -1 1123.50 269.087   1
   1  11  -7 2315.19 547.801   1
   4   9 -11 2051.39 609.485   1
   4   8  -9 746.750 504.668   1
   5 -11   9 943.886 515.775  -2
   5   7 -11 943.886 515.775   1
   1   9  -4 268.671 385.428   1
   2  11  -9 702.726 564.894   1
   6   4 -12 418.044 375.889   1
   1   7  -2 2270.89 323.625   1
   0 -11   5-380.938 418.269  -2
   0  11  -5-380.938 418.269   1
   1  10  -5 2049.13 486.050   1
   3   8  -6 390.953 414.468   1
   6   4 -11 1233.14 405.554   1
   4   6  -6 2297.73 408.771   1
   3  10  -9 4089.23 624.935   1
   6   5 -12 3090.07 517.108   1
   4   9 -10 262.782 538.211   1
   6   6 -14 2362.86 496.102   1
   4   8  -8 2657.53 524.253   1
   3   9  -7 451.868 480.289   1
   6   6 -13 2434.83 505.892   1
   6   2 -10 964.317 320.380   1
   2  11  -8 534.033 554.086   1
   6   5 -11 71.6355 424.482   1
   4   2  -4 319.063 193.174   1
   1  11  -6 3074.46 537.790   1
  -1  10  -2 1458.27 356.053   1
   6   6 -12 1021.69 506.461   1
  -1   9  -1 1691.32 322.940   1
   2  10  -6 305.084 480.322   1
   4   9  -9 2361.04 585.400   1
   2   6  -2 304.537 275.562   1
   6   3  -9 2218.00 359.730   1
   6   5 -10 247.845 436.339   1
   4   4  -4 899.551 292.375   1
   4   7  -6 928.474 437.386   1
   1   9  -3-138.683 383.118   1
   5 -12   8 1242.32 553.644  -2
   5   8 -10 1242.32 553.644   1
   3   8  -5 1487.78 449.214   1
   6   7 -13 227.360 491.466   1
   0 -11   4 1217.74 452.506  -2
   0  11  -4 1217.74 452.506   1
   4   6  -5 2685.90 419.916   1
   1   8  -2 108.997 323.464   1
   4   8  -7 1651.32 524.875   1
   1  10  -4 810.567 428.155   1
   3   9  -6 2510.02 523.981   1
   2  11  -7 1357.90 535.477   1
   6   7 -12 66.5039 502.908   1
   3   6  -3 2423.10 365.344   1
   6   5  -9 644.596 433.527   1
   1  11  -5 1753.77 508.286   1
   2   8  -3 514.849 387.894   1
   6   2  -8 423.645 286.890   1
   3  10  -7 350.850 530.619   1
   5 -12   7 3436.79 589.074  -2
   5   8  -9 3436.79 589.074   1
   6   4  -8 284.267 383.354   1
   6   7 -11 681.413 524.639   1
   2  10  -5 423.821 477.991   1
   2   7  -2 701.863 337.058   1
   4   7  -5 2793.73 474.730   1
   6   6  -9-522.927 471.629   1
   5  -8   3 907.092 355.198  -2
   5   4  -5 907.092 355.198   1
   3   5  -2 416.246 287.143   1
  -1   7   1 232.528 204.962   1
   5 -11   5 1512.25 503.617  -2
   5   7  -7 1512.25 503.617   1
   3   8  -4 250.281 423.574   1
   6   7 -10 1161.98 559.202   1
   3   9  -5 145.142 459.280   1
   0 -10   2 3084.16 421.617  -2
   0  10  -2 3084.16 421.617   1
   4   4  -3 349.341 298.020   1
   6   2  -7 520.373 278.213   1
   1   6   0 157.618 244.655   1
   7   5 -12 263.565 471.687   1
   6   4  -7 1927.53 413.486   1
   1  10  -3 193.877 442.521   1
   7   4 -11 146.315 428.765   1
   3  10  -6 2018.51 573.790   1
   1  11  -4 328.575 461.836   1
   1   8  -1 1259.53 348.029   1
   6   7  -9 208.479 517.617   1
   2   9  -3-41.8800 415.787   1
   7   6 -12-118.449 522.619   1
   7   4 -10 2168.07 454.170   1
   2  10  -4 1585.85 502.905   1
   6   1  -7 792.270 226.549   1
   5 -11   4 2541.89 521.111  -2
   5   7  -6 2541.89 521.111   1
   6   8 -10 916.147 569.725   1
   4   7  -4 1775.68 456.138   1
   4   9  -6 436.132 520.054   1
   7   6 -11 820.670 525.136   1
   6   2  -6 290.897 269.553   1
   6   4  -6 323.633 378.466   1
   7   3  -9 351.552 359.050   1
   5 -13   6 1731.06 576.114  -2
   5   9  -8 1731.06 576.114   1
   3   9  -4 278.469 479.616   1
   7   4  -9-242.831 434.079   1
   3   8  -3 748.373 435.677   1
   6   6  -7 264.493 461.249   1
   4   6  -3 1791.31 413.156   1
   3  10  -5 1699.48 556.729   1
   7   6 -10-47.5988 517.827   1
   7   5  -9 208.056 488.386   1
   6   5  -6 367.886 436.056   1
   3   7  -2 216.553 389.624   1
   3   5  -1 996.913 309.180   1
   4   4  -2 1629.42 310.717   1
   5 -12   4 42.8653 535.506  -2
   5   8  -6 42.8653 535.506   1
  -1   6   2 439.058 178.683   1
   1  11  -3 101.314 448.370   1
   4   8  -4 2587.90 507.262   1
   4   9  -5 608.705 529.653   1
   5 -13   5 736.870 590.607  -2
   5   9  -7 736.870 590.607   1
   6   7  -7-66.0713 522.647   1
   4   5  -2 355.933 341.388   1
   7   6  -9 3966.67 575.490   1
   7   2  -8 2159.96 330.913   1
   2   9  -2 2524.18 444.007   1
   6   6  -6 1868.16 517.521   1
   4   7  -3 2530.14 467.279   1
   7   7 -10-380.100 547.575   1
   6   0  -7 626.679 188.263   1
   7   5  -8-40.1420 469.342   1
   6   2  -5 1676.23 306.579   1
   2  11  -4 1069.69 536.255   1
   3   9  -3 1004.36 481.171   1
   3  10  -4 674.730 515.679   1
   7   7  -9 3556.95 613.762   1
   5 -12   3 1613.05 543.989  -2
   5   8  -5 1613.05 543.989   1
   0  -5  -2 1120.55 184.900  -2
   0   5   2 1120.55 184.900   1
   7   1  -8 85.6449 239.550   1
   8   5 -11 2458.31 514.256   1
   7   5  -7 20.6013 451.613   1
   6   8  -7 86.0693 557.187   1
   2   7   0 871.340 342.215   1
   4   9  -4 3691.18 594.072   1
   6   6  -5 2099.05 526.677   1
   8   4 -10 1438.67 486.803   1
   3   7  -1-138.504 378.383   1
   4   8  -3 1210.28 493.592   1
   6   3  -4 747.595 349.159   1
   8   5 -10 347.607 459.088   1
   5 -10   1 1209.32 463.407  -2
   5   6  -3 1209.32 463.407   1
   1   7   1 2323.84 317.679   1
   7   3  -6 908.880 408.677   1
   7   7  -8-233.314 582.353   1
   3   5   0 325.077 295.899   1
   1  10  -1-595.320 402.598   1
   7   4  -6 56.1741 440.021   1
   7   6  -7-124.311 531.664   1
   2  10  -2 3354.54 511.495   1
   3   2   0 677.612 176.577   1
   8   4  -9-387.704 468.026   1
   2   9  -1-60.5691 404.705   1
   8   3  -9-201.804 417.293   1
   5  -8   0-249.066 345.033  -2
   5   4  -2-249.066 345.033   1
   1   9   0-317.920 378.290   1
   3  10  -3 828.145 509.738   1
   6   8  -6-42.7267 532.621   1
   8   5  -9 86.8370 522.757   1
   3   9  -2 2195.26 501.645   1
   5 -12   2 514.992 529.830  -2
   5   8  -4 514.992 529.830   1
   5 -13   3 3642.15 649.275  -2
   5   9  -5 3642.15 649.275   1
   8   2  -9 447.176 320.564   1
   6   1  -4 465.747 228.429   1
   2   8   0-209.032 395.419   1
   7   7  -7 93.7852 551.168   1
   6   6  -4-271.532 495.228   1
   2   6   1 579.599 323.905   1
   4   6  -1 971.549 412.627   1
   8   3  -8 441.620 436.808   1
   7   6  -6 277.879 531.128   1
   8   6  -9 1772.39 593.868   1
   4   9  -3 3048.25 581.712   1
   7   3  -5 2060.21 409.184   1
   7   4  -5 1793.72 485.323   1
   6   3  -3 625.540 349.159   1
   8   5  -8 3945.02 594.850   1
   6   4  -3 1921.62 432.843   1
  -2   5   3 77.4933 110.516   1
   4   8  -2 1038.77 494.463   1
   5  -4   1 307.619 162.620  -2
   5   0  -3 307.619 162.620   1
   3   6  -6 12840.8 505.798   1
   2   6  -4 39155.5 685.754   1
  -1  12  -7 6594.76 573.859   1
   2   2  -2 7837.36 228.981   1
   3   5  -5 7903.16 404.426   1
   2   1  -2 45770.7 402.768   1
  -1   6   0 19128.0 378.446   1
   1  10  -7 4507.79 518.738   1
   4   7 -10 13771.2 633.323   1
   5  -8   8 13461.2 550.259  -2
   5   4 -10 13461.2 550.259   1
   0  -4   0 32936.6 413.975  -2
   0   4   0 32936.6 413.975   1
   5  -6   7 9656.54 410.705  -2
   5   2  -9 9656.54 410.705   1
   0  -6   1 36090.3 557.594  -2
   0   6  -1 36090.3 557.594   1
   5  -9   9 5148.15 471.180  -2
   5   5 -11 5148.15 471.180   1
  -1  11  -5 4315.82 476.760   1
   5  -7   7 18104.2 534.401  -2
   5   3  -9 18104.2 534.401   1
   5 -10  11 4831.33 522.650  -2
   5   6 -13 4831.33 522.650   1
   0 -10   5 14534.9 608.961  -2
   0  10  -5 14534.9 608.961   1
   3   9 -10 4879.22 583.501   1
   1   7  -3 8607.94 400.685   1
   1   8  -4 24118.9 628.155   1
   5  -5   7 6874.69 313.029  -2
   5   1  -9 6874.69 313.029   1
   4   5  -7 4914.08 396.444   1
   3   8  -8 15871.9 655.115   1
   2   3  -2 25637.8 416.775   1
   4   0  -6 6569.21 211.281   1
   4   4  -6 32308.0 638.693   1
   5  -8   7 41191.4 793.890  -2
   5   4  -9 41191.4 793.890   1
   5  -9   8 5359.97 467.692  -2
   5   5 -10 5359.97 467.692   1
   1  11  -8 10117.1 669.991   1
   0 -11   6 6990.10 568.640  -2
   0  11  -6 6990.10 568.640   1
   5  -6   6 25189.3 549.871  -2
   5   2  -8 25189.3 549.871   1
   5 -10   9 8089.14 567.353  -2
   5   6 -11 8089.14 567.353   1
   5  -7   6 6660.45 390.735  -2
   5   3  -8 6660.45 390.735   1
   4  -1  -7 5803.90 158.381   1
   5 -11  11 10681.8 670.323  -2
   5   7 -13 10681.8 670.323   1
   2  10  -8 7682.78 621.397   1
  -1   8  -1 11811.7 417.161   1
   4   2  -5 22779.5 455.770   1
   2   7  -4 5044.55 407.570   1
   2   4  -2 61404.3 688.072   1
   5  -5   6 41575.4 590.782  -2
   5   1  -8 41575.4 590.782   1
   2   8  -5 6021.83 478.935   1
   3   8  -7 14781.4 632.656   1
   4   6  -7 6788.94 472.964   1
   3   2  -3 61563.0 620.247   1
   0  -9   3 6600.15 432.287  -2
   0   9  -3 6600.15 432.287   1
   0  -8   2 3137.60 340.008  -2
   0   8  -2 3137.60 340.008   1
   0  -5   0 16057.3 349.066  -2
   0   5   0 16057.3 349.066   1
   5  -9   7 6195.14 476.767  -2
   5   5  -9 6195.14 476.767   1
   3   5  -4 15416.8 476.563   1
   4   1  -5 63319.5 621.750   1
   2   6  -3 16428.8 491.088   1
  -2   8   0 2193.34 262.925   1
   5  -8   6 12154.4 512.567  -2
   5   4  -8 12154.4 512.567   1
   4   7  -8 4013.90 509.412   1
   5 -10   8 36566.6 873.920  -2
   5   6 -10 36566.6 873.920   1
   2   0  -2 84367.3 416.187   1
   1   5  -1 3141.06 252.698   1
   3   3  -3 77800.8 776.421   1
   0 -10   4 22881.6 690.911  -2
   0  10  -4 22881.6 690.911   1
   3   9  -8 5822.48 600.138   1
  -1   7   0 23109.4 467.341   1
  -1   5   1 65842.0 582.777   1
   1   8  -3 9994.20 473.421   1
   5  -6   5 20010.9 490.679  -2
   5   2  -7 20010.9 490.679   1
   4   4  -5 20330.1 533.383   1
   5  -7   5 21194.6 554.730  -2
   5   3  -7 21194.6 554.730   1
   2  10  -7 13303.3 700.293   1
   5 -12  11 8601.85 684.898  -2
   5   8 -13 8601.85 684.898   1
   2   5  -2 5845.03 318.343   1
   5  -9   6 4776.94 457.736  -2
   5   5  -8 4776.94 457.736   1
  -2   3   2 133254. 409.897   1
   5 -10   7 7675.04 553.413  -2
   5   6  -9 7675.04 553.413   1
   6   5 -13 7489.87 573.820   1
   6   3 -11 4062.66 436.259   1
   3   4  -3 19722.5 473.315   1
   3   7  -5 16821.1 602.467   1
   5  -5   5 71723.9 738.680  -2
   5   1  -7 71723.9 738.680   1
   5  -4   6 10637.2 283.883  -2
   5   0  -8 10637.2 283.883   1
   4   7  -7 4922.55 514.214   1
   3   6  -4 12946.1 500.610   1
   5  -8   5 21546.9 609.932  -2
   5   4  -7 21546.9 609.932   1
   5 -11   8 4998.06 572.760  -2
   5   7 -10 4998.06 572.760   1
   5 -12  10 6103.38 649.386  -2
   5   8 -12 6103.38 649.386   1
   4   0  -5 20881.5 322.223   1
  -2   7   1 27259.1 447.594   1
   2   8  -4 4162.63 454.046   1
  -2   4   2 36441.0 306.576   1
   6   3 -10 3530.64 392.947   1
   4   5  -5 13843.0 510.682   1
   0  -6   0 37143.5 564.294  -2
   0   6   0 37143.5 564.294   1
   2   7  -3 7175.64 428.685   1
   2   9  -5 9789.23 567.947   1
   1   6  -1 17592.1 466.580   1
   1   3   0 2814.37 173.324   1
   0 -12   6 17900.9 766.808  -2
   0  12  -6 17900.9 766.808   1
   6   4 -10 20048.2 665.913   1
   1   2   0 25289.0 312.489   1
   5 -12   9 4936.25 631.040  -2
   5   8 -11 4936.25 631.040   1
   4   3  -4 31076.1 575.462   1
   5 -10   6 8259.17 558.940  -2
   5   6  -8 8259.17 558.940   1
   3   5  -3 14641.1 466.969   1
   2   2  -1 39288.5 443.716   1
   2   3  -1 1684.27 180.999   1
   5  -9   5 17313.2 607.202  -2
   5   5  -7 17313.2 607.202   1
   5  -6   4 26193.5 540.143  -2
   5   2  -6 26193.5 540.143   1
   5 -11   7 5575.60 569.942  -2
   5   7  -9 5575.60 569.942   1
   0  -9   2 17290.7 568.277  -2
   0   9  -2 17290.7 568.277   1
   3   0  -3 3326.52 133.967   1
   5  -7   4 64763.5 873.553  -2
   5   3  -6 64763.5 873.553   1
   0 -10   3 4459.67 464.403  -2
   0  10  -3 4459.67 464.403   1
   3  10  -8 5701.78 636.298   1
  -1   6   1 29333.6 462.371   1
   1   4   0 46941.4 555.039   1
   4   1  -4 9884.22 279.190   1
   4  -1  -6 1676.42 109.038   1
   0  -8   1 11832.7 451.618  -2
   0   8  -1 11832.7 451.618   1
   3  -1  -4 51511.1 302.372   1
   6   2  -9 15863.2 506.379   1
   0  -3  -1 38512.0 387.912  -2
   0   3   1 38512.0 387.912   1
   2   4  -1 12519.7 360.171   1
   6   6 -11 9217.31 638.001   1
   5  -8   4 20092.3 587.883  -2
   5   4  -6 20092.3 587.883   1
   6   4  -9 7676.07 495.423   1
   5  -4   5 15456.9 321.519  -2
   5   0  -7 15456.9 321.519   1
   3   7  -4 20484.8 643.729   1
   5  -5   4 7782.63 300.940  -2
   5   1  -6 7782.63 300.940   1
  -1   8   0 20524.5 492.061   1
  -2   5   2 51282.7 441.787   1
   3   3  -2 3007.24 244.040   1
   3   2  -2 64709.9 635.306   1
   0  -4  -1 150609. 861.451  -2
   0   4   1 150609. 861.451   1
   5 -10   5 6115.26 516.210  -2
   5   6  -7 6115.26 516.210   1
   2   1  -1 23309.1 292.958   1
   5 -11   6 14464.2 694.064  -2
   5   7  -8 14464.2 694.064   1
   4   9  -8 20487.1 837.770   1
   6   6 -10 5773.96 570.601   1
   4   5  -4 16672.0 546.655   1
   6   1  -9 13226.3 395.165   1
   6   3  -8 6943.92 444.959   1
   3   4  -2 4138.07 304.470   1
   1   7  -1 25846.5 590.644   1
   2   9  -4 6923.07 541.055   1
   5  -9   4 4893.69 446.816  -2
   5   5  -6 4893.69 446.816   1
   1   5   0 39296.1 576.540   1
   0 -12   5 18400.5 744.391  -2
   0  12  -5 18400.5 744.391   1
   0  -7   0 34600.8 606.717  -2
   0   7   0 34600.8 606.717   1
   0  -2  -1 220416. 2869.47  -2
   0   2   1 220416. 2869.47   1
   2   5  -1 7734.82 354.118   1
   1   1   0 129708. 544.905   1
   5  -7   3 26043.6 594.388  -2
   5   3  -5 26043.6 594.388   1
   3   1  -2 21296.6 329.336   1
   5  -6   3 39222.1 634.823  -2
   5   2  -5 39222.1 634.823   1
   0  -5  -1 36599.1 506.733  -2
   0   5   1 36599.1 506.733   1
   4   8  -6 4418.97 558.414   1
   4   3  -3 70396.1 829.947   1
   4   2  -3 16214.7 396.748   1
   6   5  -8 5067.34 513.768   1
   4   0  -4 27838.5 357.814   1
   6   1  -8 8457.11 343.563   1
   2  11  -6 9249.90 683.906   1
   5 -10   4 13744.9 629.372  -2
   5   6  -6 13744.9 629.372   1
   4   6  -4 9948.33 519.890   1
   4   9  -7 4919.33 605.572   1
  -2   6   2 4521.63 207.852   1
   5  -4   4 45758.0 512.660  -2
   5   0  -6 45758.0 512.660   1
   6   3  -7 17879.9 577.725   1
   5 -12   6 16902.8 789.757  -2
   5   8  -8 16902.8 789.757   1
   5  -5   3 91543.2 818.836  -2
   5   1  -5 91543.2 818.836   1
   3   7  -3 4950.85 462.297   1
   0  -9   1 35861.7 731.801  -2
   0   9  -1 35861.7 731.801   1
   0 -11   3 14547.7 628.295  -2
   0  11  -3 14547.7 628.295   1
   1   9  -2 5984.72 490.515   1
   2   6  -1 9040.30 419.014   1
   5  -9   3 4350.25 445.614  -2
   5   5  -5 4350.25 445.614   1
   5 -13   7 5207.02 675.105  -2
   5   9  -9 5207.02 675.105   1
   4   1  -3 8684.66 266.425   1
   6   6  -8 6002.00 570.056   1
   7   5 -11 8144.99 627.565   1
   4   5  -3 3781.60 391.904   1
   0  -6  -1 65917.7 734.090  -2
   0   6   1 65917.7 734.090   1
   7   3 -10 6723.10 501.011   1
   3   6  -2 19341.4 573.205   1
   6   5  -7 12117.2 611.790   1
   0  -8   0 6779.26 393.352  -2
   0   8   0 6779.26 393.352   1
  -1   4   2 10906.9 226.917   1
   2   8  -2 14303.9 584.378   1
   4   8  -5 10797.3 639.628   1
   5  -7   2 22395.7 559.238  -2
   5   3  -4 22395.7 559.238   1
   2   3   0 32164.0 470.488   1
   5 -12   5 9025.37 650.540  -2
   5   8  -7 9025.37 650.540   1
   4  -1  -5 3774.43 130.841   1
   3   3  -1 10157.8 342.580   1
   5  -6   2 23501.5 507.071  -2
   5   2  -4 23501.5 507.071   1
   2   4   0 12685.1 368.912   1
   7   5 -10 5540.05 570.251   1
   6   3  -6 34689.1 729.428   1
   5 -10   3 14573.2 639.160  -2
   5   6  -5 14573.2 639.160   1
   5  -8   2 26883.5 665.422  -2
   5   4  -4 26883.5 665.422   1
  -1   5   2 15299.4 309.590   1
   2  11  -5 8363.32 640.220   1
   3   4  -1 17216.3 461.492   1
   3   2  -1 7200.01 257.203   1
   2   2   0 18425.5 319.104   1
   1   7   0 18928.0 535.734   1
   6   7  -8 5166.93 608.198   1
   2   7  -1 8784.02 468.574   1
  -1   3   2 69774.4 410.210   1
  -1   8   1 6689.44 355.541   1
   1   4   1 44624.7 555.616   1
   1   3   1 10356.7 260.099   1
   4   3  -2 18540.2 478.505   1
   7   2  -9 6680.33 400.355   1
   2   5   0 38588.4 636.205   1
   6   8  -9 9905.07 740.639   1
   5  -9   2 10323.7 536.063  -2
   5   5  -4 10323.7 536.063   1
   5  -4   3 48975.9 523.822  -2
   5   0  -5 48975.9 523.822   1
   3   0  -2 3009.09 130.320   1
   5  -5   2 29120.6 489.596  -2
   5   1  -4 29120.6 489.596   1
   4   2  -2 5929.43 285.265   1
   0  -7  -1 7168.58 364.120  -2
   0   7   1 7168.58 364.120   1
   1   5   1 12818.8 375.766   1
   1  10  -2 6740.05 516.375   1
   6   1  -6 9725.21 350.791   1
   7   3  -8 5811.03 476.679   1
   5 -11   3 11397.5 650.063  -2
   5   7  -5 11397.5 650.063   1
   2   0  -1 34649.2 279.162   1
   7   4  -8 6182.43 530.936   1
   1   9  -1 15255.6 591.202   1
   6   3  -5 12693.8 524.687   1
   2  10  -3 9147.08 605.386   1
   4   0  -3 1200.25 138.237   1
   5 -10   2 17540.4 673.212  -2
   5   6  -4 17540.4 673.212   1
   0  -9   0 5145.81 418.456  -2
   0   9   0 5145.81 418.456   1
   6   8  -8 10735.6 715.180   1
   2   6   0 16872.9 510.255   1
   3   1  -1 1516.76 145.749   1
   6   4  -5 6962.82 489.249   1
   5  -7   1 22842.9 573.683  -2
   5   3  -3 22842.9 573.683   1
   1   2   1 111540. 639.669   1
   3   6  -1 34460.0 720.304   1
   5  -8   1 18843.9 587.780  -2
   5   4  -3 18843.9 587.780   1
   2   8  -1 9438.89 518.298   1
   5  -6   1 101847. 972.717  -2
   5   2  -3 101847. 972.717   1
   4   1  -2 42567.3 520.493   1
   1   8   0 2830.22 374.887   1
   1   6   1 8035.89 361.676   1
   7   3  -7 6141.15 489.644   1
   6   5  -5 8293.83 567.848   1
   0  -4  -2 22581.2 369.458  -2
   0   4   2 22581.2 369.458   1
   7   4  -7 5250.82 521.525   1
   2   1   0 2638.59 137.684   1
   3   8  -2 24240.4 740.100   1
   4   6  -2 5340.64 474.439   1
   7   6  -8 5432.69 621.249   1
   5  -9   1 5899.80 486.776  -2
   5   5  -3 5899.80 486.776   1
   7   2  -7 5283.54 401.114   1
  -1   7   2 21955.3 454.024   1
   3  -1  -3 3650.40 98.4883   1
   5 -13   4 5910.11 681.671  -2
   5   9  -6 5910.11 681.671   1
   6   1  -5 3424.45 287.127   1
   6   7  -6 10223.6 687.776   1
   0  -8  -1 11467.9 456.550  -2
   0   8   1 11467.9 456.550   1
   5 -11   2 12392.2 665.422  -2
   5   7  -4 12392.2 665.422   1
   5  -3   4 30607.4 348.138  -2
   5  -1  -6 30607.4 348.138   1
   5  -4   2 35166.6 458.711  -2
   5   0  -4 35166.6 458.711   1
   0  -1  -1 218298. 2064.56  -2
   0   1   1 218298. 2064.56   1
   3   3   0 20206.9 445.592   1
   3   4   0 28923.8 578.231   1
   5  -5   1 65670.5 707.435  -2
   5   1  -3 65670.5 707.435   1
   0  -3  -2 22962.5 307.976  -2
   0   3   2 22962.5 307.976   1
   6   0  -6 13888.3 346.454   1
   4   3  -1 2308.57 286.863   1
   8   3 -10 7969.95 548.998   1
   4   4  -1 15257.2 494.459   1
   6   4  -4 8904.55 527.923   1
   2   4   1 20666.5 458.209   1
   4  -1  -4 67085.9 436.171   1
   0  -6  -2 12240.3 368.964  -2
   0   6   2 12240.3 368.964   1
   6   2  -4 29914.4 622.787   1
   2   3   1 56535.5 624.665   1
   4   2  -1 2353.33 245.059   1
   4   7  -2 14427.3 651.599   1
   7   1  -7 4249.35 326.985   1
   4   5  -1 19933.4 606.623   1
   2   5   1 2199.79 290.522   1
   6   5  -4 5648.25 546.376   1
   5  -7   0 7338.72 413.832  -2
   5   3  -2 7338.72 413.832   1
   7   2  -6 16069.8 534.345   1
   7   5  -6 4303.47 557.873   1
   6   7  -5 4595.70 605.090   1
   5  -6   0 47468.8 696.026  -2
   5   2  -2 47468.8 696.026   1
   3   6   0 10796.7 505.941   1
   5  -9   0 32867.1 788.748  -2
   5   5  -2 32867.1 788.748   1
   5 -11   1 14062.7 700.360  -2
   5   7  -3 14062.7 700.360   1
   3   8  -1 4974.00 515.806   1
   2   2   1 55355.6 541.197   1
   8   4  -8 9882.25 644.295   1
   1   4   2 3516.39 242.614   1
   4   0  -2 37719.5 429.024   1
   0  -7  -2 11076.1 418.871  -2
   0   7   2 11076.1 418.871   1
   6   0  -5 13001.1 350.236   1
   1   5   2 7305.83 320.903   1
   7   1  -6 18028.5 487.239   1
   5  -3   3 11823.4 238.691  -2
   5  -1  -5 11823.4 238.691   1
   1   8   1 9099.81 474.580   1
   4   1  -1 38036.0 502.811   1
   3   0  -1 99805.8 588.711   1
   8   2  -8 8952.71 501.159   1
   7   2  -5 4786.38 408.427   1
   5 -10   0 10808.7 607.755  -2
   5   6  -2 10808.7 607.755   1
   6   2  -3 22494.4 559.886   1
   1   3   2 4620.56 205.386   1
   7   5  -5 8959.69 633.892   1
   1   1   1 2987.88 117.706   1
   5  -5   0 36350.6 552.121  -2
   5   1  -2 36350.6 552.121   1
   3   1   0 67116.4 583.077   1
   6   8  -5 535.506 582.809   1
   6   5  -3 33.5485 455.727   1
   3   7   0 2814.57 454.724   1
   1   6   2 18066.9 493.257   1
   8   4  -7 130.391 492.287   1
   8   3  -7 665.476 432.354   1
   8   6  -8 1384.22 574.274   1
   6   7  -4-654.702 535.417   1
   4   4   0 14833.2 507.193   1
   4   7  -1 2431.38 484.499   1
  -1   2   2 2189.53 68.0597   1
   7   0  -7 3932.28 276.714   1
   5 -13   2-97.1707 585.376  -2
   5   9  -4-97.1707 585.376   1
   7   7  -6-177.699 583.687   1
   4   3   0 19215.9 498.096   1
   2   7   1 6328.20 435.097   1
   5 -12   1 3768.39 603.050  -2
   5   8  -3 3768.39 603.050   1
   1   0   0 159242. 1742.76   1
   2  10  -1 148.650 437.888   1
   3   4   1-106.742 269.395   1
  -1   5   3 22099.9 358.656   1
   8  -6   6 2182.10 414.758   2
   3  -6   7 441.781 271.794   2
   2  -7  12 566.104 362.900   2
   6  -7   8-337.436 325.064   2
   3  -7  10 1763.97 382.040   2
  -1  -5  10-81.1139 231.891   2
  -3  -3   9 134.025 144.002   2
   2  -7  11 1918.10 389.767   2
  -1  -4   7 719.567 179.663   2
  -2  -4   9 369.019 194.049   2
   3  -7   9-13.4296 351.376   2
   8  -4   2 2141.78 269.494   2
   4  -7   8 121.729 330.089   2
  -1  -3   5 190.685 110.428   2
   7  -7   7-184.457 396.861   2
   6  -7   7 918.504 379.414   2
   7  -5   3 40.2316 248.478   2
   4  -4   2 271.824 153.109   2
   6  -7   6 1991.64 369.920   2
   8  -7   6 153.774 372.334   2
   6  -8   8 717.140 412.570   2
  -3  -3   8 935.483 172.949   2
   4  -8   9 2054.42 454.321   2
   6  -3   0 807.387 145.662   2
   2  -6   6 306.958 233.551   2
   2  -8  11 533.020 392.159   2
   6  -5   2 119.958 190.286   2
   6  -7   5 1190.21 324.417   2
   6  -8   7 1941.01 409.349   2
   4  -8   8-174.935 375.240   2
   3  -8   9 3468.40 470.916   2
  -1  -6  10 926.638 290.741   2
   3  -5   3 603.907 193.222   2
   2  -8  10 2487.53 442.903   2
   8  -6   3 332.602 277.081   2
   3  -7   6 1336.77 313.584   2
   7  -8   6 277.071 410.162   2
   4  -4   1 526.565 167.300   2
   1  -8  11 412.883 390.603   2
   1  -4   3 122.303 146.908   2
   7  -7   4 2062.84 355.387   2
   1  -6   6 554.381 241.674   2
  -1  -5   7 220.744 200.614   2
   8  -7   4 778.792 355.365   2
   1  -8  10 1659.03 409.563   2
   7  -8   5 121.153 349.450   2
   8  -8   5 2501.22 449.492   2
   2  -5   3 7.15794 161.697   2
  -3   2   2 226.785 77.1822   2
   6  -8   5-117.667 347.592   2
   4  -8   6 740.619 371.650   2
   7  -5   1 65.0709 204.984   2
   1  -7   7-91.3870 268.847   2
   8  -6   2 1462.81 294.352   2
   3  -4   1 134.171 146.335   2
   6  -4   0 248.710 144.357   2
   7  -7   3 130.415 277.488   2
   7  -4   0 149.393 156.499   2
  -1  -7  10 521.360 308.485   2
   6  -9   6 143.474 428.440   2
   3  -8   6 2700.21 375.687   2
   8  -8   4 1462.71 402.391   2
   2  -9   9 231.136 380.152   2
   4  -6   2 568.931 238.834   2
   1  -9  10 55.7812 456.269   2
  -1  -6   7 514.032 249.425   2
   6  -9   5 236.777 392.803   2
   3  -9   7 465.309 424.512   2
   4  -9   6 635.576 386.545   2
   7  -7   2 384.385 269.310   2
   2  -9   8 1860.13 420.908   2
   2  -8   6 55.4010 291.162   2
   3  -8   5 1968.19 380.691   2
   6  -6   1 521.406 228.510   2
   8  -6   1 597.121 233.945   2
   6  -7   2 125.095 265.968   2
   7  -9   4 3906.59 495.456   2
  -1  -7   8 584.037 287.795   2
   2  -9   7 3906.09 507.032   2
   3  -7   3 207.314 262.924   2
   4  -9   5 1535.80 407.228   2
   1  -9   8 3043.50 444.869   2
   3  -8   4 2104.01 370.803   2
   8  -8   2 172.042 335.186   2
   7  -8   2 1215.03 376.459   2
   4  -8   3 1381.76 343.521   2
   8  -7   1 475.700 262.476   2
   7  -9   3 3088.15 464.290   2
  -2  -2   3 120.764 87.8109   2
   6  -8   2 1715.38 370.033   2
   7  -6   0 766.429 247.882   2
   4  -9   4 1518.20 435.508   2
  -2  -6   7 1425.75 275.074   2
   1  -9   7 348.996 358.063   2
  -1  -5   4 248.150 192.785   2
   2  -8   4 1215.32 305.951   2
   3  -8   3 309.350 325.953   2
   8  -9   2-361.690 426.393   2
   7  -9   2 1393.11 390.759   2
   7  -8   1 1546.68 363.740   2
   8  -8   1 768.874 327.935   2
   1  -9   6 306.360 334.597   2
   6  -9   2 1958.16 432.800   2
   3 -10   5-149.182 380.249   2
   8  -7   0 722.328 314.359   2
   1  -3   0 140.687 120.501   2
  -1  -8   7 483.189 319.219   2
   4 -10   4 847.511 449.820   2
   2  -7   2 19.0281 262.186   2
   1  -8   4 107.624 310.175   2
  -1  -6   4 117.469 222.358   2
   1  -9   5 1138.14 368.164   2
   7  -6  -1 84.1415 226.640   2
   2  -5   0 127.668 174.707   2
   2 -10   5 1254.26 410.254   2
   7  -8   0 885.948 331.346   2
   6  -9   1 531.879 372.850   2
  -1  -8   6 356.178 330.673   2
   2  -3  -1-55.0430 117.136   2
  -2  -6   5 173.751 239.983   2
  -2  -5   4 1474.83 227.402   2
   6  -4  -2 1432.37 183.665   2
   3  -5  -1 684.590 198.945   2
   1  -6   1 118.954 236.178   2
   6  -7  -1 2173.30 328.941   2
  -3  -3   4 251.298 126.150   2
  -1  -7   4 2020.74 321.905   2
   2  -6   0 1996.19 280.950   2
   7  -9   0 3728.70 469.978   2
   6  -5  -2-5.31102 203.995   2
   4  -9   1 273.729 400.902   2
   7  -5  -2 1213.40 218.359   2
   1  -5   0 241.218 221.226   2
   7  -8  -1-22.3280 326.893   2
   8  -8  -1 994.050 353.397   2
   1  -8   2 332.508 338.376   2
  -2  -7   5 1753.42 321.726   2
   6  -8  -1 2114.82 395.646   2
   2  -9   2 247.331 360.201   2
   4  -7  -1 494.690 300.688   2
   2  -8   1 1031.99 343.415   2
  -3  -4   4 1012.94 202.108   2
  -2  -5   3 495.996 211.884   2
   3  -2  -2 295.101 89.7467   2
  -1  -4   1 99.5787 166.362   2
   4  -9   0 461.601 362.317   2
   7  -7  -2 1308.25 327.677   2
   7  -9  -1 653.380 420.178   2
  -1  -9   5 1988.13 438.196   2
  -1  -6   2 1079.54 287.385   2
   1  -4  -1 398.836 175.165   2
   2  -6  -1 567.326 285.300   2
   1  -9   2 1284.64 403.334   2
   2  -9   1 571.890 381.273   2
  -4  -3   5 1321.15 165.174   2
   7  -8  -2 1968.08 403.476   2
   6  -8  -2 92.3970 311.568   2
   4  -7  -2 283.781 292.416   2
  -1  -9   4 1045.23 437.406   2
  -3  -1   3 117.597 44.4882   2
   4  -9  -1 3229.77 505.312   2
   1  -9   1 2488.98 436.527   2
   2  -9   0 1702.92 435.882   2
   4  -5  -3 2027.07 279.770   2
   7  -7  -3 2890.91 357.349   2
  -2  -6   2 465.525 275.972   2
  -1  -9   3 272.954 446.351   2
  -1  -8   2 0.61162 337.864   2
   1  -7  -1-46.4224 313.321   2
   7  -8  -3 2886.79 394.028   2
   6  -8  -3 1110.26 371.550   2
   3  -5  -3 615.590 230.636   2
   3  -8  -2 3525.32 476.673   2
   4  -9  -2 324.622 416.994   2
   4  -7  -3 1962.50 368.053   2
   2  -7  -2 1956.78 372.286   2
  -2  -8   3 204.816 368.605   2
   3  -6  -3 1554.71 320.655   2
   1  -9   0 493.532 467.848   2
   2  -9  -1 84.1454 422.327   2
  -2  -7   2 1109.29 341.418   2
   6  -9  -3 3082.10 471.467   2
  -1  -6   0 459.710 272.453   2
   1  -6  -2 879.168 279.723   2
   3  -7  -3 2362.55 430.042   2
   3  -9  -2 996.676 487.770   2
   2  -5  -3 242.277 231.076   2
  -1  -8   1 1882.82 416.809   2
   2  -8  -2 1201.65 406.755   2
  -4  -2   4 26.6998 83.0887   2
   6  -7  -4-37.9249 336.487   2
  -3  -5   2 637.459 246.126   2
   7  -7  -4-77.6804 299.262   2
   7  -8  -4 1085.27 375.169   2
   1  -8  -2 346.051 385.596   2
  -1  -8   0 3783.43 505.571   2
  -4  -4   3 394.176 208.699   2
   2  -8  -3 4260.60 530.468   2
   3  -7  -4 2874.38 459.684   2
  -1  -7  -1 2936.10 466.219   2
  -3  -5   1 1617.65 285.619   2
   6  -7  -5 2253.38 395.198   2
  -2  -7   0 1026.67 366.780   2
   3  -3  -4 36.0590 150.862   2
   6  -8  -5 4043.65 499.690   2
   1  -8  -3 433.146 404.939   2
   2  -8  -4 836.269 482.201   2
   4  -8  -5 355.799 440.722   2
   3  -6  -5 170.211 332.893   2
  -2  -8   0 439.768 494.399   2
  -2  -6  -1 565.455 322.840   2
  -4  -4   2 1428.78 237.348   2
   3  -7  -5 317.528 407.171   2
  -1  -7  -2 889.447 390.083   2
  -3  -5   0 489.906 294.419   2
   2  -6  -5 2616.39 408.630   2
   2  -5  -5 2644.60 353.913   2
   2  -7  -5 868.732 414.710   2
   6  -7  -6 169.728 352.370   2
  -3  -7   0 2847.43 482.721   2
   4  -7  -6-90.6183 394.273   2
   6  -4  -5 17.0879 152.233   2
  -1  -7  -3 208.997 423.664   2
   1  -6  -5 1960.35 437.742   2
   1  -5  -5 2249.10 378.554   2
   3  -6  -6 56.7873 352.396   2
   6  -3  -4 664.767 97.8699   2
  -3  -4  -1-163.302 232.782   2
   1  -7  -5-553.034 480.983   2
   3  -5  -6 157.180 288.927   2
  -3  -2   0 829.661 147.555   2
  -3  -6  -1-498.697 355.320   2
   2  -6  -6 944.902 402.719   2
  -1  -5  -4-223.688 362.678   2
   3  -4  -6 824.995 261.249   2
  -4  -5   0 1306.43 364.508   2
  -2  -6  -3 2247.30 442.033   2
   4  -7  -7 3238.19 509.361   2
  -3  -6  -2 1623.81 426.164   2
   1  -5  -6 295.335 340.408   2
   6  -6  -7 162.078 315.405   2
  -2  -3  -3 404.216 240.514   2
   4  -5  -7 1137.28 334.972   2
  -3  -3  -2 1893.26 266.296   2
  -1  -6  -5 551.038 413.418   2
  -2  -5  -4-40.3470 363.968   2
   6  -5  -7 107.024 241.164   2
   3  -2  -5 42.9073 119.605   2
  -3  -6  -3 2820.30 476.345   2
   4  -4  -7 1399.26 289.896   2
  -3  -4  -3 2609.94 375.867   2
   1  -3  -6 1311.38 278.604   2
  -4  -3  -1 1781.36 275.772   2
  -2  -3  -4 435.822 260.393   2
   3  -6  -8 202.073 419.406   2
  -1  -3  -5 451.461 280.233   2
  -4  -5  -2 3353.57 477.175   2
   6  -6  -8-265.589 380.439   2
   2  -6  -8 1023.48 465.991   2
  -2  -4  -5 1735.71 378.293   2
  -3  -5  -4 616.688 378.243   2
   6  -3  -5 782.729 113.957   2
   3  -3  -7 136.384 214.866   2
  -3  -4  -4 229.402 326.188   2
  -4  -5  -3 896.536 439.254   2
   4  -3  -7 1316.66 257.031   2
  -4  -4  -3 2024.95 376.321   2
  -1  -5  -7 2799.67 501.322   2
  -3  -5  -5 1159.49 449.282   2
   3  -5  -9-273.998 341.332   2
   4  -5  -9 178.430 359.825   2
  -1  -4  -7 262.150 378.097   2
   2  -5  -9 1302.22 458.364   2
  -1   0   2 132.453 42.5068   2
  -4  -2  -2 295.228 200.285   2
  -4  -5  -4 2283.53 503.963   2
  -4  -4  -4 1902.01 370.273   2
  -3  -2  -4 272.168 237.666   2
  -3  -3  -5 597.076 322.767   2
   3  -4  -9 161.139 304.271   2
   1  -2  -7 210.577 222.722   2
   4  -4  -9 2875.72 380.517   2
  -2  -4  -7 616.236 381.797   2
  -2  -1  -4 1066.35 184.477   2
   4  -3  -8 178.679 213.067   2
   1  -4  -9 893.969 384.391   2
  -4  -3  -4 0.00000 274.173   2
   3  -2  -7-69.4427 181.287   2
   2  -3  -9 446.825 333.772   2
  -1  -3  -8 651.583 380.647   2
   1  -3  -9 2303.01 395.059   2
   1  -2  -8 352.936 257.403   2
  -4  -3  -5 605.564 362.727   2
  -4  -2  -4 1447.52 301.245   2
   1  -4 -10 1742.09 450.816   2
   4  -4 -10 2256.48 384.393   2
  -2  -3  -8-61.4493 390.722   2
  -3  -3  -7 2929.58 456.584   2
   3  -1  -5 762.157 105.736   2
  -1  -2  -8 1830.46 347.589   2
   2  -3 -10 2216.82 411.607   2
  -2  -1  -6 822.453 239.805   2
  -4  -3  -6 290.245 361.021   2
  -3  -1  -5 86.9986 204.185   2
   1  -2  -9 756.878 288.022   2
  -1  -1  -7 1017.29 258.983   2
   3  -4 -11 4090.68 493.535   2
   2  -1  -7 307.749 173.083   2
   4  -4 -11 1589.98 371.794   2
  -2  -3  -9 3205.30 490.144   2
   4  -3 -10 686.895 279.987   2
  -4  -3  -7-202.237 429.198   2
  -3   0  -2 241.530 116.667   2
   2  -3 -11 1972.40 442.885   2
   1  -3 -11 2833.93 482.880   2
  -4  -1  -5 58.0323 245.418   2
  -2  -1   5 33.3658 72.0917   2
  -4  -2  -7 1291.01 416.229   2
  -1   0  -6-34.3741 166.688   2
  -1  -1  -9 2175.31 360.674   2
  -2   0  -6 1616.47 229.059   2
   1   0  -2 130.412 37.6222   2
  -4  -2  -8 2910.44 474.393   2
  -3  -1  -8 1014.99 367.320   2
   3  -3 -12 3534.26 447.108   2
  -2  -1  -9 940.621 378.925   2
  -4  -1  -7 97.7793 312.325   2
  -3   0  -6 225.290 217.934   2
   1  -1 -10 453.438 312.223   2
   1  -2 -12 225.926 400.203   2
  -2  -1 -10 580.623 402.302   2
   4  -2   1 96.2537 101.300   2
   1  -1 -11 2019.32 364.733   2
  -3   0  -8 486.287 290.112   2
   3  -2 -12 1834.51 364.805   2
   3  -1 -10 180.682 216.763   2
   1   0  -9 1525.74 251.867   2
  -1   0 -10-72.6321 294.279   2
   1  -1 -12 357.470 361.002   2
  -4   0  -8-32.7076 304.671   2
  -2   1  -4 545.183 135.960   2
   1   0 -10 2026.12 297.616   2
   2  -1 -12 2373.99 382.659   2
  -4   0  -9 538.346 358.628   2
  -1   1  -7 1083.06 208.825   2
  -6   0  -5 868.952 295.414   2
  -1   1  -8 199.589 212.331   2
  -4   1  -6 1713.25 265.476   2
  -4   1  -3 722.779 160.854   2
  -6   0  -6 2666.84 375.895   2
  -4   0 -10-448.551 387.806   2
  -6   0  -1 946.309 170.588   2
  -2   1  -9 2104.52 325.883   2
   2  -1 -13 1616.73 372.542   2
  -1   0 -12-39.8296 385.988   2
  -4   1  -8-80.6860 310.110   2
   2   0 -11 7.04690 267.150   2
   4  -1 -11 1161.68 261.679   2
   3  -1 -13 3720.62 451.009   2
   1   0 -13 938.879 363.459   2
  -6   1  -5 2486.70 312.694   2
  -2   1 -12 371.282 396.183   2
   2   0 -13 1149.51 371.194   2
  -3   2  -7 725.259 227.077   2
  -6   1  -8 765.771 383.483   2
  -3   2  -9-44.6824 279.630   2
  -4   2  -6 1580.46 250.457   2
   1   1  -5 0.66898 88.5670   2
  -4   2  -9 115.485 303.463   2
  -6   1  -2-41.2405 153.154   2
   2   1  -9 12.0424 185.132   2
   3   0 -13 897.968 332.269   2
   1   1 -13 692.061 350.225   2
  -4   2 -11 873.199 383.849   2
  -2   2 -12 82.3886 364.247   2
  -1   2 -12 132.898 344.088   2
  -6   2  -5 1551.18 270.759   2
  -1   2 -13 678.463 406.894   2
   4   0 -11 110.479 187.005   2
   4   0  -9 193.310 144.663   2
   2   1 -14 623.129 370.061   2
  -4   3  -9 1320.59 348.302   2
  -3   3 -10-109.151 321.613   2
  -4   3 -11 2220.03 451.515   2
   1   2  -9 474.331 203.812   2
  -3   3 -12 2122.62 434.623   2
  -4   3  -6 719.720 215.052   2
   3   1 -11 1842.84 258.262   2
   1   2 -13 3353.87 409.043   2
   1   2  -8 292.244 165.349   2
  -6   3  -8 1167.82 362.814   2
  -6   3  -9 1885.74 409.609   2
   1   2 -14 213.071 360.761   2
   3   1  -9 586.030 163.955   2
  -1   3 -13 1125.66 377.381   2
  -1   3  -8 1449.65 245.146   2
   2   2 -11 1723.96 266.256   2
   2   2 -13 502.759 325.206   2
   2   2 -14 776.199 371.218   2
  -4   4  -9 660.674 314.736   2
  -3   4 -10 785.990 352.825   2
   2   1  -5 202.508 85.3069   2
  -7   3  -5 314.017 265.203   2
  -4   4  -8 1753.78 325.422   2
  -6   4  -9 201.710 357.788   2
  -2   4 -11 951.634 392.220   2
  -2   4 -12 2075.88 445.427   2
  -3   4  -8 43.4546 245.377   2
  -3   3  -4 202.316 158.775   2
  -4   4  -7 1217.72 295.669   2
   1   3 -11 917.470 297.149   2
  -7   3  -4 91.0721 244.369   2
   1   3 -14-167.619 362.301   2
   2   2  -8 160.708 155.936   2
  -7   4  -8 7.24792 400.289   2
  -1   4 -13 816.717 388.167   2
  -2   4  -8-145.596 252.647   2
  -4   2  -1 180.721 109.637   2
  -7   4  -7 1587.16 383.968   2
  -6   3  -3 634.923 210.809   2
   1   3  -9 928.152 214.086   2
  -7   4  -6-5.67310 279.394   2
  -4   5 -11 2205.88 477.520   2
  -2   3  -4 781.661 160.794   2
  -4   5 -10 1640.09 394.992   2
  -3   5 -12 2446.23 441.291   2
  -6   5  -9 186.376 353.306   2
  -3   5 -10 3093.79 410.026   2
  -2   5 -11 2845.30 431.482   2
  -3  -1   3 210.856 43.7974   2
  -3   4  -5 1073.09 210.153   2
  -6   5  -7 698.515 299.058   2
  -6   4  -4 156.962 213.533   2
   1   4 -14 2413.31 441.451   2
  -3   5  -8 525.658 268.573   2
  -7   5  -7 2695.08 403.113   2
  -4   5  -7 1663.94 295.459   2
   1   4 -12 1754.01 336.612   2
  -7   5  -6 140.529 280.601   2
  -4   6 -10 491.085 374.859   2
  -2   5  -8 5.65502 258.251   2
   2   3  -9 1067.42 200.120   2
  -3   6 -11 224.844 351.165   2
   2   2  -6 489.136 124.602   2
  -2   6 -12 1480.24 412.485   2
  -7   4  -3 1122.78 235.586   2
  -7   5  -5 404.893 284.844   2
  -3   3  -2 719.341 126.760   2
   2   4 -13 550.071 307.098   2
  -4   6  -8 53.9500 308.182   2
  -6   6  -7-193.708 304.080   2
  -4   4  -3 299.692 167.823   2
  -7   6  -7 243.397 331.713   2
  -1   5  -8 213.583 221.121   2
  -3   6  -8 203.928 290.381   2
   3  -4   3 48419.2 675.075   2
   4  -3   1 29831.1 454.008   2
  -2  -3   7 42071.4 594.492   2
   4  -7   9 12079.2 601.193   2
   2  -6   8 9530.24 460.356   2
   7  -4   2 14290.1 438.996   2
  -2  -2   5 52010.6 520.814   2
   4  -5   4 26217.0 591.818   2
   4  -6   6 17044.3 583.506   2
   2  -3   2 44400.8 545.319   2
   1  -6   9 11195.3 520.708   2
   6  -6   5 7163.88 438.119   2
   7  -6   5 14870.1 584.149   2
  -2   1   1 975222. 5168.69   2
   6  -5   3 4567.31 311.738   2
   8  -6   5 14236.8 614.976   2
   2  -5   5 15852.7 475.627   2
  -1   1   0 95284.0 1722.68   2
   2  -7  10 5306.73 496.290   2
   1  -7  12 5665.40 519.554   2
   1  -5   6 2983.70 275.861   2
   2  -6   7 15026.9 546.947   2
   3  -6   6 12769.6 513.916   2
   3   2  -3 73049.7 589.046   2
   3  -2   0 100375. 646.628   2
   3  -5   4 7639.50 350.805   2
   8  -5   3 2750.72 318.931   2
   1  -4   4 3350.17 220.296   2
  -1  -5   9 41551.8 796.573   2
   1  -6   8 70187.1 1092.60   2
  -1  -1   2 16428.8 198.784   2
   4  -6   5 4722.12 353.583   2
   3  -7   8 26682.3 791.499   2
   2  -4   3 37651.7 597.013   2
   1  -7  11 22497.7 780.419   2
   4  -8  10 4912.77 557.087   2
   3  -3   1 48493.1 560.949   2
   4  -7   7 22855.8 738.821   2
   7  -7   6 7961.40 523.723   2
   2  -7   9 7775.90 497.440   2
   7  -6   4 7107.23 450.355   2
   6  -6   4 2955.61 328.303   2
   3  -1  -1 90675.7 417.232   2
   4  -5   3 60797.2 864.375   2
   8  -6   4 18071.3 646.296   2
  -2  -4   8 57395.9 806.717   2
   1   2  -2 31468.6 381.528   2
   2   1  -2 55164.9 361.828   2
   1  -7  10 17127.4 679.619   2
  -2  -3   6 4194.98 212.612   2
   4   2  -3 19084.8 325.883   2
   3  -8  10 16751.3 740.842   2
  -1  -6  11 19835.0 673.553   2
   3  -4   2 31337.8 544.776   2
   6  -4   1 18202.5 443.766   2
   7  -4   1 11366.3 389.307   2
   3  -6   5 17556.4 568.919   2
   3  -7   7 42138.0 952.685   2
  -4   2   3 1543.98 100.277   2
  -1  -4   6 10381.0 355.191   2
  -1  -5   8 26466.4 627.652   2
   1  -6   7 14840.3 532.096   2
   2  -7   8 11570.5 565.854   2
   7  -3   0 10599.7 314.718   2
  -1  -2   3 162289. 859.358   2
   1  -2   1 8151.64 202.238   2
   7  -7   5 11062.0 569.546   2
   4  -7   6 6459.07 473.404   2
   2  -5   4 67013.8 909.595   2
   1  -5   5 23391.5 563.399   2
  -3  -2   6 11523.3 271.402   2
   7  -5   2 4043.49 311.050   2
   8  -7   5 9439.59 568.105   2
   4  -6   4 19833.3 596.929   2
   1  -7   9 3466.43 404.015   2
   1  -3   2 91480.5 781.279   2
   8  -5   2 26120.6 640.215   2
   7  -6   3 12474.2 521.800   2
   1  -1   0 93909.6 436.878   2
   6  -2  -1 1376.93 115.385   2
   6  -6   3 32677.8 744.715   2
  -2  -1   3 8881.26 160.233   2
  -4   1   4 71487.5 337.721   2
   2  -7   7 9753.52 502.613   2
  -1  -3   4 16763.4 351.606   2
   2  -6   5 17335.3 554.865   2
   6  -8   6 9566.24 604.023   2
   3  -8   8 8339.41 580.755   2
   4  -3   0 24300.3 407.096   2
   4  -8   7 7404.70 535.784   2
  -2  -4   7 5014.07 272.162   2
  -2  -5   9 25680.8 628.437   2
   4  -7   5 7275.83 458.995   2
   2  -3   1 38927.9 504.933   2
   1  -7   8 33311.5 831.709   2
   2  -8   9 14467.8 664.058   2
   3  -6   4 31092.4 699.356   2
   4  -5   2 2854.09 249.649   2
   6  -7   4 4257.46 394.808   2
  -1  -6   9 20387.8 631.295   2
  -2  -2   4 63059.4 549.435   2
   2  -4   2 2976.60 205.974   2
  -3  -3   7 1544.08 171.709   2
   2  -2   0 63721.1 507.046   2
   1  -5   4 116865. 1157.41   2
   4  -6   3 15178.5 518.738   2
  -1  -4   5 75001.8 840.247   2
   3  -8   7 8435.10 540.151   2
   2  -7   6 13305.6 550.688   2
   2  -8   8 29642.8 872.478   2
   3  -7   5 4668.02 396.600   2
   2   2  -2 9511.99 228.989   2
   7  -6   2 24266.2 634.272   2
   6  -5   1 9069.85 369.248   2
  -2  -3   5 33128.7 490.683   2
   4  -9   8 35997.4 1037.27   2
   3  -9   9 8508.11 602.686   2
   6  -6   2 5660.94 366.931   2
   4  -2  -1 218026. 915.598   2
  -2  -5   8 11750.9 432.589   2
   8  -5   1 9314.82 392.192   2
   1  -8   9 17722.4 706.082   2
   4  -7   4 16363.5 579.738   2
  -1  -6   8 8229.75 430.237   2
  -4  -1   6 12658.1 201.715   2
   3  -5   2 60950.0 836.489   2
   8  -7   3 13755.8 584.551   2
   2  -6   4 16273.6 527.339   2
   1  -6   5 13216.6 480.832   2
  -1   2   0 8506.86 207.875   2
   6  -7   3 4159.77 390.617   2
  -1  -5   6 2328.74 240.114   2
   3  -3   0 115721. 845.029   2
  -2   2   1 21762.3 318.192   2
  -3  -4   8 8876.03 339.434   2
   3  -6   3 24273.7 620.380   2
   7  -8   4 23314.3 778.616   2
   3  -9   8 24832.8 861.372   2
   4  -9   7 15364.4 715.926   2
  -2  -4   6 18407.1 442.993   2
   2  -8   7 10971.2 563.419   2
   4  -8   5 18254.5 690.627   2
   6  -8   4 9663.63 542.337   2
   3   1  -2 25258.0 281.072   2
   2  -7   5 41512.5 879.198   2
   1  -8   8 8121.72 525.569   2
   3  -7   4 6010.95 397.290   2
   1  -7   6 6034.84 411.921   2
   4  -5   1 3442.77 261.760   2
   3   2  -2 76663.9 672.223   2
   1  -4   2 78652.8 846.065   2
  -1  -7   9 14224.5 580.412   2
  -3  -2   5 818.598 104.901   2
   6  -3  -1 67263.2 648.767   2
   1  -5   3 5436.79 303.942   2
  -2  -5   7 18381.1 519.803   2
   4  -4   0 24070.5 477.984   2
   4  -7   3 4015.40 370.607   2
   1  -3   1 45670.4 551.768   2
   7  -6   1 6162.33 377.554   2
   2  -5   2 27389.9 581.044   2
  -1  -3   3 15330.6 340.012   2
   8  -7   2 8022.49 483.259   2
  -3  -3   6 9762.34 295.280   2
   7  -3  -1 9656.10 271.812   2
  -1  -4   4 70438.2 814.730   2
   1   1  -1 18460.9 222.828   2
   4   2  -2 6195.22 231.936   2
   2  -4   1 36026.4 579.559   2
   1  -6   4 11581.7 453.320   2
   7  -8   3 35257.4 916.439   2
   8  -8   3 8430.11 531.326   2
   2  -6   3 16461.3 516.254   2
   1  -8   7 16024.5 660.205   2
  -3  -1   4 82165.5 463.224   2
   4  -8   4 48987.0 1052.77   2
   1  -9   9 17496.0 793.887   2
   7  -5   0 5659.24 312.276   2
   6  -8   3 4560.25 456.104   2
  -1  -5   5 16003.4 472.847   2
   6  -5   0 9199.12 374.742   2
   1   2  -1 40120.5 463.820   2
  -3  -4   7 2773.10 227.552   2
   2  -7   4 29019.4 744.585   2
   3  -6   2 4269.02 323.788   2
   4   1  -2 49928.8 449.126   2
   3  -2  -1 49629.2 452.383   2
   3  -5   1 82554.8 981.542   2
  -1  -2   2 31067.7 382.190   2
   1  -7   5 7228.41 434.207   2
  -2  -6   8 15770.2 550.031   2
   3  -9   6 15165.7 698.392   2
   6  -9   4 11242.5 667.789   2
   2  -3   0 203466. 1162.64   2
  -2  -3   4 11327.1 304.649   2
  -1  -6   6 7180.22 393.675   2
  -2  -4   5 7718.93 306.577   2
   2  -8   5 4725.20 421.719   2
   4  -3  -1 5825.22 212.614   2
   3  -4   0 13265.7 366.250   2
   1  -8   6 29651.5 850.798   2
   4  -7   2 38966.4 855.377   2
   2  -1  -1 999999. 5526.93   2
   4  -6   1 26511.7 653.433   2
  -2  -5   6 59291.2 875.644   2
   1  -2   0 9021.79 215.610   2
   7  -7   1 6379.49 419.996   2
   6  -4  -1 30946.6 534.004   2
  -1  -7   7 20109.4 665.900   2
   7  -4  -1 19236.1 428.972   2
   6  -7   1 3902.31 370.027   2
   3  -9   5 18420.4 765.878   2
   1  -5   2 73141.8 928.559   2
   1  -6   3 18403.0 560.790   2
   2  -9   6 33913.4 970.032   2
   4  -5   0 28022.8 595.707   2
   2  -6   2 141333. 1420.30   2
   6  -9   3 16740.4 734.585   2
   1  -7   4 13363.8 539.523   2
   2  -7   3 2556.14 338.276   2
   6  -6   0 8747.34 407.226   2
  -3   1   3 4702.21 119.402   2
   2  -5   1 32355.9 627.047   2
   8  -6   0 7422.58 384.592   2
   1  -4   1 76431.5 843.176   2
  -3   2   3 52781.5 544.212   2
   3  -7   2 22132.3 650.347   2
   2   2  -1 47051.8 527.310   2
  -1  -4   3 66561.2 798.713   2
   3  -6   1 20022.3 576.377   2
   1  -8   5 11961.7 582.562   2
  -1  -8   8 4325.06 421.538   2
  -1  -6   5 26931.9 663.480   2
  -3  -4   6 2353.77 212.231   2
  -3  -3   5 71842.6 731.044   2
   3  -3  -1 1348.05 144.219   2
   2  -9   5 11656.6 624.181   2
   3  -9   4 10625.1 617.581   2
   4  -4  -1 36334.8 585.877   2
   2  -4   0 49651.0 685.814   2
  -1  -7   6 9891.90 491.200   2
   3  -5   0 5517.34 308.053   2
   4  -8   2 10357.9 568.741   2
   4  -7   1 79080.9 1191.42   2
   7  -5  -1 34800.0 641.129   2
   6  -5  -1 13584.2 436.535   2
  -1   2   1 1036.21 108.481   2
  -4  -2   6 20994.9 328.242   2
  -2   2   2 74986.8 641.592   2
  -1  -3   2 196694. 1192.68   2
  -2  -5   5 56124.8 851.636   2
   4  -9   3 20456.6 795.542   2
   3   2  -1 8567.35 260.640   2
   6  -8   1 26249.7 796.373   2
  -2  -4   4 14492.1 405.283   2
   7  -7   0 40172.2 850.965   2
   4  -6   0 7561.66 401.782   2
  -2  -6   6 15679.2 538.030   2
   2  -2  -1 21702.2 324.065   2
   6  -7   0 8897.02 486.180   2
   1  -7   3 14794.6 574.456   2
   1  -6   2 36161.4 759.019   2
   2  -8   3 32553.1 873.714   2
   2  -6   1 26526.0 662.523   2
  -3  -2   4 9034.71 232.457   2
  -2  -7   7 23916.4 697.262   2
   1  -5   1 43674.3 751.332   2
   3  -8   2 15051.9 630.550   2
   2   1  -1 27827.1 312.299   2
  -2  -3   3 4548.83 217.748   2
   2  -9   4 5259.57 540.527   2
  -1  -1   1 17740.2 223.965   2
   3  -7   1 8824.06 464.806   2
   3  -9   3 7385.97 543.833   2
   3  -4  -1 42571.7 660.321   2
  -1  -5   3 30810.8 642.213   2
   4  -5  -1 1923.53 238.057   2
   6  -6  -1 4466.97 329.950   2
   8  -9   1 9093.57 558.074   2
  -2   1   2 20766.9 241.298   2
  -1  -7   5 7305.67 441.755   2
   7  -9   1 8673.55 570.760   2
   3  -6   0 6094.77 367.069   2
  -4   1   5 4670.13 152.232   2
   3 -10   4 9270.00 618.077   2
   1   2   0 30567.5 432.702   2
   4  -8   1 6755.77 490.091   2
   4  -9   2 22807.2 824.326   2
  -1   1   1 32434.5 300.431   2
  -3  -5   6 36200.1 701.278   2
   8  -8   0 5210.30 432.802   2
   4 -10   3 12109.4 698.218   2
  -3  -4   5 19497.5 467.720   2
   6  -3  -2 62314.5 596.130   2
   4  -7   0 7109.52 433.131   2
   6  -2  -2 18517.9 211.819   2
   6  -8   0 14735.1 628.159   2
  -1  -4   2 112206. 1084.29   2
   1  -4   0 14359.4 406.249   2
   1  -7   2 48999.3 988.306   2
   1  -8   3 13821.9 643.997   2
   2  -8   2 8500.25 528.118   2
  -2  -7   6 3703.35 373.258   2
   2  -9   3 9599.67 623.344   2
   2  -7   1 42387.1 924.949   2
   7  -7  -1 10497.1 524.780   2
  -2  -1   2 56084.0 399.694   2
  -1  -2   1 42946.3 492.829   2
   1  -9   4 35149.9 998.856   2
   4  -2  -2 95549.2 613.159   2
   3  -9   2 4734.92 485.693   2
   3   1  -1 1880.91 119.488   2
   3  -8   1 6927.17 488.985   2
   4  -6  -1 11225.7 472.720   2
   4  -3  -2 76547.6 731.718   2
   2   2   0 21639.4 400.908   2
   4   1  -1 46278.0 517.158   2
  -2  -4   3 100843. 1038.84   2
   3 -10   3 32966.8 1055.04   2
   7  -4  -2 6340.51 267.676   2
   3  -7   0 7537.78 461.857   2
   2  -4  -1 24294.9 530.003   2
  -1  -6   3 54072.1 954.153   2
   8  -9   0 8208.28 537.953   2
  -1  -8   5 11128.0 586.538   2
   4  -8   0 30514.6 885.167   2
   4  -4  -2 18367.9 452.263   2
   6  -9   0 13784.8 703.048   2
  -2  -2   2 9770.74 250.992   2
  -1  -5   2 8335.49 393.053   2
  -1  -9   6 6320.62 567.654   2
  -3  -5   5 10086.4 429.498   2
  -1  -3   1 34493.5 554.042   2
  -1   2   2 2389.67 154.285   2
   3  -6  -1 7478.39 422.594   2
  -2  -6   4 55044.6 983.190   2
   1  -9   3 29890.5 968.884   2
   6  -6  -2 12152.2 506.260   2
   7  -6  -2 15378.7 539.037   2
   1  -2  -1 1056.63 125.021   2
   1  -7   1 5880.71 432.322   2
   2  -5  -1 65420.7 974.406   2
   3  -3  -2 49102.3 625.359   2
   3  -9   1 6932.51 558.280   2
  -4  -1   5 54557.0 320.059   2
   4  -5  -2 33033.6 698.556   2
   2  -7   0 32213.9 853.361   2
   1  -3  -1 77724.9 820.570   2
  -2  -3   2 32800.3 541.672   2
   3  -8   0 8613.71 540.559   2
   3  -4  -2 74417.4 898.609   2
  -1  -7   3 11978.4 558.345   2
  -1  -8   4 32871.3 926.349   2
   1  -6   0 26413.5 717.321   2
   1   1   0 162644. 2978.86   2
   1  -1  -1 32085.8 300.663   2
  -4  -2   5 25420.9 367.801   2
   6  -7  -2 15705.5 614.504   2
   3  -7  -1 31234.3 822.639   2
   4  -6  -2 37394.5 819.393   2
   6  -9  -1 15579.6 743.844   2
   4  -8  -1 36210.2 963.907   2
  -3   1   4 69540.4 535.409   2
   3  -5  -2 6363.15 358.528   2
  -2  -4   2 74043.1 930.615   2
  -2  -7   4 5593.02 426.001   2
   1  -8   1 15264.8 699.438   2
  -3  -2   3 72368.5 645.982   2
  -3  -5   4 20532.8 561.481   2
   2  -8   0 3416.41 428.722   2
  -2  -6   3 21315.1 647.078   2
   3  -9   0 11672.8 687.332   2
  -1  -5   1 3814.81 303.816   2
   1  -5  -1 83997.4 1114.70   2
   2  -3  -2 168457. 1177.85   2
   1  -7   0 30528.3 835.142   2
  -3  -3   3 93263.9 893.110   2
   4   1   0 25481.8 431.900   2
  -1  -8   3 14133.9 658.354   2
   3  -6  -2 34713.9 805.351   2
   2  -4  -2 43552.9 714.016   2
   3  -8  -1 15500.1 698.465   2
  -1  -7   2 3450.05 381.042   2
   2  -7  -1 36755.0 909.485   2
   6  -5  -3 26980.3 599.363   2
  -2  -5   2 6877.61 372.779   2
   2  -2  -2 74540.1 634.442   2
   2   1   0 2878.41 132.654   2
   6  -6  -3 11790.9 492.713   2
   6  -4  -3 72485.9 785.060   2
   2  -5  -2 59463.9 944.082   2
   7  -9  -2 15155.7 727.812   2
   3   1   0 80710.7 680.713   2
  -3  -4   3 23444.4 547.511   2
   1  -6  -1 37169.5 860.137   2
   7  -6  -3 8637.70 421.149   2
   7  -5  -3 9383.67 360.981   2
  -1  -6   1 21699.7 670.768   2
   4  -4  -3 59524.0 800.569   2
  -2  -8   4 5727.96 489.668   2
   6  -9  -2 25326.8 897.777   2
  -3  -6   4 16682.8 578.739   2
  -1  -3   0 3067.87 224.183   2
   3  -7  -2 4110.71 419.257   2
  -2  -7   3 9826.43 537.129   2
   4  -8  -2 23969.7 845.772   2
  -1  -2   0 29705.7 440.784   2
   1  -8   0 27425.5 895.804   2
   6  -7  -3 8063.12 484.817   2
  -2   1   3 5832.28 162.376   2
  -1  -4   0 56712.0 851.435   2
   3  -9  -1 12750.2 732.158   2
   2  -6  -2 5861.46 416.087   2
   2  -8  -1 8282.20 604.007   2
   4  -6  -3 19633.1 625.525   2
   4  -3  -3 61671.0 667.603   2
  -2  -3   1 2147.87 192.182   2
  -3  -5   3 18417.1 562.676   2
  -2  -2   1 44788.9 533.801   2
   3  -4  -3 48925.3 765.927   2
   4   0  -1 11840.0 209.678   2
  -2  -4   1 14532.6 459.462   2
   1  -4  -2 12122.5 418.426   2
  -1   1   2 25928.2 314.347   2
   1  -3  -2 77369.6 848.932   2
  -1  -5   0 47196.6 879.009   2
  -1  -7   1 35820.9 934.089   2
   3  -3  -3 2440.48 191.711   2
   1  -5  -2 18176.8 578.996   2
   3  -1  -2 24534.9 186.930   2
   6  -3  -3 7625.88 201.361   2
  -2  -5   1 9771.62 445.923   2
  -4  -3   4 34116.4 555.065   2
  -3  -6   3 3431.31 347.095   2
   1  -8  -1 9283.78 581.251   2
  -3  -3   2 3286.56 210.695   2
   1  -2  -2 2326.90 151.380   2
   3   0  -1 119611. 512.470   2
  -1  -9   2 7451.20 605.985   2
   4  -8  -3 4797.95 501.228   2
  -3  -4   2 4618.57 298.454   2
  -1  -1   0 147171. 705.389   2
   2  -4  -3 3986.48 290.618   2
   1   1   1 3528.14 144.782   2
   6  -6  -4 3642.99 362.500   2
  -2  -6   1 11353.3 534.582   2
  -4   0   6 8103.32 178.578   2
  -3  -2   2 70864.7 656.038   2
   2   1   1 80515.2 678.958   2
   2  -3  -3 66698.3 782.867   2
   2  -6  -3 17132.2 622.766   2
   6  -5  -4 8344.17 386.578   2
   1  -7  -2 26148.2 841.963   2
  -1  -7   0 24488.3 826.191   2
   7  -6  -4 10701.1 450.549   2
   4  -5  -4 16960.9 549.408   2
  -1  -4  -1 50242.0 842.213   2
  -2  -8   2 17413.5 757.409   2
   4  -6  -4 3197.59 373.119   2
   3  -8  -3 35654.0 1019.94   2
  -1  -3  -1 11631.0 369.249   2
  -2  -1   1 27329.1 305.604   2
  -2   1   4 3097.06 153.541   2
   6  -8  -4 13479.3 675.724   2
  -1  -5  -1 14756.4 555.260   2
   2  -7  -3 24546.3 809.878   2
   4  -4  -4 1851.49 231.989   2
  -2  -4   0 14455.7 492.691   2
   4  -7  -4 19978.1 722.839   2
  -2  -7   1 9920.34 580.977   2
  -2  -3   0 34990.6 614.736   2
  -3  -6   2 21681.6 701.997   2
   4  -2  -3 1697.21 110.293   2
   3  -2  -3 52474.1 513.054   2
   2  -1  -2 21087.3 228.649   2
   3  -5  -4 48095.0 902.767   2
  -2  -5   0 41964.1 883.664   2
   1  -4  -3 14099.3 482.093   2
   1  -5  -3 24632.8 692.102   2
   3  -6  -4 14120.6 589.504   2
  -1  -6  -1 8981.23 530.107   2
   3  -4  -4 7512.91 363.424   2
   6  -4  -4 36508.8 569.461   2
  -1   1   3 78670.3 634.550   2
   4  -8  -4 11549.0 668.937   2
  -1  -2  -1 124861. 951.218   2
   1  -6  -3 11917.0 580.045   2
   1  -3  -3 100327. 1024.21   2
  -2  -6   0 20453.2 719.120   2
  -4  -3   3 73223.5 828.802   2
  -3  -4   1 18518.7 551.157   2
  -2  -2   0 21358.6 403.622   2
  -2  -8   1 11379.0 694.726   2
   2  -2  -3 68918.1 666.162   2
   1   1   2 34532.2 462.052   2
  -3  -3   1 11050.5 371.694   2
   2  -5  -4 11454.9 507.572   2
   1  -7  -3 28096.7 901.069   2
   4   0   0 7162.86 212.390   2
   2  -6  -4 39433.2 957.148   2
   4  -3  -4 10829.7 321.866   2
   3  -8  -4 10954.2 701.401   2
   2  -4  -4 28929.2 658.950   2
   6  -6  -5 20635.8 647.865   2
  -3  -6   1 38354.3 936.136   2
   2  -7  -4 5970.77 510.983   2
  -1  -4  -2 3286.29 319.127   2
  -1  -5  -2 8742.39 481.966   2
   4  -6  -5 4215.79 423.724   2
   7  -7  -5 9875.99 533.460   2
  -1  -8  -1 11318.9 716.870   2
   4  -7  -5 7743.56 554.523   2
   4  -5  -5 18187.5 590.348   2
  -2  -4  -1 23625.8 636.342   2
  -2  -5  -1 3207.33 342.250   2
  -1  -6  -2 22860.5 771.349   2
   1  -1  -2 26352.0 317.987   2
  -1  -3  -2 5093.52 287.942   2
  -3   0   4 21882.9 211.018   2
   6  -5  -5 3249.92 297.329   2
  -3  -2   1 7879.51 260.020   2
   2  -3  -4 7276.72 320.974   2
   1  -5  -4 3871.03 405.853   2
   1  -2  -3 2602.71 182.495   2
  -4  -2   3 17628.5 327.251   2
  -2  -3  -1 62832.5 864.468   2
   3  -5  -5 13681.4 552.389   2
   1  -6  -4 5369.95 453.275   2
   1  -4  -4 35475.4 760.623   2
  -3  -1   2 24506.9 280.735   2
   4  -4  -5 8043.16 363.027   2
  -3  -4   0 28977.0 694.486   2
   1  -7  -4 9276.26 627.397   2
  -4  -3   2 19206.6 464.360   2
  -2  -7  -1 5989.06 529.585   2
   3  -4  -5 14019.9 488.790   2
  -3  -6   0 11283.1 593.000   2
   3   0   0 5465.80 159.935   2
  -3  -3   0 21706.8 520.037   2
   1  -3  -4 1987.29 225.673   2
  -1  -2  -2 224199. 1367.77   2
  -1  -1  -1 3916.68 152.500   2
  -1  -5  -3 8820.76 527.305   2
  -2  -2  -1 63112.0 731.580   2
  -1  -4  -3 11533.6 490.082   2
   2  -4  -5 48895.6 876.472   2
  -1  -6  -3 27353.3 874.798   2
  -2  -5  -2 29357.0 823.379   2
   4  -6  -6 8182.31 532.470   2
  -2  -4  -2 27602.2 703.253   2
   6  -6  -6 8240.55 468.737   2
  -2  -1   0 2849.15 134.397   2
  -2  -6  -2 17994.3 745.576   2
  -4  -4   1 16607.7 545.224   2
  -3   0   5 40952.8 390.780   2
   4  -5  -6 16321.4 585.792   2
  -1  -3  -3 46093.0 791.182   2
   3  -2  -4 53806.7 573.148   2
   3  -7  -6 7777.41 631.440   2
  -3  -5  -1 5843.38 469.490   2
   3  -3  -5 89229.7 973.355   2
  -2  -3  -2 14819.7 473.600   2
   2  -2  -4 8754.68 284.712   2
  -2  -7  -2 5886.98 542.444   2
   4  -3  -5 9996.76 328.727   2
   1  -4  -5 4209.19 351.770   2
   3   0   1 23572.9 364.150   2
  -4  -2   2 6230.73 227.280   2
  -4  -3   1 1873.94 222.394   2
   2  -3  -5 23315.3 555.100   2
   6  -5  -6 5471.37 342.421   2
  -3  -3  -1 11580.0 432.014   2
   2  -7  -6 5805.63 582.572   2
   2   0   0 5886.52 133.095   2
   2  -5  -6 22371.8 754.312   2
   1  -2  -4 30469.0 538.048   2
   4  -4  -6 4331.57 328.505   2
  -1  -6  -4 4396.03 508.851   2
  -2  -5  -3 7587.78 520.356   2
   4  -2  -4 2090.46 125.925   2
  -1  -4  -4 7164.70 455.292   2
  -2  -4  -3 69296.6 1148.63   2
   6  -7  -7 11380.7 630.334   2
   1  -3  -5 28148.1 638.081   2
  -4  -4   0 14188.5 532.065   2
  -1  -2  -3 5271.05 268.763   2
   4  -6  -7 26923.9 865.136   2
   2  -4  -6 19890.2 621.539   2
  -2  -2  -2 3466.74 235.238   2
  -3  -1   1 1682.89 110.468   2
  -3  -5  -2 27020.2 846.236   2
   1  -6  -6 24531.1 896.360   2
  -3  -4  -2 3349.86 369.440   2
   2  -1  -3 5634.74 153.516   2
   3  -6  -7 5002.36 525.212   2
  -1  -3  -4 21314.2 599.729   2
   1  -1  -3 77307.3 623.776   2
  -4  -3   0 20201.8 537.559   2
  -1  -1  -2 32063.4 444.926   2
   3  -5  -7 15775.9 644.449   2
  -4  -2   1 2713.47 195.572   2
  -3  -2  -1 15484.8 409.609   2
   1  -4  -6 2864.74 357.887   2
  -2  -1  -1 74517.8 659.818   2
   2   0   1 56323.1 478.657   2
   2  -6  -7 5932.64 577.472   2
  -1  -5  -5 13023.3 681.488   2
  -4  -5  -1 10143.3 593.018   2
   3  -3  -6 109632. 1147.22   2
   2   0   2 26653.1 394.791   2
  -2  -6  -4 11005.5 682.345   2
   2  -5  -7 36524.0 963.443   2
   2  -3  -6 2651.00 281.884   2
  -4  -4  -1 3933.86 375.357   2
   6  -4  -6 20170.1 464.605   2
   2  -2  -5 39081.2 604.121   2
   1   0   0 189366. 1940.60   2
  -1  -4  -5 3177.03 396.467   2
  -2  -4  -4 4577.08 419.024   2
   4  -3  -6 20585.4 483.845   2
  -3  -5  -3 24442.0 841.184   2
   3  -4  -7 14024.9 542.871   2
  -2   0   4 13774.2 227.789   2
   1  -2  -5 158116. 1285.89   2
  -2   0   3 99934.8 439.701   2
   1  -6  -7 12634.2 753.891   2
   4  -6  -8 16833.9 740.645   2
  -2  -2  -3 65239.5 879.871   2
  -1  -2  -4 54671.2 815.046   2
   2  -4  -7 16742.4 624.464   2
   1  -5  -7 9042.68 577.605   2
  -3  -1   0 79835.2 676.357   2
  -4  -2   0 57238.9 747.536   2
  -4  -1   6 13135.2 201.704   2
   1   0   3 221085. 1143.04   2
  -3  -2  -2 4033.57 272.043   2
   4  -5  -8 8728.56 538.246   2
  -3  -3  -3 12276.4 513.261   2
   1  -4  -7 47052.5 1030.04   2
   3  -1  -3 4828.78 109.033   2
   3  -5  -8 25462.2 822.256   2
  -2  -5  -5 3884.31 474.840   2
  -1  -5  -6 29182.2 958.109   2
  -4  -4  -2 12110.9 579.044   2
  -1   0   4 54600.8 525.562   2
  -1  -1  -3 5777.70 238.474   2
   1   0   2 81890.0 594.684   2
  -2  -1  -2 23841.3 431.278   2
  -4  -1   3 8323.47 141.218   2
   1   0   1 10694.4 178.436   2
   2  -5  -8 9148.76 583.847   2
  -1  -4  -6 10646.8 574.753   2
   4  -2  -5 5376.41 201.950   2
   1  -1  -4 41857.2 530.183   2
   2  -3  -7 5103.10 372.356   2
  -4  -3  -2 56816.6 981.869   2
  -2  -2  -4 44268.6 787.222   2
   3  -4  -8 21388.1 692.660   2
   2  -2  -6 32644.0 608.713   2
   2  -1  -4 3102.62 150.787   2
   1  -3  -7 23566.4 685.435   2
  -1  -2  -5 5545.08 347.325   2
   1  -5  -8 6041.15 577.146   2
  -4  -2  -1 52591.2 778.910   2
  -1   0   3 22975.6 281.081   2
  -2  -3  -5 8900.81 478.720   2
   1  -2  -6 28308.1 613.827   2
  -3  -1  -1 130669. 970.531   2
   2  -4  -8 14080.5 625.956   2
   4  -4  -8 14128.9 557.616   2
  -1  -3  -6 28426.0 766.807   2
  -3  -2  -3 24117.4 591.733   2
   6  -4  -7 4241.53 284.837   2
   4  -1   1 17032.7 327.486   2
  -3  -3  -4 11365.0 532.885   2
   3  -2  -6 37291.6 593.754   2
  -2  -5  -6 5021.95 553.251   2
   4  -1  -1 39857.8 323.515   2
  -4  -1   2 48881.9 428.763   2
  -4  -1   5 63164.9 299.563   2
   1  -4  -8 12558.9 644.548   2
   4  -1   0 4235.98 153.859   2
  -2  -4  -6 3900.35 450.673   2
  -2  -1  -3 4515.34 238.301   2
  -1  -1  -4 86957.7 904.203   2
  -3  -4  -5 30439.4 930.627   2
  -4  -3  -3 16971.0 614.251   2
  -4  -1   1 44417.7 488.837   2
  -2  -2  -5 6073.24 379.635   2
   2  -3  -8 18615.0 625.280   2
  -3  -1  -2 28307.8 514.242   2
   1  -1  -5 12222.6 336.073   2
  -2  -3  -6 38749.9 932.356   2
   3  -3  -8 2750.32 324.943   2
  -1  -2  -6 9004.98 436.067   2
   1  -3  -8 9738.58 531.288   2
  -1  -3  -7 45549.0 1021.30   2
  -1   0   0 193258. 1953.53   2
   2  -2  -7 4926.77 307.975   2
   2  -4  -9 7887.26 546.527   2
   4  -2  -6 60944.0 659.173   2
  -4  -1   0 25634.5 431.814   2
   2  -1  -5 14633.7 326.510   2
  -3  -4  -6 14465.5 735.971   2
  -1  -4  -8 21458.2 849.409   2
  -1  -1  -5 127391. 1185.91   2
  -4  -2  -3 3217.30 296.772   2
   3  -1  -4 67214.4 477.722   2
   4  -5 -10 7915.35 579.656   2
  -3  -1  -3 16573.2 440.356   2
  -1   0  -1 9696.05 169.229   2
  -2  -2  -6 9650.21 485.174   2
  -4  -4  -5 7698.93 574.859   2
  -4  -1  -1 40201.7 591.468   2
  -2  -3  -7 12157.7 620.716   2
  -3  -2  -5 3569.05 339.158   2
   3  -1   2 236680. 1185.47   2
  -3  -3  -6 3391.15 414.089   2
  -1  -2  -7 23836.1 691.002   2
   1  -1  -6 20124.3 470.126   2
   3  -3  -9 3422.32 361.513   2
   3  -4 -10 8612.60 548.429   2
   2  -4 -10 14642.0 721.671   2
  -2  -1  -5 23637.2 565.539   2
   2  -2  -8 8946.08 410.625   2
  -1   0  -2 77355.7 569.373   2
  -3  -1  -4 11660.1 416.136   2
  -4  -1  -2 26472.6 536.950   2
  -1  -1  -6 30029.2 643.662   2
   2  -1  -6 37118.7 558.426   2
  -2   0   0 5441.30 125.462   2
  -2   0  -1 54453.9 464.396   2
   4  -2  -7 3540.98 214.899   2
   4  -3  -9 5105.25 362.033   2
  -2  -2  -7 6655.18 451.799   2
   3  -2  -8 47079.7 778.327   2
  -3  -2  -6 37643.5 881.645   2
  -1   0  -3 197773. 1060.96   2
  -2   0  -2 23748.1 368.902   2
   3  -1   1 40387.6 425.603   2
  -1  -3  -9 5972.95 572.306   2
  -4  -1  -3 38816.8 698.360   2
   1  -1  -7 29223.0 604.014   2
  -4  -2  -5 21190.1 689.597   2
   1  -3 -10 7207.02 542.931   2
   3  -3 -10 6563.67 470.560   2
   2  -2  -9 20855.7 622.006   2
  -2   0  -3 2583.63 171.913   2
  -1   0  -4 6943.02 252.240   2
  -3  -2  -7 15999.0 673.552   2
  -2  -2  -8 6457.44 485.176   2
  -4  -1  -4 12176.3 461.825   2
  -3  -3  -8 6218.74 556.171   2
   4  -2  -8 6456.52 302.999   2
   3  -2  -9 56508.9 915.867   2
  -4  -2  -6 25006.2 797.228   2
  -1  -2  -9 6776.00 516.098   2
  -3   0  -1 21144.4 340.012   2
   3  -1  -6 75782.5 695.327   2
  -2  -1  -7 45553.8 896.945   2
  -3  -1  -6 12346.3 507.299   2
  -2   0  -4 37792.7 585.108   2
   1  -1  -8 90928.6 1122.54   2
  -3  -1   5 156237. 708.849   2
  -1   0  -5 55287.4 720.784   2
  -3   0   0 5066.70 149.824   2
  -1  -1  -8 2723.92 334.503   2
   1  -2 -10 7107.05 494.137   2
  -3   0  -3 28564.8 505.267   2
   2  -2 -10 6157.79 443.037   2
  -3  -2  -8 5343.15 496.783   2
   3  -3 -11 10757.1 584.681   2
  -2  -2  -9 17515.6 740.088   2
   2  -1  -8 3078.40 269.667   2
   1   0  -3 21764.2 265.054   2
  -2   0  -5 41099.1 675.106   2
   2  -1   2 3808.00 153.742   2
   3  -1   0 55162.1 410.911   2
   1   0  -4 49171.9 483.496   2
  -3  -1  -7 12867.1 576.185   2
  -3   0  -4 112770. 1081.61   2
  -2  -1  -8 4417.32 420.449   2
   3  -1  -7 20461.7 420.172   2
  -1  -2 -10 7225.16 545.772   2
   3  -2 -10 9868.20 472.449   2
   4  -2  -9 5934.04 340.817   2
   1  -1  -9 23257.0 647.403   2
  -4  -1  -6 11349.1 536.726   2
   1   0  -5 48366.1 560.877   2
   4  -3 -11 11001.3 544.613   2
   1  -1   3 104561. 728.577   2
  -3   0  -5 75184.6 1055.51   2
  -4   0  -2 17105.7 397.163   2
  -3  -2  -9 8225.08 595.078   2
   1  -2 -11 13553.3 667.025   2
  -4   0  -1 49236.0 577.130   2
  -2  -2 -10 18247.3 782.900   2
   2  -1  -9 22990.6 606.636   2
  -4   0  -3 3698.83 253.657   2
  -1   0  -7 83294.5 1057.35   2
   2  -2 -11 27717.5 822.987   2
   1   0  -6 53601.0 667.073   2
   3  -1  -8 5759.56 287.859   2
  -4   0  -4 31282.3 637.273   2
  -2   0  -7 25229.6 641.263   2
  -3   0   1 118744. 496.873   2
  -4   0   0 6671.02 199.866   2
  -1  -1 -10 14355.9 650.282   2
   3  -2 -11 4996.77 434.161   2
   4  -2 -10 10648.9 437.788   2
   1   0  -7 1786.62 205.083   2
  -4   0  -5 16851.4 529.889   2
  -1   0  -8 45294.1 858.829   2
   4  -3 -12 10158.1 562.778   2
  -3  -1  -9 5454.23 486.932   2
  -3   0  -7 9961.05 459.087   2
   2  -1 -10 2842.82 334.572   2
  -4  -1  -8 14943.5 688.933   2
  -2   0  -8 6891.15 432.187   2
  -1  -1   4 101945. 648.705   2
   3  -1  -9 13987.8 443.282   2
   2  -2 -12 5778.86 506.608   2
  -4   0  -6 24063.3 656.820   2
   1   0  -8 6321.34 328.322   2
  -1   0  -9 3712.29 347.041   2
  -1  -1 -11 5890.03 504.979   2
   4  -2 -11 3519.93 340.279   2
  -3  -1 -10 6325.97 569.517   2
  -2   0  -9 11107.9 532.747   2
  -4  -1  -9 15755.8 726.419   2
  -4   0  -7 29914.9 775.306   2
   2  -1   1 74315.1 490.612   2
   2   0  -6 3603.74 183.210   2
   2  -1 -11 14876.0 581.175   2
   2   0  -5 33393.2 399.031   2
   4  -1  -6 2118.90 126.932   2
   2   0  -7 2591.18 193.764   2
   4  -1  -7 7069.88 232.544   2
   4  -1  -5 4514.53 126.613   2
  -3   0  -9 6083.54 483.965   2
  -4   0   1 11093.9 193.218   2
  -2   0 -10 17213.2 685.916   2
  -2   1  -5 52093.5 705.308   2
   2   0  -8 19095.0 459.102   2
   2   0  -4 13045.7 211.512   2
  -2   1  -6 4511.14 293.932   2
   4  -1  -8 5118.51 244.404   2
  -2  -1   4 54935.7 417.091   2
  -3   1  -5 4715.64 278.567   2
  -3   1  -4 35405.3 579.522   2
   4  -2 -12 10933.2 522.233   2
   1  -1   2 15128.1 238.831   2
   3  -1  -1 90844.7 401.393   2
  -1   1  -5 50935.3 651.861   2
  -1   1  -6 7674.31 315.607   2
   3  -2   2 79633.6 683.294   2
   3  -1 -11 16707.0 580.939   2
  -3   1  -6 30453.0 650.109   2
  -2   1  -7 8816.28 401.018   2
  -3   0 -10 9856.75 605.933   2
  -1   0 -11 5524.00 485.340   2
  -6   0  -3 5372.71 330.064   2
   2   0  -9 35627.4 674.358   2
  -3   1  -3 25201.9 446.189   2
  -2   1  -3 2351.68 149.727   2
  -6   0  -4 5020.10 364.966   2
  -1   1  -4 22394.9 394.546   2
  -3   1  -7 45983.1 855.052   2
   4  -1  -9 29415.9 547.233   2
  -6   0  -2 19234.8 498.743   2
  -2   0 -11 8795.49 607.463   2
  -2   1  -8 19282.1 597.285   2
  -4   1  -5 13360.2 448.074   2
  -4   1  -4 42381.8 688.255   2
   1   0 -11 19378.4 656.133   2
  -3   1  -8 17840.5 614.374   2
  -3  -1   4 82209.8 428.813   2
   2   0 -10 27781.6 653.355   2
   4  -2   0 17701.0 289.349   2
   3  -1 -12 14951.5 600.861   2
  -4   1  -7 14085.9 542.661   2
  -1   1  -9 5288.75 383.548   2
   4  -1 -10 29602.0 609.898   2
  -3   1  -2 239607. 1187.33   2
  -1   1  -3 106447. 737.889   2
  -3   1  -9 3031.94 379.025   2
  -6   0  -7 4902.12 483.828   2
   1   0 -12 20280.9 735.820   2
  -2   1 -10 10256.6 564.002   2
  -2   1  -2 3964.46 161.007   2
  -1   1 -10 5019.33 419.929   2
  -4   1  -2 35053.0 521.595   2
  -3   1 -10 4480.94 491.766   2
  -4   1  -9 11424.3 597.748   2
   3   0  -8 3469.78 220.074   2
  -2   1 -11 5560.93 515.089   2
  -1   1 -11 36697.7 945.015   2
   3   0  -7 71092.7 687.361   2
   3   0  -9 14045.4 411.675   2
   2   0 -12 9271.11 508.516   2
   1   1  -8 15198.4 431.084   2
  -4   1 -10 12449.4 679.721   2
   1   1  -7 16865.5 406.534   2
  -3   1 -11 7756.46 582.345   2
   1   1  -9 57216.6 863.804   2
   4  -1 -12 5421.59 378.115   2
   3   0 -10 55586.9 835.091   2
  -6   1  -6 28044.3 771.960   2
  -6   1  -4 12829.9 478.822   2
   2   0  -3 98053.8 418.756   2
  -1   1 -12 11395.6 653.876   2
   1   1  -6 217214. 1234.25   2
   1   1 -10 38617.9 775.648   2
  -6   1  -7 5865.58 462.447   2
   3   0  -6 30227.1 390.106   2
  -3   1  -1 40572.2 428.955   2
   3   0 -11 5900.64 355.364   2
  -4   1  -1 15947.5 313.943   2
  -6   1  -3 22189.5 545.540   2
  -1  -1   3 875.568 74.0739   2
   1   1 -11 6099.70 411.266   2
  -3   2  -8 16158.6 558.553   2
  -3   2  -6 16129.4 478.709   2
   3  -2   1 22116.8 331.331   2
  -2   2  -8 57642.1 938.644   2
  -2   2  -7 16609.6 499.081   2
  -1   1  -2 14155.8 234.246   2
  -4   2  -7 10754.3 480.173   2
  -2   2  -9 35717.5 810.671   2
  -4   2  -8 14503.0 579.806   2
  -2   2  -6 3819.69 257.040   2
   3   0 -12 6976.27 421.755   2
  -3   2  -5 44421.5 692.372   2
   1   1 -12 6392.10 456.418   2
  -2   2 -10 6187.60 456.809   2
  -4   2  -5 39159.5 697.085   2
  -3   2 -10 27660.6 822.412   2
  -1   2  -8 19031.0 532.053   2
  -1   2  -9 55543.1 938.664   2
  -1   2  -7 8261.27 356.088   2
  -4   2 -10 5400.40 504.492   2
  -1   2 -10 2792.02 350.321   2
  -2   2 -11 20863.1 752.363   2
  -2   2  -5 8695.56 313.202   2
  -3   2 -11 21389.5 787.230   2
   2   1 -10 4894.49 326.531   2
  -2   1  -1 70684.6 486.667   2
  -4   2  -4 6253.68 293.263   2
  -1   2 -11 7740.77 522.226   2
   2  -2   2 157131. 884.527   2
   2  -1   0 335807. 3420.28   2
  -3   2  -4 9558.97 317.750   2
   2   1  -8 15173.7 392.327   2
  -1   2  -6 64871.3 798.429   2
   1  -2   3 12281.9 273.188   2
   2   1 -11 3640.76 334.279   2
  -6   2  -7 3988.27 400.063   2
   3   0  -5 37802.6 351.570   2
  -6   2  -6 5420.07 397.511   2
  -6   2  -8 4283.04 453.986   2
   2   1 -12 32904.4 785.378   2
   2   1  -7 79772.0 761.935   2
   4  -2  -1 225609. 891.462   2
  -6   2  -9 7002.92 574.926   2
  -6   1  -1 34251.1 542.411   2
  -2   2  -4 26979.1 459.569   2
  -1   2  -5 110839. 947.716   2
  -4   2  -3 27131.0 493.144   2
   2   1 -13 5238.87 452.773   2
   4   0 -10 2655.64 233.833   2
  -6   2  -4 14858.3 484.237   2
  -3   2  -3 99985.8 852.451   2
   1   1  -4 101739. 645.125   2
   1  -1   1 31817.1 282.718   2
  -3   3  -9 26079.9 735.587   2
  -4   3  -8 34345.5 814.066   2
  -3   3  -8 26449.0 681.817   2
  -4   3 -10 7517.17 512.320   2
  -4   1   0 4196.43 149.836   2
   1   2 -10 15059.9 499.695   2
   2   1  -6 69295.4 629.258   2
   1   2 -11 3682.11 336.592   2
  -3   3 -11 4874.24 486.212   2
  -4   3  -7 26488.2 672.493   2
  -2   3 -10 5397.77 440.136   2
  -2   3  -9 11491.1 506.335   2
  -3   3  -7 10578.2 436.594   2
   4   0  -8 40062.4 505.947   2
   1   2 -12 27872.6 747.875   2
  -2   3 -11 22989.3 765.725   2
  -6   2  -3 13609.0 425.253   2
  -2   3  -8 4286.86 329.142   2
  -2   3 -12 12150.8 657.842   2
   3   1 -10 4152.03 270.919   2
   3   1 -12 18275.0 560.352   2
  -1   2  -4 79895.7 723.528   2
  -2   2  -3 66786.4 642.125   2
  -3   3  -6 2921.32 262.522   2
  -1   3 -10 4674.38 380.573   2
  -2   3  -7 32964.4 668.032   2
  -1   3 -11 12710.7 571.645   2
  -6   3  -7 16790.8 631.464   2
   3   1 -13 11061.7 501.027   2
  -1   3  -9 5200.41 356.709   2
  -1   3 -12 10009.1 559.235   2
  -4   2  -2 1131.78 142.578   2
  -3   1   0 53522.6 406.399   2
  -6   3  -6 3582.19 354.188   2
  -4   3  -5 5501.12 305.968   2
  -2  -1   3 8846.66 150.041   2
  -6   1   0 11206.6 285.851   2
   1   2  -7 26044.1 483.059   2
  -2   3  -6 124439. 1158.20   2
  -6   2  -2 3191.19 225.332   2
  -3   3  -5 88045.7 961.537   2
  -7   3  -7 15498.4 658.857   2
  -6   3  -5 16795.0 548.043   2
  -3   2  -2 78142.6 682.566   2
   3   1  -8 1461.39 162.688   2
   3  -2   0 105433. 644.787   2
   2   2 -12 3048.96 343.230   2
   4   0  -7 88461.6 631.740   2
  -1   3  -7 10781.0 397.039   2
  -7   3  -6 11743.9 556.243   2
   2   2 -10 23044.6 570.296   2
  -4   4 -10 6023.70 506.072   2
  -4   4 -11 16228.9 752.264   2
  -1   1  -1 32783.8 292.155   2
  -3   4 -11 15024.8 685.152   2
  -4   3  -4 17009.1 448.926   2
   4  -3   0 24612.7 396.679   2
  -3   4 -12 6050.82 578.693   2
  -3   4  -9 15343.4 592.322   2
   2   2  -9 6940.68 317.176   2
  -6   3  -4 36836.8 724.108   2
  -2   3  -5 60165.9 764.618   2
   1   2  -6 28815.5 467.302   2
  -2   4 -10 30226.4 819.998   2
  -2  -2   4 63083.2 540.892   2
  -6   4  -8 6147.72 498.745   2
  -1   3  -6 29823.8 557.890   2
   2  -2   1 5947.64 175.942   2
   1  -2   2 35174.6 417.552   2
   1   3 -12 16242.0 605.496   2
  -1   2  -3 13036.1 288.341   2
  -2   4  -9 35767.7 826.577   2
   1   3 -13 9977.61 561.332   2
  -6   4  -7 24549.3 751.591   2
   3   1  -7 31425.0 446.633   2
  -1   4 -12 14224.1 653.736   2
  -3   4  -7 9982.64 439.110   2
  -1   4 -11 3303.58 407.748   2
   1   3 -10 27254.3 660.710   2
  -2   2  -2 150574. 890.525   2
  -6   2  -1 22155.8 445.664   2
   1   1  -3 888.730 82.4185   2
  -1   4 -10 7300.74 445.681   2
  -6   4  -6 5239.19 409.257   2
  -4   4  -6 46252.7 830.897   2
  -4   3  -3 34172.0 571.840   2
   3   2 -13 12414.1 524.945   2
   3   2 -12 2846.50 319.388   2
   3   0  -4 21418.7 194.381   2
  -1   4  -9 11771.9 475.211   2
   4   1 -10 23911.4 485.350   2
  -3   4  -6 54262.4 845.336   2
   3   2 -11 12217.6 429.340   2
  -2   4  -7 12697.1 469.472   2
  -1   3  -5 6512.33 266.282   2
  -6   4  -5 10464.4 467.492   2
  -3   5 -11 5681.32 540.948   2
   4  -2  -2 92423.9 548.656   2
  -4   5  -9 42034.7 954.366   2
  -4   4  -5 59055.3 867.909   2
  -2   1   0 331192. 3451.43   2
   2   3 -13 18223.5 643.231   2
   2   3 -14 9317.81 536.929   2
   2   2  -7 9040.03 290.653   2
  -1   4  -8 2712.59 283.583   2
  -3   3  -3 74661.1 772.676   2
  -3  -2   4 8920.44 210.192   2
   1   2  -5 61792.1 606.478   2
   2   3 -12 4901.52 375.101   2
  -7   4  -5 9075.39 473.399   2
   3   2 -10 3724.79 262.229   2
  -2   5 -12 22700.9 783.108   2
   1   3  -8 77040.2 897.269   2
  -6   5  -8 3345.35 425.575   2
  -3   2  -1 21563.5 331.486   2
  -3   5  -9 4812.80 426.084   2
  -4   5  -8 5604.51 431.352   2
   4   0  -6 8015.64 158.907   2
   2   3 -11 7728.46 396.737   2
  -7   5  -8 12879.9 657.369   2
  -2   4  -6 35430.0 669.455   2
   4   1  -9 2490.79 190.474   2
  -6   3  -2 17501.4 436.219   2
  -2   5 -10 14538.7 606.218   2
  -1   5 -13 4221.06 503.667   2
   1   4 -13 5992.39 472.317   2
  -1   4  -7 95042.5 1065.60   2
  -1  -2   3 163013. 837.966   2
  -1  -1   2 16735.1 196.653   2
   2   3 -10 27119.8 597.157   2
  -1   5 -12 5000.87 456.773   2
   3   2  -9 19261.6 434.306   2
  -7   4  -4 19107.2 577.740   2
   3   1  -6 8073.44 206.148   2
  -2   5  -9 5577.14 414.863   2
  -4   3  -2 32793.7 510.020   2
  -4   4  -4 2556.33 241.543   2
  -1   5 -11 11014.8 551.765   2
   4  -3  -1 4537.00 179.807   2
  -6   5  -6 12706.1 527.872   2
   1   3  -7 82686.8 868.472   2
  -4   1   1 39373.5 320.882   2
   1   4 -11 44743.6 867.743   2
  -4   6 -11 13241.5 702.135   2
  -1   3  -4 63990.5 693.500   2
   2   1  -4 54442.5 416.037   2
  -3   5  -7 18065.8 564.269   2
  -2   3  -3 20723.7 398.070   2
  -1   5 -10 77543.6 1174.11   2
  -6   6  -9 12707.7 646.946   2
  -4   5  -6 11260.2 453.160   2
  -6   2   0 7690.22 241.541   2
  -1   2  -2 31502.8 383.103   2
  -2   4  -5 3711.24 245.409   2
   1   4 -10 55037.3 894.621   2
  -6   4  -3 38879.0 692.717   2
  -1   4  -6 52302.8 755.593   2
  -3   4  -4 79369.5 897.510   2
  -4   6  -9 6813.75 480.104   2
  -1   5  -9 28981.8 714.640   2
  -3   6 -10 24465.8 803.183   2
  -6   5  -5 37982.9 797.988   2
  -6   6  -8 22142.2 769.406   2
  -7   6  -8 5197.89 519.387   2
   2   4 -14 4876.37 450.453   2
   3   3 -12 9455.62 418.094   2
   4   1  -8 8719.32 241.006   2
   3   2  -8 42627.4 569.143   2
  -3   5  -6 55035.7 893.308   2
  -2   6 -11 12423.9 615.589   2
   3  -3   0 119159. 828.869   2
  -2   5  -7 17940.6 549.993   2
   3  -2  -1 49485.0 422.837   2
  -3   6  -9 49524.5 1026.80   2
   1   4  -9 6224.22 349.859   2
  -2   2  -1 5638.28 170.937   2
  -4   2   0 16700.1 283.948   2
  -6   3  -1 3645.11 225.316   2
  -4   5  -5 9732.20 417.751   2
   2   4 -12 4275.12 362.093   2
   2   3  -8 51387.2 700.069   2
   1   2  -4 264445. 4499.82   2
  -2   6 -10 20378.8 706.843   2
   3   3 -11 37021.8 697.734   2
   1   3  -6 3150.18 206.354   2
   2  -3   1 38822.2 495.183   2
  -1   6 -12 9157.21 549.035   2
   1   5 -13 16501.1 648.237   2
  -6   5  -4 12235.0 467.278   2
  -4  -1   3 9082.15 143.508   2
  -7   5  -4 2748.85 317.120   2
  -4   6  -7 712.055 298.034   2
   2   4 -11 4418.06 348.107   2
  -2   4  -4 148246. 1193.99   2
  -1   6 -11 1129.93 362.594   2
  -6   6  -6 6189.29 451.238   2
  -2   6  -9 468.938 313.081   2
   1   5 -12-198.981 282.360   2
  -1   4  -5 100.382 158.649   2
  -7   6  -6 756.259 349.060   2
  -6   7  -9 2361.06 444.626   2
   1  -2   1 8437.78 197.807   2
   2  -2   0 64236.1 494.999   2
  -2   9   6 512.612 440.964   2
  -2   6  10 2217.38 464.028   2
  -3   7  11 209.582 452.308   2
  -3   8  10 647.331 483.034   2
  -1   6   8 410.872 375.529   2
  -2  11   0 836.934 381.560   2
  -2   5  11-105.932 407.446   2
  -2   8   8 3790.31 527.230   2
  -3   6  12 3459.56 517.822   2
  -2   3  12 2986.60 402.947   2
  -1   7   7 2421.37 440.917   2
  -1   9   3 719.705 371.191   2
  -1   4  10 1640.05 385.821   2
  -2   9   7 898.773 499.774   2
  -2   4  12 1040.13 394.724   2
  -1   9   4 2564.99 456.798   2
  -2   7  10 2618.52 533.056   2
  -1  10   0 1813.89 359.211   2
  -2   6  11 1677.20 472.738   2
  -1   6   9 2572.86 449.123   2
  -2   8   9 364.093 477.527   2
  -2  11   3 3522.16 527.158   2
  -1  10   1 223.474 358.368   2
   1   4  -1 584.503 151.463   2
  -2  10   6 157.795 480.563   2
   1   3   5 152.893 216.585   2
  -1  10   2 2811.74 457.631   2
  -2   9   8 2870.99 564.591   2
  -3   6  13 788.453 460.752   2
  -1   8   7 145.619 446.169   2
  -1   4  11 2941.15 432.444   2
   1   5   4 300.472 251.212   2
  -1  10   3 3086.55 480.988   2
   1   6   0 445.641 215.271   2
  -2   7  11-14.2462 498.899   2
  -2   4  13 1913.94 445.583   2
  -1   6  10-10.3250 438.223   2
  -1   9   6 833.384 447.408   2
  -1   5  11-98.4624 428.535   2
  -1  10   4 2242.16 460.232   2
  -1   2  12-4.33366 310.919   2
  -1   3  12 568.076 375.537   2
  -2   5  13 3144.15 504.311   2
   1   6  -2 1194.00 186.385   2
  -1   1  12 379.497 254.237   2
  -1   9   7 352.779 506.889   2
  -1  11   1 3255.84 466.816   2
  -1  10   5 455.186 468.902   2
   1   7   2 887.317 317.513   2
   1   4   7 269.256 322.328   2
  -1   7  10 561.829 496.330   2
   1   6   5 398.739 341.572   2
  -1  11   2 1126.67 440.405   2
   1   7   3 234.597 320.575   2
  -1   8   9 720.799 504.335   2
   1   1   7 1316.02 215.784   2
  -2   4  14 433.190 419.218   2
   1   3   8 837.523 314.151   2
  -1   5  12 2373.07 490.660   2
  -1  11   3 470.072 472.944   2
   1   6   6 363.731 362.554   2
  -1   3  13 3019.45 442.599   2
   1   8   2 2364.03 386.408   2
   1   0   6 69.2041 125.537   2
   1   8  -1 1578.56 288.445   2
  -1  -2   8 366.510 66.5766   2
   1   8   3 293.951 358.579   2
   2   3   3 200.591 212.334   2
   2   3   4 241.471 236.555   2
   1   7   6 1310.05 453.026   2
   1   8  -2 140.472 221.346   2
  -1   5  13 144.965 453.047   2
   2   5   4-127.990 309.155   2
   1   5   9 1451.59 428.824   2
   2   6   1 726.366 269.070   2
   1   7   7 1266.76 500.884   2
   2   6   3 1431.04 341.428   2
   1   9   0-138.418 318.333   2
   1   4  10 1781.19 435.308   2
   1   9   3 68.8644 402.547   2
   1   6  -4 447.111 138.202   2
   1   8   6-321.620 452.379   2
   2   4   7 694.386 354.983   2
   1   6   9 1575.17 499.894   2
   1   9   4 1778.06 487.355   2
   1   7   8 4146.81 562.615   2
   1   5  10 2621.51 522.257   2
   2   7   3 37.6892 355.848   2
   1   5  -4 216.338 102.632   2
   2   7   0 649.424 275.280   2
   2   1   6 1147.58 194.958   2
   2   5   7 1739.18 417.260   2
   1   3  11 659.322 378.355   2
   2   3   8-124.564 327.566   2
   1   8   7 3728.37 578.129   2
   1   2  11 1630.88 368.261   2
   2   6   6 136.155 410.547   2
   1   9   5 1240.80 511.389   2
   1   4  11 267.530 427.527   2
   1  10   1 1361.26 425.549   2
   2   7   5 1873.80 449.336   2
   1  10   0 2695.98 403.393   2
   1   6  10 3210.82 544.360   2
   1   7   9-130.357 492.430   2
   2   6  -2 130.337 196.311   2
   1  10   2-332.319 391.752   2
   1   0  10 325.152 197.338   2
   2   6   7-426.341 421.591   2
   2   8   1-302.790 341.371   2
   2   8   2-487.528 352.374   2
   1  10   3 4188.35 526.022   2
   2   8   0-174.723 297.775   2
   2   7   6 1736.95 478.090   2
   2   4   9 1195.06 424.848   2
   2   7  -2 1073.45 232.255   2
   1   2  12 1042.42 368.798   2
   1  -1   8 363.939 136.625   2
   1   4  12 2265.34 459.793   2
   2   6   8 978.749 460.394   2
   3   4   4 295.590 319.300   2
   2   5   9 2331.57 459.380   2
   2   1   9 732.578 249.218   2
   2   8   5 1031.66 420.285   2
   3   3   5 262.759 265.734   2
   2   3  10-31.5420 369.622   2
   3   5   4 481.245 330.025   2
   2   4  10 480.536 384.692   2
   3   4   1 42.5229 204.118   2
   3   5   5 1936.88 363.859   2
   3   6   2 2322.41 327.357   2
   2   8   6 812.197 435.036   2
   3   2   4-131.198 210.433   2
   2   9   3 632.128 389.233   2
   2   6   9 947.782 466.072   2
   3   6   1 311.480 276.266   2
   2   5  -3 154.284 129.967   2
   3   5   6 657.095 364.571   2
   2   5  10 3388.55 484.648   2
   2   1  10 466.722 263.634   2
   1   3  13 374.323 408.083   2
   3   5   0 375.344 241.107   2
   3   4   7 370.110 339.639   2
   1   2  13 1574.64 381.557   2
   2   9   4 1057.57 412.950   2
   2   9  -1 84.2430 295.973   2
   1   4  13 803.849 398.100   2
   2   2  11 1782.10 372.299   2
   1   0  12 346.105 234.344   2
   3   7   3 1252.41 366.706   2
   3   6   6 130.644 392.748   2
   3   4   8 3227.93 459.046   2
   3   1   5-18.5740 178.743   2
   3   5  -1 1432.48 237.784   2
   2   1  11 1181.83 306.962   2
   2   5  11 1970.17 490.382   2
   3   7   5 1061.80 422.588   2
   2   3  12 2662.28 456.603   2
   3   4   9 444.923 382.377   2
   3   8   2 1928.31 385.643   2
   3   7   6 2567.07 491.983   2
   2   2  12 1652.35 360.840   2
   3   7  -1 183.728 261.824   2
   3   8   3 320.896 399.661   2
   3   1   8 869.551 256.997   2
   3   8   4 584.579 418.758   2
   3   5   9 294.563 405.678   2
   3   3  10 705.203 397.549   2
   3   2  10 1631.13 208.144   2
   4   4   4 1877.43 370.063   2
   3   5  -2 393.428 192.750   2
   4   4   3 1748.46 322.505   2
   4   5   3 628.866 342.180   2
   3   7  -2 493.226 244.905   2
   4   3   4 66.8916 285.561   2
   4   3   5 1394.18 344.563   2
   2   3  13-74.6267 389.566   2
   3   0   6 304.773 161.673   2
   4   5   5 2316.03 418.786   2
   4   4   6-145.799 364.877   2
   4   3   6 300.350 319.904   2
   2   2  13-323.693 335.128   2
   3   9   2 835.440 392.490   2
   3   9   1 1699.95 397.064   2
   4   6   3 1721.22 405.330   2
   3   0   8-146.782 202.712   2
   4   5   6 1630.96 455.258   2
   3   3  11 1985.40 463.093   2
   4   3   7 339.553 347.426   2
   3   2   0 830.858 135.530   2
   3   9   0 2480.75 382.472   2
   4   2   4 989.286 249.276   2
   2   0  12 813.951 260.821   2
   4   6   5 577.691 398.639   2
   4   2   7 1520.93 347.772   2
   4   5   7 286.125 420.294   2
   4   5   0 2100.09 308.163   2
   4   7   2 230.954 362.697   2
   3   1  11 624.441 320.594   2
   4   6   0 1193.67 304.967   2
   4   2   8 2745.36 388.853   2
   4   7   1 208.747 322.679   2
   4   5   8 1622.12 474.915   2
   4   7   5 215.537 423.764   2
   3   3  12 263.306 408.566   2
   4   1   5 121.421 203.826   2
   4   2   2 170.507 183.780   2
   4   3   9 1231.24 434.257   2
   3   2  12 2981.38 453.471   2
   4   1   7 135.996 250.072   2
   4   4   9-287.467 451.299   2
   4   7   0 134.456 290.922   2
   4   2   9 2989.95 422.204   2
   2  -1   4 488.061 88.7209   2
   4   6  -1 1616.56 303.981   2
   4   8   2 1074.32 398.227   2
   4   8   3 1507.47 438.130   2
   3   0  11 114.007 251.980   2
   4   7  -1 2361.44 353.149   2
   4   2  10 702.890 389.696   2
   4   4  10 1637.41 495.913   2
   3   2  13-266.879 372.116   2
   4   0   8 358.907 229.505   2
   3   1  13 256.957 342.751   2
   4   2  11 3392.74 472.512   2
   4   5  -2 492.933 214.669   2
   3   0   2 185.428 102.302   2
   4   0   9 397.811 261.193   2
   4   1  11 174.909 346.266   2
   4   0  10 190.522 270.932   2
   4   2  12 315.119 413.113   2
   4   1  12 1762.89 394.794   2
   4   0  11 2031.89 342.507   2
   4  -1   8 194.764 208.979   2
   4  -1   6 1300.27 185.086   2
   4   1  13 422.476 356.923   2
   6   3   5 439.735 402.694   2
   6   4   3 680.221 420.406   2
   6   3   6 600.398 431.927   2
   6   4   6-838.026 504.253   2
   6   5   4-449.119 452.006   2
   6   5   3 3007.40 510.768   2
   6   5   5 3050.18 527.512   2
   3  -2   9 149.647 151.196   2
   6   3   7 2900.87 526.303   2
   6   3   3-126.967 328.140   2
   6   4   7 1500.05 529.462   2
   6   4   2 1185.36 387.519   2
   6   5   2-486.065 399.586   2
   6   2   6 1781.80 436.520   2
   6   2   5 1203.84 380.704   2
   4  -1  11 1062.70 277.046   2
   6   2   7 1473.88 418.473   2
   4   4  -3 490.491 160.958   2
   6   2   4 106.359 310.481   2
   3  -2   7 572.073 136.337   2
   6   3   8 1025.84 487.436   2
   6   6   2 1136.66 407.186   2
   3   4  -4 913.733 124.270   2
   6   4   1 2607.64 398.369   2
   6   2   3 1778.14 339.027   2
   6   6   1 983.855 415.851   2
   6   1   7-279.738 348.377   2
   6   2   9 365.568 463.253   2
   6   1   8 1373.81 402.717   2
   6   5   0 1148.99 364.271   2
   6   6   0-205.403 352.752   2
   6   4   0 2042.02 343.570   2
   6   1   9-96.5012 408.592   2
   6   1   3 18.2976 253.401   2
   4  -2   9 274.342 206.626   2
   6   1  10 388.798 428.716   2
   6   0   6 2115.98 341.690   2
   6   3   0 2014.44 300.994   2
   6   5  -1-42.7207 312.618   2
   6   6  -1 675.036 349.856   2
   4  -1   3 740.554 139.897   2
   6   0   5 1176.10 292.520   2
   7   4   5-142.516 452.687   2
   7   4   4 2568.59 529.761   2
   7   3   5-355.076 471.885   2
   7   3   6-39.5854 505.526   2
   7   3   4 1057.83 452.839   2
   4  -2  11 1098.95 239.597   2
   6   1   2 954.086 249.376   2
   6   1  11 617.255 414.447   2
   7   5   3 2845.19 467.271   2
   7   3   3-294.836 369.235   2
   7   2   6-570.649 432.044   2
   7   2   5 2513.78 459.916   2
   2   2  -3 105.930 55.4311   2
   6   0  10 980.686 385.906   2
   7   2   7-277.430 459.942   2
   7   4   2-276.875 414.586   2
   7   5   2 1132.38 431.804   2
   7   2   8 429.651 441.565   2
   4   4  -4 975.255 159.948   2
   6   2   0 1771.68 269.150   2
   7   2   3 1755.49 392.627   2
   7   1   6-78.3715 398.178   2
   7   5   1 1450.82 428.565   2
   7   4   1-275.930 376.910   2
   6   0  11 2034.39 411.359   2
   6  -1   8 322.426 285.016   2
   7   6   1 2557.46 475.243   2
   6  -1   9 192.655 298.997   2
   7   1   4 161.994 347.028   2
   7   2   2 2731.82 384.140   2
   7   1   9-254.389 419.051   2
   7   5   0 2893.27 449.787   2
   6  -1  10-139.472 314.673   2
   7   4   0 66.6735 330.141   2
   7   6   0 2954.16 430.123   2
   3  -3  10-66.5932 151.520   2
   3   3  -4 51.5122 90.7551   2
   7   0   7 2238.08 396.156   2
   7   0   6 1650.76 364.730   2
   7   0   8 922.263 377.614   2
   7   2   1 676.109 314.149   2
   7   0   9 163.931 392.968   2
   6   5  -3 403.113 255.441   2
   7   5  -1 413.415 363.022   2
   7   0   4 1096.54 317.460   2
   7   6  -1 2031.63 387.210   2
   7   0  10 382.882 418.870   2
   8   4   3 467.926 465.829   2
   8   2   6 319.447 483.920   2
   8   2   5-16.3520 447.501   2
   8   2   4 433.114 402.619   2
   4  -3   9 715.528 184.358   2
   8   4   2-332.226 462.710   2
   7   2   0 1981.52 315.885   2
   7   0   3 2093.99 320.512   2
   7  -1   7 397.736 321.783   2
   8   3   2 786.859 427.286   2
   8   2   3 1258.24 401.890   2
   8   1   6 62.0689 400.445   2
   7   3  -1 29.6280 297.086   2
   6   0   1 872.414 210.917   2
   8   1   7 3860.41 508.875   2
   8   4   1 1472.82 453.800   2
   8   1   4 228.605 386.824   2
   7  -1  10-167.480 350.523   2
   6  -2  11 278.446 306.258   2
   8   2   2 1003.41 374.135   2
   8   3   1 2135.10 430.769   2
   6   2  -2 1144.07 211.479   2
   8   1   3 2121.01 404.702   2
   8   0   7 465.278 386.840   2
   8   0   6 1493.08 416.385   2
   7  -1  11 2392.98 416.855   2
   8   0   8 1690.31 414.042   2
   8   4   0 1510.99 414.959   2
   8   5   0 1039.78 405.941   2
   6  -2   5 1406.52 235.451   2
   6   3  -3 712.961 221.675   2
   6  -1   2 108.408 191.364   2
   8   3   0 655.515 356.484   2
   7   3  -2 700.316 270.150   2
   7   5  -3 118.610 304.829   2
   7  -2   8 486.562 302.285   2
   4  -3   6 156.741 133.512   2
   7  -2   9 861.537 327.044   2
   7  -2   7 654.391 278.605   2
   8   5  -1 196.127 373.290   2
   7   0   1 860.882 241.916   2
   8   4  -1 286.619 360.557   2
   7  -2  10 214.784 315.033   2
   8   0   3 169.748 294.920   2
   8   2   0 412.246 334.282   2
   8  -1   6 109.706 340.223   2
   9   2   4 429.485 460.667   2
   6  -3   9 1769.97 270.719   2
   8   3  -1 46.3701 315.122   2
   7  -2  11 1696.01 347.556   2
   8  -1   5 1496.11 340.296   2
   9   2   3 1060.32 436.117   2
   9   1   5 1186.44 449.587   2
   6  -3   8 1105.99 248.805   2
   9   3   2 1337.76 452.662   2
   7  -2   5 1046.94 272.495   2
   8   0   2 159.949 288.630   2
   8   5  -2 1755.00 389.432   2
   7  -1   2 353.324 222.773   2
   9   2   2 1177.93 408.770   2
   8  -1   4 1753.62 328.538   2
   8   4  -2 2852.23 370.500   2
   9   3   1 600.274 415.858   2
   9   0   6 1167.51 431.594   2
   7   3  -3 1730.83 271.214   2
   9   0   5 1173.18 391.036   2
   8   1   0 1334.76 312.055   2
   8  -2   8 30.7559 330.993   2
   6   3  -4 335.830 189.232   2
   9   0   4 2513.27 449.918   2
   8  -2   7 2227.76 379.933   2
   9   1   2 131.804 375.141   2
   8  -2   9 297.345 344.414   2
   6   0  -1 260.394 170.113   2
   8   0   1 102.682 285.070   2
   9   3   0-44.3690 364.468   2
   7  -3   9 2297.65 322.477   2
   8  -2  10 575.561 367.687   2
   7  -3   8 368.939 268.382   2
   7  -3  10 1919.10 323.930   2
   9   0   3 2047.05 407.295   2
   9  -1   7 650.959 416.661   2
   7   4  -4 10.0548 230.700   2
   4   2  -4 106.207 91.9494   2
   9  -1   6 438.424 371.640   2
   9  -1   8 1475.93 408.396   2
   9   1   1 659.234 375.969   2
   9  -1   5 2174.10 433.122   2
   9   4  -1 734.597 417.259   2
   8   4  -3 2181.66 343.047   2
   7   1  -2 442.880 222.305   2
   4  -4   9 470.678 149.092   2
   7   2  -3 268.220 222.521   2
   9   3  -1 1038.55 404.862   2
   8  -2   4 405.315 305.548   2
   7   0  -1 136.119 218.467   2
   3   1  -3 79.1393 68.8411   2
   8   3  -3 2392.52 337.088   2
   9   1   0 110.226 352.773   2
   7  -3   5-169.594 228.791   2
   9   2  -1 276.092 350.329   2
   9  -1   3-191.575 365.295   2
   9  -2   7 2090.49 431.296   2
   8  -3   8 2011.69 356.330   2
   8  -3   9 1630.22 350.160   2
   9   4  -2 777.043 360.604   2
   6  -4   9 205.750 215.514   2
   9  -2   6 2454.91 394.848   2
   8  -3   7 288.563 298.139   2
   8  -1   1 816.394 269.691   2
   8  -3  10 1643.15 353.687   2
   3  -3   4 89.0728 86.7709   2
   3  -4   8 37.0677 100.560   2
   8   1  -2-352.237 264.890   2
   9  -1   2 1503.29 363.523   2
   7  -3   4 181.629 224.426   2
   4  -4   7 1152.28 154.229   2
   8   2  -3-111.922 260.048   2
   9  -2   4-220.541 351.226   2
   8  -3   5-201.856 286.934   2
   4  -2   1 293.945 103.124   2
   9   0   0-75.8722 327.891   2
   9   2  -2 44.2103 345.611   2
   7   1  -3 68.1253 204.792   2
   7  -4   8 95.1888 259.950   2
   6  -3   3 880.583 196.108   2
   6  -1  -1 170.067 167.731   2
   9  -3   8-37.0440 339.335   2
   7  -4   7 1553.86 275.507   2
   9  -3   9 811.388 385.561   2
   9  -1   1-254.927 314.440   2
   9  -2   3 2274.08 380.648   2
   9  -3   7-584.341 361.631   2
   7  -3   3 1670.57 249.373   2
   9  -3   6 1926.75 388.460   2
   7  -4   6-85.5583 230.630   2
   8  -4   9 1324.30 329.770   2
   9   1  -2 826.392 330.399   2
   8  -4   8-308.625 284.170   2
   8  -4  10 1501.67 331.267   2
   9  -3   5 948.026 347.612   2
   8   0  -2 72.0333 250.065   2
   8  -4   7 2067.00 329.341   2
   9   2  -3 353.181 314.288   2
   8  -1  -1 191.435 239.693   2
   6   1  -4 350.601 166.145   2
   7  -2   0 452.311 212.718   2
   9   3  -4 937.328 331.137   2
   9  -4   9 1439.33 363.984   2
   9  -4   8 0.00000 326.265   2
   9  -2   1 773.323 326.887   2
   8  -4   5 45.6793 263.191   2
   9  -4   7 1611.75 367.362   2
   9   0  -2 1244.45 317.062   2
   8  -3   2-88.7381 257.608   2
  11   0   1 689.427 442.804   2
   9   1  -3 89.9363 302.318   2
   6  -5   9 130.859 207.298   2
   6  -4   4 8.69052 173.160   2
   9  -1  -1 449.399 308.688   2
  11  -1   2 1918.10 468.572   2
   7  -1  -2 52.9884 192.146   2
   7  -5   9 77.2359 239.770   2
   9  -4   5 1392.84 344.952   2
  11   0   0 88.9160 403.307   2
  11  -2   3 142.653 408.543   2
   8  -5   9 664.116 280.367   2
   6  -5   7 586.918 190.282   2
   8   2  -5 229.362 234.597   2
   8  -5   8 415.413 283.883   2
   9  -4   4 2124.11 346.195   2
   7  -4   3 1688.85 238.968   2
  11  -2   2 602.743 411.819   2
   9   0  -3 139.227 280.467   2
   8  -2  -1 288.748 238.889   2
  11   0  -1 1874.26 429.991   2
   9  -1  -2 1349.96 309.984   2
   9   1  -4 218.560 292.362   2
  11  -3   4 1774.25 457.450   2
  11  -1   0 310.066 398.868   2
   7  -5   6 275.068 224.774   2
  11   1  -2 251.413 368.984   2
   9  -3   1 1840.85 333.200   2
   9  -5   8 506.892 309.823   2
   9  -4   3 10.2979 289.383   2
   9  -5   7 1219.84 331.209   2
  11  -2   1 1121.34 429.922   2
  11  -3   3 701.669 415.476   2
   6   0  -4 195.184 147.820   2
   7   1  -5-11.3608 186.208   2
   3   2  -5 561.946 76.5720   2
   8   0  -4 510.266 232.396   2
   9  -5   6 298.607 299.672   2
   7  -5   5 486.876 214.902   2
  11   0  -2 2491.39 429.873   2
   8  -5   5 303.564 256.314   2
  11  -1  -1 2246.65 444.865   2
  11  -4   5 1648.65 419.707   2
  11  -3   2 1285.56 401.085   2
   6   2  -6 256.521 155.811   2
  11   1  -3 359.619 362.480   2
   6  -3   0 1052.31 176.453   2
  11  -2   0 2221.54 452.069   2
   9  -5   5 1915.14 336.518   2
   9   0  -4 1548.19 307.707   2
  11  -4   4 425.599 394.504   2
   9  -2  -2 1463.52 302.586   2
  11  -3   1 441.592 371.543   2
  11  -1  -2 1658.76 395.315   2
  11   0  -3 168.495 359.637   2
   8  -6   8 1184.84 295.260   2
   8  -3  -1 74.9819 225.983   2
   4  -4   3 312.506 113.453   2
  11   1  -4 2010.37 401.001   2
  11  -5   6 2234.37 433.823   2
   9  -3  -1 1360.58 304.232   2
   9  -6   8 1673.08 333.766   2
   8  -6   7 1696.38 297.970   2
   7  -6   7 294.630 224.243   2
   7  -5   3 451.375 212.352   2
  12  -3   1 1253.30 427.727   2
  11  -1  -3-275.621 364.639   2
  11  -5   4-261.136 392.187   2
   9   0  -5 269.310 272.915   2
   9  -6   6 97.5202 294.098   2
   8   1  -6-199.480 223.005   2
  11  -2  -2 361.305 385.412   2
  11   0  -4 1000.23 376.002   2
  12  -2  -1 1954.58 474.076   2
   9  -2  -3-182.930 272.210   2
   7  -6   6 1258.74 245.166   2
  11  -4   1 2365.38 420.955   2
   6  -6   7-9.31507 181.033   2
   8  -4   0 705.601 241.913   2
  12  -4   2-59.0929 411.061   2
   9   1  -6 252.055 254.288   2
  12  -3   0-230.238 392.985   2
   9  -5   2 593.989 293.321   2
  11  -5   3 409.312 383.188   2
   9  -6   5 557.204 302.933   2
   7  -4   0-112.481 195.482   2
  12  -1  -3-458.385 370.458   2
  11  -6   6 619.023 381.341   2
  12  -4   1 540.849 450.878   2
  11  -4   0-156.139 391.216   2
  11  -1  -4-130.404 352.353   2
  11  -2  -3 1896.62 385.761   2
  11  -5   2 296.932 388.106   2
   9  -6   4 99.2988 283.504   2
  12  -3  -1 1266.39 431.850   2
   6   2  -7-164.847 142.266   2
   4  -4   2 101.425 107.726   2
  11  -6   5 590.239 376.612   2
  11   0  -5 794.458 347.077   2
  11  -3  -2 55.4581 373.137   2
   9  -4  -1 358.360 301.075   2
   6  -4   0 34.4528 156.198   2
   9  -1  -5 2392.68 328.380   2
   9  -2  -4-35.4600 263.935   2
  12  -4   0-107.951 432.135   2
  11  -6   4 1845.85 425.363   2
   8  -2  -4-92.7889 232.422   2
  12  -5   2 1664.58 464.727   2
   6  -5   2 151.592 185.201   2
   9  -6   3 513.797 306.974   2
  12  -2  -3 1504.66 428.425   2
  11  -4  -1 101.494 365.365   2
  12  -1  -4 1180.12 436.891   2
   9  -7   7 854.854 291.845   2
  12  -3  -2 67.9357 424.373   2
   7  -5   1 38.4106 205.605   2
   8  -6   3 308.488 256.922   2
   8  -3  -3 242.679 231.002   2
   8   1  -7 72.0621 221.762   2
  11  -6   3 1875.33 420.360   2
  11  -1  -5 357.801 363.059   2
  12  -5   1-263.404 451.633   2
   9  -5   0 2126.40 338.375   2
   9  -7   6 92.3496 302.477   2
  12  -4  -1 1722.91 452.841   2
  11  -3  -3-84.8451 376.250   2
   8  -7   6 182.448 265.453   2
  11   0  -6-57.3868 346.598   2
  12  -6   3 986.531 451.958   2
  11  -7   6 2180.05 412.388   2
   7  -3  -3 685.796 205.339   2
   7  -7   7 469.956 237.648   2
  11  -6   2 1118.26 404.825   2
  12  -2  -4 185.267 401.722   2
  12  -3  -3 1661.71 469.487   2
  12  -5   0 3355.92 507.066   2
  12  -1  -5 1956.43 433.213   2
  11  -7   5-435.583 399.592   2
  12  -6   2 911.251 432.460   2
  12  -4  -2 170.218 440.366   2
   4  -4   1 292.644 117.830   2
   6   1  -7 968.633 161.404   2
   9  -3  -4 1168.10 303.202   2
  11  -5  -1 975.290 391.756   2
  11  -7   4 1626.34 419.502   2
  11  -6   1 794.738 399.905   2
   9  -6   1 977.251 315.932   2
  11  -3  -4 397.920 365.371   2
  11  -1  -6 1158.53 360.121   2
   8   0  -7 1110.69 250.599   2
  12  -5  -1 642.745 449.519   2
   4  -6   7 754.200 134.834   2
  12  -6   1-49.2475 444.660   2
   6  -7   7 1224.96 214.366   2
   9  -4  -3 1520.09 324.154   2
   8  -5  -1 716.060 265.253   2
   8  -7   4 1068.87 284.029   2
  12  -3  -4 1044.26 430.422   2
  12  -2  -5 983.167 408.817   2
  11  -7   3-261.770 386.917   2
   8  -6   1 668.873 269.537   2
   9  -7   3 115.971 297.615   2
  12  -4  -3 1587.55 464.470   2
  11  -5  -2 161.773 355.147   2
  12  -6   0 1721.76 490.987   2
   9  -6   0 1269.39 324.802   2
  11  -7   2 2651.81 440.001   2
  12  -5  -2 393.987 434.533   2
  11  -3  -5 1535.36 390.210   2
  11  -2  -6 269.264 351.099   2
  12  -7   2 1482.24 463.921   2
   9  -8   6 2362.56 344.335   2
   6  -4  -2 1266.88 201.805   2
   9  -1  -7-224.993 260.528   2
  11  -8   5 394.478 363.986   2
  11  -4  -4 2734.10 424.888   2
  12  -3  -5 1050.23 413.666   2
  11  -6  -1 309.235 397.761   2
  12  -2  -6 1325.00 410.043   2
   6  -1  -6 1322.09 184.836   2
  12  -4  -4 2565.60 451.874   2
   8  -2  -6 289.472 238.423   2
   3  -2  -2 275.246 88.4854   2
  12  -6  -1-106.192 426.507   2
  11  -7   1 1169.67 418.386   2
   6  -7   5 1206.09 206.736   2
   8  -1  -7 33.3203 241.266   2
  11  -8   4 3173.48 439.912   2
  11  -5  -3 870.837 393.287   2
   6   0  -7 1101.13 174.438   2
  12  -5  -3 1195.11 432.894   2
   7  -7   3 153.980 229.075   2
   6  -3  -4 624.672 186.842   2
   9  -8   4 1969.02 339.775   2
   9  -5  -3 212.648 290.252   2
   8   0  -8 515.869 216.008   2
  11  -8   3 278.803 393.412   2
   8  -8   5 2095.13 302.845   2
  11  -7   0 39.5513 397.868   2
  11  -6  -2 2577.62 446.672   2
   7  -6   0 1163.68 253.945   2
  12  -7   0 3773.49 514.254   2
   7  -2  -6 327.778 207.038   2
  12  -6  -2 3454.68 499.672   2
   7  -5  -2 1227.55 247.462   2
  11  -4  -5 430.296 367.204   2
  11  -2  -7 595.232 342.404   2
   7  -1  -7 587.285 208.837   2
   6  -6   1 383.995 194.486   2
  12  -3  -6 795.720 393.399   2
  12  -4  -5 205.189 410.995   2
   7  -8   6 381.645 229.125   2
   9  -2  -7 1727.67 307.486   2
  11  -8   2 690.949 414.977   2
   8  -7   1 579.092 273.975   2
   9  -8   3 549.568 311.769   2
  11  -5  -4-247.783 385.086   2
  12  -5  -4 7.47104 411.950   2
   8  -8   4 1850.10 319.068   2
   7  -7   2 527.497 244.942   2
   9  -7   0 171.042 325.203   2
   3  -4   1 147.738 97.4345   2
  12  -7  -1-3.39595 446.561   2
  11  -7  -1 2040.67 434.408   2
   1   0  -2 191.259 42.5134   2
  12  -6  -3 2374.16 493.099   2
   7  -8   5-275.998 232.506   2
  11  -6  -3 1578.36 429.964   2
  12  -8   1 237.564 445.284   2
  11  -8   1 2051.97 448.495   2
   9  -8   2 124.853 329.290   2
   7  -6  -1 40.5468 248.203   2
   8  -1  -8-35.5938 229.496   2
  11  -9   4 2284.43 432.016   2
   8  -4  -5 1970.13 306.126   2
  11  -4  -6 2657.95 437.357   2
  11  -3  -7 2484.42 423.951   2
   8  -6  -2 1584.74 307.637   2
  12  -4  -6 2815.85 484.658   2
   8  -7   0 990.409 304.401   2
   6  -2  -6 493.392 192.014   2
  12  -3  -7 599.448 425.827   2
   6  -5  -2 58.5237 207.105   2
  12  -5  -5 1902.39 491.892   2
  11  -5  -5 1551.18 446.603   2
   3  -5   3 672.990 114.224   2
  -1   9   2 14175.1 583.362   2
  -2   7   9 3966.69 538.945   2
  -3   4  13 5327.94 483.366   2
  -2   2  12 6725.09 422.692   2
  -2  10   4 8265.37 587.442   2
  -1   8   5 16979.5 654.474   2
  -1   3  10 9355.30 473.904   2
  -2   1  12 3141.68 309.928   2
  -1   5   9 22055.6 702.542   2
   1   3   2 5485.09 260.023   2
   1   3   1 11493.6 306.427   2
  -2  11   1 6880.73 510.111   2
   1   4   1 50602.6 650.427   2
   1   3   3 50590.6 690.102   2
   1   4   2 4163.46 273.039   2
   1   2   2 228538. 1132.99   2
  -1   0  10 2104.30 215.089   2
  -2  10   5 10854.8 668.054   2
  -3   5  13 6945.78 565.727   2
   1   4   0 53541.2 626.635   2
   1   3   0 3027.63 175.671   2
   1   2   3 5401.97 235.562   2
  -2  11   2 7592.64 567.127   2
  -1   8   6 10772.0 597.555   2
  -1  -1   9 58774.8 533.835   2
   1   2   1 124542. 755.408   2
   1   4   3 12388.1 403.500   2
  -1  10  -1 12708.5 515.814   2
   1   3   4 22673.1 515.009   2
   1   2   4 54067.1 658.618   2
   1   5   1 14032.1 402.237   2
  -1   2  11 15496.3 552.420   2
   1   5   0 46821.9 643.904   2
  -1   7   8 10443.7 609.367   2
   1   5   2 8006.73 353.278   2
  -1   5  10 4323.20 475.962   2
   1   4   4 7780.92 374.955   2
  -1   3  11 4495.91 429.782   2
  -1   1  11 2844.52 287.733   2
  -2   5  12 3821.92 513.142   2
  -1   9   5 6108.48 557.739   2
   1   5   3 9255.81 398.875   2
   1   2   5 6457.77 301.031   2
   1   5  -1 4050.44 234.449   2
   1   3  -1 32904.3 387.340   2
   1   2   0 29908.2 335.683   2
  -2   3  13 27088.6 762.618   2
   1   1   3 5637.04 192.713   2
   1   4   5 4057.77 331.057   2
   1   1   4 84276.5 685.494   2
   1   6   1 10236.6 395.074   2
   1   1   2 32041.0 354.394   2
   1   6   2 21713.5 565.193   2
   1   3   6 30300.8 640.940   2
   1   2   6 10131.7 375.895   2
  -1   7   9 6324.08 576.745   2
   1   1   5 121962. 888.246   2
  -1   0  11 19753.7 441.165   2
   1   6  -1 21708.5 472.505   2
  -2   6  12 5094.65 577.211   2
   1   6   3 27784.6 657.286   2
   1   5  -2 8647.20 277.012   2
   1   4  -2 101665. 708.599   2
   1   5   5 13346.8 518.080   2
  -1   8   8 4529.20 576.582   2
   1   4   6 13388.2 506.503   2
  -1  -1  10 38459.5 466.689   2
   1   6   4 6025.64 423.341   2
   1   1   6 30363.1 495.890   2
   1   3   7 51936.7 860.751   2
   1   2   7 26726.2 583.054   2
   1   7   1 2677.13 317.511   2
   1   1   1 3456.55 124.129   2
   1   7   0 24455.4 576.523   2
   1   5   6 31611.2 753.288   2
  -1   4  12 5469.13 515.459   2
  -1  -2   7 25199.6 190.232   2
   1   7  -1 33152.0 616.561   2
  -1   6  11 7714.17 614.686   2
   1   3  -2 197958. 790.758   2
   1   2  -1 39075.2 324.728   2
   1   2   8 2206.60 292.880   2
   1   7   4 14065.2 592.645   2
   1   5   7 4091.49 421.760   2
   1   7  -2 3086.83 251.872   2
   1   5  -3 28071.9 403.492   2
   1   4   8 22348.8 683.821   2
   1   0   5 54162.8 503.620   2
   1   6  -3 50770.8 597.908   2
   1   0   4 7205.40 185.413   2
  -1   2  13 17719.1 617.120   2
   1   8   1 11865.6 515.350   2
   1   8   0 3759.45 362.758   2
   1   1   8 2811.32 258.248   2
   1   7   5 18604.6 675.190   2
  -1   4  13 10102.2 612.672   2
  -1   6  12 7654.21 644.489   2
   2   4   2 27919.2 581.277   2
   1   5   8 3247.07 429.889   2
   1   6   7 3617.69 468.303   2
   2   4   3 71323.2 936.330   2
   1   0   3 202251. 3089.35   2
   1   3   9 7496.77 467.894   2
   1   4  -3 65420.2 492.812   2
   1   2   9 7960.14 423.132   2
   2   3   2 15328.8 397.687   2
   1   7  -3 10833.1 346.581   2
   2   4   1 23453.4 503.325   2
   2   4   4 6397.20 407.291   2
   1   0   7 83984.9 736.031   2
   2   5   2 30031.6 644.063   2
   1   4   9 7279.09 504.340   2
   2   5   3 7828.08 420.156   2
   1   8   4 4824.70 494.214   2
   2   5   1 2922.43 288.759   2
   2   3   5 11047.7 438.661   2
   2   3   1 61708.8 678.995   2
   2   4   5 2804.99 359.501   2
   1   1   9 2705.49 276.040   2
   2   2   4 44901.4 640.290   2
   2   2   3 65641.1 713.738   2
   1   1   0 153112. 2227.25   2
   2   4   0 14297.4 376.640   2
   2   5   0 43518.2 671.560   2
   2   2   5 6542.77 313.611   2
   1   6   8 10345.4 606.017   2
   1   8   5 6417.45 557.026   2
   2   6   2 18041.8 561.260   2
   2   3   6 45067.5 820.107   2
   1   0   8 47748.2 609.690   2
   2   2   2 3907.22 208.533   2
   1   9   1 4986.38 442.714   2
   2   5   5 4729.43 433.737   2
   1   3  10 7318.70 503.556   2
   2   4   6 4171.77 416.550   2
   1   2  10 8677.78 458.262   2
   1   9   2 6809.90 516.144   2
   2   2   6 9996.50 392.168   2
   1   8  -3 13455.7 404.175   2
   2   6   0 19263.4 513.878   2
   1   9  -1 18877.1 584.669   2
   2   6   4 11057.9 535.854   2
   2   3   0 35680.4 477.953   2
   2   5  -1 9727.19 337.123   2
   2   3   7 15295.4 569.639   2
   2   5   6 6113.92 483.617   2
   1   0   2 77284.1 421.745   2
   1   1  10 15208.9 476.948   2
   2   2   7 7203.92 377.406   2
   2   6   5 7347.39 515.122   2
   2   4  -1 14321.8 346.043   2
   1   7  -4 1511.97 182.491   2
   2   2   1 61428.3 574.036   2
   2   6  -1 11164.8 399.952   2
   2   7   2 7168.22 466.748   2
   2   1   5 22257.0 430.672   2
   1   0   9 3946.71 255.589   2
   2   7   1 5932.87 409.910   2
   2   1   4 1282.08 166.872   2
   2   1   3 4376.46 190.679   2
   2   7   4 9951.51 566.148   2
   2   2   8 6850.09 392.606   2
   2   4   8 4912.63 479.474   2
   2   1   7 46007.6 666.994   2
   2   7  -1 10545.8 416.839   2
   2   5  -2 7073.07 277.596   2
   1   1  11 6718.51 385.855   2
   2   5   8 14833.0 664.075   2
   2   3  -1 1926.76 141.339   2
   1   5  11 10865.8 668.276   2
   2   1   2 23462.3 335.630   2
   2   3   9 3817.79 431.995   2
   2   1   8 4463.25 295.764   2
   2   8   3 4535.63 470.429   2
   2   2   9 19208.2 589.966   2
   1  -1   6 7204.46 186.681   2
   1  -1   7 1080.86 132.236   2
   2   2   0 21119.8 312.388   2
   1   3  -3 15142.4 183.852   2
   1   3  12 15101.3 650.374   2
   2   4  -2 72091.3 634.809   2
   2   8   4 9490.37 580.879   2
   2   8  -1 10476.2 459.155   2
   3   4   3 2559.50 333.492   2
   1  -1   5 49370.2 395.195   2
   1   2  -2 30714.2 231.989   2
   3   3   4 12106.3 449.139   2
   3   4   2 3193.14 305.363   2
   3   5   3 26451.0 676.414   2
   2   0   6 1532.56 169.097   2
   3   3   3 12844.2 424.960   2
   2   7   7 11714.0 630.002   2
   3   4   5 29882.7 749.727   2
   3   5   2 27489.6 657.075   2
   2   0   5 40522.1 479.809   2
   1   0  11 5400.87 313.747   2
   1   1  12 7405.22 414.630   2
   2   0   7 22366.8 420.717   2
   2   2  10 19566.6 616.386   2
   3   3   2 1910.67 236.448   2
   3   5   1 5817.82 350.498   2
   2   8  -2 17483.2 493.234   2
   3   3   6 4339.82 386.511   2
   1  -1   9 5074.31 215.188   2
   2   6  -3 20506.3 421.836   2
   3   4   6 16621.7 611.634   2
   2   9   1 14340.9 573.117   2
   2   9   2 5524.23 469.732   2
   2   0   4 38306.3 428.060   2
   3   6   3 3524.82 385.753   2
   3   2   5 3630.03 299.178   2
   2   9   0 9461.19 481.195   2
   2   0   8 6554.69 283.208   2
   3   6   4 19125.3 646.779   2
   2   7  -3 9001.39 331.205   2
   2   1   1 74524.6 524.323   2
   2   7   8 12212.9 645.755   2
   3   2   6 38549.4 701.908   2
   3   2   3 22454.5 458.762   2
   3   3   7 3683.47 393.656   2
   1   4  -4 64059.5 390.173   2
   3   3   1 11052.3 345.651   2
   3   6   5 5120.16 466.581   2
   2   3  11 4223.98 459.232   2
   3   4   0 30741.6 551.127   2
   3   6   0 12453.0 455.924   2
   3   2   7 15388.6 516.525   2
   1  -1   4 21324.8 233.322   2
   1  -1  10 4763.79 224.905   2
   2   0   9 10895.7 360.138   2
   3   7   2 4388.31 420.220   2
   3   5   7 5809.52 507.118   2
   2   4  11 8143.01 561.412   2
   1   0   1 9951.12 132.595   2
   3   2   2 3919.09 230.060   2
   3   3   8 7083.56 484.999   2
   3   7   1 2967.19 353.944   2
   1   1  13 20677.0 606.934   2
   2   0   3 2572.20 132.847   2
   3   7   4 13984.4 636.531   2
   2   3  -2 30661.3 354.343   2
   3   2   8 5097.75 391.662   2
   3   1   6 12497.5 389.988   2
   3   7   0 3661.12 353.605   2
   2   2  -1 46176.2 407.477   2
   3   6  -1 36991.7 676.475   2
   3   1   4 11309.6 332.252   2
   3   5   8 6257.16 543.424   2
   3   1   7 13027.8 427.819   2
   3   6   7 4480.64 546.664   2
   3   3   0 21543.5 413.484   2
   2   0  10 16946.0 452.223   2
   3   3   9 6180.64 513.501   2
   2   4  -3 93961.6 643.015   2
   1  -1  11 32496.3 513.546   2
   3   4  -1 18416.5 412.687   2
   3   2   9 8853.74 484.943   2
   3   2   1 15369.4 337.385   2
   3   8   1 7036.81 473.163   2
   2   4  12 6331.08 570.949   2
   3   1   3 15997.1 349.182   2
   3   6   8 5625.04 558.572   2
   2   6  -4 48011.6 556.852   2
   1   1  -1 18145.3 159.701   2
   3   8   0 6035.97 427.405   2
   2   1  12 14056.0 530.087   2
   3   6  -2 21301.1 500.302   2
   2   0  11 8609.25 374.002   2
   3   1   9 5229.71 357.448   2
   2  -1   7 8035.79 242.549   2
   3   4  10 8423.82 571.046   2
   2  -1   8 18281.7 364.863   2
   4   4   5 8727.50 514.753   2
   3   8  -1 5944.76 394.642   2
   2  -1   6 4468.41 181.481   2
   2   0   2 24063.2 287.295   2
   4   5   4 5473.79 461.569   2
   2   1   0 2969.20 116.903   2
   3   1   2 27570.0 407.526   2
   4   4   2 13299.4 493.656   2
   4   5   2 4374.58 391.388   2
   4   3   3 16686.9 509.722   2
   3   0   7 9267.41 328.752   2
   2  -1   9 1880.55 188.622   2
   3   3  -1 11221.6 288.490   2
   1   5  -5 13913.4 196.850   2
   3   0   5 73445.0 702.981   2
   3   1  10 6350.50 408.776   2
   2   5  -4 1326.90 131.146   2
   4   6   4 6484.58 522.702   2
   4   6   2 4957.87 437.881   2
   4   5   1 10365.7 473.257   2
   4   2   5 21926.5 565.770   2
   4   3   2 56403.0 800.576   2
   4   4   7 8382.42 556.035   2
   2  -1   5 50780.5 461.356   2
   4   2   6 27356.2 659.573   2
   4   4   1 4243.06 319.390   2
   3   2  11 6046.12 482.816   2
   3   4  -2 4324.67 216.744   2
   3   4  11 5671.34 563.323   2
   1  -1   3 102537. 435.056   2
   2   1  13 9356.52 483.586   2
   4   6   1 4343.87 392.078   2
   2  -1  10 8754.68 316.418   2
   3   0   9 6603.40 336.377   2
   3   0   4 108991. 803.131   2
   4   2   3 2914.23 270.167   2
   4   3   8 3876.52 467.569   2
   4   6   6 6187.49 556.125   2
   4   4   8 6108.72 538.163   2
   4   7   3 6981.74 533.544   2
   3   6  -3 2464.15 238.746   2
   4   3   1 2012.32 244.587   2
   4   7   4 4706.60 521.663   2
   3   7  -3 5606.81 318.521   2
   4   4   0 15228.3 450.440   2
   1  -2   8 19078.9 281.844   2
   1  -2   9 50359.7 476.814   2
   3   0  10 9028.91 403.375   2
   4   1   6 12829.4 440.180   2
   4   6   7 13913.1 712.486   2
   3   1   1 132033. 805.548   2
   2  -1  11 5188.31 292.284   2
   3   5  -3 17048.8 377.942   2
   1  -2  10 2228.53 156.502   2
   4   1   4 11469.7 368.224   2
   3   0   3 28492.1 396.340   2
   4   1   8 15289.0 521.280   2
   1  -2   7 8127.32 178.153   2
   4   5  -1 21020.2 536.776   2
   3   1  12 4696.72 421.644   2
   2   3  -3 4257.83 135.967   2
   4   8   1 8405.46 529.980   2
   4   3   0 20597.0 452.711   2
   4   3  10 5227.93 549.111   2
   4   1   9 18654.5 601.148   2
   4   1   3 38930.3 579.199   2
   2   2  -2 9387.03 172.951   2
   3   3  -2 3722.22 180.904   2
   4   2   1 53470.7 661.846   2
   4   4  -1 16543.2 438.588   2
   3  -1   7 43566.6 563.383   2
   4   8   0 12009.0 542.835   2
   3  -1   8 17369.4 397.738   2
   3   2  -1 8086.05 219.321   2
   2   0   1 53487.9 385.532   2
   3  -1   9 2924.17 249.131   2
   3  -1   6 29735.4 447.734   2
   4   0   7 28704.6 573.307   2
   4   1  10 9999.47 513.248   2
   2   4  -4 13136.5 224.326   2
   4   0   6 24537.6 508.403   2
   3   4  -3 22779.0 374.600   2
   4   6  -2 5353.72 349.746   2
   4   3  11 8675.22 639.248   2
   3   0  12 19149.3 574.371   2
   4   8  -1 4306.00 404.950   2
   4   0   5 16443.5 402.991   2
   3  -1  10 4293.62 296.269   2
   1  -2   6 65975.1 417.207   2
   3   6  -4 16037.9 375.879   2
   4   1   2 27655.6 465.376   2
   4   7  -2 17348.7 546.790   2
   3  -1   5 4428.51 197.527   2
   3   1   0 77466.4 579.268   2
   4   3  -1 2582.04 213.204   2
   2  -2   9 35786.3 472.899   2
   2  -2   8 57385.4 551.743   2
   4   0   4 30298.5 499.142   2
   4   2   0 59001.6 651.266   2
   3  -1  11 7132.21 348.976   2
   2  -1   3 2380.15 107.921   2
   2  -2  10 5538.33 236.728   2
   2   1  -1 27228.7 264.023   2
   4   4  -2 2042.52 213.245   2
   2  -2   7 16384.5 289.839   2
   3   5  -4 19709.0 365.398   2
   3  -1   4 35605.8 426.047   2
   4   6  -3 2051.68 261.184   2
   4   1   1 40556.8 523.751   2
   4   0   3 3859.86 225.764   2
   2   5  -5 53803.9 442.486   2
   4   5  -3 4275.81 267.021   2
   4  -1   7 13673.8 382.177   2
   4  -1   9 11273.9 401.050   2
   2  -2   6 3787.39 149.896   2
   4   0  12 16520.1 603.423   2
   6   4   4 5971.86 556.882   2
   6   4   5 4453.80 571.355   2
   4  -1  10 12483.9 439.431   2
   3   0   1 22568.8 311.285   2
   3   3  -3 89463.5 625.289   2
   4   3  -2 20255.0 389.213   2
   6   3   4 5378.60 480.157   2
   4   2  -1 2779.60 188.804   2
   3   2  -2 72553.6 540.328   2
   1   0   0 184765. 1803.65   2
   3  -2   8 16118.4 350.674   2
   4  -1   5 12943.1 334.999   2
   1  -2   5 106995. 469.440   2
   4   0   2 17220.0 343.005   2
   3  -2  10 27155.7 491.305   2
   1   3  -4 15991.6 138.422   2
   3  -1   3 23602.7 328.217   2
   6   6   3 6410.93 552.351   2
   1  -1   2 14848.3 148.281   2
   6   3   2 7854.02 465.157   2
   4   1   0 24237.1 387.359   2
   6   5   1 4004.13 448.563   2
   3  -2  11 20057.4 454.447   2
   6   2   8 4706.69 528.713   2
   3   1  -1 1659.70 112.994   2
   6   1   6 6672.64 447.733   2
   4  -1   4 41812.8 524.274   2
   4  -1  12 3489.19 343.613   2
   6   1   5 18098.7 587.935   2
   2  -2   5 8113.55 179.432   2
   3  -2   6 16059.8 303.718   2
   6   3   1 4780.61 378.180   2
   6   2   2 20464.1 571.931   2
   6   1   4 4020.89 361.114   2
   2  -1   2 3691.75 114.411   2
   2   0   0 5115.20 120.868   2
   6   7   1 4596.57 482.661   2
   4   5  -4 19067.3 406.155   2
   1   2  -3 155327. 1551.13   2
   1   4  -5 65785.3 279.509   2
   4  -2   8 13769.0 372.933   2
   6   7   0 6850.02 498.259   2
   4   0   1 49987.3 527.233   2
   6   0   7 5611.78 418.135   2
   4  -2  10 5699.23 302.736   2
   6   0   8 11528.6 526.091   2
   6   2   1 15234.3 484.466   2
   4  -2   7 11135.8 321.415   2
   3   5  -5 9203.71 235.335   2
   4   2  -2 6474.58 225.102   2
   3  -2   5 42879.6 448.656   2
   6   0   9 12063.9 565.736   2
   4   3  -3 74574.0 659.238   2
   6   4  -1 8537.24 440.455   2
   7   4   3 5157.28 555.671   2
   2   3  -4 10888.6 167.205   2
   3  -1   2 225457. 3650.33   2
   6   0   4 4828.86 335.768   2
   4  -2   6 1642.39 174.228   2
   3   0   0 5118.85 155.972   2
   7   2   4 14493.6 634.193   2
   4   1  -1 42459.4 472.994   2
   7   3   2 16690.9 645.446   2
   6   6  -2 7538.58 449.907   2
   6   5  -2 5710.37 399.123   2
   6   3  -1 12631.1 444.469   2
   7   1   7 4781.51 500.337   2
   7   1   5 4600.00 438.652   2
   6   0   3 5395.01 318.265   2
   6  -1   7 6002.95 382.501   2
   7   1   8 5076.66 508.716   2
   6   1   1 8028.84 355.023   2
   2  -3   9 10592.2 237.818   2
   2  -2   4 26665.5 279.501   2
   4  -2   5 38770.3 492.218   2
   7   3   1 17643.9 625.735   2
   6  -1   6 28200.1 611.970   2
   6   4  -2 10987.7 435.934   2
   2   4  -5 7011.21 142.199   2
   4  -1   2 32281.2 417.037   2
   3   2  -3 69769.2 490.663   2
   3  -2   4 8769.76 207.905   2
   7   1   3 8046.43 456.395   2
   6  -1   5 2120.47 278.192   2
   4   0   0 6486.85 209.298   2
   3  -3   9 24390.2 397.118   2
   2  -3   8 4109.33 160.076   2
   6   0   2 19533.3 472.730   2
   6  -1  11 8985.58 514.205   2
   7   0   5 17661.0 592.555   2
   2   1  -2 54229.7 335.544   2
   7   3   0 2800.74 378.514   2
   6   2  -1 4451.43 293.648   2
   1  -2   4 81654.2 361.685   2
   6   3  -2 2401.58 273.942   2
   6  -1   4 13306.0 411.786   2
   3  -3   8 26444.8 390.857   2
   7   1   2 14856.9 519.235   2
   6   1   0 61959.1 773.631   2
   8   3   4 5803.63 596.203   2
   7   4  -1 3046.96 381.227   2
   3   1  -2 24746.0 293.503   2
   4  -2   4 6231.72 217.920   2
   1  -3   8 1433.09 88.4706   2
   6  -1  12 4170.25 433.638   2
   8   3   3 4412.97 527.936   2
   4  -3  10 7361.75 302.164   2
   3   4  -5 17758.6 271.542   2
   6   4  -3 2182.84 270.583   2
   6  -2   8 4383.40 329.848   2
   6  -2   9 8455.47 426.040   2
   4   2  -3 17462.2 306.807   2
   7  -1   8 5162.90 434.113   2
   6  -2   7 3925.78 309.953   2
   4  -3   8 33029.1 490.862   2
   3  -3   7 9675.83 238.013   2
   6  -2  10 3179.73 343.790   2
   6  -1   3 21241.8 474.913   2
   8   1   5 4802.13 477.278   2
   7   1   1 3617.75 331.845   2
   7  -1   6 10994.1 477.220   2
   7  -1   9 8475.46 485.216   2
   2  -3   7 32445.1 340.709   2
   3  -1   1 38614.3 365.774   2
   4   3  -4 33318.8 419.634   2
   7   5  -2 3200.08 402.981   2
   6  -2   6 5610.33 322.330   2
   4   1  -2 47961.1 477.164   2
   7  -1   5 3368.19 336.262   2
   2  -1   1 70051.6 390.072   2
   7   4  -2 16862.8 561.615   2
   4  -3   7 24658.1 412.555   2
   4  -1   1 15472.2 286.008   2
   7   0   2 2513.52 304.769   2
   6   1  -1 10652.2 345.168   2
   3  -2   3 97836.6 595.332   2
   1   1  -2 16020.4 120.363   2
   7  -1   4 2249.45 299.843   2
   8   0   5 8323.41 507.672   2
   7   2  -1 4475.29 336.624   2
   8   2   1 6742.28 473.488   2
   4  -2   3 25830.6 370.551   2
   7   1   0 14029.7 458.094   2
   4   4  -5 22399.7 355.448   2
   3   0  -1 116595. 602.297   2
   8   1   2 6480.06 443.983   2
   8   0   4 4639.03 424.280   2
   3  -3   6 2924.90 147.889   2
   6   0   0 20125.1 437.931   2
   4   0  -1 11011.3 240.544   2
   7  -1   3 6861.88 354.699   2
   2  -2   3 67353.4 403.459   2
   6  -2   4 12806.1 381.351   2
   6   4  -4 9946.44 362.291   2
   8  -1   7 4534.50 438.680   2
   8  -1   8 8817.55 538.606   2
   7  -2   6 4766.07 353.679   2
   7   4  -3 10775.0 445.456   2
   1  -3   7 10054.3 150.171   2
   8   1   1 10239.0 483.298   2
   8  -1   9 4397.40 462.667   2
   2   0  -1 40122.7 279.883   2
   2  -3   6 123465. 601.796   2
   6  -3  10 4275.35 336.647   2
   9   1   4 4853.53 518.831   2
   7   2  -2 3759.51 300.058   2
   7   1  -1 11764.2 404.082   2
   6  -3   7 15532.6 436.939   2
   6  -1   1 31983.5 516.161   2
   6   2  -3 23924.9 465.856   2
   9   1   3 3799.29 474.847   2
   6   1  -2 2467.35 214.144   2
   6  -2   3 13248.8 369.348   2
   4  -3   5 5279.07 202.901   2
   7   0   0 8177.46 349.532   2
   8   2  -1 6336.02 411.043   2
   7  -2   4 23643.5 537.412   2
   6  -3   6 3688.57 260.036   2
   3  -3   5 85508.4 574.634   2
   9   2   1 13140.2 631.804   2
   8  -1   3 5104.01 385.184   2
   4  -2   2 1057.67 122.535   2
   8   3  -2 7139.18 435.560   2
   4  -1   0 4206.64 161.233   2
   8  -2   6 13639.4 531.159   2
   7  -3   7 16062.2 497.106   2
   7  -1   1 16147.5 441.950   2
   8  -2   5 5871.85 404.191   2
   6  -3   5 17649.0 428.170   2
   3  -2   2 75338.1 505.472   2
   7  -2   3 33539.1 616.145   2
   9   2   0 5444.78 483.890   2
   3   2  -4 8711.01 174.953   2
   3  -1   0 52255.1 407.528   2
   4   1  -3 9318.96 219.075   2
   8  -1   2 3121.19 343.292   2
   6  -2   2 2876.43 229.715   2
   8   1  -1 3004.24 334.920   2
   7  -3   6 11096.5 420.865   2
   6   4  -5 7370.05 310.561   2
   8   2  -2 5665.16 390.597   2
   9   0   2 7993.09 500.912   2
   6  -1   0 11203.0 329.942   2
   4   3  -5 1559.94 126.996   2
   9  -1   4 3385.48 433.068   2
   1  -1   1 33032.0 192.407   2
   8   0   0 20240.3 570.173   2
   3   3  -5 68398.0 453.664   2
   4  -3   4 17046.6 307.059   2
   7   3  -4 10302.9 397.596   2
   4  -4   8 1653.41 168.548   2
   6  -3   4 34793.9 548.225   2
   9  -2   8 4833.41 482.281   2
   6  -4  10 4616.20 293.758   2
   4   0  -2 42553.2 421.439   2
   2  -3   5 60546.9 399.786   2
   9   0   1 4986.01 428.465   2
   7  -2   2 9341.83 355.694   2
   6   1  -3 1832.18 186.685   2
   8  -2   3 5032.51 356.736   2
   6   2  -4 29993.9 497.604   2
   7  -1   0 28348.1 537.739   2
   6  -4   8 6242.55 305.447   2
   9   3  -2 4342.15 445.195   2
   9  -2   5 6943.84 483.879   2
   8  -3   6 3660.98 372.007   2
   6   0  -2 23979.1 437.177   2
   8   0  -1 34308.2 671.883   2
   6  -2   1 21657.3 431.469   2
   6  -4   7 23825.7 491.417   2
   9   1  -1 4233.18 420.210   2
   6   3  -5 12672.8 347.668   2
   7  -4   9 3833.15 336.779   2
   7  -4  10 10324.6 450.507   2
   8  -2   2 9754.00 431.607   2
   1  -3   6 29501.0 218.568   2
   3   0  -2 3378.64 118.155   2
   7   0  -2 7542.11 326.013   2
   1  -2   3 12941.6 134.028   2
   2   2  -4 58870.0 321.117   2
   8  -1   0 2696.28 312.938   2
   7   2  -4 14067.8 419.738   2
   7  -2   1 2565.86 253.992   2
   8   3  -4 4083.99 357.723   2
   2  -2   2 153816. 2341.88   2
   6  -4   6 5209.36 282.090   2
   8  -3   4 5232.71 369.792   2
   9   3  -3 7946.80 493.447   2
   2  -1   0 328448. 3243.10   2
   4  -3   3 32770.4 403.571   2
   4  -1  -1 39014.6 412.640   2
   2   3  -5 30523.8 227.782   2
   7  -1  -1 10394.0 362.262   2
   3  -4   7 9867.60 223.926   2
   4  -4   6 43614.2 490.452   2
   7   3  -5 2198.76 264.363   2
   9   0  -1 6898.21 433.851   2
   8  -2   1 4424.80 329.837   2
   8   1  -3 7371.14 387.093   2
   9  -2   2 2708.36 365.190   2
   8  -3   3 3115.07 323.163   2
   6  -4   5 9506.28 328.333   2
   2   1  -3 8525.72 131.588   2
   9  -1   0 5531.37 407.052   2
   8   2  -4 3312.35 321.436   2
   3  -2   1 21261.9 267.685   2
   9  -3   4 6550.38 430.711   2
   6  -2   0 7626.80 278.752   2
   6  -3   2 16663.7 379.641   2
   7  -4   5 8571.88 358.066   2
   8  -4   6 6998.01 395.865   2
   7  -3   2 4064.37 284.995   2
   6   0  -3 17949.2 378.667   2
   6   2  -5 1568.98 190.588   2
   1   0  -1 42849.9 198.269   2
   7   1  -4 14039.3 398.771   2
   7   0  -3 43223.8 635.219   2
   8   3  -5 6867.62 372.418   2
   4   1  -4 10810.5 223.329   2
   9  -3   3 12597.1 508.350   2
   3  -3   3 74926.2 513.215   2
   4   2  -5 25981.4 333.725   2
   8  -2   0 19104.2 507.294   2
   3  -1  -1 89057.8 520.121   2
   4  -4   5 59484.9 552.906   2
   6  -1  -2 10241.0 306.326   2
   7  -4   4 19855.0 484.270   2
   9  -4   6 13296.2 546.275   2
   7   2  -5 4989.05 283.088   2
   2  -3   4 704.819 75.8022   2
   3  -4   6 51911.0 454.939   2
   9   2  -4 7050.10 430.769   2
   6  -5   8 3805.82 273.206   2
   4  -2   0 16883.2 283.563   2
   6   3  -6 35998.8 529.766   2
   8   0  -3 7211.45 361.290   2
   4   0  -3 1587.86 118.334   2
   4  -3   2 33380.2 399.765   2
   8   1  -4 19261.0 511.510   2
   8  -4   4 18510.4 522.221   2
   7  -5   8 14400.6 456.475   2
   9  -3   2 12623.0 501.401   2
   9  -2   0 14026.5 505.608   2
   8  -1  -2 4777.39 322.248   2
   7  -3   1 33603.8 570.972   2
  11  -1   1 6052.05 550.148   2
   6  -3   1 3899.41 231.052   2
   4   3  -6 2248.57 131.218   2
   7  -5   7 3015.74 286.742   2
   8  -3   1 4062.18 312.077   2
   7  -2  -1 21573.0 465.457   2
   6  -2  -1 1685.13 191.376   2
   8  -5   7 5469.99 370.954   2
   2   0  -2 99404.8 429.627   2
   6  -4   3 40295.6 569.603   2
   8  -4   3 6832.90 365.904   2
   9  -5   9 5793.87 431.211   2
   4  -1  -2 4010.71 156.318   2
   6  -5   6 12968.9 362.392   2
   2  -4   7 12177.8 190.427   2
   4  -4   4 2224.39 148.159   2
   8  -5   6 7876.43 402.638   2
   4  -5   8 5880.40 215.731   2
   9  -2  -1 6674.58 406.193   2
   7   0  -4 28801.3 519.462   2
   3   1  -4 82156.1 480.786   2
   9   2  -5 5535.92 386.259   2
   6   1  -5 3280.53 206.393   2
   3  -4   5 962.090 101.599   2
   7  -1  -3 2640.14 234.061   2
   7  -3   0 11263.0 356.478   2
   8  -3   0 3451.81 307.587   2
   7  -4   2 14055.2 403.676   2
   8  -4   2 2847.84 302.147   2
   8  -1  -3 11832.7 409.491   2
   6  -1  -3 13937.5 335.537   2
   8   1  -5 4674.57 310.897   2
   7   2  -6 15940.3 415.467   2
   6  -5   5 39154.1 571.372   2
   9  -3   0 3107.72 340.355   2
   9  -4   2 3632.38 365.503   2
   6  -4   2 27168.2 471.315   2
   3  -2   0 98859.5 562.173   2
   3   0  -3 3890.83 122.034   2
   7  -2  -2 31333.7 538.904   2
   9  -1  -3 5275.86 373.184   2
   3  -3   2 1118.70 100.005   2
   8  -2  -2 3559.23 293.610   2
   4  -5   7 1954.49 150.926   2
   4  -3   1 28677.1 367.946   2
   2  -2   1 5782.76 125.362   2
   1  -3   5 6092.30 98.3975   2
   8   2  -6 18247.3 485.794   2
   8  -5   4 3953.50 327.749   2
   9   1  -5 4015.27 349.317   2
   7  -5   4 2650.47 254.658   2
   6  -2  -2 22993.5 418.088   2
   9  -5   4 7794.30 425.514   2
   3   3  -6 8612.07 160.040   2
  11  -4   3 4497.14 477.421   2
   4  -2  -1 212297. 941.641   2
   8  -4   1 3803.30 310.559   2
  11  -2  -1 4113.19 451.028   2
   7  -6   8 6442.53 338.753   2
   9  -4   1 9840.57 440.439   2
   7  -4   1 11008.3 359.317   2
   6  -5   4 12093.6 343.464   2
   7  -3  -1 10842.5 353.180   2
   8  -5   3 3270.10 311.164   2
   2  -3   3 20114.2 223.325   2
  11  -4   2 3451.67 448.835   2
  11  -3   0 3594.07 442.643   2
   9  -5   3 8806.57 438.313   2
  11  -5   5 4177.25 482.438   2
   4  -5   6 10730.7 258.312   2
   6  -6   8 21941.8 456.294   2
   9  -6   7 8873.84 452.178   2
   8   0  -5 4314.43 297.998   2
   8  -1  -4 2996.89 281.673   2
   7   0  -5 5473.21 278.321   2
   4   1  -5 72156.4 530.103   2
   2  -4   6 34846.5 298.970   2
   7  -1  -4 5447.85 277.034   2
   6  -4   1 17213.7 379.272   2
   2  -1  -1 968868. 5583.11   2
   4   0  -4 33182.6 367.771   2
   9  -1  -4 22909.0 583.564   2
   3  -4   4 81564.0 541.033   2
   3  -1  -2 24666.9 279.222   2
   8  -6   6 2822.02 311.225   2
   7   1  -6 19610.9 433.973   2
   6  -3  -1 64933.5 679.765   2
   8  -2  -3 2047.00 273.519   2
   6   0  -5 14840.3 337.851   2
   9  -4   0 12194.0 467.916   2
   7  -2  -3 5834.49 280.840   2
   4   2  -6 20408.8 287.857   2
   6  -1  -4 1551.14 179.683   2
  11  -3  -1 4191.05 448.957   2
   6   1  -6 10903.7 293.287   2
   6  -5   3 4737.25 246.964   2
   8  -5   2 25743.2 560.261   2
   8  -6   5 15107.5 471.886   2
   9  -3  -2 17815.6 525.949   2
   4  -1  -3 156377. 791.588   2
   8  -3  -2 3916.79 299.848   2
   7  -5   2 3524.66 266.671   2
  12  -2  -2 4198.42 490.756   2
   7  -6   5 14448.3 412.000   2
   6  -6   6 6418.85 283.666   2
   6  -2  -3 2649.62 199.104   2
   4  -5   5 9062.49 234.166   2
   4  -3   0 22871.6 325.825   2
   7  -3  -2 7805.37 316.267   2
   8  -6   4 17126.6 491.232   2
   1  -2   2 30768.7 196.696   2
   3  -5   7 16832.6 258.292   2
   9  -5   1 11736.1 462.264   2
   3  -3   1 46695.9 400.551   2
   8  -1  -5 7097.98 343.793   2
   8  -5   1 10079.4 398.294   2
   8  -4  -1 7242.40 352.692   2
   8   0  -6 5920.96 327.077   2
   9   0  -6 3437.55 324.548   2
   7  -6   4 7336.97 334.900   2
   6  -6   5 6715.39 287.027   2
  11  -5   1 4231.08 468.952   2
   4  -2  -2 85505.9 613.812   2
   7  -1  -5 33670.9 555.469   2
   6  -3  -2 58472.0 651.699   2
   3  -2  -1 47331.2 398.500   2
   7   0  -6 8404.97 319.434   2
   9  -3  -3 11791.9 462.535   2
   1  -1   0 91807.1 1297.48   2
   7  -4  -1 19995.9 455.613   2
   7  -2  -4 5715.51 294.756   2
   8  -7   7 5527.43 370.877   2
   3  -4   3 46797.8 420.522   2
  11  -2  -4 4234.73 440.271   2
   2  -4   5 3677.97 114.515   2
   7   1  -7 4625.84 272.053   2
   4  -5   4 27005.5 383.905   2
  11  -5   0 5230.47 489.457   2
   9  -4  -2 7246.42 422.049   2
   9  -6   2 4398.24 384.782   2
   8  -5   0 3360.02 312.221   2
   7  -6   3 11515.9 390.282   2
   3  -5   6 54982.9 458.628   2
   6  -6   4 2820.95 237.187   2
   6  -1  -5 13240.7 335.422   2
   6   0  -6 16100.0 357.856   2
  11  -4  -2 3914.21 446.163   2
   9  -7   5 4243.61 393.051   2
   8  -4  -2 28271.1 590.067   2
   2   1  -4 55203.5 317.673   2
   8  -6   2 2395.04 300.331   2
   3   1  -5 153223. 658.628   2
   2  -3   2 44295.3 337.117   2
   2  -2   0 65013.2 395.506   2
   6  -4  -1 29391.2 488.224   2
   6  -5   1 8940.69 312.207   2
   9  -2  -5 9073.13 429.500   2
   6  -2  -4 78859.0 754.654   2
   3   0  -4 21964.6 265.769   2
   9  -1  -6 4258.45 354.344   2
   8  -7   5 9869.60 424.049   2
   7  -7   6 8595.89 354.936   2
   7  -5   0 5183.51 296.628   2
   8  -1  -6 6742.24 342.828   2
   8  -2  -5 5038.96 325.009   2
   9  -5  -1 4433.81 366.672   2
   9  -7   4 6332.07 417.905   2
   4  -3  -1 4681.08 181.742   2
  11  -2  -5 5006.52 467.312   2
   9   0  -7 2444.23 316.567   2
   4   0  -5 24125.1 328.532   2
   2   0  -3 99165.1 450.041   2
   2   2  -5 51373.6 280.918   2
   7  -4  -2 6196.52 321.919   2
   8  -3  -4 10337.5 401.778   2
   7  -6   2 23361.8 509.861   2
   6  -3  -3 8004.92 292.614   2
   6  -6   3 31574.3 528.960   2
  11  -4  -3 6952.81 510.468   2
   4  -1  -4 81910.4 600.523   2
   4   1  -6 13563.2 250.147   2
   3  -1  -3 4951.72 149.314   2
   7  -7   5 12012.5 403.687   2
   7  -1  -6 17648.1 428.726   2
   3   2  -6 10538.0 176.211   2
   1  -3   4 64951.9 297.092   2
   4  -5   3 58095.8 555.816   2
   7  -2  -5 25736.2 509.669   2
   3  -3   0 117176. 661.816   2
  11  -6   0 3566.09 474.685   2
   7   0  -7 4488.98 264.944   2
   3  -5   5 9259.65 211.215   2
   8  -4  -3 6338.26 351.249   2
   3  -4   2 31162.0 356.589   2
   7  -3  -4 2033.87 247.406   2
   6  -7   6 2734.49 236.763   2
   6  -5   0 8716.33 313.333   2
   9  -5  -2 11833.0 475.995   2
   8  -7   3 13226.8 472.354   2
   4  -2  -3 1646.30 133.614   2
   7  -5  -1 33742.8 588.549   2
   9  -2  -6 15616.9 514.648   2
   7  -7   4 2150.24 268.083   2
   4  -6   6 15323.6 302.954   2
   9  -3  -5 6667.94 396.323   2
   7  -6   1 5531.23 320.024   2
   9  -7   2 6691.83 422.185   2
   2  -4   4 148976. 622.265   2
   6  -6   2 5583.48 278.259   2
   4   2  -7 2308.48 128.358   2
  11  -1  -7 3633.62 405.046   2
   8  -6   0 8035.84 389.643   2
   2  -1  -2 19825.4 219.346   2
   8  -5  -2 5220.02 348.591   2
   7  -4  -3 8355.59 346.650   2
   9  -4  -4 2888.83 339.746   2
   9  -8   5 4984.19 385.423   2
   4  -4   0 22391.6 352.689   2
   6  -2  -5 46794.2 595.891   2
   8  -3  -5 26669.6 573.079   2
   8  -8   6 2946.27 330.422   2
  12  -7   1 6277.56 538.965   2
   8  -7   2 8392.05 400.378   2
   9  -6  -1 16547.2 532.799   2
   4  -5   2 2811.41 173.199   2
   9  -7   1 6654.49 418.890   2
   8  -4  -4 2526.20 297.612   2
   4  -3  -2 69139.7 587.468   2
   4  -6   5 4798.46 194.897   2
   3  -5   4 7695.25 197.179   2
  11  -3  -6 7316.55 501.333   2
   6  -5  -1 13413.3 370.778   2
   6  -7   4 3836.88 253.917   2
   8  -6  -1 10383.4 423.090   2
   6   1  -8 9502.88 285.006   2
   7  -3  -5 2019.48 245.577   2
   2  -3   1 38555.8 330.968   2
   9  -3  -6 11926.4 474.734   2
   8  -5  -3 3889.71 321.623   2
   6  -4  -3 70153.7 758.872   2
   9  -4  -5 2856.64 345.933   2
   9  -6  -2 9064.53 464.897   2
   7   0  -8 29004.7 523.239   2
   9  -1  -8 4817.58 353.566   2
   7  -4  -4 3615.06 287.366   2
   3  -3  -1 1429.98 117.127   2
   4  -1  -5 4983.37 188.409   2
   8  -2  -7 2535.44 296.066   2
   2  -2  -1 21726.9 253.381   2
   8  -3  -6 13654.6 464.102   2
   4  -6   4 19230.0 347.642   2
   6  -7   3 4158.98 275.040   2
   4   0  -6 8527.90 218.700   2
   9  -5  -4 9426.05 467.045   2
   8  -8   3 9239.19 435.471   2
   4  -4  -1 36952.0 469.183   2
   1  -2   1 8387.63 124.593   2
   4  -2  -4 2100.64 155.797   2
   4  -5   1 3231.55 189.238   2
   2  -4   3 37227.9 335.256   2
   3   0  -5 39070.8 369.925   2
   6  -6   0 8455.52 334.642   2
   3  -1  -4 68753.3 509.863   2
   7  -7   1 6485.51 356.904   2
   7  -5  -3 10207.1 398.208   2
   6  -1  -7 11151.6 332.702   2
  12  -7  -2 350.054 462.632   2
  11  -2  -8-248.833 337.906   2
   9  -7  -1 2862.65 390.586   2
   7  -8   4 22696.2 536.305   2
   9  -9   5-392.984 299.232   2
  12  -8   0 635.254 443.278   2
  11  -7  -2 10929.4 588.297   2
   6  -3  -5 856.273 204.977   2
   9  -6  -3 2487.89 366.006   2
  11  -9   3-942.644 421.479   2
  11  -8   0 1251.45 444.228   2
   8  -5  -4 33582.9 684.759   2
   4   1  -7 11191.9 238.114   2
  12  -6  -4-52.1181 420.466   2
   9  -3  -7 802.312 316.640   2
   9  -8   1 2663.97 375.823   2
   6  -8   6 9437.01 339.526   2
   3 -10   7-140.426 328.171   2
   4 -11  11 1175.17 400.330   2
   2 -10   6 494.191 334.610   2
  -1  -9   4 1053.59 278.557   2
  -1 -11   7 2487.57 406.530   2
   3 -12  11 3704.48 491.160   2
   1 -12   9 137.890 421.856   2
   4 -10   8 2370.04 384.766   2
   4 -11  10 191.400 402.425   2
   3 -11   8 208.119 362.931   2
  -1 -10   5 2503.17 355.939   2
   2 -12   9 396.024 431.855   2
   1 -10   5-91.6301 321.789   2
   4  -9   6 1125.84 299.588   2
   3 -10   6 155.712 312.628   2
   4 -11   9 1020.38 395.528   2
   3  -7   3 228.716 193.393   2
   4 -10   7 604.688 346.340   2
   1 -12   8 1133.55 428.119   2
   1  -6   1 332.360 165.955   2
   2 -10   5 124.162 305.368   2
   4 -12  11 1765.37 436.862   2
   1 -11   6 410.884 339.302   2
   2  -7   2 227.870 178.781   2
   1  -3   0 282.368 87.5164   2
   2 -12   8 506.242 427.773   2
   4 -12  10 522.823 393.549   2
  -1  -8   2 192.036 218.453   2
  -1  -9   3-113.046 249.550   2
   4  -9   5 1742.61 322.555   2
   3 -10   5 152.127 301.485   2
   1  -8   2 126.792 226.171   2
   3  -8   3 648.937 233.659   2
   1 -10   4 2056.69 339.766   2
   4 -12   9 3079.86 460.348   2
  -1 -10   4 558.024 301.151   2
   4 -11   7 763.136 361.425   2
   2 -10   4 1803.67 349.288   2
   4  -4   3 236.143 117.654   2
   6 -10  11 580.765 336.126   2
   6  -9   9 2054.75 354.291   2
   1  -5   0 132.409 130.855   2
   6 -10  10 1299.54 371.535   2
   2 -11   5 2637.72 412.794   2
   6  -8   8 1255.69 300.473   2
   6  -7   8-19.9763 224.566   2
  -1 -11   5 1639.55 344.797   2
   4 -12   8 1409.83 459.193   2
   3 -12   7 1077.95 427.360   2
   4  -9   4 1273.57 296.586   2
  -1  -6   0 316.234 156.177   2
   6  -9   8 180.969 311.423   2
   6 -10   9-37.9617 333.899   2
   1 -12   6 119.500 382.846   2
   4 -11   6 2541.06 438.078   2
   3 -11   5 2330.58 400.166   2
   6  -8   7 1710.67 299.125   2
   6  -7   7 1141.89 248.194   2
   4  -8   3 1235.99 265.109   2
   6 -11  10 2953.22 438.839   2
   1 -10   3 360.830 303.476   2
   1  -9   2 1689.31 286.565   2
   4 -12   7 1685.80 455.997   2
   3  -4   1 229.555 106.441   2
   6  -9   7 454.896 303.529   2
   3 -12   6 2818.71 441.947   2
   1 -11   4 313.371 329.056   2
   6 -11   9 494.957 396.837   2
   6  -6   7-67.4976 168.134   2
   4  -6   2 652.637 194.270   2
   2  -9   2 331.204 270.583   2
   2  -5   0 17.4249 128.762   2
  -1  -8   1 1728.46 250.299   2
   4 -10   4 1428.38 330.533   2
   6  -7   6 1835.40 263.956   2
   4 -11   5 79.7648 356.495   2
   6 -12  10 346.328 380.483   2
   6 -11   8 180.498 359.824   2
   6  -9   6 51.5477 290.210   2
   2  -8   1 1133.94 240.991   2
   2 -12   5 146.637 379.283   2
   3 -11   4 1291.03 360.206   2
   4  -4   2 206.145 111.576   2
   6 -12   9 452.363 400.782   2
   6  -8   5-119.623 252.365   2
   6 -11   7 341.034 394.872   2
   6  -7   5 1182.18 242.564   2
   4 -13   7 833.263 446.868   2
   1 -10   2 2566.21 349.967   2
   6 -12   8 3350.07 504.912   2
   4 -11   4 995.295 381.946   2
   6  -9   5-69.3145 297.068   2
   1 -11   3-7.16717 335.327   2
   1  -4  -1 522.529 119.494   2
   3 -13   6 813.766 421.926   2
   2 -10   2 289.336 286.099   2
   4 -12   5 456.888 388.084   2
   1  -9   1 2030.08 296.593   2
   7 -11  10 180.599 377.625   2
   7  -9   8 210.526 293.269   2
   6 -11   6 1965.54 446.174   2
   1 -12   4 308.341 369.524   2
   2 -12   4-281.051 384.273   2
   2  -9   1 1110.12 289.351   2
   7 -10   8 140.400 333.690   2
   7 -11   9-338.885 361.046   2
   6 -10   5 34.4935 334.785   2
   3 -11   3 641.411 368.645   2
   6 -12   7 876.307 427.495   2
   4 -13   6 1478.23 448.676   2
   7 -11   8 1688.16 406.430   2
   7  -8   7 1783.51 299.630   2
   7 -12   9-501.622 371.805   2
   3 -13   5 1822.99 444.397   2
   4 -11   3 3100.13 432.290   2
   6 -10   4 1484.72 374.242   2
   7  -8   6 324.938 253.415   2
   4  -4   1 409.360 116.654   2
   7 -12   8 1208.78 434.247   2
   4 -13   5 259.485 432.510   2
   7 -10   6 398.030 356.171   2
   2 -11   2-178.423 323.384   2
   2  -6  -1 457.993 176.190   2
   2 -12   3 1540.37 387.773   2
   4  -9   1 248.995 286.998   2
   1 -12   3-363.822 343.866   2
   3 -11   2-235.982 339.337   2
   1  -7  -1 230.979 186.299   2
   3 -12   3 241.634 367.998   2
   7 -11   6 125.620 349.248   2
   7 -12   7 573.907 398.123   2
   6 -12   5 1799.94 454.541   2
   7  -9   5 1696.62 333.089   2
   3 -10   1-93.6282 311.059   2
   1  -9   0-134.948 249.929   2
   7  -8   5 68.9662 241.989   2
   2  -9   0 2099.05 310.073   2
   4 -11   2 1279.66 376.991   2
   6 -10   3 537.337 353.385   2
   4 -13   4-113.605 405.584   2
   7 -12   6 1173.30 423.047   2
   2  -3  -1 86.1071 82.0886   2
   3  -5  -1 126.874 151.291   2
   6 -12   4 1203.58 434.412   2
   8 -11   8 1248.50 389.255   2
   6  -7   2 138.300 230.006   2
   6 -13   5 1688.19 489.975   2
   6  -9   2 2464.45 351.321   2
   7 -10   4 2056.90 363.223   2
   6 -11   3 75.2207 377.828   2
   2 -11   1 2176.41 385.146   2
   3 -12   2 1546.03 400.102   2
   8 -10   7 2297.82 397.834   2
   7 -12   5 22.4862 409.987   2
   4  -9   0-15.9605 272.303   2
   7 -11   4 2259.66 454.094   2
   1 -10   0 1573.37 313.368   2
   4 -12   2 122.440 406.661   2
   1  -6  -2 705.661 189.429   2
   4 -13   3 727.094 410.637   2
   8 -10   6-97.7887 343.234   2
   4 -11   1 2793.17 421.010   2
   8 -12   7-786.128 380.392   2
   7  -9   3 2479.18 364.573   2
   8  -9   6 2387.69 335.144   2
   6 -13   4-79.5274 439.961   2
   7 -10   3-30.5662 332.939   2
   4  -7  -1 136.719 217.409   2
   2  -9  -1-33.9058 268.945   2
   7 -12   4 116.049 407.325   2
   8 -12   6-111.476 413.469   2
   6  -9   1 943.360 327.812   2
   8 -10   5 3065.82 418.524   2
   7  -7   3 122.279 205.483   2
   7 -11   3 1557.82 405.266   2
   8  -9   5 1468.26 329.771   2
   8 -11   5 276.300 405.141   2
   2  -7  -2 1640.32 239.935   2
   7  -9   2 1680.36 333.731   2
   6  -5   2 237.543 150.440   2
   2 -11   0-64.9213 331.489   2
   8 -12   5 2637.37 478.956   2
   7  -8   2 1822.94 301.901   2
   6  -6   1 413.521 184.590   2
   4 -12   1 559.173 408.830   2
   6  -4   4 119.492 109.693   2
   4  -9   7 15902.7 555.133   2
   3  -6   3 23081.6 472.123   2
   4  -7   5 7277.37 345.464   2
   2 -12  10 8249.05 578.716   2
  -1  -6   1 21234.8 419.057   2
   2  -6   2 136858. 1038.14   2
   1  -8   3 12467.2 422.437   2
   1 -11   7 7775.64 505.555   2
  -2  -6   1 11702.3 328.396   2
   1  -9   4 31698.3 679.246   2
   4  -5   4 26132.8 460.810   2
   1  -7   2 45131.9 664.522   2
  -2  -9   4 9428.93 420.151   2
   3  -8   4 2171.00 277.008   2
   3  -9   5 17704.8 551.182   2
   4  -4   4 2335.49 164.811   2
   2 -11   7 10528.2 560.811   2
   4  -6   4 19089.9 439.690   2
   3 -12  10 9274.74 608.720   2
   2  -3   1 38358.3 390.851   2
   2  -4   1 36401.5 445.924   2
   4  -8   5 16657.1 508.098   2
   2  -9   4 5581.11 365.537   2
   2  -8   3 32155.9 625.170   2
  -2  -2  -1 63000.5 348.537   2
  -3  -2  -1 15011.3 164.224   2
   3  -4   2 30673.0 418.958   2
  -1  -5   0 46908.5 532.502   2
   4  -7   4 14946.9 435.720   2
   3  -5   2 57346.8 630.213   2
   3 -12   9 9841.07 585.408   2
   3 -11   7 13118.8 597.945   2
  -2  -5   0 44784.6 512.758   2
  -1 -11   6 4105.68 418.488   2
   2  -5   1 29507.6 450.435   2
   4 -11   8 5586.71 480.481   2
   3  -3   2 897.930 96.5021   2
   2 -11   6 3933.86 416.430   2
   2  -2   1 5744.78 132.597   2
   3  -9   4 10010.1 452.724   2
   4  -3   4 17062.2 268.483   2
   3  -6   2 3881.70 248.311   2
   1  -4   0 13813.6 281.374   2
   1  -9   3 26607.8 624.932   2
   1  -2   0 8607.30 157.956   2
   4 -10   6 14336.4 564.638   2
   3 -12   8 5146.53 519.390   2
   4  -8   4 48697.5 797.341   2
   1 -12   7 8432.49 558.946   2
   4  -5   3 57139.5 649.660   2
  -1  -7   1 35405.4 584.647   2
   4  -6   3 13974.3 385.622   2
  -1  -2  -1 131872. 529.565   2
   3 -11   6 20847.7 674.826   2
   2  -6   1 24851.8 462.709   2
   6  -9  10 6669.84 437.220   2
   2 -12   7 4171.68 470.743   2
   6  -8   9 9489.44 470.789   2
   2  -9   3 9286.49 420.719   2
  -2  -3  -1 63815.4 444.659   2
   1 -11   5 6067.00 471.258   2
   1  -7   1 5913.96 298.852   2
  -2  -7   1 10871.0 345.126   2
   2  -8   2 9608.32 388.134   2
   3  -7   2 20993.1 481.891   2
   4  -7   3 3697.97 276.146   2
  -1  -3  -1 12571.0 213.907   2
   4  -2   5 37064.9 301.054   2
   4 -10   5 20011.4 631.272   2
   3 -10   4 6750.94 437.103   2
   3  -9   3 6654.76 402.501   2
   6 -11  11 9338.01 558.755   2
   2  -7   1 37558.3 614.291   2
   2 -12   6 6213.29 503.595   2
  -3  -3  -1 11547.1 188.517   2
   3  -5   1 83271.9 760.678   2
  -2  -6   0 20787.6 407.232   2
   3  -8   2 13897.3 450.407   2
   6 -10   8 10674.3 541.059   2
   1  -6   0 24857.9 461.982   2
  -1  -4  -1 51844.1 488.856   2
  -1  -9   2 8193.96 407.184   2
   3  -6   1 19097.3 427.853   2
   3  -2   2 78005.0 442.470   2
   2 -10   3 10821.4 491.099   2
   2  -4   0 48916.0 513.154   2
  -2  -4  -1 23885.2 329.853   2
   4  -5   2 2806.03 199.133   2
   1  -8   1 15908.2 464.132   2
   2 -11   4 9037.53 508.997   2
   4  -3   3 32475.5 357.932   2
   6  -8   6 9866.84 440.159   2
   6 -10   7 21228.7 682.917   2
   4  -7   2 35065.2 625.320   2
   4  -9   3 20233.8 585.205   2
   1 -12   5 3726.58 459.518   2
   2  -3   0 193304. 3435.82   2
   3 -10   3 30689.4 727.821   2
   3  -7   1 9206.13 350.823   2
   4 -12   6 7074.44 544.993   2
   6  -6   6 6677.97 299.340   2
   2  -6   0 1760.98 205.936   2
   3  -9   2 5201.89 372.085   2
   3  -3   1 46968.9 432.262   2
  -1  -7   0 25039.2 493.649   2
   1  -7   0 30234.7 560.114   2
   3 -12   5 4141.54 471.596   2
   4  -8   2 10956.8 433.519   2
  -1  -5  -1 14827.8 321.312   2
   6 -10   6 3514.03 411.730   2
   1  -1   0 91227.8 1364.23   2
   3  -8   1 6784.84 371.586   2
   4 -10   3 12680.7 541.018   2
   7 -10   9 6031.89 477.813   2
   2  -7   0 28785.8 557.495   2
   2 -11   3 4694.22 441.173   2
  -2  -5  -1 3027.11 174.987   2
   6  -6   5 7148.39 303.367   2
   4  -2   4 6336.12 133.856   2
   1  -5  -1 82603.6 745.152   2
   4  -9   2 19409.0 584.725   2
   4  -6   1 22936.3 480.285   2
   1  -3  -1 75187.5 541.631   2
   3  -1   3 23214.6 162.966   2
   3  -5   0 5261.08 235.304   2
   3 -10   2 11570.7 510.626   2
   4  -5   1 2717.96 193.600   2
   4  -7   1 74303.2 894.978   2
   3  -6   0 5681.55 272.944   2
   6  -8   4 7899.19 405.268   2
   3 -12   4 4698.51 486.721   2
   6  -7   4 3674.28 284.228   2
   7  -9   7 10141.1 497.165   2
   1  -8   0 27031.9 580.389   2
   6  -9   4 8738.16 450.466   2
  -1  -6  -1 10109.7 307.593   2
   7 -10   7 5242.67 442.843   2
   3  -9   1 5981.51 383.541   2
   1  -6  -1 35451.5 551.514   2
   3  -4   0 12711.2 278.998   2
   2  -1   1 72366.5 306.042   2
   3  -7   0 6923.69 331.319   2
   2  -8   0 2949.11 304.233   2
   4  -8   1 5843.23 358.990   2
   4  -3   2 33642.5 363.673   2
   2  -2   0 63715.5 409.002   2
   6 -11   5 10462.3 558.695   2
   4 -12   4 6329.87 516.810   2
   6  -6   4 2770.02 228.190   2
   6 -12   6 3765.28 475.514   2
   4 -10   2 5588.22 426.315   2
   7  -9   6 12808.8 538.709   2
   7 -11   7 15959.6 664.395   2
   2  -5  -1 64466.8 681.704   2
   6  -5   5 37175.2 510.430   2
   1 -11   2 6211.29 452.597   2
   2  -4  -1 22570.2 362.183   2
   1 -10   1 13285.1 524.730   2
   6  -8   3 3697.33 334.613   2
   2 -10   1 14740.8 545.602   2
   3  -8   0 7941.92 392.690   2
   6  -7   3 3619.25 289.046   2
   6  -9   3 15941.0 558.737   2
   7  -7   6 7744.85 354.175   2
   6 -11   4 8260.57 534.910   2
   1  -2  -1 961.784 79.2225   2
   4  -6   0 7162.01 303.573   2
   7 -10   5 4446.15 429.033   2
   3  -2   1 21487.8 240.578   2
   2  -7  -1 35003.9 614.753   2
   4  -7   0 6327.26 330.818   2
  -1  -7  -1 2454.88 233.282   2
   4 -12   3 5085.78 494.522   2
   6  -6   3 29560.8 536.030   2
   3  -3   0 117876. 688.273   2
   6  -5   4 11238.6 307.689   2
   4  -5   0 25688.4 443.583   2
   3  -9   0 12433.7 484.181   2
   7  -7   5 11807.7 406.966   2
   4 -10   1 3272.23 389.002   2
   7 -11   5 7632.62 531.628   2
   4  -8   0 27283.3 618.308   2
   3  -6  -1 6069.29 292.531   2
   6  -8   2 2242.12 312.027   2
   7  -9   4 3286.77 384.534   2
  -1  -4  -2 3949.66 166.004   2
   4  -2   3 26198.4 252.307   2
   1  -8  -1 8745.87 384.635   2
   7  -8   4 20483.5 573.733   2
   3  -7  -1 28778.0 577.661   2
  -1  -3  -2 5199.34 148.787   2
   2  -8  -1 7735.87 383.774   2
   2 -12   2 12015.7 592.714   2
   3 -11   1 10062.4 531.314   2
   1 -11   1 5478.61 438.105   2
   1  -5  -2 17897.4 374.634   2
  -1  -5  -2 8356.31 249.951   2
   8 -11   7 7769.49 519.922   2
   2 -10   0 5248.33 406.856   2
   7  -7   4 2088.32 246.991   2
   1  -4  -2 12208.0 275.596   2
   6 -10   2 18107.7 664.472   2
   4  -3   1 30210.6 355.915   2
   6  -6   2 5816.56 285.345   2
   6  -5   3 4677.83 225.420   2
   3  -4  -1 39869.1 485.130   2
   3  -8  -1 13925.5 476.373   2
   4  -4   0 23554.3 377.179   2
   3 -10   0 2694.90 361.236   2
  -2  -4  -2 28501.2 350.059   2
   8 -11   6 4696.82 487.360   2
   7  -6   5 14370.5 382.187   2
   7  -8   3 30362.9 673.910   2
  -2  -3  -2 15314.3 218.456   2
   6 -12   3 4427.97 528.625   2
   2  -5  -2 61356.8 676.083   2
   6  -8   1 23881.7 617.357   2
   2  -6  -2 5323.15 277.213   2
   6 -11   2 9165.87 567.880   2
   4  -6  -1 10132.5 357.315   2
   4 -10   0 3585.62 421.139   2
   1  -9  -1 15871.9 516.299   2
  -1  -6  -2 21323.4 421.536   2
   6  -7   1 4170.53 303.028   2
   1  -7  -2 27062.5 545.376   2
   3  -9  -1 13156.8 503.062   2
   4  -8  -1 34696.7 701.213   2
   1  -3  -2 81498.0 573.678   2
   7  -6   4 7185.46 293.677   2
   2  -4  -2 42912.3 502.788   2
   4  -5  -1 1371.28 178.893   2
   3 -12   1 8775.99 544.089   2
   6 -10   1 3746.05 430.451   2
   2 -12   1 14096.3 613.104   2
   3 -11   0 5051.83 451.327   2
   6 -13   3 6723.51 590.004   2
   3  -6  -2 32235.5 575.966   2
   7 -10   2 4956.83 455.395   2
  -1  -2  -2 226823. 2725.27   2
   6 -12   2 1525.41 457.280   2
   4  -9  -1 3192.25 369.036   2
   8  -8   5 2196.09 284.565   2
   8 -10   4 997.585 354.997   2
   7 -12   3 7166.83 556.171   2
   3  -7  -2 4050.43 296.871   2
   8  -9   4 1957.42 355.355   2
   4 -11   0 6781.64 498.418   2
   8 -11   4 189.515 378.399   2
   2  -8  -2 1650.13 275.955   2
   3  -5  -2 6968.65 274.881   2
   1  -8  -2 277.325 228.734   2
   3  -3  -1 1497.54 121.654   2
   6 -11   1 902.009 392.945   2
   2 -10  -1 313.229 310.478   2
   2  -2  -1 22307.5 262.032   2
;
_shelx_hkl_checksum              60083
_shelx_res_file
;
    mys3901_twin_twin1_hklf4a.res created by SHELXL-2014/7
TITL mys3901_twin_twin1_hklf4a_a.res in P-1
REM Old TITL mys3901_twin_twin1_hklf4a in P-1 #2
REM SHELXT solution in P-1
REM R1 0.158, Rweak 0.066, Alpha 0.136, Orientation as input
REM Formula found by SHELXT: C10 Cu N5 S
CELL 0.71073 7.235 7.548 10.297 105.42 98.15 112.43
ZERR 2 0.003 0.003 0.004 0.03 0.03 0.03
LATT 1
SFAC C H Cu N O S
UNIT 12 18 2 8 6 2
EQIV $1 -X,1-Y,1-Z
EQIV $2 -X,-Y,1-Z
EQIV $3 1+X,+Y,+Z
EQIV $4 +X,-1+Y,+Z
L.S. 12 0 0
PLAN  20
TEMP -173
HTAB C6 O2_$1
HTAB C6 O3_$2
HTAB C7 O3_$3
HTAB C8 N1
HTAB C8 O3
HTAB N2 N1_$4
HTAB N2 O1_$4
HTAB N2 O2_$4
BOND $H
LIST 6
MORE -1
CONF
HTAB
fmap 2 53
acta 52
MERG 0
OMIT 5 -2 1
OMIT 5 -2 -3
OMIT 4 -2 0
OMIT 1 -4 -11
REM <olex2.extras>
REM <HklSrc "%.\\mys3901_twin_twin1_hklf5a.hkl">
REM </olex2.extras>
WGHT    0.061000
BASF   0.55112
FVAR       8.25328
CU1   3    0.577755    0.578341    0.681331    11.00000    0.01666    0.00964 =
         0.00970    0.00403    0.00286    0.00374
S1    6    0.189752   -0.099821    0.473219    11.00000    0.01592    0.00918 =
         0.01678    0.00559    0.00471    0.00455
O1    5    0.294977    0.686072    0.680001    11.00000    0.03609    0.04187 =
         0.03666    0.02789    0.02098    0.02641
O2    5    0.256704    0.853069    0.871314    11.00000    0.04343    0.01936 =
         0.03981    0.00637    0.01001    0.01521
O3    5    0.108783    0.524046    0.794933    11.00000    0.02755    0.02000 =
         0.05226    0.02245    0.01868    0.00740
N1    4    0.218186    0.686515    0.782398    11.00000    0.01640    0.01783 =
         0.02962    0.01482    0.00690    0.00881
N2    4    0.453272    0.139153    0.727810    11.00000    0.02076    0.01234 =
         0.01616    0.00874    0.00526    0.00569
H2    2    0.410769    0.037197    0.746420    11.00000   -1.20000
N3    4    0.421955    0.286361    0.555663    11.00000    0.01621    0.01045 =
         0.00980    0.00447    0.00363    0.00505
N4    4    0.316734    0.227343    0.415820    11.00000    0.01512    0.00977 =
         0.01088    0.00360    0.00393    0.00421
C2    1    0.373321    0.130234    0.600230    11.00000    0.01358    0.01018 =
         0.01526    0.00548    0.00538    0.00503
C5    1    0.189532    0.033832    0.360734    11.00000    0.01519    0.01033 =
         0.01535    0.00496    0.00489    0.00574
C6    1    0.053779   -0.069683    0.214084    11.00000    0.01844    0.01117 =
         0.01675    0.00291   -0.00069    0.00284
AFIX 137
H6A   2    0.137499   -0.090035    0.149721    11.00000   -1.50000
H6B   2   -0.010326    0.015522    0.191355    11.00000   -1.50000
H6C   2   -0.055088   -0.202595    0.204761    11.00000   -1.50000
AFIX   0
C7    1    0.618242    0.325404    0.833809    11.00000    0.01983    0.01645 =
         0.01336    0.00740    0.00338    0.00818
AFIX  23
H7A   2    0.748127    0.359093    0.804267    11.00000   -1.20000
H7B   2    0.643119    0.301012    0.923104    11.00000   -1.20000
AFIX   0
C8    1    0.566159    0.503866    0.857265    11.00000    0.01955    0.01736 =
         0.00995    0.00705    0.00416    0.00829
AFIX  43
H8    2    0.424577    0.478564    0.844703    11.00000   -1.20000
AFIX   0
C9    1    0.713139    0.700181    0.895732    11.00000    0.02385    0.01642 =
         0.00976    0.00483    0.00086    0.00699
AFIX  93
H9A   2    0.855638    0.728912    0.908863    11.00000   -1.20000
H9B   2    0.673315    0.808590    0.909473    11.00000   -1.20000
AFIX   0
HKLF 5
REM  mys3901_twin_twin1_hklf4a_a.res in P-1
REM R1 =  0.0343 for    6900 Fo > 4sig(Fo)  and  0.0466 for all    8459 data
REM    141 parameters refined using      0 restraints
END
WGHT      0.0610      0.0000
REM Instructions for potential hydrogen bonds
HTAB N2 O1_$4
HTAB N2 O2_$4
HTAB N2 N1_$4
HTAB C6 O2_$1
HTAB C6 O3_$2
HTAB C7 O3_$3
HTAB C8 O3
HTAB C8 N1
REM Highest difference peak  0.881,  deepest hole -1.032,  1-sigma level  0.123
Q1    1   0.7012  0.5978  0.6722  11.00000  0.05    0.88
Q2    1   0.4614  0.5601  0.6917  11.00000  0.05    0.80
Q3    1   0.6589  0.5386  0.6964  11.00000  0.05    0.80
Q4    1   0.3462  0.0538  0.8325  11.00000  0.05    0.73
Q5    1   0.5478  0.6968  0.7316  11.00000  0.05    0.61
Q6    1   0.5814  0.3971  0.8382  11.00000  0.05    0.60
Q7    1   0.3224 -0.0640  0.4610  11.00000  0.05    0.58
Q8    1   0.5379  0.6365  0.7791  11.00000  0.05    0.57
Q9    1   0.7063  0.7968  0.9555  11.00000  0.05    0.54
Q10   1   0.7296  0.6727  0.7316  11.00000  0.05    0.53
Q11   1   0.4307  0.4801  0.6397  11.00000  0.05    0.52
Q12   1   0.3357  0.6068  0.6835  11.00000  0.05    0.52
Q13   1   0.3631  0.2024  0.5824  11.00000  0.05    0.50
Q14   1   0.6739  0.6091  0.7738  11.00000  0.05    0.50
Q15   1   0.6026  0.4613  0.6235  11.00000  0.05    0.50
Q16   1   0.8016  0.5442  0.6765  11.00000  0.05    0.49
Q17   1   0.1361  0.8426  0.8769  11.00000  0.05    0.49
Q18   1   0.0369 -0.2569  0.1157  11.00000  0.05    0.48
Q19   1   0.2545  0.1309  0.3994  11.00000  0.05    0.48
Q20   1   0.0779 -0.1258  0.4862  11.00000  0.05    0.48
;
_shelx_res_checksum              23784
loop_
_space_group_symop_operation_xyz
'x, y, z'
'-x, -y, -z'
loop_
_atom_site_type_symbol
_atom_site_label
_atom_site_fract_x
_atom_site_fract_y
_atom_site_fract_z
_atom_site_U_iso_or_equiv
_atom_site_adp_type
_atom_site_calc_flag
_atom_site_occupancy
Cu Cu1 0.57775(3) 0.57834(3) 0.68133(2) 0.01261(7) Uani d 1
S S1 0.18975(7) -0.09982(7) 0.47322(5) 0.01402(10) Uani d 1
O O1 0.2950(3) 0.6861(3) 0.6800(2) 0.0308(4) Uani d 1
O O2 0.2567(3) 0.8531(3) 0.8713(2) 0.0348(4) Uani d 1
O O3 0.1088(3) 0.5240(3) 0.7949(2) 0.0312(4) Uani d 1
N N1 0.2182(3) 0.6865(3) 0.7824(2) 0.0193(4) Uani d 1
N N2 0.4533(3) 0.1392(3) 0.72781(19) 0.0161(3) Uani d 1
H H2 0.411(4) 0.037(4) 0.746(3) 0.019 Uiso d 1
N N3 0.4220(2) 0.2864(2) 0.55566(17) 0.0122(3) Uani d 1
N N4 0.3167(2) 0.2273(2) 0.41582(17) 0.0123(3) Uani d 1
C C2 0.3733(3) 0.1302(3) 0.6002(2) 0.0127(3) Uani d 1
C C5 0.1895(3) 0.0338(3) 0.3607(2) 0.0134(3) Uani d 1
C C6 0.0538(3) -0.0697(3) 0.2141(2) 0.0177(4) Uani d 1
H H6A 0.1375 -0.0900 0.1497 0.027 Uiso calc 1
H H6B -0.0103 0.0155 0.1914 0.027 Uiso calc 1
H H6C -0.0551 -0.2026 0.2048 0.027 Uiso calc 1
C C7 0.6182(3) 0.3254(3) 0.8338(2) 0.0161(4) Uani d 1
H H7A 0.7481 0.3591 0.8043 0.019 Uiso calc 1
H H7B 0.6431 0.3010 0.9231 0.019 Uiso calc 1
C C8 0.5662(3) 0.5039(3) 0.8573(2) 0.0150(4) Uani d 1
H H8 0.4246 0.4786 0.8447 0.018 Uiso calc 1
C C9 0.7131(3) 0.7002(3) 0.8957(2) 0.0177(4) Uani d 1
H H9A 0.8556 0.7289 0.9089 0.021 Uiso calc 1
H H9B 0.6733 0.8086 0.9095 0.021 Uiso calc 1
loop_
_atom_site_aniso_label
_atom_site_aniso_U_11
_atom_site_aniso_U_22
_atom_site_aniso_U_33
_atom_site_aniso_U_12
_atom_site_aniso_U_13
_atom_site_aniso_U_23
Cu1 0.01666(12) 0.00964(10) 0.00970(11) 0.00374(9) 0.00286(9) 0.00403(8)
S1 0.0159(2) 0.00918(18) 0.0168(2) 0.00455(16) 0.00471(18) 0.00559(17)
O1 0.0361(10) 0.0419(10) 0.0367(10) 0.0264(9) 0.0210(8) 0.0279(9)
O2 0.0434(11) 0.0194(8) 0.0398(11) 0.0152(7) 0.0100(9) 0.0064(8)
O3 0.0275(9) 0.0200(7) 0.0523(12) 0.0074(7) 0.0187(8) 0.0224(8)
N1 0.0164(8) 0.0178(8) 0.0296(10) 0.0088(7) 0.0069(7) 0.0148(8)
N2 0.0208(8) 0.0123(7) 0.0162(8) 0.0057(6) 0.0053(6) 0.0087(7)
N3 0.0162(7) 0.0104(6) 0.0098(7) 0.0051(6) 0.0036(6) 0.0045(6)
N4 0.0151(7) 0.0098(6) 0.0109(7) 0.0042(5) 0.0039(6) 0.0036(6)
C2 0.0136(8) 0.0102(7) 0.0153(9) 0.0050(6) 0.0054(7) 0.0055(7)
C5 0.0152(8) 0.0103(7) 0.0153(9) 0.0057(7) 0.0049(7) 0.0050(7)
C6 0.0184(9) 0.0112(7) 0.0168(9) 0.0028(7) -0.0007(7) 0.0029(7)
C7 0.0198(9) 0.0165(8) 0.0134(9) 0.0082(7) 0.0034(7) 0.0074(7)
C8 0.0195(9) 0.0174(8) 0.0099(8) 0.0083(7) 0.0042(7) 0.0070(7)
C9 0.0238(10) 0.0164(8) 0.0098(8) 0.0070(7) 0.0009(7) 0.0048(7)
loop_
_atom_type_symbol
_atom_type_description
_atom_type_scat_dispersion_real
_atom_type_scat_dispersion_imag
_atom_type_scat_source
C C 0.0033 0.0016 'International Tables Vol C Tables 4.2.6.8 and 6.1.1.4'
H H 0.0000 0.0000 'International Tables Vol C Tables 4.2.6.8 and 6.1.1.4'
Cu Cu 0.3201 1.2651 'International Tables Vol C Tables 4.2.6.8 and 6.1.1.4'
N N 0.0061 0.0033 'International Tables Vol C Tables 4.2.6.8 and 6.1.1.4'
O O 0.0106 0.0060 'International Tables Vol C Tables 4.2.6.8 and 6.1.1.4'
S S 0.1246 0.1234 'International Tables Vol C Tables 4.2.6.8 and 6.1.1.4'
loop_
_exptl_crystal_face_index_h
_exptl_crystal_face_index_k
_exptl_crystal_face_index_l
_exptl_crystal_face_perp_dist
1 0 13 0.0830
2 3 -14 0.1199
-2 -9 8 0.0806
-6 -2 13 0.1466
-1 10 0 0.0583
-1 0 -13 0.1039
7 2 -12 0.1990
2 -8 -4 0.0768
-1 5 -14 0.1192
1 -5 14 0.0867
4 7 -6 0.1363
-1 10 -6 0.0769
9 -8 0 0.1648
0 -9 1 0.0664
-8 1 -5 0.1786
-10 1 3 0.1970
8 -1 4 0.1518
loop_
_geom_angle_atom_site_label_1
_geom_angle_atom_site_label_2
_geom_angle_atom_site_label_3
_geom_angle_site_symmetry_1
_geom_angle_site_symmetry_3
_geom_angle
N3 Cu1 C8 . . 92.55(8)
N3 Cu1 C9 . . 129.43(8)
N4 Cu1 N3 2_666 . 114.48(7)
N4 Cu1 C8 2_666 . 152.33(8)
N4 Cu1 C9 2_666 . 113.75(9)
C8 Cu1 C9 . . 38.62(8)
C5 S1 C2 . . 87.58(10)
O2 N1 O1 . . 118.97(19)
O3 N1 O1 . . 120.4(2)
O3 N1 O2 . . 120.6(2)
C2 N2 H2 . . 118.5(18)
C2 N2 C7 . . 122.94(18)
C7 N2 H2 . . 118.6(18)
N4 N3 Cu1 . . 122.79(13)
C2 N3 Cu1 . . 123.96(14)
C2 N3 N4 . . 112.03(15)
N3 N4 Cu1 . 2_666 117.17(12)
C5 N4 Cu1 . 2_666 127.96(15)
C5 N4 N3 . . 113.16(17)
N2 C2 S1 . . 121.22(15)
N3 C2 S1 . . 113.25(15)
N3 C2 N2 . . 125.52(18)
N4 C5 S1 . . 113.95(16)
N4 C5 C6 . . 124.60(19)
C6 C5 S1 . . 121.45(14)
C5 C6 H6A . . 109.5
C5 C6 H6B . . 109.5
C5 C6 H6C . . 109.5
H6A C6 H6B . . 109.5
H6A C6 H6C . . 109.5
H6B C6 H6C . . 109.5
N2 C7 H7A . . 109.1
N2 C7 H7B . . 109.1
N2 C7 C8 . . 112.34(17)
H7A C7 H7B . . 107.9
C8 C7 H7A . . 109.1
C8 C7 H7B . . 109.1
Cu1 C8 H8 . . 92.0
C7 C8 Cu1 . . 105.91(14)
C7 C8 H8 . . 118.6
C9 C8 Cu1 . . 72.10(13)
C9 C8 C7 . . 122.76(19)
C9 C8 H8 . . 118.6
Cu1 C9 H9A . . 106.6
Cu1 C9 H9B . . 93.9
C8 C9 Cu1 . . 69.28(13)
C8 C9 H9A . . 120.0
C8 C9 H9B . . 120.0
H9A C9 H9B . . 120.0
loop_
_geom_bond_atom_site_label_1
_geom_bond_atom_site_label_2
_geom_bond_site_symmetry_2
_geom_bond_distance
Cu1 N3 . 1.9940(19)
Cu1 N4 2_666 1.9690(18)
Cu1 C8 . 2.038(2)
Cu1 C9 . 2.073(2)
S1 C2 . 1.741(2)
S1 C5 . 1.727(2)
O1 N1 . 1.259(3)
O2 N1 . 1.243(2)
O3 N1 . 1.233(2)
N2 H2 . 0.80(3)
N2 C2 . 1.331(3)
N2 C7 . 1.458(3)
N3 N4 . 1.393(2)
N3 C2 . 1.319(3)
N4 Cu1 2_666 1.9690(18)
N4 C5 . 1.299(2)
C5 C6 . 1.491(3)
C6 H6A . 0.9800
C6 H6B . 0.9800
C6 H6C . 0.9800
C7 H7A . 0.9900
C7 H7B . 0.9900
C7 C8 . 1.502(3)
C8 H8 . 0.9500
C8 C9 . 1.360(3)
C9 H9A . 0.9500
C9 H9B . 0.9500
loop_
_geom_hbond_atom_site_label_D
_geom_hbond_atom_site_label_H
_geom_hbond_atom_site_label_A
_geom_hbond_site_symmetry_A
_geom_hbond_distance_DH
_geom_hbond_distance_HA
_geom_hbond_distance_DA
_geom_hbond_angle_DHA
_geom_hbond_publ_flag
N2 H2 O1 1_545 0.80(3) 2.32(3) 3.034(3) 150(2) yes
N2 H2 O2 1_545 0.80(3) 2.24(3) 2.970(3) 153(2) yes
N2 H2 N1 1_545 0.80(3) 2.63(3) 3.426(3) 172(2) no
C6 H6B O2 2_566 0.98 2.44 3.391(3) 164.3 no
C6 H6C O3 2_556 0.98 2.31 3.142(3) 142.6 no
C7 H7A O3 1_655 0.99 2.45 3.415(3) 163.6 no
C8 H8 O3 . 0.95 2.44 3.350(3) 159.9 no
C8 H8 N1 . 0.95 2.68 3.391(3) 132.5 no
loop_
_geom_torsion_atom_site_label_1
_geom_torsion_atom_site_label_2
_geom_torsion_atom_site_label_3
_geom_torsion_atom_site_label_4
_geom_torsion_site_symmetry_1
_geom_torsion_site_symmetry_4
_geom_torsion
Cu1 N3 N4 Cu1 . 2_666 27.76(18)
Cu1 N3 N4 C5 . . -165.92(13)
Cu1 N3 C2 S1 . . 166.41(9)
Cu1 N3 C2 N2 . . -14.2(3)
Cu1 N4 C5 S1 2_666 . 162.81(10)
Cu1 N4 C5 C6 2_666 . -16.9(3)
N2 C7 C8 Cu1 . . -70.33(19)
N2 C7 C8 C9 . . -149.0(2)
N3 N4 C5 S1 . . -1.7(2)
N3 N4 C5 C6 . . 178.57(17)
N4 N3 C2 S1 . . -1.3(2)
N4 N3 C2 N2 . . 178.15(18)
C2 S1 C5 N4 . . 0.82(15)
C2 S1 C5 C6 . . -179.44(17)
C2 N2 C7 C8 . . 52.9(3)
C2 N3 N4 Cu1 . 2_666 -164.39(13)
C2 N3 N4 C5 . . 1.9(2)
C5 S1 C2 N2 . . -179.15(17)
C5 S1 C2 N3 . . 0.30(15)
C7 N2 C2 S1 . . 175.35(14)
C7 N2 C2 N3 . . -4.0(3)
C7 C8 C9 Cu1 . . 97.74(19)
