#------------------------------------------------------------------------------
#$Date: 2016-07-01 04:33:22 +0300 (Fri, 01 Jul 2016) $
#$Revision: 184084 $
#$URL: file:///home/coder/svn-repositories/cod/cif/2/02/05/2020545.cif $
#------------------------------------------------------------------------------
#
# This file is available in the Crystallography Open Database (COD),
# http://www.crystallography.net/. The original data for this entry
# were provided by IUCr Journals, http://journals.iucr.org/.
#
# The file may be used within the scientific community so long as
# proper attribution is given to the journal article from which the
# data were obtained.
#
data_2020545
loop_
_publ_author_name
'Galica, Tomasz'
'Bakowicz, Julia'
'Broda, Piotr'
'Turowska-Tyrk, Ilona'
_publ_section_title
;
 Monitoring photo-induced transformations in crystals of
 2,6-difluorocinnamic acid under ambient conditions
;
_journal_coeditor_code           YF3104
_journal_issue                   7
_journal_name_full               'Acta Crystallographica Section C'
_journal_page_first              593
_journal_page_last               599
_journal_paper_doi               10.1107/S2053229616010019
_journal_volume                  72
_journal_year                    2016
_chemical_formula_iupac          '0.858C9 H6 F2 O2, 0.071C18 H12 F4 O4'
_chemical_formula_moiety         '0.858(C9 H6 F2 O2), 0.071(C18 H12 F4 O4)'
_chemical_formula_sum            'C9 H6 F2 O2'
_chemical_formula_weight         184.14
_chemical_name_systematic
;
2,6-Difluorocinnamic
acid--3,4-bis(2,6-difluorophenyl)cyclobutane-1,2-dicarboxylic acid
(0.858/0.071)
;
_space_group_crystal_system      monoclinic
_space_group_IT_number           14
_space_group_name_Hall           '-P 2ybc'
_space_group_name_H-M_alt        'P 1 21/c 1'
_symmetry_space_group_name_Hall  '-P 2ybc'
_symmetry_space_group_name_H-M   'P 1 21/c 1'
_atom_sites_solution_hydrogens   mixed
_atom_sites_solution_primary     direct
_atom_sites_solution_secondary   difmap
_audit_creation_method           SHELXL-2014/7
_cell_angle_alpha                90
_cell_angle_beta                 92.873(14)
_cell_angle_gamma                90
_cell_formula_units_Z            4
_cell_length_a                   3.8860(6)
_cell_length_b                   19.185(4)
_cell_length_c                   11.1567(14)
_cell_measurement_reflns_used    517
_cell_measurement_temperature    299(2)
_cell_measurement_theta_max      23.2480
_cell_measurement_theta_min      3.6430
_cell_volume                     830.7(2)
_computing_cell_refinement
;
CrysAlis PRO (Agilent, 2014)
;
_computing_data_collection
;
CrysAlis PRO (Agilent, 2014)
;
_computing_data_reduction
;
CrysAlis PRO (Agilent, 2014)
;
_computing_molecular_graphics
;
ORTEP-3 for Windows (Farrugia, 2012),
and Mercury (Macrae <i>et al.</i>,  2006) and
<i>CrystalExplorer</i> (Wolff <i>et al.</i>,  2012)
;
_computing_publication_material
;
SHELXL2014 (Sheldrick, 2015)
;
_computing_structure_refinement
;
SHELXL2014 (Sheldrick, 2015)
;
_computing_structure_solution
;
SHELXS2013 (Sheldrick, 2008)
;
_diffrn_ambient_temperature      299(2)
_diffrn_detector_area_resol_mean 15.9718
_diffrn_measured_fraction_theta_full 0.959
_diffrn_measured_fraction_theta_max 0.959
_diffrn_measurement_device_type  'KM-4 with an Eos CCD'
_diffrn_measurement_method       '\w scans'
_diffrn_radiation_monochromator  graphite
_diffrn_radiation_type           MoK\a
_diffrn_radiation_wavelength     0.71073
_diffrn_reflns_av_R_equivalents  0.0468
_diffrn_reflns_limit_h_max       4
_diffrn_reflns_limit_h_min       -4
_diffrn_reflns_limit_k_max       21
_diffrn_reflns_limit_k_min       -22
_diffrn_reflns_limit_l_max       12
_diffrn_reflns_limit_l_min       -13
_diffrn_reflns_number            2470
_diffrn_reflns_theta_full        24.989
_diffrn_reflns_theta_max         24.989
_diffrn_reflns_theta_min         2.114
_exptl_absorpt_coefficient_mu    0.133
_exptl_absorpt_correction_T_max  1.000
_exptl_absorpt_correction_T_min  0.493
_exptl_absorpt_correction_type   multi-scan
_exptl_absorpt_process_details
;
(Scale3 AbsPack; Agilent, 2014)
;
_exptl_crystal_colour            colourless
_exptl_crystal_density_diffrn    1.472
_exptl_crystal_description       block
_exptl_crystal_F_000             376
_exptl_crystal_size_max          0.62
_exptl_crystal_size_mid          0.25
_exptl_crystal_size_min          0.12
_refine_diff_density_max         0.179
_refine_diff_density_min         -0.155
_refine_ls_extinction_method     none
_refine_ls_goodness_of_fit_ref   1.038
_refine_ls_hydrogen_treatment    constr
_refine_ls_matrix_type           full
_refine_ls_number_parameters     182
_refine_ls_number_reflns         1413
_refine_ls_number_restraints     199
_refine_ls_restrained_S_all      0.989
_refine_ls_R_factor_all          0.1304
_refine_ls_R_factor_gt           0.0742
_refine_ls_shift/su_max          0.001
_refine_ls_shift/su_mean         0.000
_refine_ls_structure_factor_coef Fsqd
_refine_ls_weighting_details
'w=1/[\s^2^(Fo^2^)+(0.1209P)^2^+0.0466P] where P=(Fo^2^+2Fc^2^)/3'
_refine_ls_weighting_scheme      calc
_refine_ls_wR_factor_gt          0.1879
_refine_ls_wR_factor_ref         0.2326
_reflns_number_gt                772
_reflns_number_total             1413
_reflns_threshold_expression     'I > 2\s(I)'
_cod_data_source_file            yf3104sup1.cif
_cod_data_source_block           II
_cod_database_code               2020545
_shelx_space_group_comment
;
The symmetry employed for this shelxl refinement is uniquely defined
by the following loop, which should always be used as a source of
symmetry information in preference to the above space-group names.
They are only intended as comments.
;
_shelx_estimated_absorpt_t_min   0.922
_shelx_estimated_absorpt_t_max   0.984
_shelx_hkl_file
;
   0   0  -1 103.193 82.7702   2
   0   0  -2 452663. 3806.24   2
   0   0  -3 291.290 169.654   2
   0   0  -4 688.832 219.665   2
   0   0  -5-41.8145 143.100   2
   0   0  -6 28048.6 1617.93   2
   0   0  -6 26133.3 859.790   5
   0   0  -7-128.336 267.325   2
   0   0  -7-338.385 136.921   5
   0   0  -7-56.2897 135.192  10
   0   0  -8 5578.93 458.173  10
   0   0  -8 5400.91 465.151   5
   0   0  -9-262.304 159.162   5
   0   0 -10 139.417 137.621   5
   0   0 -11 18.1048 133.099   5
   0   0 -12 614.455 253.397   5
   0   0 -13 72.3815 179.220   5
   0   1  -1 17784.7 597.575   2
   0   1  -2 366962. 3406.19   2
   0   1  -3 5242.54 515.779   2
   0   1  -4 6654.32 655.563   2
   0   1  -5 23594.5 1366.03   2
   0   1  -6 7149.63 449.291   5
   0  -1  -6 7790.63 477.704   5
   0   1  -6 6979.18 824.568   2
   0   1  -7 158.428 99.6074  10
   0   1  -7 259.953 139.311   5
   0  -1  -7 40.9095 116.650   5
   0  -1  -7 20.5133 119.349  10
   0   1  -8 4556.28 822.910   2
   0   1  -8 4587.55 428.926   5
   0   1  -8 4887.92 452.652  10
   0  -1  -8 4854.25 444.216   5
   0  -1  -9 3649.59 417.502   5
   0   1  -9 3615.55 410.827   5
   0   1 -10 2394.48 372.744   5
   0  -1 -10 3177.45 410.487   5
   0  -1 -11 1763.96 334.303   5
   0   1 -11 1939.47 342.459   5
   0   1 -12 115.962 148.291   5
   0  -1 -12 84.0108 160.546   5
   0   1 -13 574.945 282.864   5
   0  -1 -13 278.869 240.199   5
   0   2   0 450012. 2878.23   1
   0   2  -2 84786.4 1809.64   2
   0   2  -3 293320. 3841.70   2
   0   2  -4 69568.8 2108.80   2
   0   2  -5 36997.5 1721.86   2
   0   2  -6 60265.8 1356.93   5
   0   2  -6 61823.1 2446.28   2
   0  -2  -6 62567.8 1360.59   5
   0  -2  -7 49174.2 1327.60   5
   0   2  -7 51348.7 2398.01   2
   0  -2  -7 51767.5 1268.86  10
   0   2  -7 50928.5 1292.22   5
   0   2  -8 196.199 117.698   5
   0  -2  -8 242.124 126.201   5
   0   2  -8 502.858 287.757   2
   0   2  -9 527.833 178.151   5
   0  -2  -9 626.069 182.007   5
   0   2 -10 1726.97 303.308   5
   0  -2 -10 1533.47 294.549   5
   0  -2 -11-58.8485 154.542   5
   0   2 -11-157.012 172.866   5
   0  -2 -12 288.829 178.328   5
   0   2 -12 38.3245 149.165   5
   0  -2 -13 39.0991 145.127   5
   0   2 -13-114.120 165.230   5
   0   3   0 147.963 110.724   1
   0   3  -1 367597. 3445.04   1
   0   3  -2 175478. 2714.94   2
   0   3  -3 39740.9 1487.40   2
   0   3  -4 96728.1 2538.84   2
   0   3  -5 447.965 240.188   2
   0  -3  -6 17330.7 738.830   5
   0   3  -6 17925.0 743.672   5
   0   3  -6 16442.6 1282.82   2
   0   3  -7 1610.86 474.336   2
   0   3  -7 1501.04 256.966   5
   0  -3  -7 1757.53 268.671   5
   0  -3  -7 1553.67 265.659  10
   0   3  -8 7493.86 545.552   5
   0  -3  -8 7404.27 555.624   5
   0   3  -8 8784.92 1090.56   2
   0  -3  -9 2890.08 373.753   5
   0   3  -9 2610.38 365.083   5
   0   3 -10 2416.35 380.051   5
   0  -3 -10 2833.26 399.938   5
   0   3 -11 1991.04 367.383   5
   0  -3 -11 2254.63 394.157   5
   0   3 -12 1172.52 314.603   5
   0   3 -13 14.6529 201.779   5
   0   4   0 110698. 2068.09   1
   0   4  -1 285.091 197.955   1
   0   4   1 152.059 144.901   1
   0   4  -2 179296. 2932.01   2
   0   4  -3 225349. 3765.48   2
   0   4  -4 1053.97 316.249   2
   0   4  -5 5910.18 724.205   2
   0   4  -6 14174.5 684.459   5
   0   4  -6 13434.1 1166.12   2
   0  -4  -7 864.923 177.341  10
   0   4  -7 1036.89 222.995   5
   0   4  -7 927.075 364.546   2
   0   4  -8-47.1863 101.173   5
   0   4  -8 456.319 367.374   2
   0   4  -9 4134.76 453.030   5
   0   4 -10 2446.22 386.700   5
   0   4 -11 3519.05 493.935   5
   0   4 -12 113.681 190.511   5
   0   4 -13 393.341 273.487   5
   0   5   0-124.558 165.303   1
   0   5  -1 78246.3 2006.76   1
   0   5   1 78893.5 2009.20   1
   0   5  -3 3481.47 485.783   2
   0   5  -4 39474.0 1786.77   2
   0   5  -5 23027.7 1436.79   2
   0   5  -5 23947.5 827.202   5
   0   5  -6 63411.9 1440.69   5
   0   5  -6 63493.0 2581.71   2
   0  -5  -6 62314.6 1362.73  10
   0   5  -7 5455.86 835.849   2
   0  -5  -7 5469.85 428.001  10
   0   5  -7 5394.04 455.571   5
   0   5  -8 3095.13 740.464   2
   0   5  -8 2836.44 361.387   5
   0   5  -9 1802.91 321.569   5
   0   5 -10 757.612 241.815   5
   0   5 -11 3135.73 442.944   5
   0   5 -12 118.123 186.060   5
   0   5 -13 275.366 230.045   5
   0   6   0 123786. 2636.42   1
   0   6  -1 864.778 268.632   1
   0   6   1 564.211 213.534   1
   0   6   2 15485.8 1046.25   1
   0   6  -3 2348.93 438.246   2
   0   6  -4 242093. 4636.54   2
   0   6  -5 5372.64 744.453   2
   0   6  -5 5269.72 417.082   5
   0   6  -6 941.903 195.837   5
   0   6  -6 993.192 354.407   2
   0  -6  -6 1000.05 205.823  10
   0  -6  -7 418.167 156.207  10
   0   6  -7 389.635 156.684   5
   0   6  -7 284.705 309.065   2
   0   6  -8 5917.08 987.156   2
   0   6  -8 5095.50 493.052   5
   0   6  -9 4334.85 482.399   5
   0   6 -10 13720.9 872.792   5
   0   6 -11 460.652 224.867   5
   0   6 -12 416.631 239.229   5
   0   6 -13 463.362 228.305   5
   0   7   0 96.4789 176.207   1
   0   7  -1 43810.2 1750.16   1
   0   7   1 46070.8 1802.00   1
   0   7  -2 13623.8 1000.42   1
   0   7   2 13605.0 1045.20   1
   0   7  -3 104939. 2906.47   2
   0   7  -4 66251.5 2486.93   2
   0   7  -4 67554.8 1440.77   5
   0   7  -5 60283.4 1434.62   5
   0   7  -5 61436.3 2632.36   2
   0  -7  -6 220.678 121.719  10
   0   7  -6 335.159 243.859   2
   0   7  -6 105.246 99.7316   5
   0   7  -7 1295.41 261.822   5
   0  -7  -7 1715.11 277.326  10
   0   7  -7 2039.55 584.859   2
   0   7  -8 1263.07 270.738   5
   0   7  -9 46.7548 115.755   5
   0   7 -10 874.101 270.970   5
   0   7 -11 2257.32 417.914   5
   0   7 -12 301.691 232.582   5
   0   7 -13 339.190 232.482   5
   0   8   0 273063. 4525.59   1
   0   8   1 355300. 5375.06   1
   0   8  -1 350140. 5313.03   1
   0   8  -2 163099. 3715.90   1
   0   8   2 161470. 3757.40   1
   0   8   3 66230.0 2567.58   1
   0   8  -4 97264.6 3130.47   2
   0   8  -4 97631.5 1792.41   5
   0   8  -5 1974.17 515.018   2
   0   8  -5 2169.12 297.412   5
   0   8  -6 5448.46 854.260   2
   0  -8  -6 5461.03 449.811  10
   0   8  -6 4845.46 453.922   5
   0   8  -7 14484.8 1446.51   2
   0   8  -7 12223.3 767.943   5
   0   8  -8 7.24775 163.534   5
   0   8  -9 355.006 159.686   5
   0   8 -10 248.431 203.741   5
   0   8 -11 1909.56 394.382   5
   0   8 -12 472.058 250.312   5
   0   8 -13 362.811 295.425   5
   0   9   0 95.0361 164.736   1
   0   9  -1 41722.1 1966.41   1
   0   9   1 41879.3 1965.94   1
   0   9  -2 1874.48 483.090   1
   0   9   2 1339.00 440.570   1
   0   9   3 19828.6 1461.44   1
   0   9  -3 19824.1 823.624   5
   0   9  -4 506.735 234.423   2
   0   9  -4 563.498 164.420   5
   0   9  -5 2374.81 336.611   5
   0   9  -5 2725.05 604.489   2
   0   9  -6 15621.2 1550.50   2
   0   9  -6 14687.0 799.693   5
   0  -9  -6 17535.8 807.108  10
   0   9  -7 491.894 204.125   5
   0   9  -7 539.667 331.825   2
   0   9  -8 16.8091 126.654   5
   0   9  -9 254.105 163.677   5
   0   9 -10 1872.01 371.254   5
   0   9 -11 131.960 177.892   5
   0   9 -12 719.381 303.322   5
   0   9 -13 183.149 288.010   5
   0  10   0 830.054 334.608   1
   0  10   1 24258.9 1592.43   1
   0 -10  -1 26811.6 1585.61   9
   0  10  -1 25016.2 1594.61   1
   0 -10  -2 43319.1 2220.04   9
   0  10  -2 43526.9 2192.30   1
   0  10   2 40582.4 2137.02   1
   0  10   3 7438.76 956.443   1
   0 -10  -3 2543.63 998.133   9
   0  10   4 7235.56 1062.08   1
   0  10  -4 7298.99 976.007   2
   0  10  -4 8027.01 557.339   5
   0  10  -5 1846.29 557.611   2
   0  10  -5 1469.73 262.632   5
   0  10  -6 617.848 388.903   2
   0  10  -6 382.931 176.755   5
   0  10  -7 31195.8 1222.14   5
   0  10  -8 19803.2 1026.17   5
   0  10  -9 5159.95 567.990   5
   0  10 -10 380.483 217.790   5
   0  10 -11 63.2415 180.429   5
   0  10 -12-135.837 184.355   5
   0  11   0-195.444 280.085   1
   0  11   1 20442.0 1556.29   1
   0  11  -1 19841.6 1548.38   1
   0  11   2 21215.5 1621.46   1
   0  11  -2 23784.3 1734.41   1
   0 -11  -2 19990.4 1642.28   9
   0 -11  -3 35630.3 2187.89   9
   0  11   3 50393.6 2530.44   1
   0  11   4 6018.16 949.553   1
   0  11  -4 5504.77 897.021   2
   0  11  -4 5441.47 504.058   5
   0  11   5-102.666 323.442   1
   0  11  -5-49.3634 239.424   2
   0  11  -5 139.112 125.663   5
   0  11  -6 13779.9 1599.84   2
   0  11  -6 12747.7 788.104   5
   0  11  -7 2143.64 362.823   5
   0  11  -8 224.282 184.919   5
   0  11  -9 1508.16 329.100   5
   0  11 -10-42.8120 177.908   5
   0  11 -11 25.1675 247.008   5
   0  11 -12 36.4673 205.672   5
   0  12   0 62536.0 2748.29   1
   0  12  -1 4962.23 795.068   1
   0  12   1 4476.69 767.356   1
   0  12  -2 38466.9 2409.14   1
   0  12   2 35990.7 2200.72   1
   0 -12  -3 740.829 777.079   9
   0  12   3 1651.96 539.124   1
   0  12  -4 4705.45 482.888   5
   0  12   4 5019.50 942.318   1
   0  12  -5 842.620 396.636   2
   0  12  -5 322.298 163.418   5
   0  12   5 402.398 345.738   1
   0  12  -6-128.945 144.275   5
   0  12  -7 7922.09 671.697   5
   0  12  -8 2101.55 387.292   5
   0  12  -9 62.7029 167.443   5
   0  12 -10 557.794 280.346   5
   0  12 -11 749.293 327.811   5
   0  12 -12 638.734 317.802   5
   0  13   0 45.4435 251.215   1
   0 -13  -1 3196.54 567.730   9
   0  13  -1 2057.09 573.185   1
   0  13   1 2058.13 549.977   1
   0  13  -2 17056.0 1653.50   1
   0  13   2 18383.7 1676.23   1
   0 -13  -3 72.5561 519.996   9
   0  13   3 316.036 378.487   1
   0  13  -4 2040.05 340.443   5
   0  13   4 2740.16 695.728   1
   0  13  -5 1842.36 333.916   5
   0  13  -6 130.447 140.117   5
   0  13  -7 13027.0 911.160   5
   0  13  -8 1017.79 281.639   5
   0  13  -9 417.762 274.611   5
   0  13 -10 376.892 282.305   5
   0  13 -11 603.929 375.860   5
   0  14   0 9.03598 367.608   1
   0  14  -1 1841.15 584.738   1
   0 -14  -1 256.328 529.259   9
   0  14   1 1864.58 566.662   1
   0  14   2 25411.2 2110.31   1
   0  14  -2 27809.9 2227.19   1
   0 -14  -3 9375.69 1454.78   9
   0  14   3 7626.00 1211.14   1
   0 -14  -4 1200.10 739.716   9
   0  14  -4 6263.61 602.233   5
   0  14  -5 417.333 184.631   5
   0  14  -6-80.7458 141.765   5
   0  14  -7 1394.49 347.271   5
   0  14  -8 1166.11 324.428   5
   0  14  -9 2289.17 462.971   5
   0  14 -10 765.389 307.440   5
   0  14 -11 550.889 292.692   5
   0  15   0 316.462 375.447   1
   0 -15  -1 3.00586 345.246   9
   0  15  -1 1959.77 680.597   1
   0  15   1 1571.68 624.288   1
   0  15   2 7238.26 1266.14   1
   0  15  -2 7079.93 1260.06   1
   0 -15  -3 12019.5 1838.41   9
   0 -15  -4 24906.5 2110.48   9
   0  15  -4 15584.6 970.444   5
   0  15  -5 836.072 248.714   5
   0  15  -6 55.2741 166.914   5
   0  15  -7 574.314 247.347   5
   0  15  -8 526.269 234.543   5
   0  15  -9-27.0047 199.982   5
   0  15 -10 456.806 331.134   5
   0  15 -11 85.4159 242.279   5
   0 -16  -1 1135.20 669.256   9
   0 -16  -2 38053.3 2463.09   9
   0 -16  -3 26699.5 2487.74   9
   0  16  -4 549.040 241.216   5
   0 -16  -4 200.030 519.343   9
   0  16  -5 661.744 238.006   5
   0  16  -6 77.8266 162.217   5
   0  16  -7 10.6196 179.368   5
   0  16  -8 201.305 267.636   5
   0  16  -9 495.928 248.497   5
   0  16 -10 483.196 356.298   5
   0 -17   0 219.034 522.295   9
   0 -17  -1 5699.49 914.674   9
   0 -17  -2 123.222 550.575   9
   0 -17  -3 1392.20 713.025   9
   0  17  -4 4474.04 570.107   5
   0 -17  -4 1171.20 1023.45   9
   0  17  -5 1828.33 386.592   5
   0  17  -6 268.843 243.398   5
   0  17  -7 289.905 251.847   5
   0  17  -8 84.3540 199.719   5
   0  17  -9 344.127 317.382   5
   0  17 -10 479.399 342.161   5
   0 -18   0-25.7968 464.526   9
   0 -18  -1 6059.66 1140.83   9
   0 -18  -2 543.138 464.076   9
   0 -18  -3 156.215 604.910   9
   0 -18  -4 245.844 545.146   9
   0  18  -4 652.738 286.216   5
   0  18  -5 151.265 224.166   5
   0  18  -6 514.381 267.257   5
   0  18  -7-80.3726 207.488   5
   0  18  -8 454.372 290.794   5
   0  18  -9 343.216 341.609   5
   0 -19   0 313.523 612.231   9
   0 -19  -1 171.137 519.945   9
   0 -19  -2 283.738 769.406   9
   0 -19  -3 618.470 819.513   9
   0 -19  -4-1334.58 762.697   9
   0  19  -4 383.717 258.287   5
   0  19  -5 529.493 283.979   5
   0  19  -6 186.690 241.890   5
   0  19  -7 272.709 302.868   5
   0  19  -8 42.9243 240.166   5
   0 -20   0 101.613 568.249   9
   0 -20  -1-11.2075 476.650   9
   0 -20  -2-9.54563 571.357   9
   0 -20  -3 416.188 812.347   9
   0  20  -4 58.4784 228.108   5
   0 -20  -4 187.933 811.699   9
   0  20  -5 927.684 390.625   5
   0  20  -6 218.630 245.345   5
   0  20  -7 125.732 277.853   5
   0  20  -8 834.618 400.957   5
   0 -21   0 77.0010 510.914   9
   0 -21  -1 284.898 568.076   9
   0 -21   1 62.0654 518.235   9
   0 -21  -2 86.9346 470.960   9
   0 -21  -3 169.641 734.167   9
   0 -21  -4 347.712 825.871   9
   0  21  -4 33.1620 226.928   5
   0  21  -5 684.561 358.402   5
   0  21  -6 233.115 329.753   5
   0  21  -7 69.8288 332.190   5
   0 -22   0-41.3835 642.076   9
   0 -22  -1 109.384 600.118   9
   0 -22   1 253.181 687.869   9
   0 -22  -2 39.1328 668.521   9
   0 -22  -3 40.3483 691.076   9
   0  22  -4 325.859 303.950   5
   0 -22  -4-80.4521 724.512   9
   0  22  -5 508.957 392.748   5
   0  22  -6 131.791 309.068   5
   0 -23   0 185.849 713.288   9
   0 -23   1 593.276 738.055   9
   0 -23  -1 133.364 630.259   9
   0 -23  -2-246.153 661.582   9
   0 -23   2 18.8681 600.549   9
   0 -23  -3-314.991 783.170   9
   0 -23  -4 28.5221 784.166   9
   0  23  -4-264.811 290.335   5
   1   0 -13 238.088 232.492   5
   1   0 -12-4.20114 147.071   5
   1   0 -11-144.803 169.605   5
   1   0 -10-116.579 123.929   5
   1   0  -9-93.1081 118.654   5
   1   0  -8-1.81329 122.419   5
   1   0  -7-98.3916 147.563   5
   1   0  -6 563.794 164.069   5
  -1   0   4 3429.81 446.017   3
  -1   0   3 283.915 189.965   3
  -1   0  -1 0.88601 87.3563   2
  -1   0  -2 47182.7 1312.28   2
  -1   0  -3-43.6442 157.732   2
  -1   0  -4 173523. 3407.06   2
  -1   0  -5-255.915 224.364   2
  -1   0  -5-65.7747 127.821  10
  -1   0  -6-206.009 145.520  10
  -1   0  -6 41.2893 110.476   5
  -1   0  -6 49.0195 151.365   2
  -1   0  -7-163.533 136.620  10
  -1   0  -7-92.0023 131.936   5
  -1   0  -7 0.65110 219.685   2
  -1   0  -8 57.5009 275.417   2
  -1   0  -8-48.0818 125.374   5
  -1   0  -8-13.7160 122.231  10
  -1   0  -9-332.998 191.564  10
  -1   0  -9-262.205 213.521   5
  -1   0 -10 100.394 171.818   5
  -1   0 -10-155.772 195.973  10
  -1   0 -11 144.858 148.852   5
  -1   0 -11 109.467 191.339  10
  -1   0 -12 91.2610 220.511   5
  -1   0 -12 483.748 288.043  10
  -1   0 -13-22.1498 205.661   5
   1  -1 -13-48.5364 180.053   5
   1   1 -13 204.618 169.924   5
   1   1 -12 684.831 279.013   5
   1  -1 -12 1221.96 322.261   5
   1   1 -11 741.131 260.764   5
   1  -1 -11 865.601 267.759   5
   1  -1 -10 131.133 139.660   5
   1   1 -10 102.045 125.594   5
   1  -1  -9 972.486 236.985   5
   1   1  -9 1084.88 247.631   5
   1  -1  -8 850.833 219.631   5
   1   1  -8 752.078 208.483   5
   1  -1  -7 3285.55 366.093   5
   1   1  -7 3787.11 380.018   5
   1  -1  -6 7330.83 482.782   5
   1   1  -6 7798.57 491.733   5
  -1   1   5 1442.60 353.241   3
  -1   1   4 1453.42 329.056   3
  -1   1   3 3293.77 434.552   3
  -1   1   2 328797. 3893.14   3
  -1   1   1 99837.7 1682.43   1
  -1   1   1 101555. 2102.29   3
  -1   1   0 999999. 4890.34   1
  -1   1  -1 54281.2 1291.20   2
  -1  -1  -1 51515.6 1076.14   2
  -1   1  -2 121.216 149.479   2
  -1  -1  -2 242.696 129.161   2
  -1  -1  -3 49930.6 1576.25   2
  -1   1  -3 49499.3 1655.54   2
  -1   1  -4-41.1074 170.174   2
  -1  -1  -4 63.2538 164.533   2
  -1  -1  -5 13007.4 1035.26   2
  -1   1  -5 13428.8 1067.90   2
  -1   1  -5 12151.6 604.860  10
  -1  -1  -5 12541.0 596.734  10
  -1  -1  -6 7038.04 845.354   2
  -1  -1  -6 6194.54 459.385  10
  -1  -1  -6 6943.36 453.591   5
  -1   1  -6 6908.15 857.475   2
  -1   1  -6 6742.41 460.115   5
  -1   1  -6 6705.70 486.205  10
  -1  -1  -7 180.179 128.052  10
  -1  -1  -7 343.506 269.498   2
  -1   1  -7 199.924 116.184  10
  -1  -1  -7 313.965 139.943   5
  -1   1  -7 337.078 206.248   2
  -1   1  -7 196.916 119.457   5
  -1   1  -8 353.942 167.594  10
  -1  -1  -8 643.140 192.805   5
  -1   1  -8 429.827 287.536   2
  -1  -1  -8 411.493 152.901  10
  -1   1  -8 395.611 170.569   5
  -1   1  -9 5188.98 484.609   5
  -1  -1  -9 5169.00 514.497  10
  -1  -1  -9 5021.58 488.781   5
  -1   1  -9 4943.35 513.117  10
  -1  -1 -10 164.410 139.236   5
  -1   1 -10 292.831 171.384  10
  -1  -1 -10 309.916 154.254  10
  -1   1 -10 172.551 137.617   5
  -1   1 -11 1335.80 346.770  10
  -1  -1 -11 1258.97 307.830   5
  -1  -1 -11 1246.44 335.938  10
  -1   1 -11 1156.56 303.235   5
  -1  -1 -12 2425.84 500.395  10
  -1   1 -12 2136.39 406.382   5
  -1   1 -13 311.543 257.463   5
   1  -2 -13 39.9255 166.660   5
   1   2 -13-80.4896 179.767   5
   1  -2 -12 150.456 192.551   5
   1   2 -12-361.893 234.244   5
   1   2 -11 443.742 200.281   5
   1  -2 -11 418.565 214.268   5
   1   2 -10 0.57057 132.530   5
   1  -2 -10 441.318 199.255   5
   1   2  -9 378.363 184.360   5
   1  -2  -9 390.223 177.479   5
   1   2  -8 541.325 199.606   5
   1  -2  -8 469.429 170.418   5
   1  -2  -7 2069.91 298.571   5
   1   2  -7 1819.54 289.826   5
   1   2  -7 2714.33 560.935   2
   1   2  -6 10021.4 579.040   5
   1   2  -6 11406.4 1038.45   2
   1  -2  -6 9529.29 576.017   5
   1   2  -5 21774.6 1321.51   2
  -1   2   5 25655.9 1305.84   3
   1   2  -4 20461.5 1138.67   2
  -1   2   4 21663.1 1158.49   3
   1   2  -3 35951.8 1292.45   2
  -1   2   3 35944.8 1421.26   3
   1   2  -2 88076.4 1597.38   2
  -1   2   2 86600.3 2106.87   3
  -1   2   1 512684. 4899.44   3
  -1   2   1 514973. 4352.02   1
  -1   2   0 66828.8 1725.34   3
  -1   2   0 66899.8 1493.39   1
  -1   2  -2 124748. 2458.63   2
  -1   2  -3 15461.4 983.377   2
  -1   2  -4 160407. 3367.53   2
  -1   2  -5 105250. 1764.91  10
  -1   2  -5 105023. 3029.38   2
  -1  -2  -5 105565. 1737.28  10
  -1   2  -6 8329.96 540.025  10
  -1   2  -6 8652.51 931.874   2
  -1   2  -6 9060.90 508.275   5
  -1  -2  -6 8424.75 539.226  10
  -1   2  -7 29040.1 1883.09   2
  -1  -2  -7 27043.1 1016.19  10
  -1  -2  -7 28013.2 1003.70   5
  -1   2  -7 27099.9 1043.55  10
  -1   2  -7 28307.1 993.359   5
  -1  -2  -8 3637.77 407.448   5
  -1  -2  -8 2686.89 365.368  10
  -1   2  -8 3052.23 364.212   5
  -1   2  -8 3182.89 401.376  10
  -1   2  -8 3014.64 661.209   2
  -1  -2  -9 6134.76 543.734   5
  -1   2  -9 5713.42 563.316  10
  -1   2  -9 5675.33 513.051   5
  -1  -2  -9 5496.45 544.559  10
  -1   2 -10 6680.49 640.500  10
  -1  -2 -10 7233.13 648.647  10
  -1   2 -10 6712.02 595.338   5
  -1   2 -11 213.072 152.647   5
  -1  -2 -11 144.205 197.741  10
  -1   2 -12 167.314 224.551   5
  -1  -2 -12 401.226 241.718  10
  -1   2 -13 709.659 285.865   5
   1   3 -13 160.458 227.271   5
   1  -3 -12 486.846 229.354   5
   1   3 -12 86.5651 179.264   5
   1  -3 -11 138.431 169.404   5
   1   3 -11 297.802 197.070   5
   1   3 -10 1431.41 321.672   5
   1  -3 -10 1776.12 334.518   5
   1   3  -9 1489.24 287.685   5
   1  -3  -9 938.375 239.303   5
   1   3  -8 2584.90 659.707   2
   1  -3  -8 2681.23 351.056   5
   1   3  -8 2356.64 344.966   5
   1   3  -7 6074.48 900.054   2
   1  -3  -7 5669.92 459.128   5
   1   3  -7 5049.52 442.649   5
   1  -3  -6 37171.1 1066.98   5
   1   3  -6 35804.0 1108.56   5
   1   3  -5 34109.0 983.127   5
   1   3  -5 35035.2 1696.16   2
   1   3  -4 5240.66 601.011   2
  -1   3   3 441.382 242.956   3
   1   3  -3 492.347 191.001   2
  -1   3   2 25944.5 1219.64   3
   1   3  -2 24257.1 881.667   2
  -1   3   2 24697.8 1208.43   1
   1   3  -1 149632. 1735.10   2
  -1   3   1 149550. 2623.27   1
  -1   3   0 116434. 2363.26   3
   1   3   0 111114. 1255.70   1
  -1   3   0 116412. 2198.34   1
  -1   3  -1 12139.9 772.199   1
  -1   3  -1 11988.8 753.233   3
  -1   3  -2 4450.92 522.722   2
  -1   3  -3 299.108 177.620   2
  -1   3  -4 3535.73 536.928   2
  -1  -3  -5 19170.9 750.610  10
  -1   3  -5 18194.5 747.596  10
  -1   3  -5 17895.2 1273.32   2
  -1   3  -6 9276.05 1017.00   2
  -1   3  -6 9727.24 586.012  10
  -1   3  -6 10221.0 556.055   5
  -1  -3  -6 9463.50 575.594  10
  -1   3  -7 2360.72 564.552   2
  -1  -3  -7 2658.00 342.233  10
  -1   3  -7 2406.68 306.000   5
  -1   3  -7 2253.26 320.488  10
  -1  -3  -8 7390.56 581.679  10
  -1   3  -8 7245.65 1031.45   2
  -1   3  -8 7449.17 554.771   5
  -1   3  -9 6707.71 566.315   5
  -1  -3  -9 6175.16 561.411  10
  -1  -3 -10 6477.58 620.198  10
  -1   3 -10 5783.71 558.785   5
  -1   3 -11 416.945 203.097   5
  -1  -3 -11 462.594 223.689  10
  -1   3 -12 44.1503 202.961   5
  -1   3 -13 247.217 252.114   5
   1   4 -13 956.921 370.924   5
   1   4 -12 591.211 237.403   5
   1   4 -11 1939.73 404.352   5
   1   4 -10 259.534 178.449   5
   1   4  -9 465.523 188.834   5
   1  -4  -9 326.215 166.015   5
   1  -4  -8 878.710 248.750   5
   1   4  -8 614.376 204.768   5
   1   4  -8 820.482 417.176   2
   1  -4  -7 215.231 146.157   5
   1   4  -7 145.120 185.819   2
   1   4  -7 156.557 122.099   5
   1   4  -6 493.916 182.515   5
   1   4  -6 538.837 311.289   2
   1   4  -5 12589.4 633.932   5
   1   4  -5 13465.8 1061.70   2
   1   4  -4 11967.8 890.274   2
   1   4  -3 112.243 144.939   2
   1   4  -2 6663.90 523.275   2
  -1   4   2 6196.23 651.167   1
  -1   4   1 44882.7 1617.76   1
  -1   4   1 45292.2 1625.69   3
   1   4   0 101704. 1531.03   1
  -1   4   0 95596.9 2202.10   1
  -1   4   0 95002.1 2265.55   3
  -1   4  -1 60232.2 1735.03   3
  -1   4  -1 69731.4 2038.17   1
  -1   4  -2 20337.3 983.398   3
  -1   4  -3 48532.9 1890.20   2
  -1   4  -4 33919.8 1719.20   2
  -1  -4  -4 33417.2 968.084  10
  -1   4  -5 15277.6 1208.21   2
  -1  -4  -5 15389.8 703.274  10
  -1   4  -6 17242.9 730.505   5
  -1   4  -6 17030.9 1363.79   2
  -1  -4  -6 16572.3 761.278  10
  -1   4  -7-112.449 121.000   5
  -1  -4  -7-98.5012 126.974  10
  -1   4  -8 4309.57 437.621   5
  -1  -4  -8 3958.02 430.468  10
  -1  -4  -9 396.939 213.486  10
  -1   4  -9 132.520 157.596   5
  -1  -4 -10-74.1535 134.811  10
  -1   4 -10 214.473 172.215   5
  -1   4 -11 356.158 251.553   5
  -1  -4 -11 683.279 255.688  10
  -1   4 -12 191.580 195.433   5
  -1   4 -13-278.437 223.228   5
   1   5 -13 407.919 262.950   5
   1   5 -12 312.303 210.878   5
   1   5 -11 1469.06 336.779   5
   1   5 -10 2324.40 402.774   5
   1   5  -9 354.458 181.021   5
   1   5  -8 2814.83 372.251   5
   1   5  -8 2326.45 657.557   2
   1   5  -7 1841.65 325.680   5
   1   5  -7 2119.59 580.755   2
   1   5  -6 2243.41 558.060   2
   1   5  -6 2677.61 339.414   5
   1   5  -5 729.301 307.657   2
   1   5  -5 676.274 180.786   5
  -1  -5   5 1242.24 459.759   6
   1   5  -4 3696.31 551.270   2
   1   5  -3 2590.62 391.978   2
  -1   5   2 33600.8 1626.55   1
   1   5  -2 37030.2 1287.37   2
   1   5  -1 91423.9 1816.19   1
  -1   5   1 92083.0 2456.18   1
  -1   5   0 31273.5 1418.22   1
  -1   5   0 35389.8 1473.56   3
   1   5   0 34318.3 1056.99   1
  -1   5  -1 97631.9 2354.36   3
   1   5   1 101815. 2025.94   1
  -1   5  -1 103169. 2609.64   1
  -1   5  -2 52853.3 1670.56   3
  -1   5  -3-48.6859 130.919   3
  -1   5  -3 149.068 216.426   2
  -1   5  -4 83095.3 2838.22   2
  -1  -5  -4 84156.6 1625.67  10
  -1   5  -5 9049.29 514.564   5
  -1   5  -5 8964.84 979.640   2
  -1  -5  -5 8931.07 553.177  10
  -1   5  -6-33.7833 123.524   5
  -1  -5  -6-156.101 116.564  10
  -1   5  -6 171.214 282.020   2
  -1   5  -7 4350.51 419.618   5
  -1   5  -7 3940.64 744.500   2
  -1  -5  -7 4037.38 414.651  10
  -1  -5  -8 11817.6 743.114  10
  -1   5  -8 12693.3 742.477   5
  -1  -5  -9 12770.5 834.128  10
  -1   5  -9 13516.7 812.572   5
  -1   5 -10 832.129 254.066   5
  -1  -5 -10 638.094 239.764  10
  -1   5 -11 324.306 234.897   5
  -1  -5 -11-196.595 177.293  10
  -1   5 -12 625.669 270.149   5
   1   6 -13 423.507 260.000   5
   1   6 -12 660.485 275.712   5
   1   6 -11 1072.14 327.519   5
   1   6 -10 1316.59 304.622   5
   1   6  -9 186.786 143.245   5
   1   6  -8 3501.86 427.754   5
   1   6  -8 4323.11 845.572   2
   1   6  -7 4243.03 789.571   2
   1   6  -7 3776.40 423.382   5
   1   6  -6 26472.0 986.552   5
   1   6  -6 28222.9 1747.27   2
   1   6  -5 9718.39 965.530   2
   1   6  -5 8921.94 580.687   5
  -1  -6   5 7388.52 694.158   6
   1   6  -4 37310.9 1060.72   5
   1   6  -4 39292.7 1716.34   2
  -1   6   3 1076.02 367.764   1
   1   6  -3 1277.95 355.253   2
   1   6  -2 68251.8 1916.35   2
  -1   6   2 70153.0 2426.87   1
  -1   6   1 11282.8 923.677   1
   1   6  -1 12492.4 812.156   1
   1   6   0 26450.9 1072.52   1
  -1   6   0 25700.3 1365.57   1
  -1   6  -1 34115.4 1610.81   1
   1   6   1 33448.4 1262.33   1
  -1   6  -1 32449.6 1450.01   3
  -1   6  -2 81147.8 2196.37   3
  -1   6  -3 5885.90 594.442   3
  -1   6  -3 6504.95 758.800   2
  -1  -6  -4 101.998 110.031  10
  -1  -6  -4 73.9081 176.606   8
  -1   6  -4 207.923 177.286   2
  -1   6  -5 83.0967 179.595   2
  -1  -6  -5 163.245 102.698  10
  -1   6  -5 247.962 134.022   5
  -1   6  -6 1468.64 229.245   5
  -1  -6  -6 1072.21 206.223  10
  -1   6  -6 999.245 400.335   2
  -1   6  -7 4777.47 884.215   2
  -1   6  -7 4360.81 422.341   5
  -1  -6  -7 4524.67 441.708  10
  -1   6  -8 39440.1 1331.43   5
  -1  -6  -8 37458.1 1347.84  10
  -1   6  -9 1076.18 269.396   5
  -1  -6  -9 1347.73 296.133  10
  -1   6 -10 2228.21 401.092   5
  -1  -6 -10 2760.06 452.731  10
  -1   6 -11 972.462 337.248   5
  -1  -6 -11 1297.76 337.635  10
   1   7 -13 642.473 315.868   5
   1   7 -12 9.14471 169.326   5
   1   7 -11-141.592 175.660   5
   1   7 -10 38.5547 148.411   5
   1   7  -9-25.7504 126.184   5
   1   7  -8-162.907 148.798   5
   1   7  -8 12.0132 299.678   2
   1   7  -7 6999.65 563.475   5
   1   7  -7 9477.21 1146.95   2
   1   7  -6 1091.13 422.186   2
   1   7  -6 974.817 225.198   5
  -1  -7   6 1271.97 473.174   6
   1   7  -5 1481.47 270.894   5
  -1  -7   5 893.646 270.308   6
   1   7  -5 1896.65 507.986   2
   1   7  -4 8342.78 532.289   5
   1   7  -4 8316.28 871.124   2
   1   7  -3 1361.75 345.216   2
  -1   7   3 832.261 343.549   1
  -1   7   2 17586.5 1325.51   1
   1   7  -1 38879.6 1520.68   1
  -1   7   1 36221.7 1813.78   1
   1   7   0 32163.6 1293.29   1
  -1   7   0 30790.0 1576.60   1
  -1   7  -1 219532. 4322.27   1
   1   7   1 229111. 3630.11   1
  -1   7  -2 81397.2 2311.20   3
  -1   7  -2 84585.9 2762.83   1
   1   7   2 86370.7 2410.22   1
  -1   7  -3 77136.3 2182.58   3
  -1  -7  -3 79629.6 1629.88   8
  -1   7  -4 34173.7 1904.06   2
  -1  -7  -4 34976.6 1126.50  10
  -1  -7  -4 37960.9 1186.16   8
  -1  -7  -5 4424.83 433.902  10
  -1   7  -5 4438.06 393.129   5
  -1   7  -5 5133.04 802.158   2
  -1   7  -6 4401.12 404.723   5
  -1   7  -6 3948.40 754.505   2
  -1  -7  -6 4555.51 450.183  10
  -1   7  -7 484.151 346.775   2
  -1   7  -7 58.4199 127.774   5
  -1  -7  -7 150.699 111.690  10
  -1  -7  -8 18213.9 939.844  10
  -1   7  -8 19582.0 953.239   5
  -1   7  -9 7139.08 619.262   5
  -1  -7  -9 6157.83 588.776  10
  -1  -7 -10 785.701 261.933  10
  -1   7 -10 400.543 223.452   5
  -1  -7 -11 147.758 153.426  10
   1   8 -12 49.0228 175.398   5
   1   8 -11 82.2535 153.874   5
   1   8 -10 161.072 149.210   5
   1   8  -9 343.234 188.189   5
   1   8  -8 1466.76 313.414   5
   1   8  -7 396.009 170.731   5
   1   8  -6 11156.6 696.917   5
   1   8  -6 11992.8 1243.33   2
   1   8  -5 3541.18 407.489   5
   1   8  -5 3750.42 677.587   2
   1   8  -4 9317.36 589.084   5
  -1   8   4 9917.85 1163.33   1
   1   8  -4 10602.7 1031.32   2
  -1   8   3 116077. 3633.96   1
   1   8  -3 114979. 1993.50   5
   1   8  -3 109729. 2954.82   2
  -1   8   2 36954.3 2074.94   1
  -1   8   1 37226.6 1966.39   1
   1   8  -1 38858.5 1624.40   1
  -1   8   0 142314. 3635.57   1
   1   8   0 144477. 2965.71   1
  -1   8  -1 15713.8 1235.50   1
   1   8   1 15896.3 1046.72   1
  -1  -8  -2 49734.2 1302.77   8
  -1   8  -2 48305.7 2203.67   1
  -1   8  -2 48975.0 1954.37   3
   1   8   2 50795.0 1955.61   1
  -1  -8  -3 0.93624 174.296   8
  -1   8  -4 10780.5 1120.10   2
  -1   8  -4 10288.4 569.360   5
  -1  -8  -4 10784.9 670.606   8
  -1   8  -5 32316.8 2080.37   2
  -1  -8  -5 30754.7 1137.47  10
  -1   8  -5 31312.2 1040.51   5
  -1  -8  -6 8424.24 615.924  10
  -1   8  -6 8581.06 577.401   5
  -1   8  -6 8263.57 1130.19   2
  -1  -8  -7 434.054 164.128  10
  -1   8  -7 650.836 180.457   5
  -1   8  -8 344.944 156.826   5
  -1  -8  -8 250.074 161.655  10
  -1  -8  -9 3494.72 468.381  10
  -1   8  -9 3535.73 478.014   5
  -1  -8 -10 494.183 272.262  10
  -1  -8 -11 968.494 337.745  10
   1   9 -12 294.560 202.477   5
   1   9 -11-6.33085 161.085   5
   1   9 -10 20.6255 166.979   5
   1   9  -9 302.410 158.190   5
   1   9  -8 2143.55 368.542   5
   1   9  -7 1244.17 268.894   5
   1   9  -6 330.301 173.144   5
  -1   9   5-300.225 311.823   1
   1   9  -5-37.0318 124.654   5
  -1   9   4-25.3837 303.736   1
   1   9  -4 529.454 183.462   5
   1   9  -3 546.413 263.841   2
  -1   9   3 312.135 338.470   1
   1   9  -3 325.365 135.069   5
  -1   9   2 47994.3 2363.52   1
   1   9  -1 8124.27 837.749   1
  -1  -9   1 5821.20 839.927   9
  -1   9   1 8320.75 992.867   1
   1   9   0 9279.26 835.917   1
  -1   9   0 8852.02 993.566   1
  -1  -9   0 9344.24 581.296   8
   1   9   1 64643.1 2233.83   1
  -1  -9  -1 59443.0 1394.86   8
  -1   9  -1 63742.1 2647.10   1
  -1  -9  -2 10917.8 632.993   8
  -1   9  -2 11318.9 1135.07   1
   1   9   2 10598.5 972.694   1
  -1  -9  -3 14184.9 752.736   8
   1   9   3 14954.8 1247.06   1
  -1   9  -3 14407.2 679.516   5
  -1   9  -4 7952.83 1010.50   2
  -1   9  -4 7116.26 511.977   5
  -1  -9  -4 7145.32 539.509   8
  -1  -9  -5 9689.04 650.012  10
  -1  -9  -5 9459.76 669.363   8
  -1   9  -5 9585.85 1173.66   2
  -1   9  -5 9510.75 612.366   5
  -1   9  -6 777.871 261.105   5
  -1   9  -6 868.875 498.254   2
  -1  -9  -6 525.233 244.504  10
  -1  -9  -7 1771.69 315.265  10
  -1   9  -7 1573.14 268.236   5
  -1  -9  -8 6178.20 587.178  10
  -1   9  -8 6349.55 607.093   5
  -1  -9  -9 130.088 174.895  10
  -1  -9 -10 2046.14 398.800  10
  -1  -9 -11 554.643 241.308  10
   1  10 -12 136.007 220.440   5
   1  10 -11 407.722 235.820   5
   1  10 -10 2247.05 427.208   5
   1  10  -9 1480.86 344.904   5
   1  10  -8 89.1915 143.956   5
   1  10  -7-345.434 175.101   5
  -1  10   6 1594.65 650.335   1
   1  10  -6 942.374 247.640   5
   1  10  -5 1959.10 308.333   5
  -1  10   5 1830.23 618.713   1
  -1  10   4 19124.2 1848.15   1
   1  10  -4 19380.6 896.658   5
  -1  10   3 33940.0 2181.58   1
  -1  10   2 2855.06 644.564   1
  -1 -10   1 4056.24 747.540   9
  -1  10   1 5703.24 857.480   1
  -1 -10   0 6017.75 485.798   8
  -1 -10   0 5640.72 1009.05   9
  -1  10   0 7383.49 942.467   1
  -1  10  -1 24150.4 1721.02   1
  -1 -10  -1 20294.1 854.701   8
  -1 -10  -2 1991.20 295.707   8
  -1  10  -2 3175.08 675.132   1
  -1  10  -3 20121.6 853.677   5
   1  10   3 20911.3 1554.13   1
  -1 -10  -3 18816.0 901.905   8
  -1 -10  -4-31.0776 206.281   8
  -1  10  -4 223.357 219.391   2
  -1  10  -4 79.2144 141.238   5
   1  10   4-123.737 285.686   1
  -1 -10  -5 37952.1 1391.85   8
  -1  10  -5 42482.7 1325.90   5
  -1  10  -5 43946.5 2535.06   2
  -1 -10  -6 41362.1 1427.29  10
  -1  10  -6 43448.5 1374.13   5
  -1  10  -7 17746.8 952.113   5
  -1 -10  -7 16267.9 942.619  10
  -1 -10  -8 11.0670 139.702  10
  -1 -10  -9 1927.06 360.068  10
  -1 -10 -10 68.2041 185.118  10
   1  11 -12 117.076 259.493   5
   1  11 -11 163.208 241.227   5
   1  11 -10 349.337 226.738   5
   1  11  -9 2385.35 425.088   5
   1  11  -8 4586.78 552.696   5
   1  11  -7 3207.65 449.531   5
   1  11  -6 383.801 175.687   5
  -1  11   5 15723.4 1848.60   1
   1  11  -5 13254.6 802.637   5
  -1  11   4 10918.2 1422.13   1
   1  11  -4 9948.28 716.474   5
  -1  11   3 836.639 481.091   1
  -1  11   2 8895.79 1185.49   1
  -1  11   1 4146.65 771.633   1
  -1 -11   1 4376.08 751.898   9
  -1 -11   0 42.0171 369.018   9
  -1  11   0 262.324 255.460   1
  -1 -11   0 258.341 213.332   8
  -1 -11  -1 11587.0 680.807   8
  -1  11  -1 14095.4 1406.14   1
  -1  11  -2 5104.40 861.143   1
  -1 -11  -2 4572.27 438.111   8
  -1 -11  -3 3580.31 422.593   8
  -1  11  -3 4335.73 443.015   5
  -1 -11  -4 9919.67 658.490   8
  -1  11  -4 12132.1 705.895   5
  -1 -11  -5 2953.94 463.961   8
  -1  11  -5 3279.02 422.573   5
  -1  11  -5 2675.60 637.269   2
  -1 -11  -6 7299.53 623.453  10
  -1 -11  -7 79.0241 151.599  10
  -1 -11  -8 423.981 173.804  10
  -1 -11  -9-67.5194 161.973  10
  -1 -11 -10 613.340 263.795  10
   1  12 -11 315.169 264.755   5
   1  12 -10 1289.29 354.765   5
   1  12  -9 968.997 331.377   5
   1  12  -8 325.748 202.737   5
   1  12  -7-258.185 166.882   5
   1  12  -6-287.031 192.286   5
   1  12  -5 78.9653 134.907   5
   1  12  -4 1060.82 254.716   5
  -1  12   4 1538.52 637.940   1
  -1  12   3 1599.62 618.985   1
  -1  12   2 10775.2 1343.55   1
  -1 -12   1 2.44713 362.016   9
  -1  12   1 625.472 376.819   1
  -1 -12   0 22500.2 990.799   8
  -1  12   0 32436.1 2150.35   1
  -1  12  -1 3054.04 720.638   1
  -1 -12  -1 1953.91 337.070   8
  -1 -12  -1 4111.99 916.661   9
  -1  12  -2 32009.0 2212.74   1
  -1 -12  -2 21028.9 974.881   8
  -1  12  -3 9321.15 635.018   5
  -1 -12  -3 7304.49 539.985   8
  -1 -12  -4-188.754 313.110   8
  -1 -12  -6 746.199 239.346  10
  -1 -12  -7 1039.57 268.907  10
  -1 -12  -8 181.703 176.716  10
  -1 -12  -9 725.662 286.875  10
  -1 -12 -10-21.4352 178.011  10
   1  13 -11 582.731 316.579   5
   1  13 -10 192.549 235.815   5
   1  13  -9 1769.39 411.329   5
   1  13  -8 99.2274 167.411   5
   1  13  -7 259.967 190.918   5
   1  13  -6-39.2169 147.715   5
   1  13  -5 537.650 219.889   5
   1  13  -4 3392.45 450.998   5
  -1  13   3 3019.41 826.317   1
  -1  13   2 5627.78 1058.27   1
  -1  13   1 838.578 439.317   1
  -1 -13   1 328.425 544.058   9
  -1  13   0 119.017 327.783   1
  -1 -13   0-1.28212 385.288   9
  -1 -13   0 100.476 208.102   8
  -1 -13  -1 21.5012 475.074   9
  -1 -13  -1 683.630 242.649   8
  -1  13  -1 980.400 524.102   1
  -1 -13  -2 2357.61 369.125   8
  -1  13  -2 3631.15 842.645   1
  -1 -13  -3 6383.10 552.339   8
  -1 -13  -7 22.6593 181.740  10
  -1 -13  -8 287.966 187.439  10
  -1 -13  -9 353.407 234.529  10
  -1 -13 -10 298.886 215.980  10
   1  14 -11 304.572 318.424   5
   1  14 -10 160.244 234.567   5
   1  14  -9 107.788 199.297   5
   1  14  -8 388.184 248.338   5
   1  14  -7-121.769 182.122   5
   1  14  -6 881.567 258.549   5
   1  14  -5 4547.63 531.350   5
   1  14  -4 22678.8 1167.83   5
   1 -14  -2 110.918 302.786   9
  -1 -14   1 36.2038 481.575   9
  -1  14   1 178.066 372.451   1
  -1  14   0 1255.32 639.614   1
  -1 -14   0 365.198 558.276   9
  -1 -14   0 525.306 252.850   8
  -1 -14  -1 163.768 237.869   8
  -1  14  -1 424.344 450.262   1
  -1 -14  -1 29.8408 411.234   9
  -1 -14  -2-228.605 562.269   9
  -1 -14  -2-60.0748 194.227   8
  -1 -14  -3 1759.45 344.962   8
  -1 -14  -7 10185.4 817.013  10
  -1 -14  -8 1628.79 373.366  10
  -1 -14  -9 337.517 229.480  10
  -1 -14 -10 60.5707 201.624  10
   1  15 -10 158.861 247.159   5
   1  15  -9 418.238 273.288   5
   1  15  -8 46.2519 183.162   5
   1  15  -7 184.642 198.735   5
   1  15  -6 533.771 245.625   5
   1  15  -5 1013.75 291.303   5
   1  15  -4 522.630 261.106   5
  -1 -15   1 124.785 428.222   9
  -1 -15   1 150.317 249.922   8
  -1 -15   0 6990.67 1202.19   9
  -1 -15   0 5392.74 578.628   8
  -1 -15  -1 7541.59 1168.38   9
  -1 -15  -1 13010.1 844.951   8
  -1 -15  -2 18494.7 1960.90   9
  -1 -15  -2 13275.5 846.641   8
  -1 -15  -7 1410.53 337.518  10
  -1 -15  -8 1332.24 357.038  10
  -1 -15  -9 1381.60 393.553  10
  -1 -15 -10 293.569 309.725  10
   1  16 -10-0.09948 210.954   5
   1  16  -9-295.743 269.221   5
   1  16  -8-57.6199 178.862   5
   1  16  -7 281.109 242.516   5
   1  16  -6 247.963 182.804   5
   1  16  -5 2603.09 451.740   5
   1  16  -4 11561.2 903.126   5
  -1 -16   2 4041.51 988.681   9
  -1 -16   1 25.3788 270.364   8
  -1 -16   1 121.065 617.315   9
  -1 -16   0 4528.37 919.970   9
  -1 -16   0 10251.2 745.847   8
  -1 -16  -1 10881.7 777.460   8
  -1 -16  -1 427.288 1032.75   9
  -1 -16  -2 51.0310 690.486   9
  -1 -16  -7-8.63417 154.671  10
  -1 -16  -8 254.264 252.752  10
  -1 -16  -9 695.674 311.339  10
   1  17  -9-227.349 221.515   5
   1  17  -8 585.926 286.693   5
   1  17  -7 363.217 235.466   5
   1  17  -6 1192.26 358.351   5
   1  17  -5 1206.94 357.542   5
   1  17  -4 112.651 203.138   5
  -1 -17   2 1.91333 448.056   9
  -1 -17   1 3760.46 523.259   8
  -1 -17   1 256.713 726.689   9
  -1 -17   0 7035.91 1136.19   9
  -1 -17   0 4160.69 554.506   8
  -1 -17  -1 992.927 355.393   8
  -1 -17  -1 651.261 827.444   9
  -1 -17  -2 967.670 1087.66   9
  -1 -17  -8 759.813 315.154  10
  -1 -17  -9-127.926 220.025  10
   1  18  -8 481.010 350.391   5
   1  18  -7 399.502 269.784   5
   1  18  -6 190.062 212.689   5
   1  18  -5-256.217 227.368   5
   1  18  -4 72.7824 167.324   5
  -1 -18   2 459.866 527.962   9
  -1 -18   1 2257.97 470.138   8
  -1 -18   1 181.207 648.924   9
  -1 -18   0 142.450 704.734   9
  -1 -18   0 173.516 243.176   8
  -1 -18  -1 765.529 817.206   9
  -1 -18  -2 72.1895 722.499   9
  -1 -18  -8 549.237 306.888  10
   1  19  -8 144.678 266.864   5
   1  19  -7 304.156 283.943   5
   1  19  -6 622.195 314.892   5
   1  19  -5 1020.64 349.496   5
   1  19  -4 236.944 244.005   5
  -1 -19   3 84.1062 716.646   9
  -1 -19   2 134.565 603.093   9
   1 -19  -1 74.2029 410.328   9
  -1 -19   1-37.4110 464.812   9
  -1 -19   1 54.6945 216.842   8
  -1 -19   0 392.969 331.197   8
  -1 -19   0 372.167 730.585   9
  -1 -19  -1 237.878 751.725   9
  -1 -19  -2 2886.66 1118.23   9
  -1 -19  -8 427.333 275.599  10
   1  20  -7 72.1470 304.982   5
   1  20  -6 265.145 270.479   5
   1  20  -5 270.426 276.891   5
   1  20  -4 757.367 330.801   5
  -1 -20   3 73.5042 589.181   9
  -1 -20   2 161.348 314.748   8
  -1 -20   2 60.2325 584.545   9
   1 -20  -1 71.9851 510.419   9
  -1 -20   1 255.727 433.924   9
  -1 -20   1 128.166 299.781   8
  -1 -20   0-118.351 607.977   9
  -1 -20  -1 108.902 609.147   9
  -1 -20  -2 20.3971 696.313   9
   1  21  -6-77.0285 240.703   5
   1  21  -5 396.631 308.340   5
   1  21  -4 389.598 279.135   5
  -1 -21   3 115.808 647.906   9
  -1 -21   2 132.688 287.500   8
  -1 -21   2 37.7158 469.999   9
   1 -21  -1 2.01666 504.916   9
  -1 -21   1-190.885 511.302   9
  -1 -21   0 1.49905 620.496   9
  -1 -21  -1-92.3560 593.485   9
  -1 -21  -2 252.292 882.847   9
   1  22  -4 296.585 344.125   5
  -1 -22   4-21.1793 609.473   9
  -1 -22   3 48.5191 601.015   9
  -1 -22   2 76.3830 328.693   8
  -1 -22   2 103.051 599.251   9
  -1 -22   1 268.888 673.630   9
  -1 -22   0-82.6680 535.729   9
  -1 -22  -1 264.759 1010.49   9
  -1 -22  -2 36.9132 743.150   9
  -1 -23   3 48.0280 899.438   9
  -1 -23   3 314.177 360.138   8
  -1 -23   2-27.7051 759.342   9
  -1 -23   1-91.9632 766.797   9
   1 -23   0 70.3665 516.228   9
  -1 -23   0 80.7385 734.248   9
  -1 -23  -1 329.055 967.471   9
  -1 -23  -2-256.644 1089.29   9
  -2   0   9 1477.32 767.632   6
  -2   0   8 2697.96 850.392   6
  -2   0   7 639.435 259.370   4
  -2   0   7 96.1266 423.174   6
  -2   0   6 24.5932 469.151   6
  -2   0   6 308.919 214.180   4
  -2   0   5 543.873 515.061   6
  -2   0   5 197.440 193.703   4
  -2   0   4 123023. 1900.13   4
  -2   0   4 116268. 3097.34   6
  -2   0   3 1632.47 312.717   4
  -2   0   3 3048.62 895.608   6
  -2   0   2 52567.3 2257.67   6
  -2   0   2 34333.8 996.243   4
  -2   0   1-1174.38 585.034   6
  -2   0   1 194.431 153.388   4
  -2   0   0 7510.05 450.892   4
  -2   0  -1 153.323 126.916   4
  -2   0  -2 64175.7 1249.89   4
   2   0   3 641.555 597.923   7
  -2   0  -3-251.334 147.138  10
   2   0   4 3315.21 744.270   7
  -2   0  -4 6679.03 469.252  10
  -2   0  -5-144.555 160.303  10
   2   0   5 1115.61 851.081   7
  -2   0  -6 6198.53 524.387  10
  -2   0  -7-216.058 157.131  10
  -2   0  -8 807.562 225.740  10
  -2   0  -9-106.976 146.948  10
  -2   0 -10 111.011 176.422  10
  -2   0 -11 198.029 220.277  10
  -2   0 -12-113.509 197.990  10
  -2  -1  13 2255.45 1121.31   6
  -2  -1  11 2093.95 921.209   6
  -2  -1  10 1042.66 769.044   6
  -2  -1   9 941.681 701.115   6
  -2   1   8 2554.58 826.294   6
  -2  -1   8 1962.83 755.965   6
  -2   1   7 1054.08 283.363   4
  -2  -1   7 1076.51 281.971   4
  -2   1   7 394.968 495.541   6
  -2  -1   7 1163.21 578.226   6
  -2  -1   6 193.773 166.355   4
  -2  -1   6 266.583 412.051   6
  -2   1   6 311.279 431.152   6
  -2   1   6 470.301 217.028   4
  -2  -1   5 3127.45 705.906   6
  -2  -1   5 2949.71 360.070   4
  -2   1   5 3395.62 375.058   4
  -2   1   5 2566.02 618.623   6
  -2   1   4 58217.1 1328.92   4
  -2  -1   4 57788.8 1371.70   4
  -2   1   4 60867.1 2250.84   6
  -2   1   3 57527.2 2206.16   6
  -2  -1   3 53728.5 1242.36   4
  -2   1   3 56175.6 1222.36   4
  -2  -1   2 227976. 2396.78   4
  -2   1   2 229609. 2400.67   4
  -2   1   1 36534.5 1001.30   4
  -2  -1   1 36216.6 985.625   4
  -2  -1   0 1959.33 237.871   4
  -2   1   0 1620.02 217.608   4
  -2   1  -1 15262.8 618.828   4
  -2  -1  -1 15128.6 621.004   4
  -2  -1  -2 1200.17 223.306   4
   2   1   3 8972.01 926.178   7
   2  -1   3 7864.62 862.898   7
  -2   1  -3 12935.4 618.694  10
  -2  -1  -3 13801.2 636.955  10
   2   1   4 2624.59 595.167   7
   2  -1   4 2657.80 721.022   7
  -2  -1  -4 5163.64 421.179  10
  -2   1  -4 5211.64 414.143  10
   2   1   5 6118.17 994.268   7
  -2   1  -5 10257.7 618.782  10
  -2  -1  -5 9876.62 617.541  10
   2  -1   5 6576.47 1136.95   7
  -2  -1  -6 26.7425 109.392  10
  -2   1  -6 121.803 111.147  10
  -2  -1  -7 305.916 166.043  10
  -2   1  -7 156.641 164.099  10
  -2  -1  -8 3618.51 445.738  10
  -2   1  -8 3288.91 433.405  10
  -2  -1  -9 2182.74 377.636  10
  -2   1  -9 2478.82 415.017  10
  -2  -1 -10 2710.99 478.666  10
  -2   1 -10 2901.04 485.422  10
  -2  -1 -11 200.288 228.975  10
  -2   1 -11 57.3431 201.838  10
  -2  -1 -12-91.3900 188.745  10
  -2   1 -12-65.7519 252.307  10
  -2  -2  13 3476.09 1193.71   6
  -2  -2  12 3363.60 1096.77   6
  -2  -2  11 1831.70 925.781   6
  -2  -2  10 1497.38 782.175   6
  -2  -2   9 3114.48 883.643   6
  -2  -2   8 1306.17 726.620   6
  -2  -2   7 1162.38 526.677   6
  -2   2   7 2433.27 804.083   6
  -2  -2   6 149.920 173.621   4
  -2   2   6 38.6353 407.580   6
  -2  -2   6 132.271 374.465   6
  -2   2   5 2128.75 625.210   6
  -2  -2   5 1699.93 293.372   4
  -2   2   5 1731.11 474.981   3
  -2  -2   5 2707.23 643.014   6
  -2   2   5 1952.56 270.676   4
  -2   2   4 9126.54 1019.92   3
  -2   2   4 9523.10 549.557   4
  -2  -2   4 9855.07 602.487   4
  -2   2   4 10240.8 1080.34   6
  -2   2   3 77685.8 2365.57   6
  -2   2   3 76981.9 1397.28   4
  -2  -2   3 75625.6 1459.49   4
  -2   2   2 22594.4 783.292   4
  -2  -2   2 22367.9 789.935   4
  -2  -2   1 16230.6 651.395   4
  -2   2   1 15311.6 656.557   4
  -2   2   0 16380.5 650.429   4
  -2  -2   0 15876.1 677.733   4
  -2   2  -1 2996.57 281.032   4
  -2  -2  -1 2841.25 288.662   4
  -2  -2  -1 3063.69 392.019   8
  -2  -2  -2 32886.4 911.794   4
   2   2   3 8768.82 938.220   7
   2  -2   3 6429.51 799.618   7
  -2  -2  -3 14164.3 681.088  10
  -2   2  -3 14119.7 642.109  10
   2   2   4 1442.30 541.612   7
   2  -2   4 1757.90 610.373   7
  -2  -2  -4 3445.91 352.647  10
  -2   2  -4 3218.64 328.072  10
   2   2   5 6856.33 1129.85   7
   2  -2   5 6838.65 1174.21   7
  -2  -2  -5 9569.45 608.158  10
  -2   2  -5 8822.03 593.833  10
  -2  -2  -6-8.21288 110.702  10
  -2   2  -6 155.019 130.814  10
  -2  -2  -7 9586.75 690.348  10
  -2   2  -7 10069.1 712.127  10
  -2  -2  -8 6246.69 590.218  10
  -2   2  -8 6854.23 621.561  10
  -2  -2  -9 2099.88 382.451  10
  -2   2  -9 2355.82 406.271  10
  -2   2 -10 292.255 196.756  10
  -2  -2 -10 47.0754 163.056  10
  -2  -2 -11 1030.41 352.903  10
  -2  -2 -12 287.644 336.318  10
  -2  -3  13 1895.87 975.613   6
  -2  -3  12 1908.67 865.614   6
  -2  -3  11 1783.66 916.748   6
  -2  -3  10 2018.08 891.356   6
  -2  -3   9 1397.89 776.494   6
  -2  -3   8 2265.37 822.108   6
  -2  -3   7 2371.00 758.863   6
  -2  -3   6 199.921 184.224   4
  -2   3   6 208.615 521.275   6
  -2  -3   6-304.830 395.238   6
  -2   3   5 3011.04 662.403   3
  -2  -3   5 2957.39 637.925   6
  -2  -3   5 3967.21 435.510   4
  -2  -3   4 3591.84 764.719   6
  -2   3   4 3809.90 711.805   3
  -2   3   4 3974.24 359.866   4
  -2   3   4 4009.38 651.637   6
  -2  -3   4 3660.01 388.382   4
  -2   3   3 1442.72 280.259   4
  -2  -3   3 1150.44 264.681   4
  -2   3   3 2005.51 587.000   6
  -2   3   3 1242.55 444.593   3
  -2   3   2 989.632 377.728   6
  -2   3   2 659.815 329.133   3
  -2  -3   2-67.1449 457.675   6
  -2  -3   2 718.669 185.720   4
  -2  -3   1 402.863 184.541   4
  -2   3   0 112.461 115.156   4
  -2  -3   0-11.4883 112.549   4
  -2   3  -1 8456.33 448.794   4
  -2  -3  -1 8369.52 489.743   4
  -2  -3  -1 9043.65 587.286   8
  -2  -3  -2 475.965 144.714   4
  -2  -3  -2 168.470 113.359  10
  -2  -3  -2 379.000 261.879   8
  -2  -3  -3 15326.4 719.229  10
  -2   3  -3 15030.0 665.214  10
   2  -3   4 1809.32 697.859   7
  -2  -3  -4 2681.50 325.835  10
  -2   3  -4 2805.76 316.850  10
   2   3   5 696.060 747.253   7
  -2  -3  -5 929.730 205.103  10
  -2   3  -5 527.161 168.121  10
  -2  -3  -6 1652.71 274.715  10
  -2   3  -6 1745.26 301.140  10
  -2  -3  -7 609.511 215.032  10
  -2   3  -7 713.995 232.434  10
  -2   3  -8 10749.9 789.297  10
  -2  -3  -8 10038.0 752.442  10
  -2  -3  -9 44.1720 146.809  10
  -2   3  -9 358.131 223.673  10
  -2  -3 -10-30.3157 171.328  10
  -2  -3 -11 245.009 211.352  10
  -2  -3 -12-45.4906 242.950  10
  -2  -4  13 4055.52 1253.68   6
  -2  -4  12 1959.02 885.460   6
  -2  -4  11 1210.40 773.604   6
  -2  -4  10 1822.47 789.910   6
  -2  -4   9 778.716 643.088   6
  -2  -4   8 959.035 641.310   6
  -2  -4   7 358.677 467.887   6
  -2  -4   6 653.514 229.532   4
  -2   4   6 1112.66 662.998   6
  -2  -4   6-434.963 458.824   6
  -2  -4   5 645.342 461.072   6
  -2  -4   5 1417.99 288.134   4
  -2   4   5 520.787 399.121   3
  -2  -4   4 872.641 222.600   4
  -2   4   4 1243.06 500.090   6
  -2   4   4 921.610 341.067   3
  -2  -4   4 919.677 438.376   6
  -2  -4   3 15673.2 712.996   4
  -2  -4   3 17117.4 775.807   8
  -2   4   2 505.660 295.469   3
  -2  -4   2 497.798 161.856   4
  -2  -4   2 776.751 278.305   8
  -2  -4   1 1950.14 282.316   4
  -2  -4   1 2585.41 368.769   8
  -2   4   1 1724.81 451.905   3
  -2   4   0 1649.25 447.121   3
  -2   4   0 1226.99 189.001   4
  -2  -4   0 1296.31 207.593   4
  -2  -4   0 1226.37 243.984   8
  -2  -4  -1 2554.08 281.700   4
  -2  -4  -1 2196.89 346.253   8
  -2  -4  -2 7540.54 582.684   8
  -2  -4  -2 7397.19 438.673   4
  -2  -4  -2 7358.53 497.946  10
  -2  -4  -3 28667.0 863.587   4
  -2  -4  -3 29110.3 1010.04  10
   2   4   4 9026.15 926.701   7
   2  -4   4 9305.40 1069.07   7
   2   4   5 913.636 659.953   7
  -2  -4  -5 1095.00 231.463  10
  -2  -4  -6 92.7819 116.600  10
  -2  -4  -7 3263.02 414.137  10
  -2  -4  -8 1400.72 301.509  10
  -2  -4  -9 247.712 157.045  10
  -2  -4 -10-127.388 207.697  10
  -2  -4 -11 139.633 176.664  10
  -2  -4 -12 240.646 251.089  10
  -2  -5  13 2653.65 1097.84   6
  -2  -5  12 749.471 827.176   6
   2   5 -12 177.156 271.189   5
  -2  -5  11 1702.78 837.679   6
   2   5 -11 351.030 234.040   5
  -2  -5  10 2023.72 729.162   6
  -2  -5   9 221.778 623.623   6
  -2  -5   8 840.440 572.985   6
  -2  -5   7 529.406 470.889   6
  -2  -5   6 703.583 529.625   6
  -2  -5   6 2250.58 360.888   4
  -2  -5   5 414.706 202.477   4
  -2   5   5 549.763 433.959   6
  -2   5   5 297.269 390.624   3
  -2  -5   5 149.813 388.229   6
  -2   5   4 3770.26 762.883   3
  -2   5   4 3885.78 862.223   6
  -2  -5   4 2929.59 361.516   4
  -2   5   3 7120.91 924.625   3
  -2  -5   3 6992.76 496.103   4
  -2  -5   3 6869.76 619.365   8
  -2   5   2 790.937 311.612   3
  -2  -5   2 596.692 160.373   4
  -2  -5   2 720.109 264.265   8
  -2   5   1 17163.3 1414.59   3
  -2  -5   1 18385.3 733.707   4
  -2  -5   1 19342.3 891.175   8
  -2   5   0 488.593 155.406   4
  -2   5   0 69.8304 163.952   3
  -2  -5   0 266.394 110.222   4
  -2  -5   0 365.016 269.152   8
  -2  -5  -1 16374.9 695.336   4
  -2   5  -1 17199.7 1310.39   3
  -2  -5  -1 16743.1 768.078  10
  -2  -5  -1 17021.9 882.887   8
  -2  -5  -2 9234.74 569.612  10
  -2  -5  -2 8186.76 479.254   4
  -2  -5  -2 10102.4 647.133   8
  -2  -5  -3 136.699 238.027   8
   2  -5   3 35.6617 561.528   7
  -2  -5  -3 487.256 170.211   4
  -2  -5  -3 439.351 190.469  10
   2   5   4 239.607 567.549   7
   2  -5   4 387.217 769.333   7
  -2  -5  -4 628.139 177.587  10
   2   5   5 1339.33 780.589   7
  -2  -5  -5 2235.47 317.641  10
  -2  -5  -6 15499.2 865.187  10
  -2  -5  -7 8037.69 657.224  10
  -2  -5  -8 3515.40 469.769  10
  -2  -5  -9 14.8404 132.473  10
  -2  -5 -10 2032.98 405.000  10
  -2  -5 -11 177.131 168.782  10
  -2  -5 -12 315.465 276.801  10
   2   6 -12 192.389 208.635   5
  -2  -6  11 1650.48 749.671   6
   2   6 -11 108.752 165.896   5
  -2  -6  10 39.7639 462.253   6
   2   6 -10 466.626 245.904   5
  -2  -6   9 929.530 650.090   6
   2   6  -9 500.256 259.780   5
  -2  -6   8 259.346 568.245   6
  -2  -6   7 1899.54 713.190   6
  -2   6   6 3673.82 868.051   3
  -2  -6   6 4822.07 516.145   4
  -2  -6   5 413.633 200.308   4
  -2   6   5 682.491 546.214   6
  -2   6   5 305.129 365.198   3
  -2  -6   5 150.892 376.329   6
  -2   6   4 10457.1 1251.62   3
  -2   6   4 11052.9 1089.76   6
  -2  -6   4 10091.6 631.584   4
  -2   6   3 3691.20 753.191   3
  -2  -6   3 3822.24 403.835   4
  -2  -6   3 4371.13 531.992   8
  -2  -6   2 1480.16 242.676   4
  -2   6   2 1713.50 488.560   3
  -2  -6   2 1529.01 355.374   8
  -2   6   1 5086.93 770.796   3
  -2  -6   1 5699.25 441.981   4
  -2  -6   1 5259.78 568.989   8
  -2  -6   0 2553.63 272.315   4
  -2   6   0 3486.56 626.183   3
  -2  -6   0 2790.28 324.858   8
  -2  -6  -1 12469.1 602.418   4
  -2   6  -1 11863.2 1132.60   3
  -2  -6  -1 12897.1 783.858   8
  -2  -6  -2 3385.43 327.422   4
  -2  -6  -2 3147.79 385.016   8
  -2  -6  -2 3507.96 385.262  10
  -2  -6  -3 336.687 248.756   8
   2  -6   3-209.900 545.290   7
  -2   6  -3 306.599 278.868   2
  -2  -6  -3 281.376 129.725   4
  -2  -6  -3 494.291 152.907  10
   2  -6   4 3017.75 995.681   7
  -2  -6  -4 4396.27 446.982  10
  -2   6  -4 4257.63 746.560   2
   2   6   5 875.685 797.098   7
  -2  -6  -5 793.570 222.755  10
  -2   6  -5 751.322 405.705   2
  -2  -6  -6 12437.2 781.053  10
  -2   6  -6 14270.6 1497.23   2
  -2  -6  -7 558.496 207.633  10
  -2  -6  -8 733.660 247.827  10
  -2  -6  -9 2359.91 427.805  10
  -2  -6 -10-54.7375 148.470  10
  -2  -6 -11 84.7054 218.681  10
   2   7 -12-61.8281 241.389   5
   2   7 -11-22.6418 162.710   5
  -2  -7  10 192.597 496.308   6
   2   7 -10 73.2849 169.796   5
  -2  -7   9 427.625 566.809   6
   2   7  -9 238.837 215.583   5
  -2  -7   8 237.576 395.131   6
   2   7  -8 307.567 194.703   5
  -2  -7   7 325.475 515.919   6
  -2   7   6 3623.71 914.932   3
  -2  -7   6 1410.87 662.941   6
  -2  -7   5 629.840 216.166   4
  -2   7   5 938.703 641.835   6
  -2   7   5 321.289 376.905   3
  -2  -7   5 344.764 494.330   6
  -2   7   4 2373.85 650.890   3
  -2  -7   4 1761.45 295.352   4
  -2  -7   4 712.077 499.267   6
  -2   7   3 5592.12 905.201   3
  -2  -7   3 4603.21 421.287   4
  -2  -7   3 5057.52 529.679   8
  -2   7   2 12976.1 1314.92   1
  -2   7   2 12943.9 1348.51   3
  -2  -7   2 11489.9 606.952   4
  -2  -7   2 13023.0 771.217   8
  -2  -7   1 48580.4 1180.53   4
  -2  -7   1 47119.6 1542.24   8
  -2   7   0 1869.71 481.348   1
  -2   7   0 2480.21 566.610   3
  -2  -7   0 2250.85 268.250   4
  -2  -7   0 2730.12 379.905   8
  -2  -7  -1 11078.1 585.911   4
  -2   7  -1 11548.1 1150.69   3
  -2   7  -1 12500.6 1196.82   1
  -2  -7  -1 12540.0 794.105   8
  -2  -7  -2 17730.3 709.971   4
  -2   7  -2 17814.9 1445.17   3
  -2  -7  -2 18826.1 895.397  10
  -2  -7  -2 19247.0 964.337   8
  -2  -7  -3 3164.59 297.734   4
  -2   7  -3 3966.83 739.549   2
  -2  -7  -3 3446.30 397.797  10
  -2  -7  -3 2765.41 447.659   8
  -2  -7  -4-89.4951 272.953   8
   2   7   4-558.305 662.612   7
  -2   7  -4-52.3883 231.981   2
  -2  -7  -4 225.283 178.871  10
   2   7   5 187.293 769.390   7
  -2   7  -5 513.456 352.768   2
  -2  -7  -5 843.093 234.210  10
  -2  -7  -6 17988.1 968.724  10
  -2   7  -6 20096.7 1800.11   2
  -2  -7  -7 8108.81 682.650  10
  -2  -7  -8 6622.43 642.276  10
  -2  -7  -9 91.3148 157.457  10
  -2  -7 -10 19.5480 200.028  10
  -2  -7 -11-75.3901 189.906  10
   2   8 -12 125.455 212.480   5
   2   8 -11-18.5779 178.699   5
   2   8 -10 214.246 197.126   5
   2   8  -9 341.967 194.023   5
  -2  -8   8 681.114 546.081   6
   2   8  -8 212.235 192.150   5
  -2  -8   7 117.065 487.480   6
   2   8  -7 209.332 178.965   5
  -2  -8   6 323.183 501.391   6
  -2   8   5 4422.97 938.891   3
  -2  -8   5 4404.78 469.729   4
  -2   8   4-82.5391 321.304   1
  -2   8   4 632.173 476.683   3
  -2  -8   4 63.6450 384.219   6
  -2  -8   4 473.987 234.552   4
  -2  -8   3 606.645 215.621   4
  -2   8   3 742.780 460.022   3
  -2   8   3 487.657 472.912   1
  -2  -8   3 538.578 349.929   8
  -2   8   2 4793.80 837.908   3
  -2  -8   2 3590.05 367.572   4
  -2  -8   2 3369.65 514.443   8
  -2   8   2 4144.98 853.791   1
  -2   8   1 5172.80 886.629   3
  -2  -8   1 4709.25 411.633   4
  -2  -8   1 5415.77 586.416   8
  -2   8   1 5111.78 856.762   1
  -2   8   0 3217.89 652.198   3
  -2   8   0 2810.64 590.882   1
  -2  -8   0 2614.22 286.776   4
  -2  -8   0 2615.90 432.149   8
  -2  -8  -1 4355.25 379.958   4
  -2   8  -1 4667.77 788.070   3
  -2   8  -1 5843.64 888.857   1
  -2  -8  -1 3755.65 553.601   8
  -2   8  -2 17305.0 1410.22   3
  -2  -8  -2 16579.5 939.877   8
  -2  -8  -3 16228.8 884.105  10
  -2  -8  -3 14711.1 945.838   8
  -2   8  -3 16016.3 1503.16   2
  -2  -8  -4 11166.7 757.746  10
  -2   8  -4 11120.3 1293.52   2
  -2  -8  -4 10289.1 820.933   8
  -2  -8  -5 680.607 206.885  10
   2   8   5 889.182 869.822   7
  -2   8  -5 536.798 297.514   2
  -2  -8  -6 79.1716 135.169  10
  -2  -8  -7 1991.39 350.595  10
  -2  -8  -8 48.6627 121.672  10
  -2  -8  -9 872.582 285.814  10
  -2  -8 -10 569.972 265.532  10
  -2  -8 -11 344.275 298.048  10
   2   9 -12-102.021 261.265   5
   2   9 -11 48.7519 228.590   5
   2   9 -10 174.062 180.705   5
   2   9  -9 387.691 241.397   5
   2   9  -8 342.669 238.141   5
   2   9  -7 128.772 148.338   5
  -2  -9   6 279.776 526.645   6
   2   9  -6 224.734 147.151   5
  -2  -9   5 955.463 275.645   4
  -2  -9   5 965.007 619.814   6
  -2   9   5 587.672 569.014   1
  -2   9   4 10372.7 1365.25   3
  -2  -9   4 10700.5 683.480   4
  -2   9   4 8984.23 1448.80   1
  -2   9   3 965.399 536.618   1
  -2   9   3 1280.32 550.018   3
  -2  -9   3 733.591 340.023   8
  -2  -9   3 960.946 237.885   4
  -2   9   2 5317.87 920.568   3
  -2  -9   2 4854.02 407.348   4
  -2  -9   2 5223.96 569.508   8
  -2   9   2 4956.46 946.332   1
  -2   9   1 11008.7 1255.63   3
  -2  -9   1 7843.51 517.170   4
  -2   9   1 10306.2 1158.16   1
  -2  -9   1 8987.96 679.504   8
  -2   9   0 2964.15 724.134   3
  -2  -9   0 3265.58 321.871   4
  -2   9   0 2404.50 597.621   1
  -2  -9   0 2402.00 459.325   8
  -2   9  -1 11888.1 1251.56   3
  -2  -9  -1 10126.4 774.120   8
  -2  -9  -2 210.496 277.579   8
  -2   9  -2 388.076 279.637   3
  -2  -9  -3 4018.17 461.689  10
  -2  -9  -3 2495.82 503.267   8
  -2   9  -4 2352.40 717.984   2
  -2  -9  -4 2586.36 396.074  10
  -2  -9  -4 2163.61 480.248   8
  -2   9  -5 18331.7 1805.59   2
  -2  -9  -5 16426.1 952.350  10
  -2  -9  -6 8741.35 720.708  10
  -2  -9  -7 206.504 158.104  10
  -2  -9  -8 2635.88 431.358  10
  -2  -9  -9 1751.69 390.140  10
  -2  -9 -10 329.929 239.138  10
  -2  -9 -11 565.580 286.286  10
   2  10 -11 73.0922 232.638   5
   2  10 -10 255.936 263.429   5
   2  10  -9 390.049 244.344   5
   2  10  -8 432.058 218.683   5
   2  10  -7 269.947 195.809   5
   2  10  -6 1862.84 381.103   5
  -2  10   5 1815.34 801.885   1
  -2 -10   5 2430.00 389.089   4
   2  10  -5 1045.89 352.552   5
   2  10  -4 990.755 281.139   5
  -2 -10   4 1722.36 308.235   4
  -2  10   4 1126.42 665.584   1
  -2  10   3 2270.01 734.489   1
  -2  10   3 1865.85 697.451   3
  -2 -10   3 2491.38 343.559   4
  -2 -10   3 2082.06 458.989   8
  -2 -10   2 244.313 160.792   4
  -2 -10   2 205.747 263.113   8
  -2  10   2 460.533 374.906   1
  -2  10   1 11755.5 1348.47   3
  -2 -10   1 9094.23 543.566   4
  -2  10   1 12102.3 1408.87   1
  -2 -10   1 7764.81 743.421   8
  -2  10   0-146.508 384.589   1
  -2  10   0 56.7826 420.059   3
  -2 -10   0-32.5923 217.392   8
  -2  10  -1 5562.27 945.202   3
  -2  10  -1 5514.29 1036.62   1
  -2 -10  -1 4058.50 570.833   8
  -2  10  -2 12.8345 357.831   1
  -2  10  -2-31.1812 296.387   3
  -2 -10  -2-416.156 265.152   8
  -2 -10  -3 10763.5 819.493   8
  -2 -10  -4 22636.4 1121.49  10
  -2 -10  -4 21440.0 1150.64   8
  -2  10  -4 23619.2 1966.06   2
  -2 -10  -5 2673.97 401.185  10
  -2 -10  -5 2841.23 602.441   8
  -2 -10  -6 362.069 165.397  10
  -2 -10  -7 3627.76 500.016  10
  -2 -10  -8-32.0417 133.528  10
  -2 -10  -9 356.674 223.427  10
  -2 -10 -10-56.0493 175.947  10
  -2 -10 -11 606.574 230.314  10
   2  11 -11 171.135 265.842   5
   2  11 -10 1305.99 433.359   5
   2  11  -9 960.286 329.416   5
   2  11  -8 335.297 224.659   5
   2  11  -7 337.150 234.512   5
  -2 -11   6 1257.05 327.263   4
   2  11  -6 491.411 242.330   5
  -2 -11   5 1295.91 301.867   4
   2  11  -5 784.051 268.810   5
   2  11  -4 138.887 170.157   5
  -2  11   4 856.295 590.022   1
  -2 -11   4 879.313 257.642   4
   2  11  -3 1164.57 288.879   5
  -2  11   3 1826.21 712.215   1
  -2 -11   3 1569.73 292.973   4
  -2 -11   3 1171.88 419.208   8
  -2  11   2 1124.58 572.906   3
  -2 -11   2 256.868 264.909   8
  -2 -11   2 278.420 153.863   4
  -2  11   2 627.633 481.326   1
  -2  11   1 2639.74 751.979   3
  -2  11   1 2208.32 685.943   1
  -2 -11   1 1549.19 420.911   8
  -2  11   0-39.7028 335.550   1
  -2  11   0 382.360 430.110   3
  -2 -11   0 166.291 293.113   8
  -2  11  -1-93.8544 270.302   3
  -2  11  -1-28.8925 402.066   1
  -2 -11  -1-103.866 270.526   8
  -2  11  -2 3434.28 809.969   1
  -2 -11  -2 2315.23 376.871   8
  -2 -11  -3 3133.58 462.070   8
  -2 -11  -4 5500.42 563.554  10
  -2 -11  -4 4230.50 598.166   8
  -2 -11  -5 602.694 336.058   8
  -2 -11  -5 1173.84 283.941  10
  -2 -11  -6 46.8839 135.422  10
  -2 -11  -7 58.6091 137.503  10
  -2 -11  -8 602.784 260.170  10
  -2 -11  -9-147.859 185.349  10
  -2 -11 -10 203.508 226.896  10
   2  12 -11 308.439 281.592   5
   2  12 -10 461.864 298.549   5
   2  12  -9 69.1930 223.198   5
   2  12  -8 226.798 211.023   5
   2  12  -7 33.0775 173.671   5
  -2 -12   6 475.965 277.528   4
   2  12  -6 538.515 252.105   5
  -2 -12   5 658.812 272.111   4
   2  12  -5-161.263 171.345   5
   2  12  -4 231.095 206.920   5
  -2 -12   4 671.930 246.794   4
   2  12  -3 56.3966 181.222   5
  -2 -12   3 527.879 352.588   8
  -2 -12   3 188.740 168.146   4
  -2  12   2 968.715 560.778   1
  -2 -12   2 715.004 343.275   8
  -2  12   1-465.181 368.709   1
  -2 -12   1 688.583 739.650   9
  -2 -12   1 147.459 313.197   8
  -2  12   0 9273.41 1286.97   3
  -2  12   0 8828.73 1320.97   1
  -2 -12   0 5823.94 628.591   8
  -2  12  -1 3680.84 866.321   3
  -2 -12  -1 3197.74 501.838   8
  -2  12  -1 4224.33 928.662   1
  -2  12  -2 1009.68 568.320   1
  -2 -12  -2 537.832 349.370   8
  -2 -12  -3-32.4061 293.776   8
  -2 -12  -4 1977.91 446.381   8
  -2 -12  -5 3370.82 484.972  10
  -2 -12  -5 2940.73 531.228   8
  -2 -12  -6 3826.23 521.413  10
  -2 -12  -7 1454.02 344.249  10
  -2 -12  -8 320.321 229.203  10
  -2 -12  -9 399.735 288.703  10
  -2 -12 -10 99.6679 231.828  10
   2  13 -10 532.634 263.475   5
   2  13  -9-128.486 205.114   5
   2  13  -8-70.5667 202.683   5
   2  13  -7-220.899 243.401   5
  -2 -13   6 1000.38 321.831   4
   2  13  -6-211.968 238.772   5
  -2 -13   5 3366.31 459.923   4
   2  13  -5 2418.10 437.019   5
   2  13  -4 257.172 217.199   5
  -2 -13   4 831.501 280.972   4
  -2 -13   3 1093.04 420.273   8
  -2 -13   2 557.551 289.098   8
  -2 -13   1 14.7730 701.726   9
  -2 -13   1 1209.78 369.096   8
  -2 -13   0 97.0737 289.949   8
  -2 -13   0 4.97522 790.263   9
  -2 -13  -1 3909.40 589.845   8
  -2 -13  -2-194.129 331.574   8
  -2 -13  -3 1739.97 443.722   8
  -2 -13  -4 197.551 272.148   8
  -2 -13  -5 628.437 346.782   8
  -2 -13  -5 806.234 288.233  10
  -2 -13  -6 225.288 198.566  10
  -2 -13  -7 206.125 201.171  10
  -2 -13  -8 788.433 318.836  10
  -2 -13  -9 339.838 231.294  10
   2  14 -10 255.472 307.041   5
   2  14  -9 170.559 240.618   5
   2  14  -8-47.0064 236.307   5
   2  14  -7 1119.70 381.484   5
  -2 -14   6 5387.73 615.896   4
   2  14  -6 3123.25 543.306   5
   2  14  -5 1329.51 348.309   5
  -2 -14   5 2315.06 401.693   4
   2  14  -4 227.366 214.567   5
  -2 -14   3 71.9605 334.305   8
  -2 -14   2 317.674 271.473   8
  -2 -14   1-2.29083 675.522   9
  -2 -14   1 265.504 327.319   8
  -2 -14   0 40.1366 802.936   9
  -2 -14   0 1896.24 437.731   8
  -2 -14  -1 1243.87 368.500   8
  -2 -14  -2-47.9690 283.629   8
  -2 -14  -3 152.436 288.859   8
  -2 -14  -4-70.0737 248.179   8
  -2 -14  -5 5062.23 619.396  10
  -2 -14  -5 2854.20 560.132   8
  -2 -14  -6 481.828 248.283  10
  -2 -14  -7-37.0385 156.596  10
  -2 -14  -8 418.763 271.241  10
  -2 -14  -9 943.211 370.727  10
   2  15  -9-163.052 314.421   5
   2  15  -8 66.5780 221.310   5
   2  15  -7 41.9755 215.360   5
   2  15  -6 999.826 373.373   5
   2  15  -5 2675.57 484.254   5
   2  15  -4 2202.92 465.243   5
  -2 -15   3 103.328 383.771   8
  -2 -15   2 1190.00 487.149   8
  -2 -15   1 479.015 952.518   9
  -2 -15   1 2193.72 510.050   8
  -2 -15   0 3747.80 1064.89   9
  -2 -15   0 3872.49 619.930   8
  -2 -15  -1 227.224 334.626   8
  -2 -15  -2-88.3607 277.807   8
  -2 -15  -3 354.720 287.669   8
  -2 -15  -4 50.1809 290.109   8
  -2 -15  -5 1366.53 428.276   8
  -2 -15  -6 2414.93 462.250  10
  -2 -15  -7 241.429 256.577  10
  -2 -15  -8 1038.89 366.523  10
   2  16  -9-387.949 310.261   5
   2  16  -8 102.963 238.436   5
   2  16  -7 125.756 234.311   5
   2  16  -6 808.739 366.239   5
   2  16  -5-213.565 241.407   5
   2  16  -4 361.950 263.878   5
  -2 -16   4 385.443 441.211   8
  -2 -16   3 348.679 341.061   8
  -2 -16   2 1292.32 415.131   8
  -2 -16   1 343.554 1009.78   9
  -2 -16   1 613.381 427.089   8
  -2 -16   0 2241.95 1170.92   9
  -2 -16   0 3666.11 631.229   8
  -2 -16  -1 104.011 268.787   8
  -2 -16  -2 2547.12 470.148   8
  -2 -16  -3 399.040 361.258   8
  -2 -16  -4 306.630 289.682   8
  -2 -16  -5 77.3104 355.793   8
  -2 -16  -6 308.140 221.910  10
  -2 -16  -7 89.4853 213.608  10
  -2 -16  -8 299.238 302.009  10
   2  17  -8-107.828 256.736   5
   2  17  -7-55.1194 251.390   5
   2  17  -6 100.417 199.695   5
   2  17  -5-17.4733 217.967   5
   2  17  -4-104.207 252.254   5
  -2 -17   4 154.663 336.921   8
  -2 -17   3 610.479 399.461   8
  -2 -17   2 1706.21 489.476   8
  -2 -17   1 1027.08 1196.51   9
  -2 -17   1 1111.45 437.074   8
  -2 -17   0 1529.09 1389.23   9
  -2 -17   0 3633.20 589.454   8
  -2 -17  -1 1520.04 403.472   8
  -2 -17  -2-11.9462 308.309   8
  -2 -17  -3-4.61682 338.007   8
  -2 -17  -4-20.5917 284.006   8
  -2 -17  -6 1168.53 398.531  10
  -2 -17  -7 147.114 181.022  10
   2  18  -7 445.257 350.701   5
   2  18  -6 132.460 270.088   5
   2  18  -5 699.741 370.011   5
   2  18  -4-126.071 258.338   5
  -2 -18   4 89.9644 271.186   8
  -2 -18   3 185.077 314.617   8
  -2 -18   2 134.138 290.345   8
  -2 -18   1 615.372 1122.31   9
  -2 -18   1 420.881 341.762   8
  -2 -18   0 83.4728 994.606   9
  -2 -18   0 447.392 358.662   8
  -2 -18  -1 285.301 365.221   8
  -2 -18  -2 528.579 339.348   8
  -2 -18  -3 170.296 382.890   8
  -2 -18  -4 12.6506 313.865   8
  -2 -18  -6 344.435 301.019  10
   2  19  -6 64.7519 268.743   5
   2  19  -5 125.303 298.400   5
   2  19  -4 299.098 295.892   5
  -2 -19   4-54.5115 361.454   8
  -2 -19   3 73.6180 314.591   8
  -2 -19   2 142.954 334.511   8
  -2 -19   1 100.564 1001.57   9
  -2 -19   1 229.173 360.768   8
  -2 -19   0-381.654 1065.49   9
  -2 -19   0 378.514 390.993   8
  -2 -19  -1 382.715 403.675   8
  -2 -19  -2 71.9487 349.776   8
  -2 -19  -3 265.569 339.818   8
   2  20  -5-7.25526 250.395   5
  -2 -20   5 285.146 387.942   8
   2  20  -4-224.845 288.288   5
  -2 -20   4 273.428 339.409   8
  -2 -20   3-73.2925 330.858   8
  -2 -20   2 53.3745 882.322   9
  -2 -20   2-106.987 385.099   8
  -2 -20   1 208.766 1133.19   9
  -2 -20   1 945.052 490.872   8
  -2 -20   0 871.096 980.315   9
  -2 -20   0 554.179 299.378   8
  -2 -20  -1 142.648 296.392   8
  -2 -20  -2-37.9466 285.397   8
   2  21  -4 332.149 367.809   5
  -2 -21   3 328.653 384.045   8
  -2 -21   2 188.846 681.910   9
  -2 -21   2 116.361 420.486   8
  -2 -21   1 173.668 752.932   9
  -2 -21   1-35.6715 315.403   8
  -2 -21   0-33.6494 790.108   9
  -2 -21   0 228.668 337.177   8
  -2 -21  -1-6.83993 324.793   8
  -2 -21  -2 256.062 329.528   8
  -2 -22   2 10.5682 855.738   9
  -2 -22   1 2.66092 841.316   9
  -2 -22   0-255.242 1007.18   9
  -2 -22   0 382.004 304.068   8
  -2 -22  -1 57.3285 321.446   8
  -3   0  11 852.452 781.426   6
  -3   0  10 599.652 723.714   6
  -3   0   9 628.980 650.537   6
  -3   0   8 387.176 510.795   6
  -3   0   7 428.521 616.084   6
  -3   0   7 330.723 206.912   4
  -3   0   6 2246.86 380.122   4
  -3   0   6 1924.03 794.581   6
  -3   0   5 4751.37 1168.21   6
  -3   0   5 1581.29 321.975   4
  -3   0   4 20774.6 1871.53   6
  -3   0   4 18306.8 931.895   4
  -3   0   3 4694.46 988.442   6
  -3   0   3 425.927 211.544   4
  -3   0   2 646.237 219.380   4
  -3   0   1 376.446 195.606   4
  -3   0   0 10545.3 673.885   4
  -3   0  -1 108.879 129.668   4
  -3   0  -2 2306.00 319.867   4
   3   0   4-323.368 810.234   7
   3   0   5-59.3994 657.679   7
  -3   0  -5-137.291 165.686  10
   3   0   6 1115.62 1033.67   7
  -3   0  -6 1497.04 313.034  10
  -3   0  -7 0.79967 184.148  10
  -3   0  -8 176.330 184.735  10
  -3   0  -9-56.0629 189.287  10
  -3   0 -10 713.568 371.512  10
  -3   1  11 856.580 840.606   6
  -3  -1  11 95.7037 626.216   6
  -3   1  10 724.395 711.302   6
  -3  -1  10 65.3733 567.624   6
  -3   1   9 392.416 668.900   6
  -3  -1   9 897.153 780.479   6
  -3   1   8 1065.53 690.710   6
  -3  -1   8 163.116 521.640   6
  -3  -1   8 47.0613 196.458   4
  -3   1   7 760.454 698.189   6
  -3  -1   7 670.026 619.320   6
  -3  -1   7 462.722 222.413   4
  -3   1   6 4681.93 518.303   4
  -3  -1   6 3373.58 450.640   4
  -3   1   6 2219.26 833.597   6
  -3  -1   6 3133.97 919.258   6
  -3   1   5 5446.16 1100.72   6
  -3  -1   5 3616.02 1055.79   6
  -3   1   5 6083.46 615.636   4
  -3  -1   5 5303.28 543.523   4
  -3   1   4 14008.9 810.189   4
  -3  -1   4 12762.4 807.031   4
  -3   1   3 4823.59 496.527   4
  -3  -1   3 4111.75 445.001   4
  -3   1   3 5270.25 1232.89   6
  -3   1   2 161.771 165.750   4
  -3  -1   2 121.992 148.747   4
  -3   1   1 1401.60 268.859   4
  -3  -1   1 929.858 243.187   4
  -3   1   0 57.5052 120.132   4
  -3  -1   0 105.531 121.513   4
  -3   1  -1 1567.08 264.398   4
  -3  -1  -1 1428.98 264.310   4
  -3   1  -2 9375.54 611.623   4
  -3  -1  -2 9222.19 609.457   4
   3   1   4 25.7902 763.424   7
   3  -1   4-50.3953 838.766   7
   3   1   5-925.257 812.157   7
   3  -1   5-213.317 728.337   7
  -3  -1  -5 92.1929 172.854  10
  -3   1  -5-9.98293 154.312  10
   3   1   6 1883.73 1087.75   7
   3  -1   6 2185.98 1252.65   7
  -3  -1  -6 974.047 252.519  10
  -3   1  -6 1393.27 293.704  10
  -3  -1  -7 879.777 305.066  10
  -3   1  -7 914.659 301.705  10
  -3  -1  -8 1225.74 336.355  10
  -3   1  -8 1163.39 325.146  10
  -3  -1  -9 147.689 208.313  10
  -3   1  -9 497.179 288.173  10
  -3  -1 -10 504.421 282.146  10
  -3   1 -10 7.44940 187.368  10
  -3   2  11 560.321 759.342   6
  -3  -2  11 1.92481 655.825   6
  -3   2  10-183.869 627.957   6
  -3  -2  10-197.495 578.228   6
  -3   2   9 1390.11 745.150   6
  -3  -2   9 654.368 685.618   6
  -3  -2   9 55.9882 220.855   4
  -3   2   8 788.107 696.267   6
  -3  -2   8 519.654 663.928   6
  -3  -2   8 238.171 208.292   4
  -3   2   7 662.793 651.966   6
  -3  -2   7 1554.65 717.235   6
  -3  -2   7 165.174 201.396   4
  -3   2   6 155.763 519.142   6
  -3  -2   6 1129.37 287.374   4
  -3   2   5 1977.27 384.117   4
  -3  -2   5 1703.87 337.115   4
  -3   2   4 5547.78 540.301   4
  -3  -2   4 4794.52 510.170   4
  -3   2   3 5984.09 536.957   4
  -3   2   3 5249.36 1119.29   6
  -3  -2   3 5118.06 508.555   4
  -3   2   2 143.321 149.065   4
  -3  -2   2 548.607 198.332   4
  -3   2   1 202.499 164.246   4
  -3  -2   1-9.99289 121.475   4
  -3   2   0 3339.94 389.449   4
  -3  -2   0 3348.42 398.162   4
  -3   2  -1 483.431 188.461   4
  -3  -2  -1 158.432 152.384   4
  -3  -2  -2 416.393 165.837   4
   3  -2   3-726.675 774.243   7
   3   2   4-965.152 797.105   7
   3  -2   4-760.666 879.928   7
   3   2   5 499.668 700.246   7
   3  -2   5 210.459 791.586   7
  -3  -2  -5 1183.38 275.719  10
  -3   2  -5 1434.36 324.619  10
   3   2   6 957.596 929.244   7
  -3  -2  -6 834.602 254.473  10
  -3   2  -6 675.135 250.318  10
  -3  -2  -7 1193.04 338.195  10
  -3   2  -7 1801.41 360.280  10
  -3  -2  -8 86.5564 186.330  10
  -3   2  -8 225.643 205.039  10
  -3  -2  -9 1372.56 403.513  10
  -3   2  -9 1553.49 399.174  10
  -3  -2 -10 389.665 295.569  10
  -3   3  11 746.680 799.499   6
  -3  -3  11 747.574 735.153   6
  -3  -3  11 562.306 368.014   4
  -3   3  10 647.260 831.960   6
  -3  -3  10 1055.09 801.476   6
  -3  -3  10 342.279 312.657   4
  -3   3   9 804.747 782.814   6
  -3  -3   9 1249.27 753.782   6
  -3  -3   9 607.895 307.977   4
  -3   3   8-116.317 523.175   6
  -3  -3   8 801.572 569.294   6
  -3  -3   8 61.7379 190.886   4
  -3   3   7 154.905 538.992   6
  -3  -3   7-56.7695 499.428   6
  -3  -3   7 326.017 217.980   4
  -3   3   6 50.5498 585.085   6
  -3  -3   6 42.7251 143.377   4
  -3  -3   5 1951.80 362.508   4
  -3   3   5 1989.28 745.640   6
  -3  -3   5 1996.26 835.949   6
  -3   3   4 1286.22 646.770   6
  -3   3   4 1536.84 324.321   4
  -3  -3   4 1167.21 285.443   4
  -3   3   3 2134.65 357.787   4
  -3  -3   3 1969.73 329.775   4
  -3   3   3 3424.80 931.094   6
  -3  -3   3 2905.86 845.131   6
  -3   3   2-215.225 539.643   6
  -3   3   2-394.811 222.774   4
  -3  -3   2 164.659 151.586   4
  -3   3   1 2065.51 321.201   4
  -3  -3   1 1518.37 292.782   4
  -3   3   0 268.006 170.594   4
  -3  -3   0 274.267 176.073   4
  -3  -3  -1 1121.31 409.303   8
  -3   3  -1 918.067 241.096   4
  -3  -3  -1 764.027 216.116   4
  -3  -3  -2 229.412 148.167   4
   3  -3   3-644.417 934.832   7
   3   3   4-983.745 874.961   7
   3  -3   4-1129.72 873.639   7
   3   3   5-327.801 754.248   7
   3  -3   5 407.816 894.487   7
  -3  -3  -5 971.764 263.393  10
   3  -3   6 3802.71 1422.99   7
   3   3   6 3851.83 1223.41   7
  -3  -3  -6 5835.32 598.224  10
  -3   3  -6 5758.08 600.463  10
  -3  -3  -7 225.956 191.135  10
  -3   3  -7 709.100 266.269  10
  -3  -3  -8 174.201 190.141  10
  -3  -3  -9-109.185 210.674  10
  -3  -3 -10 762.236 351.664  10
  -3   4  11 1637.93 953.650   6
  -3  -4  11 1263.71 832.027   6
  -3  -4  11 422.974 340.221   4
  -3   4  10 1191.38 905.075   6
  -3  -4  10 163.424 717.156   6
  -3  -4  10 698.537 373.919   4
  -3   4   9 616.538 677.746   6
  -3  -4   9 842.506 745.789   6
  -3  -4   9 178.826 260.459   4
  -3   4   8 1518.63 753.034   6
  -3  -4   8 1125.71 800.863   6
  -3  -4   8 387.814 246.690   4
  -3   4   7 477.092 685.996   6
  -3  -4   7 1528.50 731.572   6
  -3  -4   7 181.920 201.320   4
  -3   4   6 240.258 537.922   6
  -3  -4   6 476.526 553.365   6
  -3  -4   6 61.9674 154.022   4
  -3   4   5 1468.25 682.704   6
  -3  -4   5 989.823 264.066   4
  -3   4   4-38.7901 491.526   6
  -3  -4   4 658.455 660.006   6
  -3  -4   4 304.390 182.069   4
  -3   4   3 938.501 693.689   6
  -3  -4   3 855.733 236.053   4
  -3   4   2-186.852 188.195   4
  -3  -4   2 159.920 136.070   4
  -3   4   1 600.117 219.334   4
  -3  -4   1 461.787 181.101   4
  -3  -4   0 330.947 277.830   8
  -3   4   0-156.408 133.596   4
  -3  -4   0-18.1237 141.050   4
  -3  -4  -1 2170.27 454.340   8
  -3  -4  -1 1642.43 305.502   4
  -3  -4  -2 1983.38 299.101   4
   3  -4   3-944.769 926.392   7
  -3  -4  -3 849.958 220.294   4
   3   4   4-846.229 884.351   7
   3  -4   4 81.3006 678.291   7
   3   4   5 211.323 782.765   7
   3  -4   5 1644.24 1040.04   7
  -3  -4  -5 1872.39 353.695  10
   3   4   6 2123.58 1147.68   7
  -3  -4  -6 1871.01 380.397  10
  -3  -4  -7 915.289 298.588  10
  -3  -4  -8 294.426 223.773  10
  -3  -4  -9 270.382 245.255  10
  -3  -4 -10 299.171 263.489  10
  -3   5  11 566.447 962.117   6
  -3  -5  11 911.030 776.083   6
  -3  -5  11 648.033 367.211   4
  -3   5  10 830.523 775.009   6
  -3  -5  10 819.314 757.200   6
  -3  -5  10 577.201 336.845   4
  -3   5   9 712.728 764.479   6
  -3  -5   9 1657.09 857.268   6
  -3  -5   9 278.628 261.830   4
  -3   5   8 868.014 717.017   6
  -3  -5   8 659.769 318.340   4
  -3   5   7 172.375 494.749   6
  -3  -5   7 658.094 664.449   6
  -3  -5   7 432.326 237.864   4
  -3   5   6 971.758 658.859   6
  -3  -5   6 784.783 661.772   6
  -3  -5   6 267.439 193.106   4
  -3   5   5 680.209 688.355   6
  -3  -5   5 370.381 651.109   6
  -3  -5   5 193.410 154.345   4
  -3  -5   4 248.191 519.888   6
  -3  -5   4 39.3595 140.155   4
  -3  -5   3 242.320 164.149   4
  -3  -5   2 520.181 192.832   4
  -3   5   1 2948.10 383.831   4
  -3  -5   1 2633.97 376.814   4
  -3  -5   1 3015.15 483.166   8
  -3  -5   0 251.828 293.398   8
  -3   5   0 611.667 202.796   4
  -3  -5   0 428.447 182.482   4
  -3  -5  -1 1546.66 398.302   8
  -3  -5  -1 1783.05 298.610   4
  -3  -5  -2 345.684 267.259   8
  -3  -5  -2 587.133 199.049   4
   3  -5   3-1578.84 1029.20   7
  -3  -5  -3 39.9614 123.418   4
   3   5   4 321.547 772.791   7
   3  -5   4 1997.52 834.056   7
   3   5   5 707.910 667.376   7
   3  -5   5 1596.99 1017.98   7
  -3  -5  -5 1052.41 281.659  10
   3   5   6 1272.04 1012.62   7
  -3  -5  -6 1818.62 373.848  10
  -3  -5  -7 782.565 308.465  10
  -3  -5  -8 2191.88 438.785  10
  -3  -5  -9-127.604 228.854  10
  -3  -5 -10 423.480 264.611  10
  -3   6  11 916.153 969.251   6
  -3  -6  11 1747.70 906.340   6
  -3   6  10 895.575 843.801   6
  -3  -6  10 250.014 661.304   6
  -3  -6  10 245.651 341.174   4
  -3   6   9 1557.03 904.586   6
  -3  -6   9 996.472 788.008   6
  -3  -6   9 897.803 364.440   4
  -3   6   8 953.065 773.374   6
  -3  -6   8 596.447 711.014   6
  -3  -6   8 421.491 257.568   4
  -3   6   7 0.71840 506.025   6
  -3  -6   7 381.980 480.146   6
  -3  -6   7 6.46733 152.207   4
  -3  -6   6 255.986 661.087   6
  -3  -6   6-234.673 169.993   4
  -3  -6   5 729.371 698.523   6
  -3  -6   5 218.338 158.591   4
  -3  -6   4 263.361 609.254   6
  -3  -6   4-24.9878 115.174   4
  -3  -6   3 704.565 231.424   4
  -3  -6   2 1032.58 254.444   4
  -3  -6   1 1878.65 335.065   4
  -3  -6   1 2242.97 521.909   8
  -3  -6   0 486.150 311.731   8
  -3  -6   0 306.388 175.467   4
  -3  -6  -1 17.1188 260.263   8
  -3  -6  -1 127.361 157.217   4
  -3  -6  -2 338.799 288.154   8
  -3  -6  -2-45.4617 149.634   4
  -3  -6  -3 42.4395 146.299   4
   3   6   4-560.148 902.461   7
  -3  -6  -4 1326.99 289.154  10
   3   6   5 155.861 736.064   7
  -3  -6  -5 272.371 213.734  10
   3   6   6 713.597 1049.85   7
  -3  -6  -6 1494.80 334.686  10
  -3  -6  -7 3393.21 510.429  10
  -3  -6  -8 178.583 220.548  10
  -3  -6  -9 286.237 249.677  10
  -3   7  11 1366.28 1039.39   6
  -3  -7  11 81.7293 669.032   6
  -3   7  10 1256.64 973.398   6
  -3  -7  10 803.031 780.771   6
  -3  -7  10 302.502 310.289   4
  -3   7   9 577.466 723.960   6
  -3  -7   9-98.9904 542.173   6
  -3  -7   9 111.298 259.083   4
  -3  -7   8 1207.99 752.699   6
  -3  -7   8 404.602 264.967   4
  -3  -7   7 936.281 781.451   6
  -3  -7   7 202.220 195.108   4
  -3  -7   6-1304.07 727.376   6
  -3  -7   6 10.8991 155.986   4
  -3  -7   5 750.650 576.038   6
  -3  -7   5 45.6432 156.791   4
  -3  -7   4 399.499 185.790   4
  -3  -7   3 2254.61 374.570   4
  -3  -7   2 253.401 173.305   4
  -3  -7   2-12.5889 272.516   8
  -3  -7   1 116.956 170.697   4
  -3  -7   1 434.259 416.843   8
  -3  -7   0 509.870 217.059   4
  -3  -7   0 226.778 310.231   8
  -3  -7  -1 1712.23 416.239   8
  -3  -7  -1 2326.03 362.212   4
  -3  -7  -2 261.019 297.224   8
  -3  -7  -2-157.264 166.866   4
  -3  -7  -3 1203.85 407.919   8
  -3  -7  -3 1392.19 272.818   4
   3   7   4-205.826 863.705   7
  -3  -7  -4 2334.04 390.196  10
   3   7   5 1470.17 886.226   7
  -3  -7  -5 4843.37 574.652  10
   3   7   6 2586.80 1039.41   7
  -3  -7  -6 6005.50 651.591  10
  -3  -7  -7 145.832 256.156  10
  -3  -7  -8-12.1166 189.424  10
  -3  -7  -9-189.412 239.373  10
  -3  -8  10 224.976 615.435   6
  -3  -8  10 497.353 346.581   4
  -3  -8   9-53.6564 583.326   6
  -3  -8   9 738.624 338.962   4
  -3  -8   8 754.591 572.337   6
  -3  -8   8 625.972 275.791   4
  -3  -8   7 1890.42 878.449   6
  -3  -8   7 238.705 193.003   4
  -3  -8   6 162.794 557.100   6
  -3  -8   6-53.6432 145.043   4
  -3  -8   5 677.377 667.001   6
  -3  -8   5-137.495 166.352   4
  -3  -8   4 19.5039 159.784   4
  -3  -8   3 2164.42 361.000   4
  -3  -8   3 1674.16 538.979   8
  -3  -8   2 630.265 230.980   4
  -3  -8   2 243.855 297.426   8
  -3  -8   1 3710.75 445.017   4
  -3  -8   1 3982.30 636.295   8
  -3  -8   0 4235.84 467.245   4
  -3  -8   0 4231.70 599.985   8
  -3  -8  -1 4655.95 471.407   4
  -3  -8  -1 3744.00 606.334   8
  -3  -8  -2 2449.95 527.110   8
  -3  -8  -2 2633.96 370.922   4
  -3  -8  -3 882.654 398.992   8
   3   8   4-126.073 777.596   7
  -3  -8  -4 424.463 255.523  10
   3   8   5 645.378 774.173   7
  -3  -8  -5 2989.39 486.926  10
   3   8   6 971.837 1027.21   7
  -3  -8  -6 26.6736 247.179  10
  -3  -8  -7 1137.27 361.784  10
  -3  -8  -8 50.0414 231.451  10
  -3  -8  -9 245.723 316.490  10
  -3  -9  10 764.979 376.397   4
  -3  -9   9 200.863 549.987   6
  -3  -9   9 11.6984 233.678   4
  -3  -9   8 690.022 765.262   6
  -3  -9   8-4.95663 194.994   4
  -3  -9   7 474.260 754.386   6
  -3  -9   7 446.367 267.940   4
  -3  -9   6 659.088 648.221   6
  -3  -9   6 453.649 230.494   4
  -3  -9   5 460.617 206.020   4
  -3  -9   4-19.4658 150.842   4
  -3  -9   3 313.086 208.335   4
  -3  -9   3 98.3650 366.209   8
  -3  -9   2 264.312 188.544   4
  -3  -9   2 495.438 291.909   8
  -3  -9   1 293.007 190.415   4
  -3  -9   1 627.314 433.996   8
  -3  -9   0 321.556 213.082   4
  -3  -9   0 155.270 350.048   8
  -3  -9  -1 909.281 431.739   8
  -3  -9  -1 1402.06 312.678   4
  -3  -9  -2 1679.10 475.876   8
  -3  -9  -3 11129.2 961.775   8
   3   9   4 1154.42 834.663   7
  -3  -9  -4 5338.67 614.803  10
   3   9   5 746.047 849.347   7
  -3  -9  -5 1243.66 356.608  10
   3   9   6 1262.39 1071.66   7
  -3  -9  -6 868.547 327.586  10
  -3  -9  -7 761.141 323.546  10
  -3  -9  -8 311.995 261.728  10
  -3  -9  -9 611.035 335.209  10
  -3 -10   9 46.6287 275.943   4
  -3 -10   8 862.264 371.798   4
  -3 -10   7 1350.87 734.282   6
  -3 -10   7 370.861 254.564   4
  -3 -10   6 550.192 682.163   6
  -3 -10   6 411.090 220.639   4
  -3 -10   5 154.293 189.403   4
  -3 -10   4 130.768 165.870   4
  -3 -10   4 423.067 356.103   8
  -3 -10   3 458.674 223.991   4
  -3 -10   3 118.872 327.657   8
  -3 -10   2 310.256 193.815   4
  -3 -10   2 295.227 338.460   8
  -3 -10   1 381.146 207.553   4
  -3 -10   1 84.7291 293.224   8
  -3 -10   0 280.033 201.305   4
  -3 -10   0 85.3711 313.090   8
  -3 -10  -1 2121.89 503.686   8
  -3 -10  -2 2433.45 570.894   8
  -3 -10  -3 602.657 498.517   8
  -3 -10  -4 671.482 480.275   8
  -3 -10  -4 850.767 276.753  10
  -3 -10  -5-228.420 203.654  10
  -3 -10  -6 217.379 218.199  10
  -3 -10  -7 272.032 268.473  10
  -3 -10  -8 415.955 349.366  10
  -3 -11   9 1063.39 417.173   4
  -3 -11   8 262.788 288.363   4
  -3 -11   7 491.566 269.245   4
  -3 -11   6-14.5887 180.589   4
  -3 -11   5 9.39166 184.092   4
  -3 -11   4-342.824 216.392   4
  -3 -11   4 125.963 301.955   8
  -3 -11   3 381.663 243.565   4
  -3 -11   3 391.927 392.926   8
  -3 -11   2 181.592 161.554   4
  -3 -11   2 305.895 328.577   8
  -3 -11   1 154.775 203.905   4
  -3 -11   1-93.0716 354.206   8
  -3 -11   0-8.98074 397.939   8
  -3 -11  -1 444.086 337.258   8
  -3 -11  -2 562.258 393.029   8
  -3 -11  -3 382.224 394.810   8
  -3 -11  -4 303.217 365.245   8
  -3 -11  -4 376.206 243.109  10
  -3 -11  -5 267.827 259.696  10
  -3 -11  -6 258.945 247.813  10
  -3 -11  -7 17.3711 229.755  10
  -3 -11  -8-32.8464 214.427  10
  -3 -12   8 1019.45 393.460   4
  -3 -12   7 335.389 283.044   4
  -3 -12   6 562.056 269.215   4
  -3 -12   5 248.089 216.799   4
  -3 -12   5 338.033 422.217   8
  -3 -12   4-50.2812 227.323   4
  -3 -12   4 78.6407 290.841   8
  -3 -12   3 475.740 226.434   4
  -3 -12   3 276.424 353.520   8
  -3 -12   2 396.224 215.839   4
  -3 -12   2 168.368 368.427   8
  -3 -12   1 432.938 349.093   8
  -3 -12   0-57.4192 355.482   8
  -3 -12  -1 11.8877 299.481   8
  -3 -12  -2 333.724 387.301   8
  -3 -12  -3 1945.47 551.769   8
  -3 -12  -4 1917.23 507.440   8
  -3 -12  -4 2269.02 471.655  10
  -3 -12  -5 906.328 324.704  10
  -3 -12  -6 401.144 253.587  10
  -3 -12  -7 440.606 275.400  10
  -3 -12  -8 215.569 245.297  10
  -3 -13   8 511.766 362.979   4
  -3 -13   7 785.925 365.455   4
  -3 -13   6 834.877 326.148   4
  -3 -13   6 551.460 389.508   8
  -3 -13   5-258.344 226.954   4
  -3 -13   5 538.242 412.595   8
  -3 -13   4-412.658 272.842   4
  -3 -13   4-43.6961 323.876   8
  -3 -13   3-130.647 352.638   8
  -3 -13   2 420.998 366.790   8
  -3 -13   1 747.185 386.998   8
  -3 -13   0 42.8323 327.984   8
  -3 -13  -1-19.6296 301.397   8
  -3 -13  -2 305.262 365.373   8
  -3 -13  -3 699.181 493.147   8
  -3 -13  -3 1126.77 377.062  10
  -3 -13  -4 306.681 392.622   8
  -3 -13  -4 217.389 292.012  10
  -3 -13  -5 9.78724 191.064  10
  -3 -13  -6 421.419 327.260  10
  -3 -13  -7 38.0878 208.477  10
  -3 -14   8 619.757 375.831   4
  -3 -14   7 208.300 261.772   4
  -3 -14   6-151.602 247.675   4
  -3 -14   6 828.836 490.381   8
  -3 -14   5 328.543 259.893   4
  -3 -14   5 625.536 467.870   8
  -3 -14   4-194.938 319.879   8
  -3 -14   3 104.716 305.224   8
  -3 -14   2 529.408 389.135   8
  -3 -14   1-213.004 336.886   8
  -3 -14   0 173.031 302.609   8
  -3 -14  -1 31.1554 325.920   8
  -3 -14  -2 147.342 333.647   8
  -3 -14  -3 330.196 427.713   8
  -3 -14  -3 764.127 337.528  10
  -3 -14  -4 352.459 371.916   8
  -3 -14  -4 60.3298 245.156  10
  -3 -14  -5-135.512 327.889   8
  -3 -14  -5 225.819 299.880  10
  -3 -14  -6 143.445 196.324  10
  -3 -14  -7 778.607 369.449  10
  -3 -15   7 741.724 375.619   4
  -3 -15   7 1286.95 576.531   8
  -3 -15   6 182.500 230.429   4
  -3 -15   6 680.055 486.208   8
  -3 -15   5 10.1279 347.312   8
  -3 -15   4 419.355 407.789   8
  -3 -15   3 184.046 361.932   8
  -3 -15   2 309.817 399.872   8
  -3 -15   1 34.0306 327.218   8
  -3 -15   0 282.048 395.468   8
  -3 -15  -1 31.7632 321.448   8
  -3 -15  -2 259.221 309.538   8
  -3 -15  -3 514.077 386.039   8
  -3 -15  -3 888.257 347.866  10
  -3 -15  -4 508.767 478.279   8
  -3 -15  -4 1434.19 475.820  10
  -3 -15  -5 97.2444 396.465   8
  -3 -15  -5 95.1551 280.880  10
  -3 -15  -6 264.619 262.673  10
  -3 -16   7 52.5974 399.832   8
  -3 -16   6 47.6657 441.353   8
  -3 -16   5 280.975 461.262   8
  -3 -16   4-193.197 354.930   8
  -3 -16   3 248.631 438.271   8
  -3 -16   2 2432.08 649.777   8
  -3 -16   1 393.776 395.205   8
  -3 -16   0 1330.38 583.184   8
  -3 -16  -1-80.1792 330.827   8
  -3 -16  -2 307.802 477.011   8
  -3 -16  -3 133.148 415.267   8
  -3 -16  -3 416.667 300.995  10
  -3 -16  -4 367.981 461.396   8
  -3 -16  -4 208.609 286.397  10
  -3 -16  -5 305.769 381.923   8
  -3 -16  -5 233.746 374.969  10
  -3 -17   5 155.675 417.222   8
  -3 -17   4 373.942 439.309   8
  -3 -17   3 584.135 537.530   8
  -3 -17   2 887.015 529.669   8
  -3 -17   1 497.307 519.969   8
  -3 -17   0 116.383 403.435   8
  -3 -17  -1 261.210 406.647   8
  -3 -17  -2 357.499 313.585   8
  -3 -17  -3-102.332 373.364   8
  -3 -17  -4 284.050 502.486   8
  -3 -17  -4 283.996 312.050  10
  -3 -18   3 628.666 488.166   8
  -3 -18   2 284.451 452.990   8
  -3 -18   1 671.455 530.818   8
  -3 -18   0 457.067 512.313   8
  -3 -18  -1-43.4296 337.328   8
  -3 -18  -2 240.869 350.358   8
  -4   0   8 1357.71 981.697   6
  -4   0   7 1670.33 1147.45   6
  -4   0   6 2924.67 546.755   4
  -4   0   6 2375.34 1232.09   6
  -4   0   5 898.626 861.642   6
  -4   0   5 618.027 309.567   4
  -4   0   4 55.0129 206.047   4
  -4   0   3 18.9663 200.310   4
  -4   0   2 738.255 280.750   4
  -4   0   1 204.617 198.641   4
  -4   0   0 343.907 219.182   4
  -4   0  -1 12.0671 155.392   4
   4   0   4-666.208 962.867   7
   4   0   5 660.293 1027.10   7
   4   0   6 1344.87 1215.61   7
   4   0   7 1641.90 1558.02   7
  -4   1   8 239.658 774.932   6
  -4  -1   8 1975.81 1187.03   6
  -4   1   7 1708.39 1045.66   6
  -4  -1   7 709.966 352.487   4
  -4   1   6 5533.57 1422.19   6
  -4  -1   6 3842.37 1322.29   6
  -4  -1   6 1165.86 383.878   4
  -4   1   5 354.645 325.824   4
  -4  -1   5 321.551 254.500   4
  -4   1   4 673.174 316.211   4
  -4  -1   4-49.5197 219.750   4
  -4   1   3 641.717 287.630   4
  -4  -1   3 499.037 271.333   4
  -4   1   2 93.9462 184.556   4
  -4  -1   2 70.2634 168.861   4
  -4   1   1 9.65676 157.320   4
  -4  -1   1 240.719 203.517   4
  -4   1   0 2652.28 419.306   4
  -4  -1   0 2577.05 447.205   4
  -4   1  -1 306.284 196.351   4
  -4  -1  -1 338.900 216.324   4
  -4  -1  -2 673.240 231.263   4
   4  -1   3-909.478 1016.68   7
   4   1   4-519.251 973.319   7
   4  -1   4 173.766 773.868   7
   4   1   5-120.127 786.624   7
   4  -1   5 587.851 984.335   7
   4   1   6 1909.93 1335.00   7
   4  -1   6 610.224 1206.06   7
   4   1   7 1648.55 1553.77   7
  -4   2   8 764.381 806.031   6
  -4  -2   8 1196.55 1039.99   6
  -4  -2   8 470.691 355.320   4
  -4   2   7-30.9826 706.513   6
  -4  -2   7-130.676 263.756   4
  -4   2   6 3236.45 1349.37   6
  -4  -2   6 1678.85 1160.30   6
  -4  -2   6 1432.72 417.927   4
  -4   2   5 2396.16 1208.51   6
  -4  -2   5 771.229 847.109   6
  -4  -2   5 1739.10 433.976   4
  -4   2   4 382.994 285.634   4
  -4  -2   4 153.690 225.267   4
  -4   2   3-121.116 215.173   4
  -4  -2   3 135.206 202.142   4
  -4   2   2 625.466 249.343   4
  -4  -2   2 536.403 270.051   4
  -4   2   1 607.324 247.913   4
  -4  -2   1-292.282 222.674   4
  -4   2   0 196.670 197.402   4
  -4  -2   0 188.918 202.222   4
  -4   2  -1 95.9810 190.329   4
  -4  -2  -1 812.398 279.601   4
  -4  -2  -2 400.585 230.616   4
   4  -2   3-232.024 1039.41   7
   4   2   4-214.929 846.216   7
   4  -2   4 126.793 825.640   7
   4   2   5 276.792 866.695   7
   4  -2   5 838.293 1146.13   7
   4   2   6 1059.46 1142.74   7
   4  -2   6 988.057 1288.32   7
   4   2   7 1938.05 1494.65   7
  -4   3   8-131.591 724.867   6
  -4  -3   8 1078.61 1036.56   6
  -4  -3   8 368.414 314.054   4
  -4   3   7 1399.89 1088.49   6
  -4  -3   7 986.099 980.149   6
  -4  -3   7 231.051 295.706   4
  -4   3   6 217.548 1036.83   6
  -4  -3   6 2288.30 1158.09   6
  -4  -3   6 354.941 279.012   4
  -4   3   5 3186.74 1073.55   6
  -4  -3   5 503.112 323.530   4
  -4  -3   4 118.021 194.184   4
  -4   3   3 212.057 220.323   4
  -4  -3   3-101.059 234.392   4
  -4   3   2 522.828 240.683   4
  -4  -3   2 433.884 263.822   4
  -4   3   1 405.610 248.549   4
  -4  -3   1 369.070 224.677   4
  -4   3   0-129.244 158.397   4
  -4  -3   0-66.4311 156.460   4
  -4  -3  -1 220.455 178.378   4
  -4  -3  -2 29.0812 178.542   4
   4  -3   3-945.113 1042.08   7
   4   3   4 245.219 811.333   7
   4  -3   4 131.979 856.202   7
   4   3   5 728.075 1010.90   7
   4  -3   5 1054.60 1126.27   7
   4   3   6 1153.35 1206.28   7
   4  -3   6 1403.02 1225.67   7
   4   3   7 1360.98 1420.31   7
  -4   4   8 236.675 767.716   6
  -4  -4   8-850.646 919.257   6
  -4  -4   8-126.529 256.996   4
  -4   4   7 743.402 773.362   6
  -4  -4   7 501.693 321.105   4
  -4  -4   6 1982.39 1021.04   6
  -4  -4   6 310.049 252.712   4
  -4  -4   5 634.456 304.827   4
  -4  -4   4-43.6882 184.593   4
  -4  -4   3 289.652 254.919   4
  -4   4   2-83.7063 185.997   4
  -4  -4   2-114.634 186.047   4
  -4   4   1-1.71158 166.139   4
  -4  -4   1 139.542 199.926   4
  -4   4   0 692.057 272.107   4
  -4  -4   0 518.010 241.509   4
  -4  -4  -1 213.827 172.331   4
  -4  -4  -2 0.06631 166.115   4
   4  -4   3-1263.79 1021.43   7
   4   4   4 545.586 763.127   7
   4  -4   4-11.7892 913.348   7
   4   4   5 177.902 964.278   7
   4  -4   5 650.766 1161.66   7
   4   4   6 262.734 985.657   7
   4  -4   6 2195.95 1380.03   7
  -4  -5   8 2043.72 1204.61   6
  -4  -5   7 231.757 805.583   6
  -4  -5   7 0.98865 221.015   4
  -4  -5   6 1000.56 884.729   6
  -4  -5   6 248.533 277.823   4
  -4  -5   5-157.262 188.639   4
  -4  -5   4 546.091 288.822   4
  -4  -5   3 246.439 242.461   4
  -4  -5   2-64.7693 190.314   4
  -4   5   1 45.4189 223.939   4
  -4  -5   1 349.394 229.440   4
  -4  -5   0 125.550 243.953   4
  -4  -5  -1 123.759 190.336   4
  -4  -5  -2 757.175 278.109   4
   4   5   4-307.312 815.922   7
   4  -5   4 898.720 959.435   7
   4   5   5 1033.59 1027.84   7
   4  -5   5 1960.81 1329.20   7
   4   5   6 108.767 1058.65   7
   4  -5   6 1434.51 1379.62   7
  -4  -6   7 66.1085 840.237   6
  -4  -6   7-162.304 265.652   4
  -4  -6   6 589.675 323.812   4
  -4  -6   5-146.535 195.051   4
  -4  -6   4 239.297 241.757   4
  -4  -6   3 97.6309 218.322   4
  -4  -6   2 496.875 264.646   4
  -4  -6   1-60.5334 167.489   4
  -4  -6   0-203.944 236.904   4
  -4  -6  -1-97.9137 220.024   4
  -4  -6  -2 115.693 186.996   4
   4   6   4 29.2742 914.269   7
   4   6   5 840.766 1008.27   7
   4   6   6-26.2671 897.527   7
  -4  -7   7 1206.96 873.744   6
  -4  -7   7 376.426 317.855   4
  -4  -7   6 871.523 379.966   4
  -4  -7   5 409.209 263.208   4
  -4  -7   4 283.590 250.882   4
  -4  -7   3 222.250 295.814   4
  -4  -7   2 88.9423 234.919   4
  -4  -7   1 635.743 296.679   4
  -4  -7   0 205.886 220.929   4
  -4  -7  -1 608.880 302.416   4
  -4  -7  -2 86.1809 241.644   4
  -4  -7  -3 1024.28 337.961   4
   4   7   4 265.335 902.457   7
   4   7   5 205.492 1035.33   7
   4   7   6 429.248 1078.21   7
  -4  -8   6 522.974 350.846   4
  -4  -8   5 624.893 298.558   4
  -4  -8   4 370.042 251.836   4
  -4  -8   3 478.810 281.942   4
  -4  -8   2 337.766 252.904   4
  -4  -8   1 685.407 294.136   4
  -4  -8   0 675.676 310.499   4
  -4  -8  -1 1332.06 588.638   8
  -4  -8  -1 213.607 241.632   4
  -4  -8  -2 654.754 302.807   4
  -4  -8  -3 1881.56 413.417   4
   4   8   4 264.061 976.696   7
   4   8   5 502.280 904.694   7
   4   8   6 661.243 1108.90   7
  -4  -9   6 371.423 285.716   4
  -4  -9   5 76.5088 230.310   4
  -4  -9   4 175.239 242.585   4
  -4  -9   3 326.272 256.221   4
  -4  -9   2 551.515 271.377   4
  -4  -9   1 794.535 327.217   4
  -4  -9   0 609.346 540.757   8
  -4  -9   0 519.876 290.162   4
  -4  -9  -1 1940.03 714.064   8
  -4  -9  -1 1841.84 426.804   4
  -4  -9  -2 1619.35 654.106   8
  -4  -9  -2 1021.56 338.856   4
   4   9   4-383.256 788.183   7
   4   9   5-377.541 824.309   7
   4   9   6 479.439 1044.62   7
  -4 -10   5 213.504 273.755   4
  -4 -10   4 53.1851 222.392   4
  -4 -10   3-184.860 236.004   4
  -4 -10   2 393.674 304.481   4
  -4 -10   1 617.309 305.451   4
  -4 -10   0 209.524 479.430   8
  -4 -10   0 395.250 286.886   4
  -4 -10  -1 1197.85 628.908   8
  -4 -10  -2 890.182 558.637   8
   4  10   4-61.5388 828.158   7
   4  10   5-223.593 830.577   7
  -4 -11   5 498.317 330.217   4
  -4 -11   4 48.5133 236.105   4
  -4 -11   3 63.0849 224.775   4
  -4 -11   2 169.586 252.400   4
  -4 -11   1 91.5536 225.094   4
  -4 -11   1-74.7506 371.602   8
  -4 -11   0 322.043 456.272   8
  -4 -11  -1 568.235 447.496   8
  -4 -11  -2 650.741 566.528   8
  -4 -12   4 118.923 228.913   4
  -4 -12   3-15.7031 294.244   4
  -4 -12   2-159.107 247.590   4
  -4 -12   1-143.650 367.365   8
  -4 -12   0 248.719 387.565   8
  -4 -12  -1 682.531 524.607   8
  -4 -12  -2 536.404 560.876   8
  -4 -12  -3 357.018 502.225   8
  -4 -13   4 122.367 245.738   4
  -4 -13   3-590.879 298.269   4
  -4 -13   2-182.399 418.792   8
  -4 -13   1 13.3236 506.696   8
  -4 -13   0 446.339 450.947   8
  -4 -13  -1 170.318 517.944   8
  -4 -14   3 60.2247 400.199   8
  -4 -14   2 464.757 533.699   8
  -4 -14   1 95.9928 392.473   8
  -4 -14   0 22.0038 467.558   8
   0   0   0    0.00    0.00   0
TITL 5minUV
CELL 0.71073   3.886028  19.184632  11.156676  90.0000  92.8726  90.0000
ZERR    4.00   0.000648   0.003894   0.001400   0.0000   0.0140   0.0000
LATT  1
SYMM -x, y+1/2,-z+1/2
SFAC C H N O
UNIT 44.00 40.00 4.00 4.00
TREF
HKLF 4
END
;
_shelx_hkl_checksum              52109
_shelx_res_file
;
    5minUV.res created by SHELXL-2014/7
TITL 5minUV
CELL 0.71073   3.8860  19.185  11.1567  90.0000  92.873  90.0000
ZERR       4   0.0006   0.004   0.0014   0.0000   0.014   0.0000
LATT  1
SYMM -x, y+1/2,-z+1/2
SFAC C H O F
UNIT 36 24 8 8
OMIT -2 50
L.S. 6
FMAP 2
PLAN -10
SIZE 0.62 0.25 0.12
BOND $H
ACTA
DFIX 1.504 C6P1 C7P1
DFIX 1.559 C7P1 C8P1
DFIX 1.493 C8P1 C9P1
DFIX 1.499 C6P2 C7P2
DFIX 1.536 C7P2 C8P2
DFIX 1.497 C8P2 C9P2
DFIX 1.574 C7P1 C7P2
DFIX 1.584 C8P1 C8P2
DANG 2.525 C1P1 C7P1
DANG 2.558 C5P1 C7P1
DANG 2.478 C1P2 C7P2
DANG 2.583 C5P2 C7P2
DANG 2.353 C8P1 O1P1
DANG 2.373 C8P1 O2P1
DANG 2.343 C8P2 O1P2
DANG 2.393 C8P2 O2P2
DANG 2.648 C6P1 C7P2
DANG 2.620 C6P1 C8P1
DANG 2.663 C6P2 C7P1
DANG 2.666 C6P2 C8P2
DANG 2.558 C9P1 C7P1
DANG 2.555 C9P1 C8P2
DANG 2.578 C9P2 C7P2
DANG 2.616 C9P2 C8P1
DANG 2.205 C7P1 C8P2
DANG 2.205 C8P1 C7P2
FLAT C8P1 C9P1 O1P1 O2P1
FLAT C8P2 C9P2 O1P2 O2P2
FLAT C7P1 C6P1 C5P1 C1P1
FLAT C7P2 C6P2 C5P2 C1P2
SIMU 0.04 0.08 10.0 C1R C1P1 C1P2
SIMU 0.04 0.08 10.0 C2R C2P1 C2P2
SIMU 0.04 0.08 10.0 C3R C3P1 C3P2
SIMU 0.04 0.08 10.0 C4R C4P1 C4P2
SIMU 0.04 0.08 10.0 C5R C5P1 C5P2
SIMU 0.04 0.08 10.0 C6R C6P1 C6P2
SIMU 0.01 0.02 10.0 C7R C7P1 C7P2
SIMU 0.01 0.02 10.0 C8R C8P1 C8P2
SIMU 0.02 0.04 10.0 C9R C9P1 C9P2
SIMU 0.02 0.04 10.0 O1R O1P1 O1P2
SIMU 0.02 0.04 10.0 O2R O2P1 O2P2
SIMU 0.02 0.04 10.0 F1R F1P1 F1P2
SIMU 0.02 0.04 10.0 F2R F2P1 F2P2
BIND 2 3
WGHT    0.120900    0.046600
FVAR      12.51124   0.85774
PART 1
C1R   1    0.893349    0.688486    1.185065    21.00000    0.06846    0.08702 =
         0.09365    0.00056   -0.00574    0.00696
F1R   4    0.996972    0.736829    1.267626    21.00000    0.14706    0.09976 =
         0.09417   -0.00624   -0.03397    0.00523
C2R   1    0.956831    0.620189    1.214141    21.00000    0.08610    0.09114 =
         0.10105    0.01320   -0.01009    0.01423
AFIX  43
H2R   2    1.063782    0.608271    1.287732    21.00000   -1.20000
AFIX   0
C3R   1    0.859066    0.569793    1.132249    21.00000    0.08718    0.08429 =
         0.13809    0.01630   -0.00137    0.01035
AFIX  43
H3R   2    0.897606    0.523082    1.150723    21.00000   -1.20000
AFIX   0
C4R   1    0.703775    0.587803    1.022511    21.00000    0.10485    0.06860 =
         0.13482   -0.00690   -0.00256   -0.00331
AFIX  43
H4R   2    0.643029    0.553898    0.965748    21.00000   -1.20000
AFIX   0
C5R   1    0.641202    0.657410    0.999359    21.00000    0.07752    0.08140 =
         0.08633    0.00497    0.00293   -0.00170
F2R   4    0.478252    0.674659    0.895445    21.00000    0.12246    0.08378 =
         0.09116   -0.00440   -0.01823   -0.00826
C6R   1    0.732853    0.710868    1.079590    21.00000    0.06001    0.07210 =
         0.08086    0.00248    0.00357    0.00663
C7R   1    0.654881    0.783171    1.046599    21.00000    0.07770    0.07872 =
         0.07374    0.00287   -0.00487   -0.00278
AFIX  43
H7R   2    0.540398    0.789422    0.972164    21.00000   -1.20000
AFIX   0
C8R   1    0.724736    0.840959    1.108045    21.00000    0.09650    0.08682 =
         0.07911   -0.00383   -0.01394    0.00248
AFIX  43
H8R   2    0.842859    0.838068    1.182462    21.00000   -1.20000
AFIX   0
C9R   1    0.619285    0.909267    1.060874    21.00000    0.09665    0.07078 =
         0.07843   -0.00230   -0.01052    0.00465
O1R   3    0.717449    0.961033    1.132352    21.00000    0.16567    0.07414 =
         0.10709   -0.01602   -0.04301   -0.00853
AFIX 147
H2R1  2    0.679826    0.998236    1.097961    21.00000   -1.50000
AFIX   0
O2R   3    0.470919    0.917727    0.965614    21.00000    0.14359    0.06990 =
         0.09637   -0.00701   -0.03595   -0.00051
PART 0
PART 2
AFIX   6
C6P1  1    0.870883    0.704076    1.076686   -20.50000    0.06933
C1P1  1    0.928450    0.681122    1.193942   -20.50000    0.08793
F1P1  4    1.075487    0.725870    1.274781   -20.50000    0.12257
C2P1  1    0.844369    0.615566    1.233278   -20.50000    0.10864
H2P1  2    0.905558    0.607251    1.315358   -20.50000   -1.20000
C3P1  1    0.690153    0.569825    1.152750   -20.50000    0.11900
H3P1  2    0.633402    0.522925    1.181807   -20.50000   -1.20000
C4P1  1    0.624861    0.589242    1.035351   -20.50000    0.09292
H4P1  2    0.523138    0.560263    0.978462   -20.50000   -1.20000
C5P1  1    0.718394    0.654770    1.000280   -20.50000    0.09588
F2P1  4    0.658549    0.672742    0.883613   -20.50000    0.08943
AFIX   0
C7P1  1    0.975751    0.776020    1.035582   -20.50000    0.07479
AFIX  13
H7P1  2    0.871833    0.786922    0.955938   -20.50000   -1.20000
AFIX   0
C8P1  1    0.938161    0.838123    1.124065   -20.50000    0.08537
AFIX  13
H8P1  2    0.866140    0.823864    1.203349   -20.50000   -1.20000
AFIX   6
C9P1  1    0.730806    0.898055    1.070598   -20.50000    0.08419
O1P1  3    0.624703    0.942358    1.149552   -20.50000    0.09264
H1P1  2    0.473963    0.971952    1.109988   -20.50000   -1.20000
O2P1  3    0.662129    0.902925    0.963638   -20.50000    0.12582
AFIX   6
PART 0
PART 3
C6P2  1    1.600160    0.724150    1.073747   -20.50000    0.08110
C1P2  1    1.829229    0.718416    1.172577   -20.50000    0.09493
F1P2  4    1.884597    0.777148    1.238184   -20.50000    0.14551
C2P2  1    2.006466    0.658673    1.204814   -20.50000    0.10956
H2P2  2    2.153125    0.658376    1.270195   -20.50000   -1.20000
C3P2  1    1.957490    0.600673    1.134779   -20.50000    0.12697
H3P2  2    2.076883    0.556533    1.152407   -20.50000   -1.20000
C4P2  1    1.740861    0.602977    1.034525   -20.50000    0.09361
H4P2  2    1.690816    0.565200    0.980866   -20.50000   -1.20000
C5P2  1    1.566673    0.663995    1.006453   -20.50000    0.09236
F2P2  4    1.355013    0.664786    0.906040   -20.50000    0.10272
AFIX   0
C7P2  1    1.382096    0.786570    1.039890   -20.50000    0.07690
AFIX  13
H7P2  2    1.446455    0.802626    0.960688   -20.50000   -1.20000
AFIX   0
C8P2  1    1.339578    0.850632    1.119475   -20.50000    0.08451
AFIX  13
H8P2  2    1.457908    0.844923    1.198514   -20.50000   -1.20000
AFIX   6
C9P2  1    1.423469    0.918764    1.063342   -20.50000    0.08759
O1P2  3    1.469974    0.967743    1.143547   -20.50000    0.09931
H1P2  2    1.559814    1.000802    1.112182   -20.50000   -1.20000
O2P2  3    1.448549    0.928336    0.956169   -20.50000    0.11993
PART 0
AFIX   0
HKLF 4
REM  5minUV
REM R1 =  0.0742 for     772 Fo > 4sig(Fo)  and  0.1304 for all    1413 data
REM    182 parameters refined using    199 restraints
END
WGHT      0.1209      0.0466
REM Highest difference peak  0.179,  deepest hole -0.155,  1-sigma level  0.044
Q1    1   0.1990  0.7836  1.0316  11.00000  0.05    0.18
Q2    1   0.1900  0.6691  0.9359  11.00000  0.05    0.17
Q3    1   0.3802  0.6516  1.0457  11.00000  0.05    0.16
Q4    1   0.4297  0.7016  1.0913  11.00000  0.05    0.15
Q5    1   1.2606  0.7456  1.2353  11.00000  0.05    0.15
Q6    1   0.2065  0.9269  0.9938  11.00000  0.05    0.14
Q7    1   0.6006  0.9276  0.9604  11.00000  0.05    0.12
Q8    1   0.3169  0.7063  0.9456  11.00000  0.05    0.12
Q9    1   1.1418  0.8087  1.3345  11.00000  0.05    0.12
Q10   1   1.1777  0.7134  1.0452  11.00000  0.05    0.11
;
_shelx_res_checksum              5398
loop_
_space_group_symop_operation_xyz
'x, y, z'
'-x, y+1/2, -z+1/2'
'-x, -y, -z'
'x, -y-1/2, z-1/2'
loop_
_atom_site_type_symbol
_atom_site_label
_atom_site_fract_x
_atom_site_fract_y
_atom_site_fract_z
_atom_site_U_iso_or_equiv
_atom_site_adp_type
_atom_site_calc_flag
_atom_site_occupancy
_atom_site_disorder_assembly
_atom_site_disorder_group
C C1R 0.8933(14) 0.6885(4) 1.1851(5) 0.0834(19) Uani d 0.858(6) A 1
F F1R 0.9970(12) 0.7368(2) 1.2676(3) 0.1150(17) Uani d 0.858(6) A 1
C C2R 0.9568(14) 0.6202(4) 1.2141(5) 0.0933(17) Uani d 0.858(6) A 1
H H2R 1.0638 0.6083 1.2877 0.112 Uiso calc 0.858(6) A 1
C C3R 0.8591(15) 0.5698(3) 1.1322(6) 0.1034(19) Uani d 0.858(6) A 1
H H3R 0.8976 0.5231 1.1507 0.124 Uiso calc 0.858(6) A 1
C C4R 0.704(2) 0.5878(4) 1.0225(7) 0.103(2) Uani d 0.858(6) A 1
H H4R 0.6430 0.5539 0.9657 0.124 Uiso calc 0.858(6) A 1
C C5R 0.6412(16) 0.6574(3) 0.9994(5) 0.0818(19) Uani d 0.858(6) A 1
F F2R 0.4783(13) 0.67466(19) 0.8954(3) 0.0999(15) Uani d 0.858(6) A 1
C C6R 0.7329(13) 0.7109(3) 1.0796(4) 0.0710(13) Uani d 0.858(6) A 1
C C7R 0.6549(11) 0.7832(3) 1.0466(4) 0.0770(14) Uani d 0.858(6) A 1
H H7R 0.5404 0.7894 0.9722 0.092 Uiso calc 0.858(6) A 1
C C8R 0.7247(12) 0.8410(3) 1.1080(4) 0.0881(15) Uani d 0.858(6) A 1
H H8R 0.8429 0.8381 1.1825 0.106 Uiso calc 0.858(6) A 1
C C9R 0.6193(15) 0.9093(3) 1.0609(4) 0.0825(15) Uani d 0.858(6) A 1
O O1R 0.7174(18) 0.9610(3) 1.1324(5) 0.1173(19) Uani d 0.858(6) A 1
H H2R1 0.6798 0.9982 1.0980 0.176 Uiso calc 0.858(6) A 1
O O2R 0.471(2) 0.9177(3) 0.9656(3) 0.1047(18) Uani d 0.858(6) A 1
C C6P1 0.871(7) 0.7041(14) 1.077(3) 0.069(16) Uiso d 0.071(3) A 2
C C1P1 0.928(11) 0.681(2) 1.194(3) 0.09(2) Uiso d 0.071(3) A 2
F F1P1 1.075(14) 0.726(3) 1.275(3) 0.123(18) Uiso d 0.071(3) A 2
C C2P1 0.844(15) 0.616(2) 1.233(3) 0.11(2) Uiso d 0.071(3) A 2
H H2P1 0.9056 0.6073 1.3154 0.130 Uiso d 0.071(3) A 2
C C3P1 0.690(16) 0.570(2) 1.153(4) 0.119(18) Uiso d 0.071(3) A 2
H H3P1 0.6334 0.5229 1.1818 0.143 Uiso d 0.071(3) A 2
C C4P1 0.625(13) 0.5892(16) 1.035(4) 0.093(19) Uiso d 0.071(3) A 2
H H4P1 0.5231 0.5603 0.9785 0.112 Uiso d 0.071(3) A 2
C C5P1 0.718(7) 0.6548(14) 1.000(3) 0.10(2) Uiso d 0.071(3) A 2
F F2P1 0.659(9) 0.673(2) 0.884(3) 0.089(13) Uiso d 0.071(3) A 2
C C7P1 0.976(7) 0.7760(14) 1.036(3) 0.075(5) Uiso d 0.071(3) A 2
H H7P1 0.8718 0.7869 0.9559 0.090 Uiso calc 0.071(3) A 2
C C8P1 0.938(8) 0.8381(15) 1.124(3) 0.085(5) Uiso d 0.071(3) A 2
H H8P1 0.8661 0.8239 1.2033 0.102 Uiso calc 0.071(3) A 2
C C9P1 0.731(9) 0.8981(18) 1.071(4) 0.084(10) Uiso d 0.071(3) A 2
O O1P1 0.625(15) 0.942(2) 1.150(5) 0.093(16) Uiso d 0.071(3) A 2
H H1P1 0.4740 0.9720 1.1100 0.111 Uiso d 0.071(3) A 2
O O2P1 0.662(15) 0.903(3) 0.964(4) 0.126(16) Uiso d 0.071(3) A 2
C C6P2 1.600(7) 0.7241(15) 1.074(3) 0.081(17) Uiso d 0.071(3) A 3
C C1P2 1.829(8) 0.7184(19) 1.173(3) 0.095(17) Uiso d 0.071(3) A 3
F F1P2 1.885(10) 0.777(2) 1.238(3) 0.146(14) Uiso d 0.071(3) A 3
C C2P2 2.006(12) 0.659(2) 1.205(4) 0.110(19) Uiso d 0.071(3) A 3
H H2P2 2.1531 0.6584 1.2702 0.131 Uiso d 0.071(3) A 3
C C3P2 1.957(15) 0.601(2) 1.135(6) 0.127(19) Uiso d 0.071(3) A 3
H H3P2 2.0769 0.5565 1.1524 0.152 Uiso d 0.071(3) A 3
C C4P2 1.741(14) 0.6030(16) 1.035(5) 0.094(19) Uiso d 0.071(3) A 3
H H4P2 1.6908 0.5652 0.9809 0.112 Uiso d 0.071(3) A 3
C C5P2 1.567(10) 0.6640(17) 1.006(3) 0.09(2) Uiso d 0.071(3) A 3
F F2P2 1.355(12) 0.665(3) 0.906(4) 0.103(16) Uiso d 0.071(3) A 3
C C7P2 1.382(7) 0.7866(14) 1.040(3) 0.077(5) Uiso d 0.071(3) A 3
H H7P2 1.4465 0.8026 0.9607 0.092 Uiso calc 0.071(3) A 3
C C8P2 1.340(8) 0.8506(15) 1.119(3) 0.085(5) Uiso d 0.071(3) A 3
H H8P2 1.4579 0.8449 1.1985 0.101 Uiso calc 0.071(3) A 3
C C9P2 1.423(11) 0.9188(17) 1.063(3) 0.088(10) Uiso d 0.071(3) A 3
O O1P2 1.470(13) 0.9677(19) 1.144(4) 0.099(12) Uiso d 0.071(3) A 3
H H1P2 1.5598 1.0008 1.1122 0.119 Uiso d 0.071(3) A 3
O O2P2 1.45(3) 0.928(3) 0.956(3) 0.120(19) Uiso d 0.071(3) A 3
loop_
_atom_site_aniso_label
_atom_site_aniso_U_11
_atom_site_aniso_U_22
_atom_site_aniso_U_33
_atom_site_aniso_U_12
_atom_site_aniso_U_13
_atom_site_aniso_U_23
C1R 0.068(3) 0.087(4) 0.094(4) 0.007(3) -0.006(2) 0.001(3)
F1R 0.147(4) 0.100(3) 0.094(2) 0.005(3) -0.0340(19) -0.0062(17)
C2R 0.086(4) 0.091(5) 0.101(3) 0.014(3) -0.010(3) 0.013(3)
C3R 0.087(4) 0.084(4) 0.138(5) 0.010(3) -0.001(3) 0.016(4)
C4R 0.105(5) 0.069(4) 0.135(5) -0.003(3) -0.003(4) -0.007(3)
C5R 0.078(3) 0.081(4) 0.086(3) -0.002(3) 0.003(2) 0.005(3)
F2R 0.122(4) 0.084(3) 0.091(2) -0.008(2) -0.018(2) -0.0044(15)
C6R 0.060(3) 0.072(4) 0.081(3) 0.007(2) 0.004(2) 0.002(2)
C7R 0.078(3) 0.079(3) 0.074(2) -0.003(2) -0.0049(19) 0.003(2)
C8R 0.096(3) 0.087(4) 0.079(2) 0.002(3) -0.014(2) -0.004(2)
C9R 0.097(4) 0.071(3) 0.078(3) 0.005(3) -0.011(3) -0.002(2)
O1R 0.166(5) 0.074(3) 0.107(3) -0.009(3) -0.043(3) -0.016(2)
O2R 0.144(4) 0.070(3) 0.096(3) -0.001(3) -0.036(2) -0.0070(17)
loop_
_atom_type_symbol
_atom_type_description
_atom_type_scat_dispersion_real
_atom_type_scat_dispersion_imag
_atom_type_scat_source
C C 0.0033 0.0016 'International Tables Vol C Tables 4.2.6.8 and 6.1.1.4'
H H 0.0000 0.0000 'International Tables Vol C Tables 4.2.6.8 and 6.1.1.4'
O O 0.0106 0.0060 'International Tables Vol C Tables 4.2.6.8 and 6.1.1.4'
F F 0.0171 0.0103 'International Tables Vol C Tables 4.2.6.8 and 6.1.1.4'
loop_
_geom_angle_atom_site_label_1
_geom_angle_atom_site_label_2
_geom_angle_atom_site_label_3
_geom_angle
F1R C1R C2R 116.8(5)
F1R C1R C6R 118.4(6)
C2R C1R C6R 124.8(5)
C1R C2R C3R 118.5(5)
C1R C2R H2R 120.8
C3R C2R H2R 120.8
C2R C3R C4R 120.6(6)
C2R C3R H3R 119.7
C4R C3R H3R 119.7
C5R C4R C3R 118.2(6)
C5R C4R H4R 120.9
C3R C4R H4R 120.9
F2R C5R C4R 118.3(5)
F2R C5R C6R 118.0(5)
C4R C5R C6R 123.7(5)
C1R C6R C5R 114.2(5)
C1R C6R C7R 126.3(5)
C5R C6R C7R 119.5(4)
C8R C7R C6R 129.0(4)
C8R C7R H7R 115.5
C6R C7R H7R 115.5
C7R C8R C9R 121.1(4)
C7R C8R H8R 119.4
C9R C8R H8R 119.4
O2R C9R O1R 123.2(5)
O2R C9R C8R 123.8(5)
O1R C9R C8R 112.9(5)
C9R O1R H2R1 109.5
C5P1 C6P1 C1P1 114.0
C5P1 C6P1 C7P1 123.2(16)
C1P1 C6P1 C7P1 122.7(16)
F1P1 C1P1 C2P1 117.8
F1P1 C1P1 C6P1 118.06(6)
C2P1 C1P1 C6P1 124.11(6)
C3P1 C2P1 C1P1 118.6
C3P1 C2P1 H2P1 127.2
C1P1 C2P1 H2P1 114.2
C2P1 C3P1 C4P1 120.32(8)
C2P1 C3P1 H3P1 117.8
C4P1 C3P1 H3P1 121.9
C5P1 C4P1 C3P1 118.82(8)
C5P1 C4P1 H4P1 118.0
C3P1 C4P1 H4P1 123.2
F2P1 C5P1 C4P1 118.17(7)
F2P1 C5P1 C6P1 117.7
C4P1 C5P1 C6P1 124.2
C6P1 C7P1 C8P1 118(2)
C6P1 C7P1 C7P2 112.8(18)
C8P1 C7P1 C7P2 90.5(15)
C6P1 C7P1 H7P1 111.3
C8P1 C7P1 H7P1 111.3
C7P2 C7P1 H7P1 111.3
C9P1 C8P1 C7P1 113(2)
C9P1 C8P1 C8P2 112(2)
C7P1 C8P1 C8P2 88.4(15)
C9P1 C8P1 H8P1 113.5
C7P1 C8P1 H8P1 113.5
C8P2 C8P1 H8P1 113.5
O2P1 C9P1 O1P1 123.5
O2P1 C9P1 C8P1 122(2)
O1P1 C9P1 C8P1 114(2)
C9P1 O1P1 H1P1 107.2
C5P2 C6P2 C1P2 113.9
C5P2 C6P2 C7P2 119.5(17)
C1P2 C6P2 C7P2 126.4(17)
F1P2 C1P2 C2P2 119.19(6)
F1P2 C1P2 C6P2 116.2
C2P2 C1P2 C6P2 124.6
C3P2 C2P2 C1P2 118.36(6)
C3P2 C2P2 H2P2 121.4
C1P2 C2P2 H2P2 120.3
C4P2 C3P2 C2P2 120.2
C4P2 C3P2 H3P2 117.3
C2P2 C3P2 H3P2 122.5
C3P2 C4P2 C5P2 119.2
C3P2 C4P2 H4P2 125.9
C5P2 C4P2 H4P2 114.8
F2P2 C5P2 C6P2 118.5
F2P2 C5P2 C4P2 117.8
C6P2 C5P2 C4P2 123.66(6)
C6P2 C7P2 C8P2 125(2)
C6P2 C7P2 C7P1 116.9(19)
C8P2 C7P2 C7P1 89.1(15)
C6P2 C7P2 H7P2 108.1
C8P2 C7P2 H7P2 108.1
C7P1 C7P2 H7P2 108.1
C9P2 C8P2 C7P2 115(2)
C9P2 C8P2 C8P1 113(2)
C7P2 C8P2 C8P1 91.8(15)
C9P2 C8P2 H8P2 111.9
C7P2 C8P2 H8P2 111.9
C8P1 C8P2 H8P2 111.9
O2P2 C9P2 O1P2 123.35(9)
O2P2 C9P2 C8P2 125(2)
O1P2 C9P2 C8P2 112(2)
C9P2 O1P2 H1P2 108.4
loop_
_geom_bond_atom_site_label_1
_geom_bond_atom_site_label_2
_geom_bond_distance
C1R F1R 1.354(6)
C1R C2R 1.369(9)
C1R C6R 1.373(7)
C2R C3R 1.371(8)
C2R H2R 0.9300
C3R C4R 1.381(8)
C3R H3R 0.9300
C4R C5R 1.379(8)
C4R H4R 0.9300
C5R F2R 1.335(5)
C5R C6R 1.396(7)
C6R C7R 1.463(7)
C7R C8R 1.324(6)
C7R H7R 0.9300
C8R C9R 1.463(7)
C8R H8R 0.9300
C9R O2R 1.195(7)
C9R O1R 1.318(6)
O1R H2R1 0.8200
C6P1 C5P1 1.3863
C6P1 C1P1 1.3878
C6P1 C7P1 1.517(17)
C1P1 F1P1 1.3510
C1P1 C2P1 1.3768
C2P1 C3P1 1.3720(11)
C2P1 H2P1 0.9480
C3P1 C4P1 1.3731
C3P1 H3P1 0.9851
C4P1 C5P1 1.3711
C4P1 H4P1 0.9182
C5P1 F2P1 1.3553
C7P1 C8P1 1.559(19)
C7P1 C7P2 1.590(19)
C7P1 H7P1 0.9800
C8P1 C9P1 1.510(17)
C8P1 C8P2 1.582(19)
C8P1 H8P1 0.9800
C9P1 O2P1 1.2133
C9P1 O1P1 1.3057
O1P1 H1P1 0.9135
C6P2 C5P2 1.3794
C6P2 C1P2 1.3863
C6P2 C7P2 1.504(17)
C1P2 F1P2 1.3550
C1P2 C2P2 1.3757
C2P2 C3P2 1.3675
C2P2 H2P2 0.9029
C3P2 C4P2 1.3665
C3P2 H3P2 0.9808
C4P2 C5P2 1.3804
C4P2 H4P2 0.9538
C5P2 F2P2 1.3562
C7P2 C8P2 1.530(19)
C7P2 H7P2 0.9800
C8P2 C9P2 1.492(17)
C8P2 H8P2 0.9800
C9P2 O2P2 1.2184
C9P2 O1P2 1.3039
O1P2 H1P2 0.8117

_cod_database_fobs_code 2020545
