#------------------------------------------------------------------------------
#$Date: 2016-12-06 02:19:49 +0200 (Tue, 06 Dec 2016) $
#$Revision: 188932 $
#$URL: file:///home/coder/svn-repositories/cod/cif/2/02/06/2020662.cif $
#------------------------------------------------------------------------------
#
# This file is available in the Crystallography Open Database (COD),
# http://www.crystallography.net/. The original data for this entry
# were provided by IUCr Journals, http://journals.iucr.org/.
#
# The file may be used within the scientific community so long as
# proper attribution is given to the journal article from which the
# data were obtained.
#
data_2020662
loop_
_publ_author_name
'Welch, M. D.'
'Bindi, L.'
'Pet\<r\'i\<cek, V.'
'Pl\'a\<sil, J.'
_publ_section_title
;
 Vacancy pairing and superstructure in the high-pressure silicate
 K~1.5~Mg~2~Si~2~O~7~H~0.5~: a new potential host for potassium in the
 deep Earth
;
_journal_issue                   6
_journal_name_full               'Acta Crystallographica Section B'
_journal_page_first              822
_journal_page_last               827
_journal_paper_doi               10.1107/S2052520616014049
_journal_volume                  72
_journal_year                    2016
_chemical_formula_sum            'H0 K1.5 Mg2 O7 Si2'
_chemical_formula_weight         275.4
_chemical_name_systematic        ' ?'
_space_group_IT_number           63
_space_group_ssg_name            Cmcm(0\b0)s00
_symmetry_cell_setting           orthorhombic
_symmetry_space_group_name_Hall  '-C 2c 2'
_symmetry_space_group_name_H-M   'C m c m'
_cell_angle_alpha                90
_cell_angle_beta                 90
_cell_angle_gamma                90
_cell_formula_units_Z            4
_cell_length_a                   8.7623(10)
_cell_length_b                   5.0703(7)
_cell_length_c                   13.2505(11)
_cell_measurement_temperature    293
_cell_modulation_dimension       1
_cell_volume                     588.69(12)
_diffrn_ambient_temperature      293
_diffrn_detector                 eos
_diffrn_measurement_device       '4-circle X-ray diffractometer'
_diffrn_measurement_device_type  Xcalibur
_diffrn_radiation_monochromator  graphite
_diffrn_radiation_probe          x-ray
_diffrn_radiation_source         'X-ray tube'
_diffrn_radiation_type           'Mo K\a'
_diffrn_radiation_wavelength     0.71069
_diffrn_reflns_limit_h_max       11
_diffrn_reflns_limit_h_min       -11
_diffrn_reflns_limit_index_m_1_max 4
_diffrn_reflns_limit_index_m_1_min -4
_diffrn_reflns_limit_k_max       7
_diffrn_reflns_limit_k_min       -7
_diffrn_reflns_limit_l_max       16
_diffrn_reflns_limit_l_min       -17
_diffrn_reflns_number            19703
_exptl_absorpt_coefficient_mu    1.87
_exptl_absorpt_correction_T_max  1.000
_exptl_absorpt_correction_T_min  0.907
_exptl_crystal_colour            colourless
_exptl_crystal_density_diffrn    3.1076
_exptl_crystal_description       plate
_exptl_crystal_F_000             546
_exptl_crystal_size_max          0.235
_exptl_crystal_size_mid          0.175
_exptl_crystal_size_min          0.055
_refine_ls_extinction_method     none
_refine_ls_goodness_of_fit_gt    2.00
_refine_ls_goodness_of_fit_ref   1.59
_refine_ls_hydrogen_treatment    constr
_refine_ls_number_constraints    0
_refine_ls_number_parameters     98
_refine_ls_number_reflns         6596
_refine_ls_number_restraints     0
_refine_ls_R_factor_all          0.1460
_refine_ls_R_factor_gt           0.0688
_refine_ls_shift/su_max          0.0278
_refine_ls_shift/su_mean         0.0027
_refine_ls_structure_factor_coef F
_refine_ls_weighting_details     w=1/(\s^2^(F)+0.0001F^2^)
_refine_ls_weighting_scheme      sigma
_refine_ls_wR_factor_gt          0.0826
_refine_ls_wR_factor_ref         0.1068
_reflns_number_gt                2500
_reflns_number_total             6596
_reflns_threshold_expression     I>3\s(I)
_cod_data_source_file            xk5031sup2.cif
_cod_data_source_block           I
_cod_depositor_comments
;
The following automatic conversions were performed:

'_diffrn_radiation_probe' value 'X-ray' changed to 'x-ray' according
to
/usr/data/users/saulius/crontab/automatic-downloads/rss-feeds/IUCr/lib/dictionaries/cif_core.dic
dictionary named 'cif_core.dic' version 2.4.2 from 2011-04-26.

Automatic conversion script
Id: cif_fix_values 4268 2015-11-12 08:31:59Z antanas 

 Adding full bibliography for 2020661--2020662.cif.
;
_cod_database_code               2020662
_jana_cell_commen_supercell_matrix_1_1 1
_jana_cell_commen_supercell_matrix_1_2 0
_jana_cell_commen_supercell_matrix_1_3 0
_jana_cell_commen_supercell_matrix_2_1 0
_jana_cell_commen_supercell_matrix_2_2 4
_jana_cell_commen_supercell_matrix_2_3 0
_jana_cell_commen_supercell_matrix_3_1 0
_jana_cell_commen_supercell_matrix_3_2 0
_jana_cell_commen_supercell_matrix_3_3 1
_jana_cell_commen_t_section_1    0.062
loop_
_space_group_symop_id
_space_group_symop_operation_xyz
1 x,y,z
2 -x,-y,z+0.5
3 -x,y,-z+0.5
4 x,-y,-z
5 x+0.5,y+0.5,z
6 -x+0.5,-y+0.5,z+0.5
7 -x+0.5,y+0.5,-z+0.5
8 x+0.5,-y+0.5,-z
9 -x,-y,-z
10 x,y,-z+0.5
11 x,-y,z+0.5
12 -x,y,z
13 -x+0.5,-y+0.5,-z
14 x+0.5,y+0.5,-z+0.5
15 x+0.5,-y+0.5,z+0.5
16 -x+0.5,y+0.5,z
loop_
_space_group_symop_ssg_id
_space_group_symop_ssg_operation_algebraic
1 x1,x2,x3,x4
2 -x1,-x2,x3+1/2,-x4
3 -x1,x2,-x3+1/2,x4+1/2
4 x1,-x2,-x3,-x4+1/2
5 -x1,-x2,-x3,-x4
6 x1,x2,-x3+1/2,x4
7 x1,-x2,x3+1/2,-x4+1/2
8 -x1,x2,x3,x4+1/2
9 x1+1/2,x2+1/2,x3,x4
10 -x1+1/2,-x2+1/2,x3+1/2,-x4
11 -x1+1/2,x2+1/2,-x3+1/2,x4+1/2
12 x1+1/2,-x2+1/2,-x3,-x4+1/2
13 -x1+1/2,-x2+1/2,-x3,-x4
14 x1+1/2,x2+1/2,-x3+1/2,x4
15 x1+1/2,-x2+1/2,x3+1/2,-x4+1/2
16 -x1+1/2,x2+1/2,x3,x4+1/2
loop_
_atom_site_label
_atom_site_type_symbol
_atom_site_fract_x
_atom_site_fract_y
_atom_site_fract_z
_atom_site_adp_type
_atom_site_U_iso_or_equiv
_atom_site_site_symmetry_multiplicity
_atom_site_occupancy
_atom_site_calc_flag
Si1 Si 0 -0.0047(2) -0.12332(5) Uani 0.0042(4) 8 1 d
K1 K 0.16177(9) 0.48790(16) -0.25 Uani 0.0104(2) 8 0.75 d
Mg1 Mg 0.1650(2) 0.5 0 Uani 0.0063(4) 8 1 d
O1 O 0 -0.0068(7) -0.25 Uiso 0.0060(6) 4 1 d
O2 O -0.1559(2) 0.1517(5) -0.40896(13) Uiso 0.0059(4) 16 1 d
O3 O 0 -0.3092(5) -0.41202(18) Uiso 0.0061(7) 8 1 d
loop_
_atom_site_aniso_label
_atom_site_aniso_type_symbol
_atom_site_aniso_U_11
_atom_site_aniso_U_22
_atom_site_aniso_U_33
_atom_site_aniso_U_12
_atom_site_aniso_U_13
_atom_site_aniso_U_23
Si1 Si 0.0069(8) 0.0051(9) 0.0007(5) 0 0 0.0008(4)
K1 K 0.0124(4) 0.0137(5) 0.0051(4) -0.0011(3) 0 0
Mg1 Mg 0.0073(8) 0.0063(8) 0.0053(6) 0 0 -0.0009(5)
loop_
_atom_site_displace_Fourier_atom_site_label
_atom_site_displace_Fourier_axis
_atom_site_displace_Fourier_wave_vector_seq_id
_atom_site_displace_Fourier_param_cos
_atom_site_displace_Fourier_param_sin
Si1 x 1 0.00183(12) -0.00480(11)
Si1 y 1 0 0
Si1 z 1 0 0
Si1 x 2 0 0
Si1 y 2 0.0035(2) 0.00480(19)
Si1 z 2 0.00056(7) 0.00132(8)
Si1 x 3 -0.00704(12) -0.00541(11)
Si1 y 3 0 0
Si1 z 3 0 0
Si1 x 4 0 0
Si1 y 4 0 0.00156(13)
Si1 z 4 0 -0.00075(5)
Mg1 x 1 0 0.00470(13)
Mg1 y 1 -0.0056(2) 0
Mg1 z 1 -0.00077(10) 0
Mg1 x 2 0.00245(13) 0
Mg1 y 2 0 0.0141(2)
Mg1 z 2 0 -0.00036(10)
Mg1 x 3 0 -0.00792(13)
Mg1 y 3 0.0083(2) 0
Mg1 z 3 0.00123(10) 0
Mg1 x 4 0 0
Mg1 y 4 0 -0.00550(17)
Mg1 z 4 0 -0.00035(6)
O1 x 1 -0.0009(4) 0.0001(4)
O1 y 1 0 0
O1 z 1 0 0
O1 x 2 0 0
O1 y 2 0.0024(7) 0.0065(6)
O1 z 2 0 0
O1 x 3 -0.0061(4) -0.0065(4)
O1 y 3 0 0
O1 z 3 0 0
O1 x 4 0 0
O1 y 4 0 0.0060(5)
O1 z 4 0 0
O2 x 1 0.00074(19) -0.00016(18)
O2 y 1 -0.0015(3) 0.0015(3)
O2 z 1 0.00031(12) 0.00036(13)
O2 x 2 -0.00004(19) 0.00034(19)
O2 y 2 0.0000(3) 0.0010(3)
O2 z 2 0.00156(12) -0.00032(12)
O2 x 3 0.00721(19) 0.00103(18)
O2 y 3 -0.0001(3) -0.0037(3)
O2 z 3 0.00095(13) -0.00230(13)
O2 x 4 0 0.00024(13)
O2 y 4 0 -0.0048(2)
O2 z 4 0 -0.00123(9)
O3 x 1 0.0015(3) -0.0002(3)
O3 y 1 0 0
O3 z 1 0 0
O3 x 2 0 0
O3 y 2 0.0029(5) -0.0024(5)
O3 z 2 -0.00200(18) 0.00117(17)
O3 x 3 0.0071(3) 0.0013(3)
O3 y 3 0 0
O3 z 3 0 0
O3 x 4 0 0
O3 y 4 0 0.0020(4)
O3 z 4 0 0.00173(14)
loop_
_atom_site_Fourier_wave_vector_seq_id
_jana_atom_site_fourier_wave_vector_q1_coeff
1 1
2 2
3 3
4 4
loop_
_atom_site_occ_special_func_atom_site_label
_atom_site_occ_special_func_crenel_c
_atom_site_occ_special_func_crenel_w
K1 0.25 0.75
loop_
_atom_type_symbol
_atom_type_scat_dispersion_real
_atom_type_scat_dispersion_imag
_atom_type_scat_source
H 0.0000 0.0000 'International Tables Vol C tables 4.2.6.8 and 6.1.1.1'
K 0.2009 0.2494 'International Tables Vol C tables 4.2.6.8 and 6.1.1.1'
Mg 0.0486 0.0363 'International Tables Vol C tables 4.2.6.8 and 6.1.1.1'
O 0.0106 0.0060 'International Tables Vol C tables 4.2.6.8 and 6.1.1.1'
Si 0.0817 0.0704 'International Tables Vol C tables 4.2.6.8 and 6.1.1.1'
loop_
_cell_wave_vector_seq_id
_cell_wave_vector_x
_cell_wave_vector_y
_cell_wave_vector_z
1 0.000000 0.750000 0.000000
loop_
_twin_individual_id
_twin_individual_mass_fraction_refined
_twin_individual_twin_matrix_11
_twin_individual_twin_matrix_12
_twin_individual_twin_matrix_13
_twin_individual_twin_matrix_21
_twin_individual_twin_matrix_22
_twin_individual_twin_matrix_23
_twin_individual_twin_matrix_31
_twin_individual_twin_matrix_32
_twin_individual_twin_matrix_33
1 0.407(3) 1 0 0 0 1 0 0 0 1
2 0.1863(16) -0.5 0.5 0 -1.5 -0.5 0 0 0 1
3 0.406(2) -0.5 -0.5 0 1.5 -0.5 0 0 0 1
loop_
_jana_atom_site_displace_legendre_atom_site_label
_jana_atom_site_displace_legendre_axis
_jana_atom_site_displace_legendre_param_order
_jana_atom_site_displace_legendre_param_coeff
K1 x 1 0.00220(12)
K1 y 1 -0.0417(2)
K1 z 1 0
K1 x 2 -0.02975(12)
K1 y 2 0.0101(2)
K1 z 2 0
K1 x 3 0.00319(14)
K1 y 3 0.0224(2)
K1 z 3 0
K1 x 4 -0.00262(11)
K1 y 4 -0.0029(2)
K1 z 4 0
K1 x 5 -0.01812(17)
K1 y 5 -0.0048(3)
K1 z 5 0
K1 x 6 0
K1 y 6 0
K1 z 6 0
loop_
_twin_refln_datum_id
_twin_refln_individual_id
_twin_refln_index_h
_twin_refln_index_k
_twin_refln_index_l
_twin_refln_index_m_1
_twin_refln_f_squared_calc
_twin_refln_f_squared_meas
_twin_refln_f_squared_sigma
_twin_refln_include_status
1 1 0 0 0 2 162.90 131.73 12.63 o
2 1 0 0 0 4 172.71 134.69 16.41 o
3 3 -1 -1 0 0 2451.64 2743.17 32.83 o
3 2 -1 1 0 0 2451.64 2743.17 32.83 o
3 1 2 0 0 0 2451.64 2743.17 32.83 o
4 1 2 0 0 1 408.34 349.10 12.62 o
5 1 2 0 0 2 266.47 240.17 13.32 o
6 1 2 0 0 3 12.34 11.30 3.36 o
7 1 2 0 0 4 132.21 108.34 9.38 o
8 1 4 0 0 1 102.43 99.45 6.58 o
9 1 4 0 0 2 30.86 32.43 4.66 o
10 1 4 0 0 4 31.22 29.32 6.45 o
11 3 -3 -3 0 0 55352.40 56418.20 218.37 o
11 2 -3 3 0 0 55352.40 56418.20 218.37 o
11 1 6 0 0 0 55352.40 56418.20 218.37 o
12 1 6 0 0 1 122.18 113.15 9.81 o
13 1 6 0 0 2 69.94 89.54 9.63 o
14 1 6 0 0 3 102.16 86.71 12.81 o
15 1 6 0 0 4 25.48 14.84 8.67 <
16 3 -4 -4 0 0 1847.42 1629.52 74.73 o
16 2 -4 4 0 0 1847.42 1629.52 74.73 o
16 1 8 0 0 0 1847.42 1629.52 74.73 o
17 1 8 0 0 1 2.47 10.40 7.27 <
18 1 8 0 0 2 207.12 195.87 12.30 o
19 1 8 0 0 4 34.67 23.49 8.34 <
20 3 -5 -5 0 0 273.60 277.20 36.84 o
20 2 -5 5 0 0 273.60 277.20 36.84 o
20 1 10 0 0 0 273.60 277.20 36.84 o
21 1 10 0 0 1 11.93 28.49 12.54 <
22 1 10 0 0 3 33.79 22.89 14.81 <
23 3 7 5 0 0 95.50 66.75 19.21 o
23 2 4 -6 0 0 95.50 66.75 19.21 o
23 1 -11 1 0 0 95.50 66.75 19.21 o
24 3 6 4 0 0 5602.50 5934.94 161.34 o
24 2 3 -5 0 0 5602.50 5934.94 161.34 o
24 1 -9 1 0 0 5602.50 5934.94 161.34 o
25 3 5 3 0 0 1755.35 1754.58 76.69 o
25 2 2 -4 0 0 1755.35 1754.58 76.69 o
25 1 -7 1 0 0 1755.35 1754.58 76.69 o
26 3 4 2 0 0 459.05 430.70 28.39 o
26 2 1 -3 0 0 459.05 430.70 28.39 o
26 1 -5 1 0 0 459.05 430.70 28.39 o
27 3 3 1 0 0 29826.80 30465.20 119.65 o
27 2 0 -2 0 0 29826.80 30465.20 119.65 o
27 1 -3 1 0 0 29826.80 30465.20 119.65 o
28 3 2 0 0 0 2453.79 2880.53 34.93 o
28 2 -1 -1 0 0 2453.79 2880.53 34.93 o
28 1 -1 1 0 0 2453.79 2880.53 34.93 o
29 1 1 1 0 -4 32.69 29.73 6.49 o
30 1 1 1 0 -3 2.22 2.63 1.48 <
31 3 1 -1 0 0 2302.13 2509.88 32.62 o
31 2 -2 0 0 0 2302.13 2509.88 32.62 o
31 1 1 1 0 0 2302.13 2509.88 32.62 o
32 1 1 1 0 2 10.01 8.55 2.97 <
33 1 1 1 0 4 34.65 41.90 6.82 o
34 1 3 1 0 -3 28.55 18.29 3.07 o
35 1 3 1 0 -2 190.59 163.11 14.32 o
36 3 0 -2 0 0 30493.30 30733.70 103.33 o
36 2 -3 1 0 0 30493.30 30733.70 103.33 o
36 1 3 1 0 0 30493.30 30733.70 103.33 o
37 1 3 1 0 1 58.44 52.88 5.23 o
38 1 3 1 0 2 50.73 47.77 12.25 o
39 1 3 1 0 3 54.05 208.92 28.47 o
40 1 3 1 0 4 23.65 17.71 4.19 o
41 1 5 1 0 -4 51.28 39.71 5.39 o
42 1 5 1 0 -3 13.94 17.12 4.14 o
43 1 5 1 0 -2 364.70 337.95 18.58 o
44 1 5 1 0 -1 92.28 64.17 7.24 o
45 1 5 1 0 1 68.94 52.78 8.56 o
46 1 5 1 0 2 275.86 274.82 18.60 o
47 1 5 1 0 3 20.30 17.53 5.93 <
48 1 5 1 0 4 56.84 33.74 11.30 <
49 1 7 1 0 -4 0.96 6.62 6.05 <
50 1 7 1 0 -3 25.99 30.25 9.52 o
51 1 7 1 0 -2 31.00 31.70 5.73 o
52 3 -2 -4 0 0 1735.54 1744.80 75.61 o
52 2 -5 3 0 0 1735.54 1744.80 75.61 o
52 1 7 1 0 0 1735.54 1744.80 75.61 o
53 1 7 1 0 1 46.42 57.06 12.56 o
54 1 7 1 0 2 36.36 25.58 9.18 <
55 1 7 1 0 3 50.82 36.77 6.37 o
56 1 7 1 0 4 0.61 4.03 5.00 <
57 1 9 1 0 -4 0.00 1.22 2.84 <
58 1 9 1 0 -3 115.91 143.90 26.32 o
59 1 9 1 0 -2 46.41 75.77 10.44 o
60 1 9 1 0 -1 79.51 100.10 14.69 o
61 3 -3 -5 0 0 5897.11 5916.33 118.32 o
61 2 -6 4 0 0 5897.11 5916.33 118.32 o
61 1 9 1 0 0 5897.11 5916.33 118.32 o
62 1 9 1 0 1 32.51 39.92 13.75 <
63 1 9 1 0 2 16.92 51.06 16.47 o
64 1 11 1 0 -3 47.98 38.05 15.22 <
65 1 11 1 0 -2 72.02 56.44 17.91 o
66 3 6 2 0 0 11398.90 11607.90 108.40 o
66 2 0 -4 0 0 11398.90 11607.90 108.40 o
66 1 -6 2 0 0 11398.90 11607.90 108.40 o
67 3 5 1 0 0 458.40 426.20 33.37 o
67 2 -1 -3 0 0 458.40 426.20 33.37 o
67 1 -4 2 0 0 458.40 426.20 33.37 o
68 3 3 -1 0 0 30529.20 30948.50 122.79 o
68 2 -3 -1 0 0 30529.20 30948.50 122.79 o
68 1 0 2 0 0 30529.20 30948.50 122.79 o
69 1 0 2 0 2 2.59 6.00 4.08 <
70 1 2 2 0 -4 25.70 19.74 2.16 o
71 1 2 2 0 -2 184.69 150.14 7.98 o
72 1 2 2 0 -1 165.58 131.91 12.81 o
73 3 2 -2 0 0 143.16 150.49 10.74 o
73 2 -4 0 0 0 143.16 150.49 10.74 o
73 1 2 2 0 0 143.16 150.49 10.74 o
74 1 2 2 0 1 347.55 309.04 14.94 o
75 1 2 2 0 2 118.14 97.65 12.62 o
76 1 2 2 0 3 28.66 44.69 12.79 o
77 1 2 2 0 4 50.08 32.50 14.59 <
78 1 4 2 0 -4 0.58 0.68 0.89 <
79 1 4 2 0 -3 7.38 2.37 1.25 <
80 1 4 2 0 -2 20.49 18.49 6.16 <
81 1 4 2 0 -1 3.50 5.94 2.73 <
82 1 4 2 0 1 231.94 225.51 18.06 o
83 1 6 2 0 -4 1.84 2.43 2.23 <
84 1 6 2 0 -3 515.90 514.96 25.93 o
85 1 6 2 0 -1 244.78 226.68 24.86 o
86 3 0 -4 0 0 11657.90 11876.00 93.35 o
86 2 -6 2 0 0 11657.90 11876.00 93.35 o
86 1 6 2 0 0 11657.90 11876.00 93.35 o
87 1 6 2 0 1 18.51 24.37 7.03 o
88 1 6 2 0 2 9.39 14.97 9.03 <
89 1 6 2 0 3 2.06 28.97 7.28 o
90 1 8 2 0 -4 5.42 4.19 2.58 <
91 1 8 2 0 -2 134.71 110.10 20.05 o
92 1 8 2 0 -1 11.75 26.31 11.84 <
93 3 -1 -5 0 0 160.89 136.43 16.15 o
93 2 -7 3 0 0 160.89 136.43 16.15 o
93 1 8 2 0 0 160.89 136.43 16.15 o
94 1 8 2 0 1 0.10 2.87 3.67 <
95 1 8 2 0 2 154.96 155.37 30.52 o
96 1 10 2 0 -4 1.50 9.36 7.59 <
97 1 10 2 0 -3 6.65 16.36 7.33 <
98 1 10 2 0 -2 6.20 3.01 3.15 <
99 1 10 2 0 -1 1.46 15.52 6.82 <
100 3 -2 -6 0 0 581.93 556.66 53.17 o
100 2 -8 4 0 0 581.93 556.66 53.17 o
100 1 10 2 0 0 581.93 556.66 53.17 o
101 3 9 3 0 0 11584.10 11752.30 151.76 o
101 2 0 -6 0 0 11584.10 11752.30 151.76 o
101 1 -9 3 0 0 11584.10 11752.30 151.76 o
102 3 8 2 0 0 156.44 126.08 16.77 o
102 2 -1 -5 0 0 156.44 126.08 16.77 o
102 1 -7 3 0 0 156.44 126.08 16.77 o
103 3 7 1 0 0 1759.41 1754.01 80.78 o
103 2 -2 -4 0 0 1759.41 1754.01 80.78 o
103 1 -5 3 0 0 1759.41 1754.01 80.78 o
104 3 6 0 0 0 55503.70 57296.10 174.81 o
104 2 -3 -3 0 0 55503.70 57296.10 174.81 o
104 1 -3 3 0 0 55503.70 57296.10 174.81 o
105 1 1 3 0 -3 71.37 36.49 4.46 o
106 1 1 3 0 -2 1.35 3.16 1.94 <
107 1 1 3 0 -1 20.17 21.30 4.64 o
108 3 4 -2 0 0 331.35 324.90 27.23 o
108 2 -5 -1 0 0 331.35 324.90 27.23 o
108 1 1 3 0 0 331.35 324.90 27.23 o
109 1 1 3 0 1 353.93 364.74 23.24 o
110 1 1 3 0 2 1.46 4.64 4.64 <
111 1 1 3 0 3 77.72 62.86 9.56 o
112 1 1 3 0 4 52.73 52.83 10.77 o
113 1 3 3 0 -4 0.00 24.48 5.76 o
114 1 3 3 0 -3 129.06 97.90 6.31 o
115 1 3 3 0 -1 155.89 137.94 8.37 o
116 3 3 -3 0 0 56282.40 56057.90 192.32 o
116 2 -6 0 0 0 56282.40 56057.90 192.32 o
116 1 3 3 0 0 56282.40 56057.90 192.32 o
117 1 3 3 0 1 10.13 11.73 4.70 <
118 1 3 3 0 2 0.36 3.54 1.71 <
119 1 3 3 0 3 0.73 55.74 10.55 o
120 1 5 3 0 -4 0.00 1.63 1.40 <
121 1 5 3 0 -3 1.69 1.38 1.08 <
122 1 5 3 0 -2 124.58 106.48 7.92 o
123 1 5 3 0 -1 44.30 43.44 13.54 o
124 1 5 3 0 2 101.19 64.82 16.18 o
125 1 7 3 0 -3 13.54 12.48 3.76 o
126 1 7 3 0 -2 3.51 6.27 2.09 o
127 1 7 3 0 -1 1.45 7.10 3.92 <
128 3 1 -5 0 0 92.33 77.26 19.74 o
128 2 -8 2 0 0 92.33 77.26 19.74 o
128 1 7 3 0 0 92.33 77.26 19.74 o
129 1 9 3 0 -4 0.00 -0.10 2.63 <
130 1 9 3 0 -3 258.91 279.90 25.93 o
131 1 9 3 0 -2 80.41 104.99 15.06 o
132 1 9 3 0 -1 132.79 129.06 15.05 o
133 3 0 -6 0 0 12013.30 12104.70 276.42 o
133 2 -9 3 0 0 12013.30 12104.70 276.42 o
133 1 9 3 0 0 12013.30 12104.70 276.42 o
134 1 11 3 0 -4 0.00 -7.91 9.44 <
135 3 9 1 0 0 5614.39 5729.14 120.56 o
135 2 -3 -5 0 0 5614.39 5729.14 120.56 o
135 1 -6 4 0 0 5614.39 5729.14 120.56 o
136 3 7 -1 0 0 1742.08 1624.11 73.39 o
136 2 -5 -3 0 0 1742.08 1624.11 73.39 o
136 1 -2 4 0 0 1742.08 1624.11 73.39 o
137 3 6 -2 0 0 11679.70 11738.80 109.22 o
137 2 -6 -2 0 0 11679.70 11738.80 109.22 o
137 1 0 4 0 0 11679.70 11738.80 109.22 o
138 1 0 4 0 2 10.16 12.74 5.64 <
139 1 2 4 0 -3 34.19 26.00 3.82 o
140 1 2 4 0 -2 7.87 11.77 5.15 <
141 1 2 4 0 -1 58.29 68.58 8.17 o
142 3 5 -3 0 0 1964.22 1789.68 77.47 o
142 2 -7 -1 0 0 1964.22 1789.68 77.47 o
142 1 2 4 0 0 1964.22 1789.68 77.47 o
143 1 2 4 0 1 165.71 189.85 16.57 o
144 1 4 4 0 -3 15.12 8.91 2.23 o
145 1 4 4 0 -2 5.29 8.13 4.00 <
146 1 4 4 0 -1 0.54 4.04 2.73 <
147 1 4 4 0 1 163.91 175.02 20.15 o
148 1 4 4 0 2 3.17 -1.01 3.93 <
149 1 6 4 0 -3 132.31 99.57 16.51 o
150 1 6 4 0 -2 97.38 107.01 20.30 o
151 1 6 4 0 1 7.70 12.88 8.42 <
152 1 8 4 0 -3 16.32 16.99 4.56 o
153 1 8 4 0 -1 23.14 46.27 12.62 o
154 1 10 4 0 -3 15.23 19.64 10.17 <
155 3 9 -1 0 0 5917.99 5852.29 118.60 o
155 2 -6 -4 0 0 5917.99 5852.29 118.60 o
155 1 -3 5 0 0 5917.99 5852.29 118.60 o
156 3 7 -3 0 0 92.40 81.65 17.65 o
156 2 -8 -2 0 0 92.40 81.65 17.65 o
156 1 1 5 0 0 92.40 81.65 17.65 o
157 1 3 5 0 -3 115.99 151.94 13.48 o
158 1 3 5 0 -2 51.55 45.73 6.07 o
159 1 3 5 0 -1 63.97 65.07 8.23 o
160 3 6 -4 0 0 6139.00 6126.70 172.10 o
160 2 -9 -1 0 0 6139.00 6126.70 172.10 o
160 1 3 5 0 0 6139.00 6126.70 172.10 o
161 1 3 5 0 1 3.67 6.52 4.11 <
162 1 5 5 0 -3 14.12 20.03 6.09 o
163 1 5 5 0 -2 3.16 9.40 4.36 <
164 3 5 -5 0 0 337.85 307.77 41.28 o
164 2 -10 0 0 0 337.85 307.77 41.28 o
164 1 5 5 0 0 337.85 307.77 41.28 o
165 1 7 5 0 -3 1.10 3.58 5.97 <
166 1 7 5 0 -2 1.47 2.43 4.12 <
167 1 7 5 0 -1 1.42 3.29 4.86 <
168 1 9 5 0 -3 274.54 288.50 23.07 o
169 3 10 -2 0 0 584.57 499.59 38.07 o
169 2 -8 -4 0 0 584.57 499.59 38.07 o
169 1 -2 6 0 0 584.57 499.59 38.07 o
170 1 0 6 0 -2 21.19 38.15 8.15 o
171 3 9 -3 0 0 12059.40 12053.50 258.44 o
171 2 -9 -3 0 0 12059.40 12053.50 258.44 o
171 1 0 6 0 0 12059.40 12053.50 258.44 o
172 1 2 6 0 -3 21.08 15.38 6.83 <
173 1 2 6 0 -2 0.21 2.29 2.36 <
174 1 2 6 0 -1 32.55 56.04 9.29 o
175 1 4 6 0 -2 0.11 4.97 3.00 <
176 1 4 6 0 -1 1.25 6.37 4.62 <
177 1 6 6 0 -3 70.94 53.09 11.31 o
178 1 6 6 0 -2 61.51 73.36 19.71 o
179 1 1 7 0 -3 1.53 8.42 4.71 <
180 1 1 7 0 -2 4.84 6.69 4.88 <
181 1 1 7 0 -1 28.02 52.10 16.99 o
182 1 3 7 0 -3 6.03 37.66 8.19 o
183 1 3 7 0 -1 18.03 12.76 9.93 <
184 1 5 7 0 -2 2.36 15.43 10.96 <
185 1 2 8 0 -3 5.77 8.74 5.44 <
186 1 0 0 1 2 5.09 3.56 2.48 <
187 1 0 0 1 4 13.14 10.41 4.50 <
188 1 2 0 1 1 5.64 6.63 0.92 o
189 1 2 0 1 2 2.18 1.75 0.66 <
190 1 2 0 1 3 1.92 3.51 1.17 o
191 1 2 0 1 4 29.90 29.47 4.77 o
192 1 4 0 1 1 0.42 0.86 0.83 <
193 1 4 0 1 2 0.74 1.59 0.91 <
194 1 4 0 1 3 2.87 1.60 0.87 <
195 1 4 0 1 4 2.06 5.81 2.09 <
196 1 6 0 1 1 2.77 1.15 1.01 <
197 1 6 0 1 2 4.07 8.11 2.69 o
198 1 6 0 1 3 24.15 13.90 4.73 <
199 1 6 0 1 4 51.34 43.42 7.12 o
200 1 8 0 1 1 37.19 35.31 6.28 o
201 1 8 0 1 2 2.64 5.69 2.16 <
202 1 8 0 1 3 22.76 21.23 4.50 o
203 1 8 0 1 4 37.13 19.95 10.07 <
204 1 10 0 1 1 0.55 -1.17 2.00 <
205 1 10 0 1 2 15.38 6.28 2.92 <
206 1 10 0 1 3 7.87 14.30 6.06 <
207 3 6 4 1 0 404.91 387.79 23.41 o
207 2 3 -5 1 0 404.91 387.79 23.41 o
207 1 -9 1 1 0 404.91 387.79 23.41 o
208 3 5 3 1 0 27.34 27.96 9.38 <
208 2 2 -4 1 0 27.34 27.96 9.38 <
208 1 -7 1 1 0 27.34 27.96 9.38 <
209 3 4 2 1 0 147.37 164.05 8.42 o
209 2 1 -3 1 0 147.37 164.05 8.42 o
209 1 -5 1 1 0 147.37 164.05 8.42 o
210 3 3 1 1 0 3940.32 4819.03 88.52 o
210 2 0 -2 1 0 3940.32 4819.03 88.52 o
210 1 -3 1 1 0 3940.32 4819.03 88.52 o
211 3 2 3 1 -4 0.29 2.50 0.92 <
211 2 -1 -1 1 0 0.29 2.50 0.92 <
211 1 -1 1 1 0 0.29 2.50 0.92 <
212 1 1 1 1 -4 3.04 3.08 0.95 o
213 1 1 1 1 -3 2.08 5.29 1.41 o
214 1 1 1 1 -2 1.36 0.96 0.49 <
215 3 1 -1 1 0 0.40 1.34 0.60 <
215 2 -2 3 1 -4 0.40 1.34 0.60 <
215 1 1 1 1 0 0.40 1.34 0.60 <
216 1 1 1 1 1 2.44 3.15 0.88 o
217 1 1 1 1 2 6.70 3.71 2.39 <
218 1 1 1 1 3 1.04 3.69 2.00 <
219 1 1 1 1 4 2.20 1.63 3.06 <
220 1 3 1 1 -4 9.53 13.42 2.59 o
221 1 3 1 1 -3 108.09 96.84 5.79 o
222 1 3 1 1 -2 0.59 2.01 0.77 <
223 1 3 1 1 -1 1.09 1.79 0.84 <
224 3 0 -2 1 0 3467.82 4098.19 42.57 o
224 2 -3 1 1 0 3467.82 4098.19 42.57 o
224 1 3 1 1 0 3467.82 4098.19 42.57 o
225 1 3 1 1 1 2.09 2.84 1.26 <
226 1 3 1 1 2 2.01 3.50 1.28 <
227 1 3 1 1 3 40.95 35.48 4.86 o
228 1 3 1 1 4 24.17 14.56 4.76 o
229 1 5 1 1 -4 45.43 42.52 6.42 o
230 1 5 1 1 -3 20.77 19.15 2.78 o
231 1 5 1 1 -2 4.75 2.64 1.12 <
232 1 5 1 1 -1 19.49 22.66 3.08 o
233 3 -1 -3 1 0 117.02 129.82 17.47 o
233 2 -4 2 1 0 117.02 129.82 17.47 o
233 1 5 1 1 0 117.02 129.82 17.47 o
234 1 5 1 1 1 24.22 22.36 3.05 o
235 1 5 1 1 2 3.77 0.69 1.18 <
236 1 5 1 1 3 3.35 5.07 2.58 <
237 1 5 1 1 4 60.17 53.05 10.91 o
238 1 7 1 1 -4 0.10 4.19 3.81 <
239 1 7 1 1 -3 3.51 -1.35 1.05 <
240 1 7 1 1 -2 3.38 2.32 2.18 <
241 1 7 1 1 -1 0.85 0.06 1.70 <
242 1 7 1 1 2 9.15 9.55 2.32 o
243 1 7 1 1 3 0.01 3.19 3.32 <
244 1 7 1 1 4 0.33 2.52 2.60 <
245 1 9 1 1 -4 60.13 41.54 9.08 o
246 1 9 1 1 -3 46.03 33.23 7.25 o
247 1 9 1 1 -2 5.67 1.97 2.72 <
248 1 9 1 1 -1 4.47 -2.16 2.39 <
249 3 -3 -5 1 0 291.25 270.53 24.55 o
249 2 -6 4 1 0 291.25 270.53 24.55 o
249 1 9 1 1 0 291.25 270.53 24.55 o
250 1 9 1 1 1 6.06 7.76 3.62 <
251 1 9 1 1 2 7.39 14.26 3.94 o
252 1 9 1 1 3 24.30 12.83 8.49 <
253 1 11 1 1 -3 56.66 43.32 16.21 <
254 1 11 1 1 -2 7.57 9.76 8.54 <
255 1 11 1 1 -1 23.29 19.66 7.30 <
256 3 8 4 1 0 86.49 94.85 22.82 o
256 2 2 -6 1 0 86.49 94.85 22.82 o
256 1 -10 2 1 0 86.49 94.85 22.82 o
257 3 7 3 1 0 41.47 33.32 11.67 <
257 2 1 -5 1 0 41.47 33.32 11.67 <
257 1 -8 2 1 0 41.47 33.32 11.67 <
258 3 6 2 1 0 745.77 732.22 23.99 o
258 2 0 -4 1 0 745.77 732.22 23.99 o
258 1 -6 2 1 0 745.77 732.22 23.99 o
259 3 5 1 1 0 147.75 160.27 14.33 o
259 2 -1 -3 1 0 147.75 160.27 14.33 o
259 1 -4 2 1 0 147.75 160.27 14.33 o
260 3 4 3 1 -4 0.28 1.03 2.26 <
260 2 -2 -2 1 0 0.28 1.03 2.26 <
260 1 -2 2 1 0 0.28 1.03 2.26 <
261 1 0 2 1 -4 0.80 9.62 1.32 o
262 3 3 -1 1 0 3472.63 4206.90 76.32 o
262 2 -3 -1 1 0 3472.63 4206.90 76.32 o
262 1 0 2 1 0 3472.63 4206.90 76.32 o
263 1 0 2 1 2 9.66 5.64 4.68 <
264 1 0 2 1 4 3.86 -1.28 3.20 <
265 1 2 2 1 -4 21.93 30.51 2.76 o
266 1 2 2 1 -3 2.01 3.17 0.76 o
267 1 2 2 1 -2 10.84 10.33 1.55 o
268 1 2 2 1 -1 1.99 1.75 0.51 o
269 3 2 -2 1 0 0.38 1.12 1.56 <
269 2 -4 3 1 -4 0.38 1.12 1.56 <
269 1 2 2 1 0 0.38 1.12 1.56 <
270 1 2 2 1 1 12.75 11.64 2.68 o
271 1 2 2 1 2 12.15 8.34 3.20 <
272 1 2 2 1 3 0.92 2.78 2.47 <
273 1 2 2 1 4 16.36 10.26 3.39 o
274 1 4 2 1 -4 1.09 1.48 0.76 <
275 1 4 2 1 -3 3.00 0.04 0.59 <
276 1 4 2 1 -2 2.09 2.15 1.84 <
277 1 4 2 1 -1 1.67 2.81 1.32 <
278 3 1 -3 1 0 149.64 152.30 10.98 o
278 2 -5 1 1 0 149.64 152.30 10.98 o
278 1 4 2 1 0 149.64 152.30 10.98 o
279 1 4 2 1 1 7.12 6.63 1.71 o
280 1 4 2 1 2 0.01 -0.13 1.51 <
281 1 4 2 1 3 1.79 4.35 1.79 <
282 1 4 2 1 4 9.72 8.45 4.51 <
283 1 6 2 1 -4 65.79 63.68 6.00 o
284 1 6 2 1 -3 87.39 62.97 11.77 o
285 1 6 2 1 -2 4.96 5.20 1.69 o
286 1 6 2 1 -1 0.18 2.02 1.33 <
287 3 0 -4 1 0 979.43 950.00 23.81 o
287 2 -6 2 1 0 979.43 950.00 23.81 o
287 1 6 2 1 0 979.43 950.00 23.81 o
288 1 6 2 1 1 0.95 1.79 1.39 <
289 1 6 2 1 2 2.58 3.95 2.40 <
290 1 6 2 1 3 34.98 24.12 11.07 <
291 1 6 2 1 4 15.76 -0.50 1.26 <
292 1 8 2 1 -4 28.38 29.36 5.09 o
293 1 8 2 1 -3 67.77 57.77 7.13 o
294 1 8 2 1 -2 0.83 1.32 1.33 <
295 1 8 2 1 -1 18.93 18.07 3.36 o
296 3 -1 -5 1 0 69.81 49.99 7.83 o
296 2 -7 3 1 0 69.81 49.99 7.83 o
296 1 8 2 1 0 69.81 49.99 7.83 o
297 1 8 2 1 1 21.47 23.44 7.63 o
298 1 8 2 1 2 9.83 6.83 2.61 <
299 1 10 2 1 -4 10.51 -3.98 4.66 <
300 1 10 2 1 -3 1.67 0.39 2.34 <
301 1 10 2 1 -2 9.22 5.14 4.28 <
302 1 10 2 1 -1 0.14 3.17 3.01 <
303 3 -2 -6 1 0 68.98 56.16 16.47 o
303 2 -8 4 1 0 68.98 56.16 16.47 o
303 1 10 2 1 0 68.98 56.16 16.47 o
304 1 10 2 1 1 1.26 9.44 6.42 <
305 3 8 2 1 0 41.49 29.79 6.57 o
305 2 -1 -5 1 0 41.49 29.79 6.57 o
305 1 -7 3 1 0 41.49 29.79 6.57 o
306 3 7 1 1 0 27.44 27.36 6.79 o
306 2 -2 -4 1 0 27.44 27.36 6.79 o
306 1 -5 3 1 0 27.44 27.36 6.79 o
307 3 6 3 1 -4 105.25 99.99 10.25 o
307 2 -3 -3 1 0 105.25 99.99 10.25 o
307 1 -3 3 1 0 105.25 99.99 10.25 o
308 1 1 3 1 -3 0.60 1.48 0.51 <
309 1 1 3 1 -2 0.06 1.80 1.54 <
310 1 1 3 1 -1 2.74 2.76 1.38 <
311 3 4 -2 1 0 149.85 169.13 20.35 o
311 2 -5 -1 1 0 149.85 169.13 20.35 o
311 1 1 3 1 0 149.85 169.13 20.35 o
312 1 1 3 1 1 22.10 20.42 3.33 o
313 1 1 3 1 2 9.03 4.22 2.52 <
314 1 1 3 1 3 6.09 8.55 3.07 <
315 1 1 3 1 4 1.03 -1.68 3.08 <
316 1 3 3 1 -3 17.19 15.06 2.73 o
317 1 3 3 1 -2 2.03 4.96 1.14 o
318 1 3 3 1 -1 3.31 3.83 1.38 <
319 1 3 3 1 1 0.29 -1.12 1.70 <
320 1 3 3 1 2 0.24 8.40 4.76 <
321 1 5 3 1 -3 24.36 26.62 3.47 o
322 1 5 3 1 -2 17.73 10.54 2.05 o
323 1 5 3 1 -1 8.10 7.02 2.03 o
324 3 2 -4 1 0 40.53 35.86 9.60 o
324 2 -7 1 1 0 40.53 35.86 9.60 o
324 1 5 3 1 0 40.53 35.86 9.60 o
325 1 5 3 1 1 21.52 18.86 8.13 <
326 1 5 3 1 2 13.27 6.54 4.08 <
327 1 5 3 1 3 1.51 2.32 2.45 <
328 1 7 3 1 -4 3.44 4.26 2.00 <
329 1 7 3 1 -3 0.38 0.39 1.09 <
330 1 7 3 1 -2 0.64 1.20 0.96 <
331 1 7 3 1 -1 1.69 3.90 3.51 <
332 3 1 -5 1 0 64.46 42.79 12.40 o
332 2 -8 2 1 0 64.46 42.79 12.40 o
332 1 7 3 1 0 64.46 42.79 12.40 o
333 1 7 3 1 1 9.31 3.97 3.41 <
334 1 9 3 1 -4 85.86 63.79 16.31 o
335 1 9 3 1 -3 1.07 0.80 2.21 <
336 1 9 3 1 -2 2.14 6.23 2.34 <
337 1 9 3 1 -1 0.21 4.36 2.97 <
338 1 11 3 1 -2 4.39 1.18 4.54 <
339 3 10 2 1 0 86.59 60.06 21.48 <
339 2 -2 -6 1 0 86.59 60.06 21.48 <
339 1 -8 4 1 0 86.59 60.06 21.48 <
340 3 9 1 1 0 406.38 373.84 43.36 o
340 2 -3 -5 1 0 406.38 373.84 43.36 o
340 1 -6 4 1 0 406.38 373.84 43.36 o
341 3 8 3 1 -4 17.52 17.72 5.05 o
341 2 -4 -4 1 0 17.52 17.72 5.05 o
341 1 -4 4 1 0 17.52 17.72 5.05 o
342 3 7 -1 1 0 35.93 38.70 11.28 o
342 2 -5 -3 1 0 35.93 38.70 11.28 o
342 1 -2 4 1 0 35.93 38.70 11.28 o
343 1 0 4 1 -2 0.31 3.41 1.37 <
344 3 6 -2 1 0 984.54 934.47 36.80 o
344 2 -6 -2 1 0 984.54 934.47 36.80 o
344 1 0 4 1 0 984.54 934.47 36.80 o
345 1 2 4 1 -3 0.23 0.85 0.58 <
346 1 2 4 1 -2 14.61 10.95 2.16 o
347 1 2 4 1 -1 5.09 4.29 3.92 <
348 3 5 -3 1 0 40.67 51.10 9.30 o
348 2 -7 -1 1 0 40.67 51.10 9.30 o
348 1 2 4 1 0 40.67 51.10 9.30 o
349 1 2 4 1 1 21.73 14.43 3.00 o
350 1 2 4 1 2 8.17 4.18 4.36 <
351 1 2 4 1 3 10.29 33.58 14.23 <
352 1 4 4 1 -3 2.93 4.43 2.46 <
353 1 4 4 1 -2 0.05 1.30 1.10 <
354 1 4 4 1 -1 8.04 7.78 3.98 <
355 1 4 4 1 1 19.37 14.18 3.84 o
356 1 4 4 1 2 0.00 0.68 2.81 <
357 1 6 4 1 -3 46.43 45.32 4.45 o
358 1 6 4 1 -2 3.12 2.71 1.48 <
359 1 6 4 1 -1 6.31 5.57 1.90 <
360 3 3 -5 1 0 343.51 292.33 39.07 o
360 2 -9 1 1 0 343.51 292.33 39.07 o
360 1 6 4 1 0 343.51 292.33 39.07 o
361 1 6 4 1 1 0.48 1.33 3.20 <
362 1 8 4 1 -3 95.86 85.55 6.17 o
363 1 8 4 1 -2 2.75 3.52 2.58 <
364 1 8 4 1 -1 6.17 12.04 6.02 <
365 1 10 4 1 -3 2.85 4.95 3.30 <
366 1 10 4 1 -2 11.54 13.42 5.91 <
367 3 10 3 1 -4 13.91 14.65 5.23 <
367 2 -5 -5 1 0 13.91 14.65 5.23 <
367 1 -5 5 1 0 13.91 14.65 5.23 <
368 3 8 -2 1 0 70.25 48.62 10.46 o
368 2 -7 -3 1 0 70.25 48.62 10.46 o
368 1 -1 5 1 0 70.25 48.62 10.46 o
369 1 1 5 1 -3 5.87 2.62 1.83 <
370 1 1 5 1 -2 0.07 1.61 1.55 <
371 1 1 5 1 -1 5.28 4.97 3.56 <
372 3 7 -3 1 0 64.84 47.58 9.86 o
372 2 -8 -2 1 0 64.84 47.58 9.86 o
372 1 1 5 1 0 64.84 47.58 9.86 o
373 1 3 5 1 -3 16.45 17.30 3.88 o
374 1 3 5 1 -2 0.53 -1.40 2.61 <
375 1 3 5 1 -1 6.98 10.76 3.07 o
376 3 6 -4 1 0 343.55 334.47 37.92 o
376 2 -9 -1 1 0 343.55 334.47 37.92 o
376 1 3 5 1 0 343.55 334.47 37.92 o
377 1 3 5 1 1 1.52 6.71 3.07 <
378 1 5 5 1 -3 38.31 41.83 6.95 o
379 1 5 5 1 -2 5.32 6.86 3.20 <
380 1 5 5 1 -1 0.89 5.20 3.78 <
381 3 5 -5 1 0 19.07 13.24 8.38 <
381 2 -10 3 1 -4 19.07 13.24 8.38 <
381 1 5 5 1 0 19.07 13.24 8.38 <
382 1 7 5 1 -3 0.02 4.12 2.73 <
383 1 7 5 1 -2 2.22 3.24 3.40 <
384 1 7 5 1 -1 3.46 3.84 8.36 <
385 1 9 5 1 -3 6.92 18.51 5.74 o
386 3 10 -2 1 0 69.15 46.38 9.80 o
386 2 -8 -4 1 0 69.15 46.38 9.80 o
386 1 -2 6 1 0 69.15 46.38 9.80 o
387 1 0 6 1 -2 7.02 12.82 7.79 <
388 3 9 -3 1 0 53.07 45.38 9.50 o
388 2 -9 -3 1 0 53.07 45.38 9.50 o
388 1 0 6 1 0 53.07 45.38 9.50 o
389 1 2 6 1 -3 0.01 3.10 2.11 <
390 1 2 6 1 -2 0.82 2.52 1.83 <
391 1 2 6 1 -1 1.74 0.12 1.65 <
392 1 4 6 1 -3 0.33 6.02 2.39 <
393 1 4 6 1 -2 0.29 1.19 2.32 <
394 1 4 6 1 -1 5.30 0.78 3.78 <
395 1 6 6 1 -3 2.28 5.69 2.99 <
396 1 6 6 1 -2 0.33 3.33 3.23 <
397 1 8 6 1 -3 64.76 46.99 11.15 o
398 1 1 7 1 -3 0.04 0.82 1.44 <
399 1 1 7 1 -2 0.02 1.43 2.16 <
400 1 1 7 1 -1 2.21 -13.95 9.84 <
401 1 3 7 1 -3 8.55 16.00 7.39 <
402 1 3 7 1 -2 6.12 6.66 4.74 <
403 1 5 7 1 -3 24.00 22.66 10.34 <
404 1 5 7 1 -2 0.54 -5.96 8.83 <
405 1 2 8 1 -3 2.51 5.78 3.62 <
406 1 4 8 1 -3 0.58 -5.61 6.21 <
407 3 0 0 2 0 987.71 1412.03 21.95 o
407 2 0 0 2 0 987.71 1412.03 21.95 o
407 1 0 0 2 0 987.71 1412.03 21.95 o
408 1 0 0 2 2 366.87 326.77 8.15 o
409 1 0 0 2 4 8.15 7.46 2.86 <
410 3 -1 -1 2 0 148.04 223.71 10.83 o
410 2 -1 1 2 0 148.04 223.71 10.83 o
410 1 2 0 2 0 148.04 223.71 10.83 o
411 1 2 0 2 1 526.19 463.94 12.38 o
412 1 2 0 2 2 293.89 274.28 13.08 o
413 1 2 0 2 3 0.29 0.14 0.78 <
414 1 2 0 2 4 27.14 19.05 5.15 o
415 3 -2 -2 2 0 715.18 849.96 34.87 o
415 2 -2 2 2 0 715.18 849.96 34.87 o
415 1 4 0 2 0 715.18 849.96 34.87 o
416 1 4 0 2 1 22.87 20.80 3.62 o
417 1 4 0 2 2 0.51 1.64 0.99 <
418 1 4 0 2 3 21.33 25.55 3.46 o
419 1 4 0 2 4 11.52 11.73 2.93 o
420 3 -3 -3 2 0 964.57 988.12 50.24 o
420 2 -3 3 2 0 964.57 988.12 50.24 o
420 1 6 0 2 0 964.57 988.12 50.24 o
421 1 6 0 2 1 165.42 153.58 7.55 o
422 1 6 0 2 2 136.98 141.00 9.87 o
423 1 6 0 2 3 6.39 10.72 3.05 o
424 1 6 0 2 4 0.58 2.13 2.76 <
425 1 8 0 2 1 50.70 61.10 7.19 o
426 1 8 0 2 2 149.51 155.27 12.62 o
427 1 8 0 2 3 4.76 2.97 1.84 <
428 1 8 0 2 4 26.06 32.87 12.67 <
429 3 -5 -5 2 0 563.64 542.09 29.90 o
429 2 -5 5 2 0 563.64 542.09 29.90 o
429 1 10 0 2 0 563.64 542.09 29.90 o
430 1 10 0 2 1 13.90 5.99 4.35 <
431 1 10 0 2 2 1.61 10.08 4.42 <
432 1 10 0 2 3 37.68 29.63 12.24 <
433 3 5 3 2 0 198.95 198.02 18.53 o
433 2 2 -4 2 0 198.95 198.02 18.53 o
433 1 -7 1 2 0 198.95 198.02 18.53 o
434 3 4 2 2 0 392.94 380.62 32.01 o
434 2 1 -3 2 0 392.94 380.62 32.01 o
434 1 -5 1 2 0 392.94 380.62 32.01 o
435 3 3 1 2 0 2403.84 2809.85 29.38 o
435 2 0 -2 2 0 2403.84 2809.85 29.38 o
435 1 -3 1 2 0 2403.84 2809.85 29.38 o
436 3 2 0 2 0 148.09 216.87 7.61 o
436 2 -1 -1 2 0 148.09 216.87 7.61 o
436 1 -1 1 2 0 148.09 216.87 7.61 o
437 1 1 1 2 -4 11.91 15.27 3.41 o
438 1 1 1 2 -3 10.45 9.09 1.18 o
439 1 1 1 2 -2 29.06 22.45 4.38 o
440 1 1 1 2 -1 146.33 123.53 4.40 o
441 3 1 -1 2 0 130.26 180.69 5.12 o
441 2 -2 0 2 0 130.26 180.69 5.12 o
441 1 1 1 2 0 130.26 180.69 5.12 o
442 1 1 1 2 1 478.52 490.36 25.05 o
443 1 1 1 2 2 34.97 26.84 3.45 o
444 1 1 1 2 3 8.61 6.39 2.21 <
445 1 1 1 2 4 3.02 6.85 2.44 <
446 1 3 1 2 -4 12.36 5.70 2.23 <
447 1 3 1 2 -3 2.25 1.07 0.66 <
448 1 3 1 2 -2 226.89 194.07 12.21 o
449 1 3 1 2 -1 224.82 228.88 8.03 o
450 3 0 -2 2 0 2446.56 2825.29 32.73 o
450 2 -3 1 2 0 2446.56 2825.29 32.73 o
450 1 3 1 2 0 2446.56 2825.29 32.73 o
451 1 3 1 2 1 67.81 62.92 4.73 o
452 1 3 1 2 2 205.02 184.96 8.43 o
453 1 3 1 2 3 28.24 31.95 4.33 o
454 1 3 1 2 4 7.56 -1.97 3.45 <
455 1 5 1 2 -4 37.26 31.73 4.24 o
456 1 5 1 2 -3 0.62 1.64 0.76 <
457 1 5 1 2 -2 251.72 217.25 11.09 o
458 1 5 1 2 -1 175.31 155.27 9.44 o
459 3 -1 -3 2 0 373.62 350.91 16.77 o
459 2 -4 2 2 0 373.62 350.91 16.77 o
459 1 5 1 2 0 373.62 350.91 16.77 o
460 1 5 1 2 1 235.84 200.05 13.05 o
461 1 5 1 2 2 230.32 217.96 15.54 o
462 1 5 1 2 3 0.12 -1.46 2.40 <
463 1 5 1 2 4 34.52 8.95 5.41 <
464 1 7 1 2 -4 12.06 15.42 4.29 o
465 1 7 1 2 -3 19.76 17.37 3.91 o
466 1 7 1 2 -2 9.03 5.99 2.08 <
467 1 7 1 2 -1 28.37 26.84 6.79 o
468 3 -2 -4 2 0 175.95 192.13 14.30 o
468 2 -5 3 2 0 175.95 192.13 14.30 o
468 1 7 1 2 0 175.95 192.13 14.30 o
469 1 7 1 2 1 0.38 8.16 4.65 <
470 1 7 1 2 2 3.68 6.64 4.30 <
471 1 7 1 2 3 55.47 52.16 8.65 o
472 1 7 1 2 4 21.25 22.94 5.10 o
473 1 9 1 2 -4 1.98 9.12 3.86 <
474 1 9 1 2 -3 4.58 7.94 3.17 <
475 1 9 1 2 -2 44.49 52.72 8.56 o
476 1 9 1 2 -1 138.78 141.35 12.51 o
477 3 -3 -5 2 0 10.45 16.41 5.38 o
477 2 -6 4 2 0 10.45 16.41 5.38 o
477 1 9 1 2 0 10.45 16.41 5.38 o
478 1 9 1 2 1 41.15 42.15 10.23 o
479 1 9 1 2 2 53.06 83.24 12.36 o
480 1 9 1 2 3 30.83 13.24 10.38 <
481 1 11 1 2 -1 12.94 22.93 11.88 <
482 3 8 4 2 0 238.12 189.94 32.70 o
482 2 2 -6 2 0 238.12 189.94 32.70 o
482 1 -10 2 2 0 238.12 189.94 32.70 o
483 3 7 3 2 0 316.68 244.68 33.89 o
483 2 1 -5 2 0 316.68 244.68 33.89 o
483 1 -8 2 2 0 316.68 244.68 33.89 o
484 3 6 2 2 0 79.33 83.22 16.73 o
484 2 0 -4 2 0 79.33 83.22 16.73 o
484 1 -6 2 2 0 79.33 83.22 16.73 o
485 3 5 1 2 0 393.15 395.93 17.92 o
485 2 -1 -3 2 0 393.15 395.93 17.92 o
485 1 -4 2 2 0 393.15 395.93 17.92 o
486 1 0 2 2 -4 13.51 12.72 2.01 o
487 1 0 2 2 -2 143.15 122.02 4.92 o
488 3 3 -1 2 0 2453.00 2714.53 61.16 o
488 2 -3 -1 2 0 2453.00 2714.53 61.16 o
488 1 0 2 2 0 2453.00 2714.53 61.16 o
489 1 0 2 2 2 152.29 128.99 20.41 o
490 1 0 2 2 4 1.92 2.35 4.45 <
491 1 2 2 2 -4 11.38 12.20 1.80 o
492 1 2 2 2 -3 26.61 20.05 1.74 o
493 1 2 2 2 -2 122.67 100.46 4.09 o
494 1 2 2 2 -1 157.79 139.13 7.26 o
495 3 2 -2 2 0 799.34 935.73 22.92 o
495 2 -4 0 2 0 799.34 935.73 22.92 o
495 1 2 2 2 0 799.34 935.73 22.92 o
496 1 2 2 2 1 467.92 425.42 12.07 o
497 1 2 2 2 2 108.08 94.38 10.92 o
498 1 2 2 2 3 5.15 3.10 1.92 <
499 1 2 2 2 4 15.70 12.75 4.49 <
500 1 4 2 2 -4 2.90 5.12 1.39 o
501 1 4 2 2 -3 0.09 1.02 0.72 <
502 1 4 2 2 -2 13.08 9.50 2.56 o
503 1 4 2 2 -1 25.77 27.85 3.13 o
504 3 1 -3 2 0 320.79 310.55 20.03 o
504 2 -5 1 2 0 320.79 310.55 20.03 o
504 1 4 2 2 0 320.79 310.55 20.03 o
505 1 4 2 2 1 117.67 108.90 10.36 o
506 1 4 2 2 2 0.01 1.37 1.92 <
507 1 4 2 2 3 53.85 53.87 8.77 o
508 1 4 2 2 4 2.62 5.01 3.52 <
509 1 6 2 2 -4 0.13 0.07 2.06 <
510 1 6 2 2 -3 0.09 0.57 1.87 <
511 1 6 2 2 -2 72.18 65.53 5.67 o
512 1 6 2 2 -1 278.19 294.11 15.45 o
513 3 0 -4 2 0 113.31 134.50 11.72 o
513 2 -6 2 2 0 113.31 134.50 11.72 o
513 1 6 2 2 0 113.31 134.50 11.72 o
514 1 6 2 2 1 43.10 33.72 6.36 o
515 1 6 2 2 2 97.79 117.58 13.39 o
516 1 6 2 2 3 23.75 26.45 6.60 o
517 1 8 2 2 -4 5.78 4.97 3.25 <
518 1 8 2 2 -3 23.48 27.92 4.40 o
519 1 8 2 2 -2 79.00 65.78 7.87 o
520 3 -1 -5 2 0 327.53 251.03 19.48 o
520 2 -7 3 2 0 327.53 251.03 19.48 o
520 1 8 2 2 0 327.53 251.03 19.48 o
521 1 8 2 2 1 28.53 20.79 5.88 o
522 1 8 2 2 2 93.53 96.14 16.21 o
523 1 10 2 2 -4 6.54 6.30 2.42 <
524 1 10 2 2 -3 35.53 49.16 9.67 o
525 1 10 2 2 -2 0.77 1.24 3.24 <
526 1 10 2 2 -1 36.82 33.20 6.80 o
527 3 -2 -6 2 0 217.64 183.36 32.24 o
527 2 -8 4 2 0 217.64 183.36 32.24 o
527 1 10 2 2 0 217.64 183.36 32.24 o
528 1 10 2 2 1 1.36 8.57 8.81 <
529 3 9 3 2 0 446.09 393.49 48.29 o
529 2 0 -6 2 0 446.09 393.49 48.29 o
529 1 -9 3 2 0 446.09 393.49 48.29 o
530 3 8 2 2 0 316.80 256.54 34.64 o
530 2 -1 -5 2 0 316.80 256.54 34.64 o
530 1 -7 3 2 0 316.80 256.54 34.64 o
531 3 5 -1 2 0 374.45 355.02 27.29 o
531 2 -4 -2 2 0 374.45 355.02 27.29 o
531 1 -1 3 2 0 374.45 355.02 27.29 o
532 1 1 3 2 -4 0.00 9.01 1.20 o
533 1 1 3 2 -3 44.07 28.56 2.34 o
534 1 1 3 2 -2 0.47 1.24 1.24 <
535 1 1 3 2 -1 0.02 1.06 1.33 <
536 3 4 -2 2 0 321.35 309.14 27.35 o
536 2 -5 -1 2 0 321.35 309.14 27.35 o
536 1 1 3 2 0 321.35 309.14 27.35 o
537 1 1 3 2 1 337.09 336.03 15.89 o
538 1 1 3 2 2 17.49 13.40 2.87 o
539 1 1 3 2 3 32.13 25.31 6.19 o
540 1 1 3 2 4 0.04 0.81 2.94 <
541 1 3 3 2 -4 0.00 1.57 1.03 <
542 1 3 3 2 -3 13.98 12.06 1.40 o
543 1 3 3 2 -2 18.46 11.51 2.16 o
544 1 3 3 2 -1 177.02 188.52 8.35 o
545 3 3 -3 2 0 877.77 848.51 30.60 o
545 2 -6 0 2 0 877.77 848.51 30.60 o
545 1 3 3 2 0 877.77 848.51 30.60 o
546 1 3 3 2 1 11.50 13.51 3.61 o
547 1 3 3 2 2 69.38 66.40 8.40 o
548 1 3 3 2 3 19.98 20.16 6.33 o
549 1 3 3 2 4 2.35 -1.51 5.96 <
550 1 5 3 2 -4 0.00 3.38 3.37 <
551 1 5 3 2 -3 2.69 1.46 1.27 <
552 1 5 3 2 -2 56.45 47.43 6.03 o
553 1 5 3 2 -1 68.38 74.14 7.15 o
554 3 2 -4 2 0 198.17 203.68 14.66 o
554 2 -7 1 2 0 198.17 203.68 14.66 o
554 1 5 3 2 0 198.17 203.68 14.66 o
555 1 5 3 2 1 145.62 130.29 16.61 o
556 1 5 3 2 2 95.19 95.63 13.17 o
557 1 5 3 2 3 0.59 11.25 5.09 <
558 1 7 3 2 -4 0.00 1.31 2.00 <
559 1 7 3 2 -3 3.68 5.58 1.85 o
560 1 7 3 2 -2 3.05 3.76 2.26 <
561 1 7 3 2 -1 84.07 73.27 14.97 o
562 1 7 3 2 1 15.80 17.77 3.83 o
563 1 7 3 2 2 0.28 8.50 6.73 <
564 1 9 3 2 -4 0.00 4.02 2.99 <
565 1 9 3 2 -3 16.83 14.56 5.67 <
566 1 9 3 2 -2 21.45 21.56 5.31 o
567 1 9 3 2 -1 159.56 159.58 28.09 o
568 3 10 2 2 0 238.64 178.48 32.58 o
568 2 -2 -6 2 0 238.64 178.48 32.58 o
568 1 -8 4 2 0 238.64 178.48 32.58 o
569 3 9 1 2 0 8.59 10.56 3.23 o
569 2 -3 -5 2 0 8.59 10.56 3.23 o
569 1 -6 4 2 0 8.59 10.56 3.23 o
570 3 8 0 2 0 25.46 26.61 6.04 o
570 2 -4 -4 2 0 25.46 26.61 6.04 o
570 1 -4 4 2 0 25.46 26.61 6.04 o
571 3 7 -1 2 0 176.74 170.96 16.60 o
571 2 -5 -3 2 0 176.74 170.96 16.60 o
571 1 -2 4 2 0 176.74 170.96 16.60 o
572 1 0 4 2 -2 18.46 25.69 7.70 o
573 3 6 -2 2 0 114.02 133.17 18.81 o
573 2 -6 -2 2 0 114.02 133.17 18.81 o
573 1 0 4 2 0 114.02 133.17 18.81 o
574 1 0 4 2 2 18.93 4.29 5.28 <
575 1 2 4 2 -3 19.95 14.11 2.17 o
576 1 2 4 2 -2 0.12 3.54 1.73 <
577 1 2 4 2 -1 13.07 15.55 5.14 o
578 3 5 -3 2 0 198.46 200.00 19.64 o
578 2 -7 -1 2 0 198.46 200.00 19.64 o
578 1 2 4 2 0 198.46 200.00 19.64 o
579 1 2 4 2 1 263.27 265.29 24.32 o
580 1 2 4 2 2 26.86 14.44 7.66 <
581 1 4 4 2 -3 1.79 -1.00 1.18 <
582 1 4 4 2 -2 11.19 9.44 2.26 o
583 1 4 4 2 -1 57.26 51.80 4.86 o
584 3 4 -4 2 0 15.28 29.29 7.58 o
584 2 -8 0 2 0 15.28 29.29 7.58 o
584 1 4 4 2 0 15.28 29.29 7.58 o
585 1 4 4 2 1 110.17 109.16 16.28 o
586 1 4 4 2 2 0.94 0.23 3.21 <
587 1 6 4 2 -3 28.31 20.85 4.48 o
588 1 6 4 2 -2 1.61 3.78 1.79 <
589 1 6 4 2 -1 201.79 186.98 16.07 o
590 3 3 -5 2 0 9.29 14.14 8.40 <
590 2 -9 1 2 0 9.29 14.14 8.40 <
590 1 6 4 2 0 9.29 14.14 8.40 <
591 1 6 4 2 1 7.01 13.20 4.83 <
592 1 8 4 2 -3 12.96 10.39 3.32 o
593 1 8 4 2 -2 9.23 5.78 3.89 <
594 1 8 4 2 -1 19.00 43.10 7.26 o
595 3 2 -6 2 0 230.11 169.11 30.57 o
595 2 -10 2 2 0 230.11 169.11 30.57 o
595 1 8 4 2 0 230.11 169.11 30.57 o
596 1 10 4 2 -3 16.72 18.21 7.26 <
597 1 10 4 2 -2 1.11 3.50 3.88 <
598 3 10 0 2 0 566.17 480.89 51.58 o
598 2 -5 -5 2 0 566.17 480.89 51.58 o
598 1 -5 5 2 0 566.17 480.89 51.58 o
599 3 9 -1 2 0 10.46 18.08 9.65 <
599 2 -6 -4 2 0 10.46 18.08 9.65 <
599 1 -3 5 2 0 10.46 18.08 9.65 <
600 3 8 -2 2 0 329.13 229.62 21.82 o
600 2 -7 -3 2 0 329.13 229.62 21.82 o
600 1 -1 5 2 0 329.13 229.62 21.82 o
601 1 1 5 2 -3 0.41 0.09 1.05 <
602 1 1 5 2 -2 25.57 31.20 5.96 o
603 1 1 5 2 -1 6.12 4.06 1.95 <
604 1 1 5 2 1 152.85 177.11 17.79 o
605 1 3 5 2 -3 0.73 2.51 1.53 <
606 1 3 5 2 -2 29.56 32.18 5.09 o
607 1 3 5 2 -1 67.83 68.69 9.76 o
608 3 6 -4 2 0 9.29 15.01 5.18 <
608 2 -9 -1 2 0 9.29 15.01 5.18 <
608 1 3 5 2 0 9.29 15.01 5.18 <
609 1 3 5 2 1 3.92 15.81 7.43 <
610 1 5 5 2 -3 7.78 6.21 1.49 o
611 1 5 5 2 -2 0.36 5.15 5.51 <
612 1 5 5 2 -1 12.45 21.64 7.60 <
613 1 7 5 2 -2 0.59 1.59 2.00 <
614 1 7 5 2 -1 68.03 74.92 13.74 o
615 1 9 5 2 -3 4.60 5.43 4.19 <
616 3 10 -2 2 0 218.78 136.22 19.18 o
616 2 -8 -4 2 0 218.78 136.22 19.18 o
616 1 -2 6 2 0 218.78 136.22 19.18 o
617 1 0 6 2 -2 85.78 93.90 10.12 o
618 3 9 -3 2 0 390.37 283.40 38.78 o
618 2 -9 -3 2 0 390.37 283.40 38.78 o
618 1 0 6 2 0 390.37 283.40 38.78 o
619 1 2 6 2 -3 3.51 3.10 1.57 <
620 1 2 6 2 -2 23.86 24.74 5.63 o
621 1 2 6 2 -1 3.04 8.45 3.16 <
622 1 4 6 2 -3 3.50 6.61 2.54 <
623 1 4 6 2 -2 13.85 15.21 5.22 <
624 1 4 6 2 -1 27.87 19.96 6.27 o
625 1 6 6 2 -3 4.09 3.29 1.69 <
626 1 6 6 2 -2 6.48 6.31 2.70 <
627 1 8 6 2 -3 18.61 10.89 4.32 <
628 1 1 7 2 -3 10.87 15.27 3.09 o
629 1 3 7 2 -3 0.13 0.69 3.38 <
630 1 3 7 2 -2 60.42 54.57 7.00 o
631 1 5 7 2 -3 5.76 7.66 6.19 <
632 1 5 7 2 -2 9.31 31.64 14.38 <
633 1 7 7 2 -3 17.47 11.11 4.59 <
634 1 2 8 2 -3 19.14 23.45 5.39 o
635 1 4 8 2 -3 33.33 29.78 9.47 o
636 1 0 0 3 2 20.24 18.48 2.89 o
637 1 0 0 3 4 2.65 2.52 1.12 <
638 1 2 0 3 1 0.25 0.12 0.71 <
639 1 2 0 3 2 0.36 2.08 1.14 <
640 1 2 0 3 3 9.17 13.78 2.46 o
641 1 2 0 3 4 27.61 31.71 4.41 o
642 1 4 0 3 1 2.43 3.70 1.06 o
643 1 4 0 3 2 0.93 1.60 0.91 <
644 1 4 0 3 3 33.38 26.18 3.21 o
645 1 4 0 3 4 1.25 0.96 0.99 <
646 1 6 0 3 1 20.79 17.06 7.11 <
647 1 6 0 3 2 0.30 1.10 1.30 <
648 1 6 0 3 3 52.91 28.97 4.86 o
649 1 6 0 3 4 27.43 29.00 6.36 o
650 1 8 0 3 1 9.88 9.91 2.43 o
651 1 8 0 3 2 0.02 2.88 4.19 <
652 1 8 0 3 3 0.03 2.52 2.78 <
653 1 8 0 3 4 45.95 34.31 9.59 o
654 1 10 0 3 1 5.32 9.49 5.71 <
655 1 10 0 3 2 31.30 21.98 8.24 <
656 3 6 4 3 0 1080.51 1124.38 50.38 o
656 2 3 -5 3 0 1080.51 1124.38 50.38 o
656 1 -9 1 3 0 1080.51 1124.38 50.38 o
657 3 5 3 3 0 97.61 95.74 16.41 o
657 2 2 -4 3 0 97.61 95.74 16.41 o
657 1 -7 1 3 0 97.61 95.74 16.41 o
658 3 4 2 3 0 398.04 442.87 18.78 o
658 2 1 -3 3 0 398.04 442.87 18.78 o
658 1 -5 1 3 0 398.04 442.87 18.78 o
659 3 3 1 3 0 9960.99 12126.80 53.08 o
659 2 0 -2 3 0 9960.99 12126.80 53.08 o
659 1 -3 1 3 0 9960.99 12126.80 53.08 o
660 3 2 3 3 -4 10.36 13.66 2.12 o
660 2 -1 -1 3 0 10.36 13.66 2.12 o
660 1 -1 1 3 0 10.36 13.66 2.12 o
661 1 1 1 3 -4 3.95 5.16 1.31 o
662 1 1 1 3 -3 6.76 8.65 1.30 o
663 1 1 1 3 -2 0.18 0.89 0.44 <
664 1 1 1 3 -1 0.02 0.94 0.61 <
665 3 1 -1 3 0 14.19 14.30 2.57 o
665 2 -2 3 3 -4 14.19 14.30 2.57 o
665 1 1 1 3 0 14.19 14.30 2.57 o
666 1 1 1 3 1 2.48 3.10 1.13 <
667 1 1 1 3 2 2.51 1.65 1.07 <
668 1 1 1 3 3 0.63 2.26 1.47 <
669 1 1 1 3 4 0.54 2.04 1.85 <
670 1 3 1 3 -4 32.35 29.06 3.25 o
671 1 3 1 3 -3 0.61 0.81 1.00 <
672 1 3 1 3 -2 0.12 1.56 0.84 <
673 1 3 1 3 -1 3.17 3.88 0.83 o
674 3 0 -2 3 0 10510.60 12274.10 47.58 o
674 2 -3 1 3 0 10510.60 12274.10 47.58 o
674 1 3 1 3 0 10510.60 12274.10 47.58 o
675 1 3 1 3 1 2.14 2.42 1.35 <
676 1 3 1 3 2 9.20 6.91 2.72 <
677 1 3 1 3 3 1.16 2.81 1.60 <
678 1 3 1 3 4 8.74 7.89 2.21 o
679 1 5 1 3 -4 70.52 70.62 10.06 o
680 1 5 1 3 -3 5.11 9.40 2.77 o
681 1 5 1 3 -2 5.75 5.22 1.35 o
682 1 5 1 3 -1 4.67 6.15 1.95 o
683 3 -1 -3 3 0 366.52 387.92 14.14 o
683 2 -4 2 3 0 366.52 387.92 14.14 o
683 1 5 1 3 0 366.52 387.92 14.14 o
684 1 5 1 3 1 10.93 13.03 5.14 <
685 1 5 1 3 2 1.26 1.27 1.61 <
686 1 5 1 3 3 5.10 5.90 2.06 <
687 1 5 1 3 4 52.67 38.50 6.31 o
688 1 7 1 3 -4 8.66 8.99 2.87 o
689 1 7 1 3 -3 39.54 28.81 5.08 o
690 1 7 1 3 -2 5.05 8.17 3.08 <
691 1 7 1 3 -1 7.65 11.47 2.78 o
692 3 -2 -4 3 0 155.17 150.86 23.07 o
692 2 -5 3 3 0 155.17 150.86 23.07 o
692 1 7 1 3 0 155.17 150.86 23.07 o
693 1 7 1 3 1 9.43 8.06 2.14 o
694 1 7 1 3 2 15.03 16.11 5.63 <
695 1 7 1 3 3 18.82 15.95 5.68 <
696 1 7 1 3 4 3.12 1.32 3.40 <
697 1 9 1 3 -4 56.12 31.75 12.68 <
698 1 9 1 3 -3 25.76 43.46 7.18 o
699 1 9 1 3 -2 0.90 5.90 3.80 <
700 1 9 1 3 -1 13.65 10.92 3.06 o
701 3 -3 -5 3 0 1126.04 1091.73 41.80 o
701 2 -6 4 3 0 1126.04 1091.73 41.80 o
701 1 9 1 3 0 1126.04 1091.73 41.80 o
702 1 9 1 3 1 9.94 10.16 4.29 <
703 1 9 1 3 2 2.15 5.71 4.54 <
704 1 11 1 3 -2 4.34 -11.72 9.47 <
705 3 6 2 3 0 2516.98 2314.80 50.28 o
705 2 0 -4 3 0 2516.98 2314.80 50.28 o
705 1 -6 2 3 0 2516.98 2314.80 50.28 o
706 3 5 1 3 0 398.55 436.49 28.38 o
706 2 -1 -3 3 0 398.55 436.49 28.38 o
706 1 -4 2 3 0 398.55 436.49 28.38 o
707 3 4 3 3 -4 32.50 33.78 7.33 o
707 2 -2 -2 3 0 32.50 33.78 7.33 o
707 1 -2 2 3 0 32.50 33.78 7.33 o
708 1 0 2 3 -4 0.82 8.31 2.32 o
709 1 0 2 3 -2 0.01 0.34 0.95 <
710 3 3 -1 3 0 10533.80 12359.40 44.58 o
710 2 -3 -1 3 0 10533.80 12359.40 44.58 o
710 1 0 2 3 0 10533.80 12359.40 44.58 o
711 1 0 2 3 2 25.46 21.23 4.42 o
712 1 2 2 3 -4 15.23 29.21 3.95 o
713 1 2 2 3 -3 10.48 16.26 2.38 o
714 1 2 2 3 -2 10.44 11.51 1.82 o
715 1 2 2 3 -1 0.39 1.27 0.99 <
716 3 2 -2 3 0 44.54 40.16 6.95 o
716 2 -4 3 3 -4 44.54 40.16 6.95 o
716 1 2 2 3 0 44.54 40.16 6.95 o
717 1 2 2 3 1 14.20 11.60 2.54 o
718 1 2 2 3 2 1.45 2.01 1.47 <
719 1 2 2 3 3 9.89 8.39 5.95 <
720 1 4 2 3 -4 2.37 2.78 1.12 <
721 1 4 2 3 -3 56.52 45.09 3.23 o
722 1 4 2 3 -2 0.95 0.83 0.75 <
723 1 4 2 3 -1 5.00 7.13 2.07 o
724 3 1 -3 3 0 358.88 374.71 14.73 o
724 2 -5 1 3 0 358.88 374.71 14.73 o
724 1 4 2 3 0 358.88 374.71 14.73 o
725 1 4 2 3 1 13.28 12.74 2.38 o
726 1 4 2 3 3 6.24 1.82 0.67 <
727 1 4 2 3 4 0.50 4.44 2.53 <
728 1 6 2 3 -4 41.96 46.78 3.86 o
729 1 6 2 3 -3 0.38 2.58 1.11 <
730 1 6 2 3 -2 3.93 5.36 1.55 o
731 1 6 2 3 -1 2.76 6.14 2.15 <
732 3 0 -4 3 0 2346.38 2176.17 46.49 o
732 2 -6 2 3 0 2346.38 2176.17 46.49 o
732 1 6 2 3 0 2346.38 2176.17 46.49 o
733 1 6 2 3 1 3.92 1.82 1.12 <
734 1 6 2 3 2 0.11 3.18 2.31 <
735 1 6 2 3 3 4.45 19.56 9.18 <
736 1 8 2 3 -4 42.56 49.57 6.84 o
737 1 8 2 3 -3 0.97 5.56 2.64 <
738 1 8 2 3 -2 0.95 -2.44 2.51 <
739 1 8 2 3 -1 6.39 8.45 3.18 <
740 3 -1 -5 3 0 197.49 178.51 28.64 o
740 2 -7 3 3 0 197.49 178.51 28.64 o
740 1 8 2 3 0 197.49 178.51 28.64 o
741 1 8 2 3 1 15.59 15.52 3.67 o
742 1 8 2 3 2 2.15 7.90 6.16 <
743 1 10 2 3 -3 36.55 29.91 5.85 o
744 1 10 2 3 -2 12.12 13.25 6.22 <
745 1 10 2 3 -1 4.11 2.26 3.34 <
746 3 -2 -6 3 0 155.62 136.95 26.49 o
746 2 -8 4 3 0 155.62 136.95 26.49 o
746 1 10 2 3 0 155.62 136.95 26.49 o
747 3 8 2 3 0 169.42 142.15 14.54 o
747 2 -1 -5 3 0 169.42 142.15 14.54 o
747 1 -7 3 3 0 169.42 142.15 14.54 o
748 3 7 1 3 0 97.78 94.45 10.61 o
748 2 -2 -4 3 0 97.78 94.45 10.61 o
748 1 -5 3 3 0 97.78 94.45 10.61 o
749 3 6 3 3 -4 1.97 1.33 3.23 <
749 2 -3 -3 3 0 1.97 1.33 3.23 <
749 1 -3 3 3 0 1.97 1.33 3.23 <
750 3 5 -1 3 0 367.72 395.00 12.51 o
750 2 -4 -2 3 0 367.72 395.00 12.51 o
750 1 -1 3 3 0 367.72 395.00 12.51 o
751 1 1 3 3 -4 0.13 0.64 0.44 <
752 1 1 3 3 -3 0.92 2.36 1.06 <
753 1 1 3 3 -2 0.90 2.51 1.02 <
754 3 4 -2 3 0 359.58 360.79 17.72 o
754 2 -5 -1 3 0 359.58 360.79 17.72 o
754 1 1 3 3 0 359.58 360.79 17.72 o
755 1 1 3 3 1 13.56 8.34 3.16 <
756 1 1 3 3 2 0.19 1.88 2.58 <
757 1 1 3 3 3 10.34 3.99 4.45 <
758 1 1 3 3 4 0.28 -6.72 6.89 <
759 1 3 3 3 -4 10.58 23.66 3.12 o
760 1 3 3 3 -3 53.04 52.59 3.46 o
761 1 3 3 3 -2 3.95 3.57 0.98 o
762 1 3 3 3 -1 0.01 0.03 0.76 <
763 3 3 -3 3 0 2.70 4.45 2.56 <
763 2 -6 3 3 -4 2.70 4.45 2.56 <
763 1 3 3 3 0 2.70 4.45 2.56 <
764 1 3 3 3 1 0.19 1.29 1.53 <
765 1 3 3 3 2 16.13 14.31 4.50 o
766 1 3 3 3 3 4.96 8.69 6.04 <
767 1 3 3 3 4 1.81 -1.61 3.04 <
768 1 5 3 3 -4 50.05 59.41 7.04 o
769 1 5 3 3 -3 0.73 2.42 1.31 <
770 1 5 3 3 -2 14.20 12.67 2.40 o
771 1 5 3 3 -1 0.06 -0.10 1.15 <
772 3 2 -4 3 0 142.96 137.45 16.67 o
772 2 -7 1 3 0 142.96 137.45 16.67 o
772 1 5 3 3 0 142.96 137.45 16.67 o
773 1 5 3 3 1 7.67 4.54 2.07 <
774 1 5 3 3 2 0.55 1.86 4.35 <
775 1 5 3 3 3 9.87 13.06 10.80 <
776 1 7 3 3 -4 9.96 7.73 3.42 <
777 1 7 3 3 -3 82.01 66.77 11.25 o
778 1 7 3 3 -2 0.43 1.85 2.13 <
779 1 7 3 3 -1 13.72 12.10 4.71 <
780 1 7 3 3 1 9.43 -1.69 2.90 <
781 1 9 3 3 -4 59.71 53.94 8.93 o
782 1 9 3 3 -3 2.26 8.97 6.78 <
783 1 9 3 3 -2 3.33 -0.17 2.34 <
784 1 9 3 3 -1 6.21 12.05 3.85 o
785 1 11 3 3 -3 23.10 19.16 11.53 <
786 3 9 1 3 0 1083.55 1031.52 68.80 o
786 2 -3 -5 3 0 1083.55 1031.52 68.80 o
786 1 -6 4 3 0 1083.55 1031.52 68.80 o
787 3 7 -1 3 0 156.01 139.05 16.41 o
787 2 -5 -3 3 0 156.01 139.05 16.41 o
787 1 -2 4 3 0 156.01 139.05 16.41 o
788 1 0 4 3 -2 0.97 0.65 1.24 <
789 3 6 -2 3 0 2355.04 2169.87 40.85 o
789 2 -6 -2 3 0 2355.04 2169.87 40.85 o
789 1 0 4 3 0 2355.04 2169.87 40.85 o
790 1 2 4 3 -3 9.15 7.33 1.67 o
791 1 2 4 3 -2 1.89 2.88 1.24 <
792 1 2 4 3 -1 0.01 1.60 2.09 <
793 3 5 -3 3 0 143.52 143.29 16.87 o
793 2 -7 -1 3 0 143.52 143.29 16.87 o
793 1 2 4 3 0 143.52 143.29 16.87 o
794 1 2 4 3 1 20.04 12.87 7.44 <
795 1 2 4 3 2 0.90 4.34 3.67 <
796 1 4 4 3 -3 4.54 5.07 1.94 <
797 1 4 4 3 -2 2.73 2.92 1.38 <
798 1 4 4 3 -1 12.50 10.91 2.18 o
799 3 4 -4 3 0 23.75 32.07 12.10 <
799 2 -8 3 3 -4 23.75 32.07 12.10 <
799 1 4 4 3 0 23.75 32.07 12.10 <
800 1 4 4 3 1 29.77 22.46 5.80 o
801 1 4 4 3 2 2.70 3.62 6.70 <
802 1 6 4 3 -3 17.05 25.46 5.52 o
803 1 6 4 3 -2 3.83 7.92 2.73 <
804 1 6 4 3 -1 0.59 2.76 4.13 <
805 3 3 -5 3 0 1096.67 1062.11 52.98 o
805 2 -9 1 3 0 1096.67 1062.11 52.98 o
805 1 6 4 3 0 1096.67 1062.11 52.98 o
806 1 6 4 3 1 0.57 1.85 3.58 <
807 1 8 4 3 -3 3.11 -2.79 2.36 <
808 1 8 4 3 -2 0.21 -0.26 2.81 <
809 1 8 4 3 -1 0.39 9.22 5.95 <
810 3 2 -6 3 0 176.37 188.35 33.01 o
810 2 -10 2 3 0 176.37 188.35 33.01 o
810 1 8 4 3 0 176.37 188.35 33.01 o
811 1 10 4 3 -3 12.11 15.90 6.78 <
812 3 10 3 3 -4 13.04 14.12 5.43 <
812 2 -5 -5 3 0 13.04 14.12 5.43 <
812 1 -5 5 3 0 13.04 14.12 5.43 <
813 3 9 -1 3 0 1131.43 1009.12 67.95 o
813 2 -6 -4 3 0 1131.43 1009.12 67.95 o
813 1 -3 5 3 0 1131.43 1009.12 67.95 o
814 3 8 -2 3 0 198.64 161.90 28.47 o
814 2 -7 -3 3 0 198.64 161.90 28.47 o
814 1 -1 5 3 0 198.64 161.90 28.47 o
815 1 1 5 3 -3 0.91 2.94 1.24 <
816 1 1 5 3 -2 0.27 1.51 1.23 <
817 1 1 5 3 -1 7.83 5.90 2.27 <
818 3 7 -3 3 0 228.58 183.43 28.10 o
818 2 -8 -2 3 0 228.58 183.43 28.10 o
818 1 1 5 3 0 228.58 183.43 28.10 o
819 1 1 5 3 1 32.15 24.72 8.58 <
820 1 3 5 3 -3 0.49 -0.29 1.06 <
821 1 3 5 3 -2 0.18 2.87 1.46 <
822 1 3 5 3 -1 2.79 3.03 2.99 <
823 1 3 5 3 1 0.68 9.07 4.66 <
824 1 5 5 3 -3 2.05 0.71 1.44 <
825 1 5 5 3 -2 4.21 2.93 1.95 <
826 1 5 5 3 -1 0.02 -0.29 1.79 <
827 1 7 5 3 -3 68.14 66.30 8.52 o
828 1 7 5 3 -2 2.23 8.59 5.20 <
829 1 7 5 3 -1 9.84 13.92 7.16 <
830 1 9 5 3 -3 28.17 27.62 6.94 o
831 1 0 6 3 -2 1.85 2.75 3.17 <
832 1 2 6 3 -3 0.86 0.04 1.79 <
833 1 2 6 3 -1 0.01 1.18 2.78 <
834 3 8 -4 3 0 176.76 152.55 28.95 o
834 2 -10 -2 3 0 176.76 152.55 28.95 o
834 1 2 6 3 0 176.76 152.55 28.95 o
835 1 4 6 3 -3 18.23 28.44 7.31 o
836 1 4 6 3 -2 0.88 -2.33 3.56 <
837 1 4 6 3 -1 12.06 12.66 4.18 o
838 1 6 6 3 -3 0.59 5.11 3.08 <
839 1 6 6 3 -2 2.36 2.78 3.74 <
840 1 6 6 3 -1 2.62 -14.58 11.06 <
841 1 8 6 3 -3 24.30 9.97 5.74 <
842 1 1 7 3 -3 1.39 0.39 1.87 <
843 1 3 7 3 -3 0.97 2.89 2.32 <
844 1 3 7 3 -2 0.27 8.04 5.28 <
845 1 5 7 3 -3 0.29 5.37 3.93 <
846 1 5 7 3 -2 2.68 15.90 9.92 <
847 1 2 8 3 -3 0.13 -9.08 7.65 <
848 3 0 0 4 0 76.82 78.21 8.45 o
848 2 0 0 4 0 76.82 78.21 8.45 o
848 1 0 0 4 0 76.82 78.21 8.45 o
849 1 0 0 4 2 165.53 136.42 9.22 o
850 1 0 0 4 4 116.86 109.06 11.20 o
851 3 -1 -1 4 0 19178.40 20900.80 56.88 o
851 2 -1 1 4 0 19178.40 20900.80 56.88 o
851 1 2 0 4 0 19178.40 20900.80 56.88 o
852 1 2 0 4 1 416.40 382.17 9.23 o
853 1 2 0 4 2 147.11 140.92 7.78 o
854 1 2 0 4 3 24.28 21.63 2.88 o
855 1 2 0 4 4 32.11 23.57 4.76 o
856 3 -2 -2 4 0 9399.99 9639.54 60.27 o
856 2 -2 2 4 0 9399.99 9639.54 60.27 o
856 1 4 0 4 0 9399.99 9639.54 60.27 o
857 1 4 0 4 1 16.70 12.04 1.94 o
858 1 4 0 4 2 51.85 45.73 4.24 o
859 1 4 0 4 3 0.08 1.45 1.92 <
860 1 4 0 4 4 0.19 -1.62 1.53 <
861 3 -3 -3 4 0 15.97 21.43 8.65 <
861 2 -3 3 4 0 15.97 21.43 8.65 <
861 1 6 0 4 0 15.97 21.43 8.65 <
862 1 6 0 4 1 12.65 13.11 2.37 o
863 1 6 0 4 2 80.09 86.57 7.98 o
864 1 6 0 4 3 17.22 16.38 3.57 o
865 1 6 0 4 4 22.03 21.52 5.41 o
866 3 -4 -4 4 0 6650.44 6927.39 84.84 o
866 2 -4 4 4 0 6650.44 6927.39 84.84 o
866 1 8 0 4 0 6650.44 6927.39 84.84 o
867 1 8 0 4 1 74.14 87.58 14.56 o
868 1 8 0 4 2 163.45 190.30 16.42 o
869 1 8 0 4 3 118.20 98.40 9.71 o
870 1 8 0 4 4 13.82 6.33 6.19 <
871 3 -5 -5 4 0 1207.47 1388.45 88.30 o
871 2 -5 5 4 0 1207.47 1388.45 88.30 o
871 1 10 0 4 0 1207.47 1388.45 88.30 o
872 1 10 0 4 1 11.64 17.04 6.95 <
873 1 10 0 4 2 28.70 15.86 6.18 <
874 1 10 0 4 3 3.07 30.26 13.35 <
875 3 6 4 4 0 608.70 599.17 53.40 o
875 2 3 -5 4 0 608.70 599.17 53.40 o
875 1 -9 1 4 0 608.70 599.17 53.40 o
876 3 5 3 4 0 5996.48 6117.13 152.83 o
876 2 2 -4 4 0 5996.48 6117.13 152.83 o
876 1 -7 1 4 0 5996.48 6117.13 152.83 o
877 3 4 2 4 0 8216.46 8942.65 65.84 o
877 2 1 -3 4 0 8216.46 8942.65 65.84 o
877 1 -5 1 4 0 8216.46 8942.65 65.84 o
878 3 3 1 4 0 12168.80 13411.00 50.64 o
878 2 0 -2 4 0 12168.80 13411.00 50.64 o
878 1 -3 1 4 0 12168.80 13411.00 50.64 o
879 3 2 0 4 0 19190.70 21222.60 57.82 o
879 2 -1 -1 4 0 19190.70 21222.60 57.82 o
879 1 -1 1 4 0 19190.70 21222.60 57.82 o
880 1 1 1 4 -4 15.04 13.62 1.74 o
881 1 1 1 4 -3 1.16 1.04 1.17 <
882 1 1 1 4 -2 6.95 5.85 1.22 o
883 1 1 1 4 -1 118.25 121.11 4.61 o
884 3 1 -1 4 0 19989.10 21270.30 55.65 o
884 2 -2 0 4 0 19989.10 21270.30 55.65 o
884 1 1 1 4 0 19989.10 21270.30 55.65 o
885 1 1 1 4 1 324.01 317.51 8.93 o
886 1 1 1 4 2 0.47 0.90 1.07 <
887 1 1 1 4 3 26.07 29.80 4.18 o
888 1 1 1 4 4 32.63 22.46 5.48 o
889 1 3 1 4 -4 68.08 54.13 6.41 o
890 1 3 1 4 -3 44.43 36.07 3.89 o
891 1 3 1 4 -2 178.06 154.89 8.52 o
892 1 3 1 4 -1 65.37 61.05 8.13 o
893 3 0 -2 4 0 12133.40 13189.40 53.63 o
893 2 -3 1 4 0 12133.40 13189.40 53.63 o
893 1 3 1 4 0 12133.40 13189.40 53.63 o
894 1 3 1 4 1 4.25 4.32 1.43 o
895 1 3 1 4 2 80.50 72.21 8.52 o
896 1 3 1 4 3 1.83 2.47 1.45 <
897 1 3 1 4 4 114.32 77.37 12.83 o
898 1 5 1 4 -4 25.11 18.44 5.54 o
899 1 5 1 4 -3 91.47 76.67 5.17 o
900 1 5 1 4 -2 271.54 268.07 11.29 o
901 1 5 1 4 -1 191.35 172.84 7.48 o
902 3 -1 -3 4 0 8093.45 8627.59 57.59 o
902 2 -4 2 4 0 8093.45 8627.59 57.59 o
902 1 5 1 4 0 8093.45 8627.59 57.59 o
903 1 5 1 4 1 209.70 182.65 9.17 o
904 1 5 1 4 2 191.63 186.56 12.72 o
905 1 5 1 4 3 95.53 77.99 10.34 o
906 1 5 1 4 4 37.70 19.29 9.02 <
907 1 7 1 4 -4 3.32 2.73 3.01 <
908 1 7 1 4 -3 12.76 19.48 4.43 o
909 1 7 1 4 -2 36.59 25.59 3.44 o
910 1 7 1 4 -1 21.92 21.21 3.62 o
911 3 -2 -4 4 0 6286.04 6198.44 104.74 o
911 2 -5 3 4 0 6286.04 6198.44 104.74 o
911 1 7 1 4 0 6286.04 6198.44 104.74 o
912 1 7 1 4 1 0.06 1.27 1.08 <
913 1 7 1 4 2 47.20 37.55 7.34 o
914 1 7 1 4 3 3.29 9.19 6.00 <
915 1 7 1 4 4 0.04 -2.97 4.20 <
916 1 9 1 4 -4 0.85 -0.73 2.35 <
917 1 9 1 4 -3 83.32 85.24 11.99 o
918 1 9 1 4 -1 10.01 21.74 8.01 <
919 3 -3 -5 4 0 587.32 610.11 56.51 o
919 2 -6 4 4 0 587.32 610.11 56.51 o
919 1 9 1 4 0 587.32 610.11 56.51 o
920 1 9 1 4 1 5.65 9.02 4.23 <
921 1 9 1 4 2 33.14 49.25 8.25 o
922 1 9 1 4 3 0.01 0.86 3.12 <
923 3 8 4 4 0 1583.30 1801.78 98.24 o
923 2 2 -6 4 0 1583.30 1801.78 98.24 o
923 1 -10 2 4 0 1583.30 1801.78 98.24 o
924 3 7 3 4 0 2727.16 3025.41 65.73 o
924 2 1 -5 4 0 2727.16 3025.41 65.73 o
924 1 -8 2 4 0 2727.16 3025.41 65.73 o
925 3 6 2 4 0 2212.91 2222.85 50.26 o
925 2 0 -4 4 0 2212.91 2222.85 50.26 o
925 1 -6 2 4 0 2212.91 2222.85 50.26 o
926 3 5 1 4 0 8223.32 8909.24 75.75 o
926 2 -1 -3 4 0 8223.32 8909.24 75.75 o
926 1 -4 2 4 0 8223.32 8909.24 75.75 o
927 3 4 0 4 0 9405.44 9883.76 54.03 o
927 2 -2 -2 4 0 9405.44 9883.76 54.03 o
927 1 -2 2 4 0 9405.44 9883.76 54.03 o
928 1 0 2 4 -2 143.07 134.10 4.67 o
929 3 3 -1 4 0 12151.50 13409.60 52.29 o
929 2 -3 -1 4 0 12151.50 13409.60 52.29 o
929 1 0 2 4 0 12151.50 13409.60 52.29 o
930 1 0 2 4 2 37.10 34.00 5.28 o
931 1 0 2 4 4 77.09 63.20 16.66 o
932 1 2 2 4 -4 31.86 32.24 3.81 o
933 1 2 2 4 -3 0.10 3.33 1.87 <
934 1 2 2 4 -2 183.40 178.08 4.98 o
935 1 2 2 4 -1 176.13 164.00 9.35 o
936 3 2 -2 4 0 9124.83 9587.27 49.35 o
936 2 -4 0 4 0 9124.83 9587.27 49.35 o
936 1 2 2 4 0 9124.83 9587.27 49.35 o
937 1 2 2 4 1 376.43 367.67 11.78 o
938 1 2 2 4 2 31.70 35.55 5.66 o
939 1 2 2 4 3 87.35 83.44 8.61 o
940 1 2 2 4 4 21.63 11.83 3.88 o
941 1 4 2 4 -4 3.30 3.20 1.33 <
942 1 4 2 4 -3 44.98 38.73 7.12 o
943 1 4 2 4 -2 7.55 4.30 1.24 o
944 1 4 2 4 -1 9.52 8.76 1.57 o
945 3 1 -3 4 0 8680.62 8927.54 67.59 o
945 2 -5 1 4 0 8680.62 8927.54 67.59 o
945 1 4 2 4 0 8680.62 8927.54 67.59 o
946 1 4 2 4 1 73.92 74.25 7.97 o
947 1 4 2 4 2 45.88 36.68 4.41 o
948 1 4 2 4 3 31.33 49.31 12.17 o
949 1 4 2 4 4 1.60 -1.29 4.03 <
950 1 6 2 4 -4 7.85 8.29 2.14 o
951 1 6 2 4 -3 17.61 16.68 3.81 o
952 1 6 2 4 -2 92.69 92.51 6.57 o
953 1 6 2 4 -1 68.50 78.68 6.68 o
954 3 0 -4 4 0 2362.44 2283.02 64.43 o
954 2 -6 2 4 0 2362.44 2283.02 64.43 o
954 1 6 2 4 0 2362.44 2283.02 64.43 o
955 1 6 2 4 1 1.37 7.87 2.75 <
956 1 6 2 4 2 39.54 58.21 11.65 o
957 1 6 2 4 3 3.01 3.78 6.08 <
958 1 8 2 4 -4 6.20 7.83 4.23 <
959 1 8 2 4 -3 184.38 195.52 12.12 o
960 1 8 2 4 -2 145.87 168.34 23.59 o
961 1 8 2 4 -1 89.66 110.63 10.12 o
962 3 -1 -5 4 0 2729.70 2844.24 114.84 o
962 2 -7 3 4 0 2729.70 2844.24 114.84 o
962 1 8 2 4 0 2729.70 2844.24 114.84 o
963 1 8 2 4 1 45.85 41.28 6.42 o
964 1 8 2 4 2 85.13 101.36 14.02 o
965 1 10 2 4 -4 0.43 1.86 5.62 <
966 1 10 2 4 -3 6.01 19.14 9.00 <
967 1 10 2 4 -2 1.73 4.34 3.44 <
968 1 10 2 4 -1 22.96 16.82 10.19 <
969 3 9 3 4 0 135.37 108.39 23.80 o
969 2 0 -6 4 0 135.37 108.39 23.80 o
969 1 -9 3 4 0 135.37 108.39 23.80 o
970 3 8 2 4 0 2730.20 2940.13 83.97 o
970 2 -1 -5 4 0 2730.20 2940.13 83.97 o
970 1 -7 3 4 0 2730.20 2940.13 83.97 o
971 3 7 1 4 0 6001.61 6175.42 75.94 o
971 2 -2 -4 4 0 6001.61 6175.42 75.94 o
971 1 -5 3 4 0 6001.61 6175.42 75.94 o
972 3 6 0 4 0 16.03 26.22 4.08 o
972 2 -3 -3 4 0 16.03 26.22 4.08 o
972 1 -3 3 4 0 16.03 26.22 4.08 o
973 3 5 -1 4 0 8105.93 8700.40 59.14 o
973 2 -4 -2 4 0 8105.93 8700.40 59.14 o
973 1 -1 3 4 0 8105.93 8700.40 59.14 o
974 1 1 3 4 -4 0.00 -0.26 0.70 <
975 1 1 3 4 -3 122.00 115.51 9.38 o
976 1 1 3 4 -2 2.95 2.83 1.05 <
977 1 1 3 4 -1 14.62 14.80 2.78 o
978 3 4 -2 4 0 8686.87 9149.76 69.39 o
978 2 -5 -1 4 0 8686.87 9149.76 69.39 o
978 1 1 3 4 0 8686.87 9149.76 69.39 o
979 1 1 3 4 1 266.17 294.33 23.03 o
980 1 1 3 4 2 8.11 7.10 2.68 <
981 1 1 3 4 3 48.40 67.39 13.74 o
982 1 1 3 4 4 1.93 9.67 7.19 <
983 1 3 3 4 -4 0.00 3.09 0.96 o
984 1 3 3 4 -3 41.16 37.75 2.96 o
985 1 3 3 4 -2 64.08 55.82 4.80 o
986 1 3 3 4 -1 70.95 83.53 7.58 o
987 3 3 -3 4 0 8.93 12.55 6.45 <
987 2 -6 0 4 0 8.93 12.55 6.45 <
987 1 3 3 4 0 8.93 12.55 6.45 <
988 1 3 3 4 1 0.89 9.67 2.89 o
989 1 3 3 4 2 11.83 14.92 9.26 <
990 1 3 3 4 3 1.85 16.98 10.00 <
991 1 5 3 4 -4 0.00 2.38 1.27 <
992 1 5 3 4 -3 43.13 45.23 5.25 o
993 1 5 3 4 -2 121.03 108.47 9.58 o
994 1 5 3 4 -1 134.65 141.66 9.76 o
995 3 2 -4 4 0 5874.20 6038.79 89.12 o
995 2 -7 1 4 0 5874.20 6038.79 89.12 o
995 1 5 3 4 0 5874.20 6038.79 89.12 o
996 1 5 3 4 1 153.41 162.03 19.03 o
997 1 5 3 4 2 42.49 49.84 12.04 o
998 1 5 3 4 3 47.53 49.03 12.37 o
999 1 7 3 4 -4 0.00 0.26 1.64 <
1000 1 7 3 4 -3 71.12 66.51 7.19 o
1001 1 7 3 4 -2 1.66 -0.20 1.78 <
1002 1 7 3 4 -1 41.09 40.13 6.54 o
1003 3 1 -5 4 0 3027.19 3197.12 90.03 o
1003 2 -8 2 4 0 3027.19 3197.12 90.03 o
1003 1 7 3 4 0 3027.19 3197.12 90.03 o
1004 1 7 3 4 1 7.54 20.18 10.76 <
1005 1 7 3 4 2 32.68 25.73 11.88 <
1006 1 9 3 4 -4 0.00 -3.98 5.36 <
1007 1 9 3 4 -3 62.53 52.61 9.44 o
1008 1 9 3 4 -2 48.31 60.37 10.23 o
1009 1 9 3 4 -1 35.92 51.32 8.58 o
1010 3 0 -6 4 0 119.43 93.17 24.26 o
1010 2 -9 3 4 0 119.43 93.17 24.26 o
1010 1 9 3 4 0 119.43 93.17 24.26 o
1011 3 10 2 4 0 1584.97 1800.94 105.43 o
1011 2 -2 -6 4 0 1584.97 1800.94 105.43 o
1011 1 -8 4 4 0 1584.97 1800.94 105.43 o
1012 3 9 1 4 0 610.75 560.29 54.54 o
1012 2 -3 -5 4 0 610.75 560.29 54.54 o
1012 1 -6 4 4 0 610.75 560.29 54.54 o
1013 3 8 0 4 0 6669.92 6728.49 74.22 o
1013 2 -4 -4 4 0 6669.92 6728.49 74.22 o
1013 1 -4 4 4 0 6669.92 6728.49 74.22 o
1014 3 7 -1 4 0 6299.79 6064.73 105.29 o
1014 2 -5 -3 4 0 6299.79 6064.73 105.29 o
1014 1 -2 4 4 0 6299.79 6064.73 105.29 o
1015 1 0 4 4 -2 20.95 17.70 2.37 o
1016 3 6 -2 4 0 2372.01 2268.02 48.76 o
1016 2 -6 -2 4 0 2372.01 2268.02 48.76 o
1016 1 0 4 4 0 2372.01 2268.02 48.76 o
1017 1 0 4 4 2 0.08 3.67 3.63 <
1018 1 2 4 4 -3 7.59 4.97 1.42 o
1019 1 2 4 4 -2 41.41 35.41 3.66 o
1020 1 2 4 4 -1 66.81 75.95 10.63 o
1021 3 5 -3 4 0 5881.91 5875.76 104.86 o
1021 2 -7 -1 4 0 5881.91 5875.76 104.86 o
1021 1 2 4 4 0 5881.91 5875.76 104.86 o
1022 1 2 4 4 1 244.28 254.96 13.79 o
1023 1 2 4 4 2 1.08 1.33 2.94 <
1024 1 4 4 4 -3 81.56 59.43 7.28 o
1025 1 4 4 4 -2 1.89 6.32 2.11 o
1026 1 4 4 4 -1 11.79 9.74 4.08 <
1027 3 4 -4 4 0 7409.86 7375.00 89.09 o
1027 2 -8 0 4 0 7409.86 7375.00 89.09 o
1027 1 4 4 4 0 7409.86 7375.00 89.09 o
1028 1 4 4 4 1 79.69 80.09 14.74 o
1029 1 6 4 4 -3 78.66 68.29 5.58 o
1030 1 6 4 4 -2 51.73 55.25 10.64 o
1031 1 6 4 4 -1 80.00 82.19 11.20 o
1032 1 6 4 4 1 7.91 16.66 10.20 <
1033 1 8 4 4 -3 92.05 85.65 11.52 o
1034 1 8 4 4 -2 49.70 50.74 6.79 o
1035 1 8 4 4 -1 65.78 72.94 20.64 o
1036 3 2 -6 4 0 1580.97 1758.30 104.83 o
1036 2 -10 2 4 0 1580.97 1758.30 104.83 o
1036 1 8 4 4 0 1580.97 1758.30 104.83 o
1037 1 10 4 4 -3 21.48 29.78 14.31 <
1038 3 10 0 4 0 1210.86 1202.44 58.57 o
1038 2 -5 -5 4 0 1210.86 1202.44 58.57 o
1038 1 -5 5 4 0 1210.86 1202.44 58.57 o
1039 3 9 -1 4 0 590.23 610.50 58.37 o
1039 2 -6 -4 4 0 590.23 610.50 58.37 o
1039 1 -3 5 4 0 590.23 610.50 58.37 o
1040 3 8 -2 4 0 2737.66 2717.11 116.28 o
1040 2 -7 -3 4 0 2737.66 2717.11 116.28 o
1040 1 -1 5 4 0 2737.66 2717.11 116.28 o
1041 1 1 5 4 -3 45.67 32.70 3.29 o
1042 1 1 5 4 -2 9.89 17.48 3.76 o
1043 1 1 5 4 -1 8.26 15.00 5.32 <
1044 3 7 -3 4 0 3032.62 3100.76 70.81 o
1044 2 -8 -2 4 0 3032.62 3100.76 70.81 o
1044 1 1 5 4 0 3032.62 3100.76 70.81 o
1045 1 3 5 4 -3 1.39 0.02 1.43 <
1046 1 3 5 4 -2 6.77 8.45 2.27 o
1047 1 3 5 4 -1 32.80 41.21 9.19 o
1048 1 5 5 4 -3 20.67 19.27 3.52 o
1049 1 5 5 4 -2 34.18 34.81 6.25 o
1050 1 5 5 4 -1 71.22 68.54 8.35 o
1051 3 5 -5 4 0 1163.97 1192.24 60.14 o
1051 2 -10 0 4 0 1163.97 1192.24 60.14 o
1051 1 5 5 4 0 1163.97 1192.24 60.14 o
1052 1 7 5 4 -3 25.71 25.08 4.60 o
1053 1 7 5 4 -2 18.77 32.85 7.52 o
1054 1 7 5 4 -1 23.18 19.69 10.73 <
1055 1 9 5 4 -3 5.52 4.03 3.32 <
1056 1 9 5 4 -2 42.35 31.35 15.90 <
1057 1 0 6 4 -2 0.01 0.25 2.06 <
1058 1 2 6 4 -3 2.70 13.07 4.43 <
1059 1 2 6 4 -2 5.93 8.85 2.77 o
1060 1 2 6 4 -1 56.29 65.34 7.38 o
1061 3 8 -4 4 0 1585.38 1503.74 87.10 o
1061 2 -10 -2 4 0 1585.38 1503.74 87.10 o
1061 1 2 6 4 0 1585.38 1503.74 87.10 o
1062 1 4 6 4 -3 52.98 47.65 7.49 o
1063 1 4 6 4 -2 9.69 11.42 3.79 o
1064 1 4 6 4 -1 0.20 -1.34 2.61 <
1065 1 6 6 4 -3 4.71 5.20 3.39 <
1066 1 6 6 4 -2 15.30 14.84 8.84 <
1067 1 8 6 4 -3 43.36 31.23 13.03 <
1068 1 1 7 4 -3 5.37 16.60 9.17 <
1069 1 1 7 4 -2 8.49 9.83 3.71 <
1070 1 3 7 4 -3 0.06 9.32 7.98 <
1071 1 3 7 4 -2 1.50 10.53 5.68 <
1072 1 5 7 4 -3 5.23 1.34 2.62 <
1073 1 2 8 4 -3 0.62 13.44 6.07 <
1074 1 0 0 5 2 4.14 3.06 1.53 <
1075 1 0 0 5 4 8.23 5.41 2.36 <
1076 1 2 0 5 1 3.46 5.65 1.62 o
1077 1 2 0 5 2 0.07 1.13 1.64 <
1078 1 2 0 5 3 2.42 7.13 2.05 o
1079 1 2 0 5 4 8.18 7.62 3.15 <
1080 1 4 0 5 1 4.28 7.14 2.15 o
1081 1 4 0 5 2 0.04 0.49 1.23 <
1082 1 4 0 5 3 33.71 20.78 3.31 o
1083 1 4 0 5 4 11.26 11.25 2.61 o
1084 1 6 0 5 1 11.51 9.13 3.13 <
1085 1 6 0 5 2 2.50 4.22 2.03 <
1086 1 6 0 5 3 0.18 -0.13 1.12 <
1087 1 6 0 5 4 37.20 28.81 4.49 o
1088 1 8 0 5 1 18.61 6.61 5.44 <
1089 1 8 0 5 2 0.69 -0.16 2.51 <
1090 1 8 0 5 3 1.82 5.41 3.10 <
1091 1 8 0 5 4 33.82 23.44 7.85 <
1092 1 10 0 5 1 5.93 20.47 11.96 <
1093 1 10 0 5 2 21.33 18.61 8.43 <
1094 1 10 0 5 3 13.90 23.11 10.54 <
1095 3 6 4 5 0 83.52 71.59 18.90 o
1095 2 3 -5 5 0 83.52 71.59 18.90 o
1095 1 -9 1 5 0 83.52 71.59 18.90 o
1096 3 5 3 5 0 34.59 38.37 5.70 o
1096 2 2 -4 5 0 34.59 38.37 5.70 o
1096 1 -7 1 5 0 34.59 38.37 5.70 o
1097 3 4 2 5 0 31.97 30.52 8.88 o
1097 2 1 -3 5 0 31.97 30.52 8.88 o
1097 1 -5 1 5 0 31.97 30.52 8.88 o
1098 3 2 3 5 -4 1.02 1.57 1.95 <
1098 2 -1 -1 5 0 1.02 1.57 1.95 <
1098 1 -1 1 5 0 1.02 1.57 1.95 <
1099 1 1 1 5 -4 0.77 0.04 1.09 <
1100 1 1 1 5 -3 4.27 2.43 1.12 <
1101 1 1 1 5 -2 10.55 11.21 1.63 o
1102 1 1 1 5 -1 0.16 1.39 0.66 <
1103 3 1 -1 5 0 1.40 4.51 3.74 <
1103 2 -2 3 5 -4 1.40 4.51 3.74 <
1103 1 1 1 5 0 1.40 4.51 3.74 <
1104 1 1 1 5 1 3.72 5.43 1.00 o
1105 1 1 1 5 2 0.29 2.94 1.30 <
1106 1 1 1 5 3 3.03 0.36 1.85 <
1107 1 1 1 5 4 0.34 -1.80 1.62 <
1108 1 3 1 5 -4 10.54 12.74 2.77 o
1109 1 3 1 5 -3 20.47 12.81 2.60 o
1110 1 3 1 5 -2 0.84 2.40 1.38 <
1111 1 3 1 5 -1 3.90 2.47 2.45 <
1112 3 0 -2 5 0 695.73 743.82 17.21 o
1112 2 -3 1 5 0 695.73 743.82 17.21 o
1112 1 3 1 5 0 695.73 743.82 17.21 o
1113 1 3 1 5 1 3.95 4.55 2.81 <
1114 1 3 1 5 2 2.41 3.48 1.74 <
1115 1 3 1 5 3 5.66 3.55 1.88 <
1116 1 3 1 5 4 28.94 20.52 4.39 o
1117 1 5 1 5 -4 45.09 44.73 4.76 o
1118 1 5 1 5 -3 2.60 4.02 1.26 o
1119 1 5 1 5 -2 0.88 2.28 1.12 <
1120 1 5 1 5 -1 5.50 6.69 1.89 o
1121 3 -1 -3 5 0 61.50 62.87 5.91 o
1121 2 -4 2 5 0 61.50 62.87 5.91 o
1121 1 5 1 5 0 61.50 62.87 5.91 o
1122 1 5 1 5 1 11.38 12.10 2.73 o
1123 1 5 1 5 2 0.15 4.81 2.48 <
1124 1 5 1 5 3 1.45 0.19 1.61 <
1125 1 5 1 5 4 51.18 36.44 8.19 o
1126 1 7 1 5 -4 0.45 -3.93 4.00 <
1127 1 7 1 5 -3 57.56 41.49 12.71 o
1128 1 7 1 5 -2 0.35 2.90 3.43 <
1129 1 7 1 5 -1 8.00 11.26 4.03 <
1130 3 -2 -4 5 0 16.67 15.66 4.51 o
1130 2 -5 3 5 0 16.67 15.66 4.51 o
1130 1 7 1 5 0 16.67 15.66 4.51 o
1131 1 7 1 5 1 9.22 8.57 2.05 o
1132 1 7 1 5 2 17.24 18.31 4.38 o
1133 1 7 1 5 3 31.30 17.35 4.66 o
1134 1 7 1 5 4 0.23 -3.04 3.02 <
1135 1 9 1 5 -3 0.34 2.76 3.36 <
1136 1 9 1 5 -2 4.46 4.81 2.77 <
1137 1 9 1 5 -1 16.17 17.66 7.23 <
1138 3 -3 -5 5 0 81.26 62.09 13.24 o
1138 2 -6 4 5 0 81.26 62.09 13.24 o
1138 1 9 1 5 0 81.26 62.09 13.24 o
1139 1 9 1 5 1 14.59 10.14 8.73 <
1140 1 9 1 5 2 4.66 0.77 4.39 <
1141 1 9 1 5 3 2.10 12.66 7.61 <
1142 3 7 3 5 0 28.15 27.75 6.45 o
1142 2 1 -5 5 0 28.15 27.75 6.45 o
1142 1 -8 2 5 0 28.15 27.75 6.45 o
1143 3 6 2 5 0 207.12 220.55 19.93 o
1143 2 0 -4 5 0 207.12 220.55 19.93 o
1143 1 -6 2 5 0 207.12 220.55 19.93 o
1144 3 5 1 5 0 31.99 28.29 6.50 o
1144 2 -1 -3 5 0 31.99 28.29 6.50 o
1144 1 -4 2 5 0 31.99 28.29 6.50 o
1145 3 4 3 5 -4 32.45 28.08 8.59 o
1145 2 -2 -2 5 0 32.45 28.08 8.59 o
1145 1 -2 2 5 0 32.45 28.08 8.59 o
1146 1 0 2 5 -4 3.39 8.66 2.12 o
1147 1 0 2 5 -2 7.78 8.50 2.69 o
1148 3 3 -1 5 0 696.42 747.47 21.22 o
1148 2 -3 -1 5 0 696.42 747.47 21.22 o
1148 1 0 2 5 0 696.42 747.47 21.22 o
1149 1 0 2 5 2 18.15 13.47 4.33 o
1150 1 2 2 5 -4 13.49 19.74 2.53 o
1151 1 2 2 5 -3 1.13 1.33 0.87 <
1152 1 2 2 5 -2 5.85 7.87 1.82 o
1153 1 2 2 5 -1 0.75 1.05 1.33 <
1154 3 2 -2 5 0 44.47 42.32 5.12 o
1154 2 -4 3 5 -4 44.47 42.32 5.12 o
1154 1 2 2 5 0 44.47 42.32 5.12 o
1155 1 2 2 5 1 7.16 4.75 1.50 o
1156 1 2 2 5 2 6.61 5.56 1.75 o
1157 1 2 2 5 3 9.92 5.66 2.73 <
1158 1 2 2 5 4 17.33 8.11 4.15 <
1159 1 4 2 5 -4 0.76 -0.22 2.42 <
1160 1 4 2 5 -3 63.10 55.46 4.72 o
1161 1 4 2 5 -2 1.88 1.23 1.34 <
1162 1 4 2 5 -1 9.97 12.16 2.43 o
1163 3 1 -3 5 0 59.36 56.41 9.40 o
1163 2 -5 1 5 0 59.36 56.41 9.40 o
1163 1 4 2 5 0 59.36 56.41 9.40 o
1164 1 4 2 5 1 10.10 9.37 2.73 o
1165 1 4 2 5 2 0.25 3.20 2.36 <
1166 1 4 2 5 3 2.99 7.06 4.97 <
1167 1 6 2 5 -4 55.46 53.63 7.52 o
1168 1 6 2 5 -3 2.65 0.14 1.24 <
1169 1 6 2 5 -2 11.48 7.12 2.27 o
1170 1 6 2 5 -1 5.61 5.88 2.73 <
1171 3 0 -4 5 0 230.45 236.28 21.25 o
1171 2 -6 2 5 0 230.45 236.28 21.25 o
1171 1 6 2 5 0 230.45 236.28 21.25 o
1172 1 6 2 5 1 4.08 4.84 2.17 <
1173 1 6 2 5 2 0.08 3.30 3.42 <
1174 1 6 2 5 3 1.06 7.45 5.33 <
1175 1 8 2 5 -4 33.31 27.50 8.09 o
1176 1 8 2 5 -3 5.35 5.23 3.31 <
1177 1 8 2 5 -2 0.70 -0.52 1.15 <
1178 1 8 2 5 -1 5.01 7.69 4.02 <
1179 3 -1 -5 5 0 24.07 15.31 8.36 <
1179 2 -7 3 5 0 24.07 15.31 8.36 <
1179 1 8 2 5 0 24.07 15.31 8.36 <
1180 1 8 2 5 1 10.25 10.47 6.16 <
1181 1 10 2 5 -4 16.99 8.92 7.94 <
1182 1 10 2 5 -3 31.70 17.15 12.10 <
1183 1 10 2 5 -2 9.81 19.59 10.99 <
1184 3 8 2 5 0 28.15 27.13 8.01 o
1184 2 -1 -5 5 0 28.15 27.13 8.01 o
1184 1 -7 3 5 0 28.15 27.13 8.01 o
1185 3 7 1 5 0 34.73 35.98 7.47 o
1185 2 -2 -4 5 0 34.73 35.98 7.47 o
1185 1 -5 3 5 0 34.73 35.98 7.47 o
1186 3 6 3 5 -4 6.78 9.13 3.75 <
1186 2 -3 -3 5 0 6.78 9.13 3.75 <
1186 1 -3 3 5 0 6.78 9.13 3.75 <
1187 3 5 -1 5 0 61.80 59.53 6.34 o
1187 2 -4 -2 5 0 61.80 59.53 6.34 o
1187 1 -1 3 5 0 61.80 59.53 6.34 o
1188 1 1 3 5 -4 22.78 27.97 3.47 o
1189 1 1 3 5 -3 0.11 -0.59 1.65 <
1190 1 1 3 5 -2 0.60 2.62 1.46 <
1191 1 1 3 5 -1 5.64 5.99 1.39 o
1192 3 4 -2 5 0 59.60 56.57 5.75 o
1192 2 -5 -1 5 0 59.60 56.57 5.75 o
1192 1 1 3 5 0 59.60 56.57 5.75 o
1193 1 1 3 5 1 21.83 12.93 7.51 <
1194 1 1 3 5 2 0.43 -1.95 3.04 <
1195 1 1 3 5 3 2.88 5.86 4.08 <
1196 1 3 3 5 -4 7.48 14.01 3.15 o
1197 1 3 3 5 -3 1.01 0.75 0.75 <
1198 1 3 3 5 -2 4.54 4.18 1.50 <
1199 1 3 3 5 -1 0.06 -1.40 2.63 <
1200 1 3 3 5 1 0.00 0.52 1.48 <
1201 1 3 3 5 2 3.07 0.56 2.11 <
1202 1 3 3 5 3 0.10 -0.40 2.21 <
1203 1 5 3 5 -4 23.25 29.08 4.34 o
1204 1 5 3 5 -3 1.24 2.37 1.13 <
1205 1 5 3 5 -2 9.79 7.67 3.57 <
1206 1 5 3 5 -1 1.69 1.20 0.97 <
1207 3 2 -4 5 0 35.26 35.45 8.82 o
1207 2 -7 1 5 0 35.26 35.45 8.82 o
1207 1 5 3 5 0 35.26 35.45 8.82 o
1208 1 5 3 5 1 15.69 15.78 6.14 <
1209 1 5 3 5 2 2.88 2.20 2.56 <
1210 1 7 3 5 -4 0.05 0.13 2.63 <
1211 1 7 3 5 -3 52.71 47.95 9.89 o
1212 1 7 3 5 -2 0.07 2.63 3.02 <
1213 1 7 3 5 -1 12.47 13.00 3.52 o
1214 1 7 3 5 1 13.76 9.65 3.36 <
1215 1 7 3 5 2 16.93 4.07 1.59 <
1216 1 9 3 5 -4 61.61 48.29 11.24 o
1217 1 9 3 5 -3 18.00 22.16 10.96 <
1218 1 9 3 5 -2 2.94 3.88 2.92 <
1219 1 9 3 5 -1 3.91 5.28 6.48 <
1220 3 9 1 5 0 83.75 68.34 13.50 o
1220 2 -3 -5 5 0 83.75 68.34 13.50 o
1220 1 -6 4 5 0 83.75 68.34 13.50 o
1221 3 8 3 5 -4 0.85 9.12 3.64 <
1221 2 -4 -4 5 0 0.85 9.12 3.64 <
1221 1 -4 4 5 0 0.85 9.12 3.64 <
1222 3 7 -1 5 0 16.71 9.83 8.87 <
1222 2 -5 -3 5 0 16.71 9.83 8.87 <
1222 1 -2 4 5 0 16.71 9.83 8.87 <
1223 1 0 4 5 -2 2.36 2.46 0.91 <
1224 3 6 -2 5 0 231.38 222.18 18.84 o
1224 2 -6 -2 5 0 231.38 222.18 18.84 o
1224 1 0 4 5 0 231.38 222.18 18.84 o
1225 1 2 4 5 -3 4.02 2.56 1.36 <
1226 1 2 4 5 -2 0.24 3.35 1.69 <
1227 1 2 4 5 -1 2.14 3.55 1.61 <
1228 3 5 -3 5 0 35.21 37.67 6.15 o
1228 2 -7 -1 5 0 35.21 37.67 6.15 o
1228 1 2 4 5 0 35.21 37.67 6.15 o
1229 1 2 4 5 1 17.68 10.18 6.73 <
1230 1 4 4 5 -3 29.94 30.51 4.23 o
1231 1 4 4 5 -2 8.43 7.61 4.96 <
1232 1 4 4 5 -1 17.97 16.94 3.39 o
1233 1 4 4 5 1 22.46 13.16 4.71 <
1234 1 4 4 5 2 4.69 -2.72 7.56 <
1235 1 6 4 5 -3 0.01 -1.17 4.56 <
1236 1 6 4 5 -2 8.48 9.93 6.84 <
1237 1 6 4 5 -1 0.22 1.68 2.14 <
1238 3 3 -5 5 0 82.20 77.61 19.33 o
1238 2 -9 1 5 0 82.20 77.61 19.33 o
1238 1 6 4 5 0 82.20 77.61 19.33 o
1239 1 6 4 5 1 0.08 1.48 4.21 <
1240 1 8 4 5 -3 8.60 3.62 3.98 <
1241 1 8 4 5 -2 0.16 3.99 3.40 <
1242 1 8 4 5 -1 0.17 4.34 3.29 <
1243 3 10 3 5 -4 7.53 11.99 5.12 <
1243 2 -5 -5 5 0 7.53 11.99 5.12 <
1243 1 -5 5 5 0 7.53 11.99 5.12 <
1244 3 9 -1 5 0 81.62 69.02 12.78 o
1244 2 -6 -4 5 0 81.62 69.02 12.78 o
1244 1 -3 5 5 0 81.62 69.02 12.78 o
1245 1 1 5 5 -3 0.52 0.95 0.83 <
1246 1 1 5 5 -2 4.35 6.16 2.25 <
1247 1 1 5 5 -1 9.03 13.15 5.54 <
1248 1 1 5 5 1 24.37 13.91 9.60 <
1249 1 3 5 5 -3 0.03 2.20 1.74 <
1250 1 3 5 5 -2 4.47 9.84 5.53 <
1251 1 3 5 5 -1 1.89 -1.47 4.49 <
1252 1 3 5 5 1 0.92 10.69 6.28 <
1253 1 5 5 5 -3 5.11 3.65 2.04 <
1254 1 5 5 5 -2 0.56 0.55 2.51 <
1255 1 5 5 5 -1 0.09 0.96 2.60 <
1256 3 5 -5 5 0 10.31 17.15 9.65 <
1256 2 -10 3 5 -4 10.31 17.15 9.65 <
1256 1 5 5 5 0 10.31 17.15 9.65 <
1257 1 7 5 5 -3 43.87 51.46 16.20 o
1258 1 7 5 5 -2 0.14 4.53 2.46 <
1259 1 7 5 5 -1 15.93 21.30 12.24 <
1260 1 9 5 5 -3 13.72 8.30 5.07 <
1261 1 9 5 5 -2 7.32 5.34 5.23 <
1262 1 0 6 5 -2 0.86 -3.25 5.65 <
1263 1 2 6 5 -3 3.91 3.42 1.81 <
1264 1 2 6 5 -2 0.88 4.40 2.02 <
1265 1 2 6 5 -1 0.82 3.56 7.77 <
1266 1 4 6 5 -3 9.06 20.44 4.24 o
1267 1 4 6 5 -1 13.50 1.73 3.27 <
1268 1 6 6 5 -3 5.17 5.54 2.73 <
1269 1 6 6 5 -2 2.57 5.20 3.66 <
1270 1 1 7 5 -2 5.47 -2.25 5.12 <
1271 1 1 7 5 -1 3.67 -5.12 6.55 <
1272 1 3 7 5 -3 0.03 3.72 2.59 <
1273 1 3 7 5 -2 0.25 -3.34 6.90 <
1274 1 5 7 5 -3 1.86 -3.67 4.62 <
1275 1 2 8 5 -3 0.86 0.29 2.78 <
1276 3 0 0 6 0 23564.60 29292.90 100.88 o
1276 2 0 0 6 0 23564.60 29292.90 100.88 o
1276 1 0 0 6 0 23564.60 29292.90 100.88 o
1277 1 0 0 6 2 233.75 205.67 15.32 o
1278 1 0 0 6 4 31.17 15.51 5.18 <
1279 3 -1 -1 6 0 855.78 1138.05 31.02 o
1279 2 -1 1 6 0 855.78 1138.05 31.02 o
1279 1 2 0 6 0 855.78 1138.05 31.02 o
1280 1 2 0 6 1 330.10 296.93 9.22 o
1281 1 2 0 6 2 145.65 127.17 6.74 o
1282 1 2 0 6 3 2.21 1.97 1.41 <
1283 1 2 0 6 4 44.26 33.89 6.59 o
1284 1 4 0 6 1 16.65 14.38 3.52 o
1285 1 4 0 6 2 4.33 3.56 1.79 <
1286 1 4 0 6 3 15.35 15.73 5.06 o
1287 1 4 0 6 4 0.01 -3.22 2.90 <
1288 3 -3 -3 6 0 3856.43 3822.05 67.82 o
1288 2 -3 3 6 0 3856.43 3822.05 67.82 o
1288 1 6 0 6 0 3856.43 3822.05 67.82 o
1289 1 6 0 6 1 134.04 140.12 23.30 o
1290 1 6 0 6 2 118.03 112.60 12.20 o
1291 1 6 0 6 3 8.07 10.47 2.37 o
1292 1 6 0 6 4 1.32 -5.29 4.53 <
1293 3 -4 -4 6 0 874.49 747.73 60.33 o
1293 2 -4 4 6 0 874.49 747.73 60.33 o
1293 1 8 0 6 0 874.49 747.73 60.33 o
1294 1 8 0 6 1 45.13 54.94 17.25 o
1295 1 8 0 6 2 113.15 115.48 10.72 o
1296 1 8 0 6 3 2.61 5.56 5.97 <
1297 1 8 0 6 4 27.24 26.95 7.34 o
1298 3 4 2 6 0 202.32 210.62 20.90 o
1298 2 1 -3 6 0 202.32 210.62 20.90 o
1298 1 -5 1 6 0 202.32 210.62 20.90 o
1299 3 3 1 6 0 651.55 713.83 15.98 o
1299 2 0 -2 6 0 651.55 713.83 15.98 o
1299 1 -3 1 6 0 651.55 713.83 15.98 o
1300 3 2 0 6 0 855.94 1122.86 30.57 o
1300 2 -1 -1 6 0 855.94 1122.86 30.57 o
1300 1 -1 1 6 0 855.94 1122.86 30.57 o
1301 1 1 1 6 -4 0.79 1.84 1.26 <
1302 1 1 1 6 -3 4.98 2.47 1.13 <
1303 1 1 1 6 -2 13.94 9.63 1.78 o
1304 1 1 1 6 -1 81.25 73.97 5.58 o
1305 1 1 1 6 1 277.96 259.26 16.59 o
1306 1 1 1 6 2 23.23 22.71 5.07 o
1307 1 1 1 6 3 15.30 13.93 3.26 o
1308 1 1 1 6 4 0.72 3.16 3.03 <
1309 1 3 1 6 -4 3.01 1.58 1.26 <
1310 1 3 1 6 -3 8.84 11.60 2.39 o
1311 1 3 1 6 -2 163.31 138.74 6.26 o
1312 1 3 1 6 -1 125.14 134.79 6.43 o
1313 1 3 1 6 1 53.96 50.28 4.34 o
1314 1 3 1 6 2 182.66 171.32 10.43 o
1315 1 3 1 6 3 0.45 11.16 8.36 <
1316 1 3 1 6 4 0.18 3.25 3.05 <
1317 1 5 1 6 -4 25.44 20.27 4.15 o
1318 1 5 1 6 -3 0.37 0.73 1.55 <
1319 1 5 1 6 -2 185.88 166.24 16.78 o
1320 1 5 1 6 -1 146.29 132.01 7.13 o
1321 3 -1 -3 6 0 219.48 210.92 26.35 o
1321 2 -4 2 6 0 219.48 210.92 26.35 o
1321 1 5 1 6 0 219.48 210.92 26.35 o
1322 1 5 1 6 1 158.04 142.51 9.63 o
1323 1 5 1 6 2 176.22 174.51 14.67 o
1324 1 5 1 6 3 0.03 0.21 3.38 <
1325 1 5 1 6 4 30.41 24.25 8.23 <
1326 1 7 1 6 -4 19.48 23.00 4.36 o
1327 1 7 1 6 -3 30.02 28.22 7.66 o
1328 1 7 1 6 -2 8.12 7.18 3.20 <
1329 1 7 1 6 -1 26.10 28.57 11.06 <
1330 3 -2 -4 6 0 928.63 889.08 43.91 o
1330 2 -5 3 6 0 928.63 889.08 43.91 o
1330 1 7 1 6 0 928.63 889.08 43.91 o
1331 1 7 1 6 1 0.07 3.82 1.48 <
1332 1 7 1 6 2 4.91 6.89 2.87 <
1333 1 7 1 6 3 48.77 45.29 15.84 <
1334 1 7 1 6 4 27.86 23.59 8.40 <
1335 1 9 1 6 -4 2.68 1.69 2.69 <
1336 1 9 1 6 -3 5.54 10.55 9.35 <
1337 1 9 1 6 -2 45.66 54.98 10.13 o
1338 1 9 1 6 -1 99.58 108.60 14.12 o
1339 3 -3 -5 6 0 367.80 332.72 30.40 o
1339 2 -6 4 6 0 367.80 332.72 30.40 o
1339 1 9 1 6 0 367.80 332.72 30.40 o
1340 1 9 1 6 1 42.24 39.29 15.04 <
1341 1 9 1 6 2 50.63 91.99 23.08 o
1342 3 7 3 6 0 23.66 15.26 8.51 <
1342 2 1 -5 6 0 23.66 15.26 8.51 <
1342 1 -8 2 6 0 23.66 15.26 8.51 <
1343 3 6 2 6 0 564.61 580.41 26.76 o
1343 2 0 -4 6 0 564.61 580.41 26.76 o
1343 1 -6 2 6 0 564.61 580.41 26.76 o
1344 3 5 1 6 0 202.22 207.07 14.59 o
1344 2 -1 -3 6 0 202.22 207.07 14.59 o
1344 1 -4 2 6 0 202.22 207.07 14.59 o
1345 1 0 2 6 -4 4.40 3.73 1.11 o
1346 1 0 2 6 -2 89.87 73.64 4.59 o
1347 3 3 -1 6 0 595.53 669.66 17.71 o
1347 2 -3 -1 6 0 595.53 669.66 17.71 o
1347 1 0 2 6 0 595.53 669.66 17.71 o
1348 1 0 2 6 2 112.31 85.64 14.21 o
1349 1 0 2 6 4 1.54 3.99 3.41 <
1350 1 2 2 6 -4 8.77 8.97 2.35 o
1351 1 2 2 6 -3 17.33 17.52 2.26 o
1352 1 2 2 6 -2 70.57 61.96 5.33 o
1353 1 2 2 6 -1 100.37 92.47 7.37 o
1354 3 2 -2 6 0 62.54 74.61 9.51 o
1354 2 -4 0 6 0 62.54 74.61 9.51 o
1354 1 2 2 6 0 62.54 74.61 9.51 o
1355 1 2 2 6 1 371.32 343.19 12.45 o
1356 1 2 2 6 2 96.63 79.84 9.68 o
1357 1 2 2 6 3 0.88 1.64 1.88 <
1358 1 2 2 6 4 10.37 4.63 2.89 <
1359 1 4 2 6 -4 0.88 1.67 0.71 <
1360 1 4 2 6 -3 1.34 -0.76 0.84 <
1361 1 4 2 6 -2 7.52 5.50 1.50 o
1362 1 4 2 6 -1 17.29 19.93 8.14 <
1363 3 1 -3 6 0 161.15 167.09 21.96 o
1363 2 -5 1 6 0 161.15 167.09 21.96 o
1363 1 4 2 6 0 161.15 167.09 21.96 o
1364 1 4 2 6 1 105.08 108.39 14.33 o
1365 1 4 2 6 2 0.22 1.19 1.53 <
1366 1 4 2 6 4 5.10 5.64 3.76 <
1367 1 6 2 6 -4 0.01 3.75 2.32 <
1368 1 6 2 6 -3 52.80 52.33 7.53 o
1369 1 6 2 6 -2 56.53 58.82 8.35 o
1370 1 6 2 6 -1 239.56 239.27 12.10 o
1371 3 0 -4 6 0 530.19 497.23 45.46 o
1371 2 -6 2 6 0 530.19 497.23 45.46 o
1371 1 6 2 6 0 530.19 497.23 45.46 o
1372 1 6 2 6 2 81.37 87.24 14.58 o
1373 1 6 2 6 3 63.71 55.39 12.34 o
1374 1 8 2 6 -4 4.63 0.91 3.32 <
1375 1 8 2 6 -3 3.45 9.39 5.46 <
1376 1 8 2 6 -2 62.53 64.34 10.41 o
1377 1 8 2 6 -1 40.81 68.00 13.64 o
1378 3 -1 -5 6 0 23.54 16.52 6.31 <
1378 2 -7 3 6 0 23.54 16.52 6.31 <
1378 1 8 2 6 0 23.54 16.52 6.31 <
1379 1 8 2 6 1 33.07 26.55 5.61 o
1380 1 8 2 6 2 93.51 76.86 21.91 o
1381 1 10 2 6 -2 1.31 2.31 4.86 <
1382 3 8 2 6 0 23.63 14.85 6.11 <
1382 2 -1 -5 6 0 23.63 14.85 6.11 <
1382 1 -7 3 6 0 23.63 14.85 6.11 <
1383 3 7 1 6 0 941.01 922.59 35.71 o
1383 2 -2 -4 6 0 941.01 922.59 35.71 o
1383 1 -5 3 6 0 941.01 922.59 35.71 o
1384 3 6 0 6 0 3868.19 3743.95 111.71 o
1384 2 -3 -3 6 0 3868.19 3743.95 111.71 o
1384 1 -3 3 6 0 3868.19 3743.95 111.71 o
1385 3 5 -1 6 0 219.82 209.45 14.10 o
1385 2 -4 -2 6 0 219.82 209.45 14.10 o
1385 1 -1 3 6 0 219.82 209.45 14.10 o
1386 1 1 3 6 -4 0.00 1.66 0.89 <
1387 1 1 3 6 -3 26.29 19.09 2.20 o
1388 1 1 3 6 -2 1.37 4.36 1.81 <
1389 1 1 3 6 -1 0.18 3.07 1.31 <
1390 3 4 -2 6 0 161.50 154.77 15.93 o
1390 2 -5 -1 6 0 161.50 154.77 15.93 o
1390 1 1 3 6 0 161.50 154.77 15.93 o
1391 1 1 3 6 1 280.97 294.86 20.14 o
1392 1 1 3 6 2 6.85 5.87 2.33 <
1393 1 1 3 6 3 28.23 19.66 5.08 o
1394 1 3 3 6 -4 0.00 5.91 2.64 <
1395 1 3 3 6 -3 3.70 3.08 0.99 o
1396 1 3 3 6 -2 11.32 7.60 1.73 o
1397 1 3 3 6 -1 129.90 143.95 9.65 o
1398 3 3 -3 6 0 3999.67 3902.96 78.53 o
1398 2 -6 0 6 0 3999.67 3902.96 78.53 o
1398 1 3 3 6 0 3999.67 3902.96 78.53 o
1399 1 3 3 6 1 10.82 13.08 5.17 <
1400 1 3 3 6 2 58.89 62.40 8.30 o
1401 1 3 3 6 3 17.44 29.31 9.44 o
1402 1 5 3 6 -4 0.00 5.37 1.54 o
1403 1 5 3 6 -3 0.47 0.83 1.07 <
1404 1 5 3 6 -2 41.33 28.91 9.74 <
1405 1 5 3 6 -1 44.36 73.61 17.50 o
1406 3 2 -4 6 0 974.40 920.28 66.54 o
1406 2 -7 1 6 0 974.40 920.28 66.54 o
1406 1 5 3 6 0 974.40 920.28 66.54 o
1407 1 5 3 6 2 68.36 64.01 10.64 o
1408 1 7 3 6 -4 0.00 -0.13 2.71 <
1409 1 7 3 6 -3 19.85 27.42 5.89 o
1410 1 7 3 6 -2 3.99 2.29 1.62 <
1411 1 7 3 6 -1 67.00 72.67 7.88 o
1412 3 1 -5 6 0 13.14 11.39 5.86 <
1412 2 -8 2 6 0 13.14 11.39 5.86 <
1412 1 7 3 6 0 13.14 11.39 5.86 <
1413 1 7 3 6 1 11.74 16.42 5.36 o
1414 1 9 3 6 -3 11.87 15.48 4.37 o
1415 1 9 3 6 -2 24.38 24.26 7.37 o
1416 1 9 3 6 -1 142.05 138.48 29.65 o
1417 3 9 1 6 0 411.92 351.15 31.22 o
1417 2 -3 -5 6 0 411.92 351.15 31.22 o
1417 1 -6 4 6 0 411.92 351.15 31.22 o
1418 3 8 0 6 0 877.65 724.04 51.44 o
1418 2 -4 -4 6 0 877.65 724.04 51.44 o
1418 1 -4 4 6 0 877.65 724.04 51.44 o
1419 3 7 -1 6 0 932.42 880.56 44.99 o
1419 2 -5 -3 6 0 932.42 880.56 44.99 o
1419 1 -2 4 6 0 932.42 880.56 44.99 o
1420 1 0 4 6 -2 6.51 11.25 2.52 o
1421 1 0 4 6 2 29.25 22.72 6.55 o
1422 1 2 4 6 -3 1.81 1.85 0.75 <
1423 1 2 4 6 -2 0.68 3.71 1.78 <
1424 1 2 4 6 -1 14.47 21.06 4.92 o
1425 3 5 -3 6 0 976.08 909.79 46.33 o
1425 2 -7 -1 6 0 976.08 909.79 46.33 o
1425 1 2 4 6 0 976.08 909.79 46.33 o
1426 1 2 4 6 1 198.11 201.07 21.31 o
1427 1 2 4 6 2 18.45 14.36 5.63 <
1428 1 4 4 6 -3 0.14 -1.07 1.54 <
1429 1 4 4 6 -2 15.59 15.84 4.38 o
1430 1 4 4 6 -1 51.41 44.32 7.41 o
1431 1 4 4 6 1 84.67 88.93 13.03 o
1432 1 6 4 6 -3 1.30 2.62 3.35 <
1433 1 6 4 6 -2 4.45 6.10 2.46 <
1434 1 6 4 6 -1 161.40 142.07 13.26 o
1435 3 3 -5 6 0 327.20 304.48 38.89 o
1435 2 -9 1 6 0 327.20 304.48 38.89 o
1435 1 6 4 6 0 327.20 304.48 38.89 o
1436 1 6 4 6 1 6.57 8.74 5.12 <
1437 1 8 4 6 -3 38.57 35.40 13.51 <
1438 1 8 4 6 -2 6.35 9.90 4.04 <
1439 1 8 4 6 -1 25.53 31.25 8.45 o
1440 3 9 -1 6 0 369.49 308.10 23.25 o
1440 2 -6 -4 6 0 369.49 308.10 23.25 o
1440 1 -3 5 6 0 369.49 308.10 23.25 o
1441 3 8 -2 6 0 23.58 14.27 5.83 <
1441 2 -7 -3 6 0 23.58 14.27 5.83 <
1441 1 -1 5 6 0 23.58 14.27 5.83 <
1442 1 1 5 6 -3 4.74 1.79 1.12 <
1443 1 1 5 6 -2 22.18 27.06 8.63 o
1444 1 1 5 6 -1 3.32 3.65 2.43 <
1445 3 7 -3 6 0 13.18 17.29 10.27 <
1445 2 -8 -2 6 0 13.18 17.29 10.27 <
1445 1 1 5 6 0 13.18 17.29 10.27 <
1446 1 3 5 6 -3 16.48 12.98 3.25 o
1447 1 3 5 6 -2 19.19 17.83 8.82 <
1448 1 3 5 6 -1 58.12 49.58 7.80 o
1449 3 6 -4 6 0 327.72 303.18 44.02 o
1449 2 -9 -1 6 0 327.72 303.18 44.02 o
1449 1 3 5 6 0 327.72 303.18 44.02 o
1450 1 5 5 6 -2 1.28 -0.15 3.96 <
1451 1 5 5 6 -1 13.92 14.75 4.35 o
1452 1 7 5 6 -3 0.74 1.23 3.04 <
1453 1 7 5 6 -2 0.65 -3.19 5.68 <
1454 1 9 5 6 -3 46.79 45.87 11.88 o
1455 1 0 6 6 -2 76.28 66.91 12.74 o
1456 1 2 6 6 -3 0.93 2.33 1.93 <
1457 1 2 6 6 -2 14.66 15.67 5.06 o
1458 1 2 6 6 -1 0.77 10.22 5.65 <
1459 1 4 6 6 -3 18.50 22.75 6.64 o
1460 1 4 6 6 -2 9.75 14.35 9.72 <
1461 1 6 6 6 -3 2.30 5.01 2.49 <
1462 1 1 7 6 -3 13.49 13.92 3.44 o
1463 1 1 7 6 -2 29.59 21.82 7.15 o
1464 1 3 7 6 -3 0.28 2.59 2.99 <
1465 1 3 7 6 -2 44.97 36.55 15.03 <
1466 1 0 0 7 2 0.59 4.03 1.77 <
1467 1 2 0 7 1 1.08 2.38 0.94 <
1468 1 2 0 7 2 6.70 9.81 5.04 <
1469 1 2 0 7 3 0.78 3.81 1.56 <
1470 1 2 0 7 4 20.97 15.84 3.30 o
1471 1 4 0 7 1 0.01 1.76 1.30 <
1472 1 4 0 7 2 3.82 3.79 4.14 <
1473 1 4 0 7 3 0.58 3.18 2.21 <
1474 1 4 0 7 4 0.60 0.17 1.60 <
1475 1 6 0 7 1 1.46 1.40 1.19 <
1476 1 6 0 7 2 5.29 10.11 3.15 o
1477 1 6 0 7 3 14.75 9.23 4.31 <
1478 1 6 0 7 4 58.52 51.92 5.34 o
1479 1 8 0 7 1 25.82 22.28 6.01 o
1480 1 8 0 7 2 5.85 12.30 8.84 <
1481 1 8 0 7 3 16.45 19.29 5.01 o
1482 1 8 0 7 4 27.97 24.91 7.09 o
1483 3 6 4 7 0 518.02 440.10 37.85 o
1483 2 3 -5 7 0 518.02 440.10 37.85 o
1483 1 -9 1 7 0 518.02 440.10 37.85 o
1484 3 4 2 7 0 141.08 161.32 18.70 o
1484 2 1 -3 7 0 141.08 161.32 18.70 o
1484 1 -5 1 7 0 141.08 161.32 18.70 o
1485 3 3 1 7 0 2916.81 3113.02 39.38 o
1485 2 0 -2 7 0 2916.81 3113.02 39.38 o
1485 1 -3 1 7 0 2916.81 3113.02 39.38 o
1486 3 2 3 7 -4 2.23 2.96 1.52 <
1486 2 -1 -1 7 0 2.23 2.96 1.52 <
1486 1 -1 1 7 0 2.23 2.96 1.52 <
1487 1 1 1 7 -4 8.04 7.60 2.51 o
1488 1 1 1 7 -3 0.25 4.96 1.85 <
1489 1 1 1 7 -2 0.71 0.81 0.92 <
1490 1 1 1 7 -1 0.21 0.94 1.17 <
1491 3 1 -1 7 0 3.06 8.04 2.25 o
1491 2 -2 3 7 -4 3.06 8.04 2.25 o
1491 1 1 1 7 0 3.06 8.04 2.25 o
1492 1 1 1 7 1 0.29 -0.86 0.96 <
1493 1 1 1 7 2 13.18 11.28 2.45 o
1494 1 1 1 7 3 4.69 7.88 2.63 <
1495 1 1 1 7 4 0.54 0.09 2.11 <
1496 1 3 1 7 -4 15.57 25.02 4.12 o
1497 1 3 1 7 -3 67.56 58.08 7.15 o
1498 1 3 1 7 -2 1.15 3.37 1.31 <
1499 1 3 1 7 -1 0.42 -0.08 1.17 <
1500 3 0 -2 7 0 2621.08 2755.78 83.67 o
1500 2 -3 1 7 0 2621.08 2755.78 83.67 o
1500 1 3 1 7 0 2621.08 2755.78 83.67 o
1501 1 3 1 7 1 1.03 -3.10 2.05 <
1502 1 3 1 7 2 0.74 2.63 1.72 <
1503 1 3 1 7 3 33.87 25.88 5.14 o
1504 1 3 1 7 4 26.55 15.91 3.97 o
1505 1 5 1 7 -4 18.63 20.54 4.37 o
1506 1 5 1 7 -3 13.01 8.43 4.08 <
1507 1 5 1 7 -2 1.57 1.96 1.46 <
1508 1 5 1 7 -1 10.07 15.99 3.62 o
1509 3 -1 -3 7 0 109.09 116.25 20.76 o
1509 2 -4 2 7 0 109.09 116.25 20.76 o
1509 1 5 1 7 0 109.09 116.25 20.76 o
1510 1 5 1 7 1 14.00 12.38 4.65 <
1511 1 5 1 7 2 8.89 15.58 8.02 <
1512 1 5 1 7 3 0.21 7.41 3.05 <
1513 1 5 1 7 4 40.91 35.29 6.42 o
1514 1 7 1 7 -4 1.45 5.72 3.72 <
1515 1 7 1 7 -2 2.55 3.21 2.57 <
1516 1 7 1 7 -1 0.32 0.65 1.79 <
1517 1 7 1 7 1 0.53 1.44 1.09 <
1518 1 7 1 7 3 0.35 -0.49 1.01 <
1519 1 9 1 7 -3 45.93 29.98 9.65 o
1520 1 9 1 7 -2 6.30 7.49 3.55 <
1521 1 9 1 7 -1 3.56 8.93 5.42 <
1522 3 7 3 7 0 54.42 29.54 9.75 o
1522 2 1 -5 7 0 54.42 29.54 9.75 o
1522 1 -8 2 7 0 54.42 29.54 9.75 o
1523 3 5 1 7 0 141.42 160.46 13.29 o
1523 2 -1 -3 7 0 141.42 160.46 13.29 o
1523 1 -4 2 7 0 141.42 160.46 13.29 o
1524 3 4 3 7 -4 1.74 2.32 2.03 <
1524 2 -2 -2 7 0 1.74 2.32 2.03 <
1524 1 -2 2 7 0 1.74 2.32 2.03 <
1525 1 0 2 7 -4 4.57 11.73 3.37 o
1526 3 3 -1 7 0 2623.19 2879.77 55.57 o
1526 2 -3 -1 7 0 2623.19 2879.77 55.57 o
1526 1 0 2 7 0 2623.19 2879.77 55.57 o
1527 1 2 2 7 -4 3.87 12.46 4.03 o
1528 1 2 2 7 -3 1.05 3.02 1.06 <
1529 1 2 2 7 -2 0.45 3.06 2.10 <
1530 1 2 2 7 -1 0.02 2.37 1.15 <
1531 3 2 -2 7 0 2.39 9.15 2.86 o
1531 2 -4 3 7 -4 2.39 9.15 2.86 o
1531 1 2 2 7 0 2.39 9.15 2.86 o
1532 1 2 2 7 1 7.96 4.34 2.04 <
1533 1 2 2 7 2 11.44 8.59 6.77 <
1534 1 2 2 7 3 0.79 0.31 2.26 <
1535 1 4 2 7 -4 3.13 3.25 2.29 <
1536 1 4 2 7 -3 0.14 0.70 1.40 <
1537 1 4 2 7 -2 5.73 5.12 1.39 o
1538 1 4 2 7 -1 0.02 0.01 2.24 <
1539 1 4 2 7 1 4.63 7.80 5.44 <
1540 1 4 2 7 2 0.01 0.34 1.12 <
1541 1 4 2 7 3 1.78 1.29 2.24 <
1542 1 4 2 7 4 15.39 6.43 3.46 <
1543 1 6 2 7 -4 64.27 71.00 11.52 o
1544 1 6 2 7 -3 72.43 59.74 6.27 o
1545 1 6 2 7 -2 4.13 5.44 2.61 <
1546 1 6 2 7 -1 0.03 4.24 2.04 <
1547 1 6 2 7 1 0.60 0.88 3.46 <
1548 1 6 2 7 2 3.07 3.74 2.39 <
1549 1 6 2 7 3 33.13 21.68 5.47 o
1550 1 8 2 7 -4 14.75 18.38 6.68 <
1551 1 8 2 7 -3 41.18 41.92 10.41 o
1552 1 8 2 7 -2 0.03 2.39 1.50 <
1553 1 8 2 7 -1 11.40 11.42 5.28 <
1554 3 -1 -5 7 0 84.14 63.44 13.24 o
1554 2 -7 3 7 0 84.14 63.44 13.24 o
1554 1 8 2 7 0 84.14 63.44 13.24 o
1555 1 8 2 7 1 17.72 15.10 8.05 <
1556 1 8 2 7 2 10.72 17.42 10.98 <
1557 3 8 2 7 0 54.44 39.83 9.95 o
1557 2 -1 -5 7 0 54.44 39.83 9.95 o
1557 1 -7 3 7 0 54.44 39.83 9.95 o
1558 3 7 1 7 0 33.32 32.71 6.53 o
1558 2 -2 -4 7 0 33.32 32.71 6.53 o
1558 1 -5 3 7 0 33.32 32.71 6.53 o
1559 3 6 3 7 -4 86.56 76.56 12.22 o
1559 2 -3 -3 7 0 86.56 76.56 12.22 o
1559 1 -3 3 7 0 86.56 76.56 12.22 o
1560 3 5 -1 7 0 109.43 127.54 13.90 o
1560 2 -4 -2 7 0 109.43 127.54 13.90 o
1560 1 -1 3 7 0 109.43 127.54 13.90 o
1561 1 1 3 7 -4 0.09 -0.59 1.12 <
1562 1 1 3 7 -3 1.00 0.88 0.92 <
1563 1 1 3 7 -2 1.49 4.86 1.56 o
1564 1 1 3 7 -1 0.30 1.53 0.88 <
1565 3 4 -2 7 0 148.71 155.78 24.09 o
1565 2 -5 -1 7 0 148.71 155.78 24.09 o
1565 1 1 3 7 0 148.71 155.78 24.09 o
1566 1 1 3 7 1 14.83 16.83 8.83 <
1567 1 1 3 7 2 13.37 1.82 1.22 <
1568 1 1 3 7 3 5.81 4.81 2.85 <
1569 1 3 3 7 -4 20.22 36.40 5.63 o
1570 1 3 3 7 -3 7.70 6.93 2.04 o
1571 1 3 3 7 -2 5.30 5.13 3.07 <
1572 1 3 3 7 -1 2.55 4.45 1.66 <
1573 3 3 -3 7 0 118.63 98.57 14.07 o
1573 2 -6 3 7 -4 118.63 98.57 14.07 o
1573 1 3 3 7 0 118.63 98.57 14.07 o
1574 1 3 3 7 1 0.29 -0.70 2.33 <
1575 1 3 3 7 2 0.09 7.17 6.70 <
1576 1 5 3 7 -4 32.62 45.74 8.06 o
1577 1 5 3 7 -3 14.41 16.73 4.60 o
1578 1 5 3 7 -2 4.82 2.58 1.79 <
1579 1 5 3 7 -1 3.20 6.62 2.94 <
1580 1 5 3 7 1 15.82 14.44 8.63 <
1581 1 5 3 7 2 17.02 9.26 4.13 <
1582 1 7 3 7 -3 0.05 -0.09 1.74 <
1583 1 7 3 7 -2 0.01 1.46 2.15 <
1584 1 7 3 7 -1 0.78 1.20 2.79 <
1585 1 7 3 7 1 7.85 3.33 4.03 <
1586 1 9 3 7 -4 88.17 97.15 16.67 o
1587 1 9 3 7 -3 0.08 4.86 3.36 <
1588 3 9 1 7 0 519.49 449.79 29.42 o
1588 2 -3 -5 7 0 519.49 449.79 29.42 o
1588 1 -6 4 7 0 519.49 449.79 29.42 o
1589 3 8 3 7 -4 7.23 14.12 4.45 o
1589 2 -4 -4 7 0 7.23 14.12 4.45 o
1589 1 -4 4 7 0 7.23 14.12 4.45 o
1590 3 7 -1 7 0 35.45 37.84 7.49 o
1590 2 -5 -3 7 0 35.45 37.84 7.49 o
1590 1 -2 4 7 0 35.45 37.84 7.49 o
1591 1 0 4 7 -2 0.01 1.33 1.58 <
1592 3 6 -2 7 0 1061.76 1013.98 65.50 o
1592 2 -6 -2 7 0 1061.76 1013.98 65.50 o
1592 1 0 4 7 0 1061.76 1013.98 65.50 o
1593 1 2 4 7 -3 0.08 -0.14 1.79 <
1594 1 2 4 7 -2 7.26 8.11 2.70 o
1595 1 2 4 7 -1 1.52 1.19 2.04 <
1596 3 5 -3 7 0 38.10 42.19 14.46 <
1596 2 -7 -1 7 0 38.10 42.19 14.46 <
1596 1 2 4 7 0 38.10 42.19 14.46 <
1597 1 2 4 7 1 17.18 14.25 10.58 <
1598 1 2 4 7 2 12.79 9.50 4.77 <
1599 1 4 4 7 -3 0.45 -2.37 2.01 <
1600 1 4 4 7 -2 0.07 3.77 3.25 <
1601 1 4 4 7 -1 3.93 1.45 2.78 <
1602 1 4 4 7 1 14.74 10.24 5.47 <
1603 1 6 4 7 -3 42.26 39.81 7.15 o
1604 1 6 4 7 -2 4.15 3.04 1.27 <
1605 1 6 4 7 -1 5.38 4.61 2.31 <
1606 1 8 4 7 -2 1.11 10.53 10.87 <
1607 1 8 4 7 -1 3.24 3.75 4.18 <
1608 3 9 -1 7 0 403.57 387.79 48.87 o
1608 2 -6 -4 7 0 403.57 387.79 48.87 o
1608 1 -3 5 7 0 403.57 387.79 48.87 o
1609 3 8 -2 7 0 84.57 76.95 21.72 o
1609 2 -7 -3 7 0 84.57 76.95 21.72 o
1609 1 -1 5 7 0 84.57 76.95 21.72 o
1610 1 1 5 7 -3 12.17 6.47 3.00 <
1611 1 1 5 7 -2 1.11 5.87 3.63 <
1612 1 1 5 7 -1 1.56 1.01 2.74 <
1613 3 7 -3 7 0 79.42 48.84 16.00 o
1613 2 -8 -2 7 0 79.42 48.84 16.00 o
1613 1 1 5 7 0 79.42 48.84 16.00 o
1614 1 3 5 7 -3 13.38 16.66 3.25 o
1615 1 3 5 7 -1 6.01 5.76 2.56 <
1616 3 6 -4 7 0 453.26 463.79 55.30 o
1616 2 -9 -1 7 0 453.26 463.79 55.30 o
1616 1 3 5 7 0 453.26 463.79 55.30 o
1617 1 5 5 7 -3 18.72 31.26 5.28 o
1618 1 5 5 7 -2 1.48 1.54 2.06 <
1619 1 5 5 7 -1 0.02 3.77 2.06 <
1620 1 7 5 7 -3 0.82 4.31 2.97 <
1621 1 7 5 7 -2 0.65 3.15 2.75 <
1622 1 2 6 7 -3 0.07 -2.06 2.02 <
1623 1 2 6 7 -1 0.45 3.11 5.10 <
1624 1 4 6 7 -3 1.07 0.75 1.87 <
1625 1 4 6 7 -2 0.03 -3.38 2.58 <
1626 1 6 6 7 -3 0.92 10.77 6.01 <
1627 1 6 6 7 -2 1.97 5.31 1.66 o
1628 1 1 7 7 -3 0.11 2.65 3.60 <
1629 1 3 7 7 -3 8.37 23.09 6.79 o
1630 1 5 7 7 -3 16.75 19.79 11.42 <
1631 3 0 0 8 0 34524.40 37588.10 139.41 o
1631 2 0 0 8 0 34524.40 37588.10 139.41 o
1631 1 0 0 8 0 34524.40 37588.10 139.41 o
1632 1 0 0 8 2 73.81 68.08 8.18 o
1633 3 -1 -1 8 0 375.38 460.28 23.75 o
1633 2 -1 1 8 0 375.38 460.28 23.75 o
1633 1 2 0 8 0 375.38 460.28 23.75 o
1634 1 2 0 8 1 150.82 126.29 10.95 o
1635 1 2 0 8 2 162.68 164.44 9.39 o
1636 1 2 0 8 3 16.33 11.52 4.58 <
1637 1 2 0 8 4 57.94 54.95 6.00 o
1638 3 -2 -2 8 0 654.67 750.12 34.50 o
1638 2 -2 2 8 0 654.67 750.12 34.50 o
1638 1 4 0 8 0 654.67 750.12 34.50 o
1639 1 4 0 8 1 51.39 49.61 9.47 o
1640 1 4 0 8 2 6.03 7.11 3.51 <
1641 1 4 0 8 3 30.92 25.00 5.48 o
1642 1 4 0 8 4 5.55 4.20 2.41 <
1643 3 -3 -3 8 0 14047.40 14015.90 140.65 o
1643 2 -3 3 8 0 14047.40 14015.90 140.65 o
1643 1 6 0 8 0 14047.40 14015.90 140.65 o
1644 1 6 0 8 1 80.26 88.62 9.32 o
1645 1 6 0 8 2 51.26 74.17 13.17 o
1646 1 6 0 8 3 86.76 94.33 14.86 o
1647 1 6 0 8 4 5.13 3.04 3.60 <
1648 3 -4 -4 8 0 285.23 233.93 24.88 o
1648 2 -4 4 8 0 285.23 233.93 24.88 o
1648 1 8 0 8 0 285.23 233.93 24.88 o
1649 1 8 0 8 3 25.23 19.78 5.37 o
1650 1 8 0 8 4 27.38 15.98 9.39 <
1651 3 5 3 8 0 571.69 574.35 25.90 o
1651 2 2 -4 8 0 571.69 574.35 25.90 o
1651 1 -7 1 8 0 571.69 574.35 25.90 o
1652 3 4 2 8 0 605.70 577.97 43.84 o
1652 2 1 -3 8 0 605.70 577.97 43.84 o
1652 1 -5 1 8 0 605.70 577.97 43.84 o
1653 3 3 1 8 0 31467.70 32979.10 94.46 o
1653 2 0 -2 8 0 31467.70 32979.10 94.46 o
1653 1 -3 1 8 0 31467.70 32979.10 94.46 o
1654 3 2 0 8 0 375.43 463.02 15.66 o
1654 2 -1 -1 8 0 375.43 463.02 15.66 o
1654 1 -1 1 8 0 375.43 463.02 15.66 o
1655 1 1 1 8 -4 43.64 39.09 5.59 o
1656 1 1 1 8 -3 3.57 3.70 1.12 o
1657 1 1 1 8 -2 5.16 4.66 1.48 o
1658 1 1 1 8 -1 80.35 78.39 8.28 o
1659 3 1 -1 8 0 373.81 463.86 36.96 o
1659 2 -2 0 8 0 373.81 463.86 36.96 o
1659 1 1 1 8 0 373.81 463.86 36.96 o
1660 1 1 1 8 1 234.74 242.91 15.89 o
1661 1 1 1 8 2 2.03 2.29 2.06 <
1662 1 1 1 8 3 26.86 26.91 7.52 o
1663 1 1 1 8 4 24.10 19.34 7.78 <
1664 1 3 1 8 -4 41.08 31.97 5.08 o
1665 1 3 1 8 -3 53.09 51.56 7.45 o
1666 1 3 1 8 -2 73.46 80.26 6.24 o
1667 1 3 1 8 -1 82.92 96.16 6.57 o
1668 3 0 -2 8 0 31759.10 32564.80 127.51 o
1668 2 -3 1 8 0 31759.10 32564.80 127.51 o
1668 1 3 1 8 0 31759.10 32564.80 127.51 o
1669 1 3 1 8 1 27.74 33.96 4.75 o
1670 1 3 1 8 2 23.93 33.43 4.12 o
1671 1 3 1 8 3 7.50 10.73 5.75 <
1672 1 5 1 8 -4 45.01 32.49 7.29 o
1673 1 5 1 8 -3 0.27 5.38 3.98 <
1674 1 5 1 8 -2 197.67 188.71 15.29 o
1675 1 5 1 8 -1 41.27 67.21 15.59 o
1676 1 5 1 8 1 57.13 48.34 5.76 o
1677 1 5 1 8 2 178.30 175.37 19.31 o
1678 1 5 1 8 3 13.92 12.24 3.28 o
1679 1 5 1 8 4 39.28 29.87 7.97 o
1680 1 7 1 8 -3 11.68 11.25 4.81 <
1681 1 7 1 8 -2 24.15 24.90 10.76 <
1682 1 7 1 8 -1 3.62 9.80 4.27 <
1683 3 -2 -4 8 0 551.39 546.95 29.83 o
1683 2 -5 3 8 0 551.39 546.95 29.83 o
1683 1 7 1 8 0 551.39 546.95 29.83 o
1684 1 7 1 8 1 36.58 46.50 10.93 o
1685 1 7 1 8 2 31.75 27.65 8.38 o
1686 1 7 1 8 3 42.72 35.76 7.43 o
1687 1 7 1 8 4 0.31 10.73 8.96 <
1688 1 9 1 8 -1 79.56 121.74 19.26 o
1689 3 -3 -5 8 0 7074.03 7103.20 212.66 o
1689 2 -6 4 8 0 7074.03 7103.20 212.66 o
1689 1 9 1 8 0 7074.03 7103.20 212.66 o
1690 3 7 3 8 0 538.04 427.36 49.93 o
1690 2 1 -5 8 0 538.04 427.36 49.93 o
1690 1 -8 2 8 0 538.04 427.36 49.93 o
1691 3 6 2 8 0 13643.30 13766.70 105.64 o
1691 2 0 -4 8 0 13643.30 13766.70 105.64 o
1691 1 -6 2 8 0 13643.30 13766.70 105.64 o
1692 3 5 1 8 0 605.39 573.89 32.50 o
1692 2 -1 -3 8 0 605.39 573.89 32.50 o
1692 1 -4 2 8 0 605.39 573.89 32.50 o
1693 3 4 0 8 0 655.93 760.60 43.97 o
1693 2 -2 -2 8 0 655.93 760.60 43.97 o
1693 1 -2 2 8 0 655.93 760.60 43.97 o
1694 1 0 2 8 -4 14.38 14.21 3.51 o
1695 1 0 2 8 -2 92.64 81.81 7.19 o
1696 3 3 -1 8 0 31781.70 33520.10 100.58 o
1696 2 -3 -1 8 0 31781.70 33520.10 100.58 o
1696 1 0 2 8 0 31781.70 33520.10 100.58 o
1697 1 0 2 8 2 4.44 8.97 6.06 <
1698 1 0 2 8 4 44.34 30.11 9.16 o
1699 1 2 2 8 -4 3.88 3.72 2.47 <
1700 1 2 2 8 -3 7.03 4.44 1.04 o
1701 1 2 2 8 -2 56.75 50.14 7.94 o
1702 1 2 2 8 -1 71.45 77.40 7.44 o
1703 3 2 -2 8 0 810.17 799.65 29.97 o
1703 2 -4 0 8 0 810.17 799.65 29.97 o
1703 1 2 2 8 0 810.17 799.65 29.97 o
1704 1 2 2 8 1 183.75 199.31 16.22 o
1705 1 2 2 8 2 62.82 58.14 14.68 o
1706 1 2 2 8 3 23.42 15.15 4.22 o
1707 1 2 2 8 4 51.76 41.12 15.04 <
1708 1 4 2 8 -4 0.89 2.45 1.65 <
1709 1 4 2 8 -3 0.58 2.16 2.56 <
1710 1 4 2 8 -2 20.77 23.45 5.11 o
1711 1 4 2 8 -1 2.23 1.63 2.16 <
1712 3 1 -3 8 0 471.21 452.62 27.86 o
1712 2 -5 1 8 0 471.21 452.62 27.86 o
1712 1 4 2 8 0 471.21 452.62 27.86 o
1713 1 4 2 8 1 143.80 152.55 14.18 o
1714 1 4 2 8 2 9.30 4.31 3.18 <
1715 1 4 2 8 3 58.61 37.85 10.55 o
1716 1 4 2 8 4 17.38 19.97 11.46 <
1717 1 6 2 8 -4 1.69 3.25 2.71 <
1718 1 6 2 8 -3 155.28 176.09 13.74 o
1719 1 6 2 8 -2 79.24 94.97 8.77 o
1720 1 6 2 8 -1 156.16 156.69 13.90 o
1721 3 0 -4 8 0 13969.50 13585.60 128.22 o
1721 2 -6 2 8 0 13969.50 13585.60 128.22 o
1721 1 6 2 8 0 13969.50 13585.60 128.22 o
1722 1 6 2 8 1 20.95 27.51 5.50 o
1723 1 6 2 8 2 11.38 30.03 8.82 o
1724 1 6 2 8 3 16.39 29.36 11.19 <
1725 1 8 2 8 -4 2.94 2.43 2.27 <
1726 1 8 2 8 -3 16.32 16.54 6.36 <
1727 1 8 2 8 -1 11.46 53.16 8.25 o
1728 3 -1 -5 8 0 609.24 459.33 36.51 o
1728 2 -7 3 8 0 609.24 459.33 36.51 o
1728 1 8 2 8 0 609.24 459.33 36.51 o
1729 1 8 2 8 1 0.09 9.14 9.30 <
1730 3 7 1 8 0 572.73 606.34 51.22 o
1730 2 -2 -4 8 0 572.73 606.34 51.22 o
1730 1 -5 3 8 0 572.73 606.34 51.22 o
1731 3 6 0 8 0 14068.80 14074.00 86.48 o
1731 2 -3 -3 8 0 14068.80 14074.00 86.48 o
1731 1 -3 3 8 0 14068.80 14074.00 86.48 o
1732 3 5 -1 8 0 588.22 561.76 26.53 o
1732 2 -4 -2 8 0 588.22 561.76 26.53 o
1732 1 -1 3 8 0 588.22 561.76 26.53 o
1733 1 1 3 8 -4 0.00 -0.69 1.43 <
1734 1 1 3 8 -3 18.26 16.15 2.37 o
1735 1 1 3 8 -2 2.35 3.55 1.75 <
1736 1 1 3 8 -1 12.43 17.96 4.23 o
1737 3 4 -2 8 0 471.49 466.11 43.14 o
1737 2 -5 -1 8 0 471.49 466.11 43.14 o
1737 1 1 3 8 0 471.49 466.11 43.14 o
1738 1 1 3 8 1 231.24 226.61 19.01 o
1739 1 1 3 8 2 5.83 7.55 7.46 <
1740 1 3 3 8 -4 0.00 0.34 1.06 <
1741 1 3 3 8 -3 80.33 96.62 10.40 o
1742 1 3 3 8 -2 80.19 75.22 10.54 o
1743 1 3 3 8 -1 88.85 89.94 7.87 o
1744 3 3 -3 8 0 14441.90 14946.60 117.69 o
1744 2 -6 0 8 0 14441.90 14946.60 117.69 o
1744 1 3 3 8 0 14441.90 14946.60 117.69 o
1745 1 3 3 8 1 6.74 14.45 8.81 <
1746 1 5 3 8 -4 0.00 -1.04 2.18 <
1747 1 5 3 8 -3 0.92 1.52 2.05 <
1748 1 5 3 8 -2 78.93 63.13 9.52 o
1749 1 5 3 8 -1 35.35 58.01 9.52 o
1750 1 5 3 8 1 40.41 43.62 14.45 o
1751 1 5 3 8 2 98.39 68.38 18.27 o
1752 1 7 3 8 -4 0.00 10.67 7.95 <
1753 1 7 3 8 -3 2.48 4.00 2.90 <
1754 1 7 3 8 -2 1.08 4.78 4.01 <
1755 1 7 3 8 -1 2.80 6.89 2.88 <
1756 3 1 -5 8 0 463.61 369.02 33.84 o
1756 2 -8 2 8 0 463.61 369.02 33.84 o
1756 1 7 3 8 0 463.61 369.02 33.84 o
1757 1 7 3 8 1 63.01 73.29 14.90 o
1758 1 9 3 8 -4 0.00 8.26 5.57 <
1759 1 9 3 8 -3 221.64 311.90 44.05 o
1760 3 9 1 8 0 6907.27 6893.19 114.30 o
1760 2 -3 -5 8 0 6907.27 6893.19 114.30 o
1760 1 -6 4 8 0 6907.27 6893.19 114.30 o
1761 3 8 0 8 0 285.47 215.08 18.98 o
1761 2 -4 -4 8 0 285.47 215.08 18.98 o
1761 1 -4 4 8 0 285.47 215.08 18.98 o
1762 3 7 -1 8 0 552.83 538.29 28.33 o
1762 2 -5 -3 8 0 552.83 538.29 28.33 o
1762 1 -2 4 8 0 552.83 538.29 28.33 o
1763 1 0 4 8 -2 23.06 16.07 5.02 o
1764 3 6 -2 8 0 13996.60 12798.60 241.87 o
1764 2 -6 -2 8 0 13996.60 12798.60 241.87 o
1764 1 0 4 8 0 13996.60 12798.60 241.87 o
1765 1 2 4 8 -3 49.50 29.64 6.05 o
1766 1 2 4 8 -2 7.17 7.78 1.97 o
1767 1 2 4 8 -1 31.15 51.74 11.44 o
1768 3 5 -3 8 0 640.59 596.33 30.77 o
1768 2 -7 -1 8 0 640.59 596.33 30.77 o
1768 1 2 4 8 0 640.59 596.33 30.77 o
1769 1 2 4 8 1 156.87 171.21 29.12 o
1770 1 4 4 8 -3 13.77 9.72 3.02 o
1771 1 4 4 8 -2 1.75 1.79 3.02 <
1772 1 4 4 8 -1 0.11 6.58 2.85 <
1773 1 4 4 8 1 144.88 179.16 31.64 o
1774 1 6 4 8 -3 159.59 141.62 14.26 o
1775 1 6 4 8 -2 52.41 50.60 17.65 <
1776 1 6 4 8 -1 136.56 122.18 17.68 o
1777 3 3 -5 8 0 7314.95 7241.48 196.16 o
1777 2 -9 1 8 0 7314.95 7241.48 196.16 o
1777 1 6 4 8 0 7314.95 7241.48 196.16 o
1778 1 8 4 8 -3 0.07 5.24 5.08 <
1779 1 8 4 8 -2 23.15 37.55 16.25 <
1780 3 8 -2 8 0 610.63 484.39 39.73 o
1780 2 -7 -3 8 0 610.63 484.39 39.73 o
1780 1 -1 5 8 0 610.63 484.39 39.73 o
1781 1 1 5 8 -3 16.22 8.96 4.16 <
1782 1 1 5 8 -2 4.15 2.70 1.86 <
1783 1 1 5 8 -1 9.94 25.14 8.75 <
1784 3 7 -3 8 0 465.03 351.33 44.13 o
1784 2 -8 -2 8 0 465.03 351.33 44.13 o
1784 1 1 5 8 0 465.03 351.33 44.13 o
1785 1 3 5 8 -3 36.79 36.92 7.28 o
1786 1 3 5 8 -2 35.81 43.50 9.87 o
1787 1 3 5 8 -1 48.78 47.07 10.95 o
1788 3 6 -4 8 0 7323.94 7490.56 220.74 o
1788 2 -9 -1 8 0 7323.94 7490.56 220.74 o
1788 1 3 5 8 0 7323.94 7490.56 220.74 o
1789 1 5 5 8 -3 3.00 3.71 2.61 <
1790 1 5 5 8 -2 1.95 5.99 2.68 <
1791 1 5 5 8 -1 27.17 11.96 7.20 <
1792 1 7 5 8 -3 3.79 5.63 6.92 <
1793 1 7 5 8 -2 0.28 3.75 3.64 <
1794 1 0 6 8 -2 19.31 19.99 7.82 <
1795 1 2 6 8 -3 8.27 5.96 3.33 <
1796 1 2 6 8 -2 1.43 3.56 2.21 <
1797 1 2 6 8 -1 32.24 47.68 15.75 o
1798 1 4 6 8 -3 0.10 2.73 2.14 <
1799 1 4 6 8 -2 0.01 -4.24 3.51 <
1800 1 6 6 8 -3 62.20 55.17 7.74 o
1801 1 1 7 8 -3 3.65 4.14 3.86 <
1802 1 3 7 8 -3 8.14 31.58 16.26 <
1803 1 0 0 9 2 6.30 3.58 2.09 <
1804 1 2 0 9 1 2.02 2.82 2.73 <
1805 1 2 0 9 2 0.27 0.02 1.25 <
1806 1 2 0 9 3 1.07 0.98 1.18 <
1807 1 2 0 9 4 24.62 25.48 6.25 o
1808 1 4 0 9 1 0.26 1.29 1.29 <
1809 1 4 0 9 2 0.21 3.42 2.06 <
1810 1 4 0 9 3 3.76 2.94 1.73 <
1811 1 6 0 9 1 4.88 7.15 4.45 <
1812 1 6 0 9 2 1.05 3.77 3.30 <
1813 1 6 0 9 4 19.32 17.81 5.54 o
1814 1 8 0 9 1 22.09 20.31 5.40 o
1815 1 8 0 9 2 0.03 2.09 3.06 <
1816 3 3 1 9 0 2663.05 2684.53 65.41 o
1816 2 0 -2 9 0 2663.05 2684.53 65.41 o
1816 1 -3 1 9 0 2663.05 2684.53 65.41 o
1817 3 2 3 9 -4 0.99 0.96 0.97 <
1817 2 -1 -1 9 0 0.99 0.96 0.97 <
1817 1 -1 1 9 0 0.99 0.96 0.97 <
1818 1 1 1 9 -4 1.28 1.46 1.20 <
1819 1 1 1 9 -3 4.98 1.08 1.46 <
1820 1 1 1 9 -2 0.95 -0.06 2.09 <
1821 1 1 1 9 -1 0.29 1.70 1.51 <
1822 3 1 -1 9 0 1.35 1.57 1.87 <
1822 2 -2 3 9 -4 1.35 1.57 1.87 <
1822 1 1 1 9 0 1.35 1.57 1.87 <
1823 1 1 1 9 1 2.09 2.81 1.15 <
1824 1 1 1 9 2 2.43 -2.29 1.66 <
1825 1 1 1 9 3 0.00 -2.11 2.42 <
1826 1 1 1 9 4 0.08 0.58 2.95 <
1827 1 3 1 9 -4 6.19 3.62 1.89 <
1828 1 3 1 9 -3 14.03 16.78 5.34 o
1829 1 3 1 9 -2 0.02 4.07 4.56 <
1830 1 3 1 9 -1 0.18 0.57 1.24 <
1831 3 0 -2 9 0 3003.29 3116.46 58.66 o
1831 2 -3 1 9 0 3003.29 3116.46 58.66 o
1831 1 3 1 9 0 3003.29 3116.46 58.66 o
1832 1 3 1 9 1 0.30 -0.21 0.93 <
1833 1 3 1 9 2 1.90 2.05 3.95 <
1834 1 3 1 9 3 13.14 12.47 4.07 o
1835 1 3 1 9 4 1.97 -2.63 3.13 <
1836 1 5 1 9 -4 45.40 39.00 9.01 o
1837 1 5 1 9 -3 16.32 6.60 3.98 <
1838 1 5 1 9 -2 7.40 7.04 3.93 <
1839 1 5 1 9 -1 15.14 17.75 6.22 <
1840 3 -1 -3 9 0 166.37 146.45 23.41 o
1840 2 -4 2 9 0 166.37 146.45 23.41 o
1840 1 5 1 9 0 166.37 146.45 23.41 o
1841 1 5 1 9 1 18.50 19.95 5.63 o
1842 1 5 1 9 2 1.67 -0.17 2.52 <
1843 1 5 1 9 3 4.22 5.87 3.99 <
1844 1 5 1 9 4 42.85 26.77 11.28 <
1845 1 7 1 9 -4 1.97 5.79 4.67 <
1846 1 7 1 9 -3 0.95 1.86 3.28 <
1847 1 7 1 9 -2 5.59 5.18 3.77 <
1848 1 7 1 9 -1 1.16 1.27 2.66 <
1849 3 -2 -4 9 0 47.87 55.61 9.81 o
1849 2 -5 3 9 0 47.87 55.61 9.81 o
1849 1 7 1 9 0 47.87 55.61 9.81 o
1850 1 7 1 9 1 2.43 3.67 3.98 <
1851 1 7 1 9 2 7.03 3.21 1.74 <
1852 1 7 1 9 3 0.28 10.35 5.97 <
1853 3 5 1 9 0 125.54 128.60 22.37 o
1853 2 -1 -3 9 0 125.54 128.60 22.37 o
1853 1 -4 2 9 0 125.54 128.60 22.37 o
1854 3 4 3 9 -4 0.02 10.51 7.96 <
1854 2 -2 -2 9 0 0.02 10.51 7.96 <
1854 1 -2 2 9 0 0.02 10.51 7.96 <
1855 1 0 2 9 -4 6.31 5.92 2.25 <
1856 1 0 2 9 -2 1.02 2.35 1.42 <
1857 3 3 -1 9 0 3008.26 3091.47 58.95 o
1857 2 -3 -1 9 0 3008.26 3091.47 58.95 o
1857 1 0 2 9 0 3008.26 3091.47 58.95 o
1858 1 0 2 9 2 4.50 0.80 3.14 <
1859 1 2 2 9 -4 8.75 17.20 4.12 o
1860 1 2 2 9 -3 0.30 0.56 0.72 <
1861 1 2 2 9 -2 9.90 10.73 2.20 o
1862 1 2 2 9 -1 4.68 4.93 1.81 <
1863 1 2 2 9 1 12.94 16.74 4.95 o
1864 1 2 2 9 2 2.23 6.06 3.67 <
1865 1 2 2 9 3 0.02 -0.08 2.67 <
1866 1 4 2 9 -4 2.01 5.57 2.53 <
1867 1 4 2 9 -3 4.30 3.93 2.54 <
1868 1 4 2 9 -2 0.01 1.23 1.69 <
1869 1 4 2 9 -1 1.37 6.19 2.35 <
1870 3 1 -3 9 0 147.79 120.80 21.54 o
1870 2 -5 1 9 0 147.79 120.80 21.54 o
1870 1 4 2 9 0 147.79 120.80 21.54 o
1871 1 4 2 9 1 6.43 6.14 3.95 <
1872 1 4 2 9 3 0.00 -1.46 2.45 <
1873 1 6 2 9 -4 19.80 20.84 6.26 o
1874 1 6 2 9 -3 24.60 16.40 4.86 o
1875 1 6 2 9 -2 1.12 2.07 2.44 <
1876 1 6 2 9 -1 0.00 -4.08 3.67 <
1877 3 0 -4 9 0 1069.67 970.87 50.02 o
1877 2 -6 2 9 0 1069.67 970.87 50.02 o
1877 1 6 2 9 0 1069.67 970.87 50.02 o
1878 1 6 2 9 1 0.68 4.36 2.85 <
1879 1 6 2 9 2 1.98 9.86 3.61 <
1880 1 8 2 9 -4 29.18 25.13 5.18 o
1881 1 8 2 9 -3 28.43 31.34 6.69 o
1882 1 8 2 9 -2 2.17 -0.51 2.11 <
1883 1 8 2 9 -1 23.34 24.17 6.80 o
1884 3 8 2 9 0 134.60 110.76 23.59 o
1884 2 -1 -5 9 0 134.60 110.76 23.59 o
1884 1 -7 3 9 0 134.60 110.76 23.59 o
1885 3 7 1 9 0 56.50 61.90 15.41 o
1885 2 -2 -4 9 0 56.50 61.90 15.41 o
1885 1 -5 3 9 0 56.50 61.90 15.41 o
1886 3 6 3 9 -4 35.16 20.87 7.31 <
1886 2 -3 -3 9 0 35.16 20.87 7.31 <
1886 1 -3 3 9 0 35.16 20.87 7.31 <
1887 3 5 -1 9 0 166.85 148.07 17.87 o
1887 2 -4 -2 9 0 166.85 148.07 17.87 o
1887 1 -1 3 9 0 166.85 148.07 17.87 o
1888 1 1 3 9 -4 0.79 3.46 2.03 <
1889 1 1 3 9 -3 1.44 0.31 1.01 <
1890 1 1 3 9 -2 0.66 1.17 1.11 <
1891 1 1 3 9 -1 3.42 5.07 2.41 <
1892 3 4 -2 9 0 148.21 133.77 13.29 o
1892 2 -5 -1 9 0 148.21 133.77 13.29 o
1892 1 1 3 9 0 148.21 133.77 13.29 o
1893 1 1 3 9 1 9.03 11.14 7.78 <
1894 1 1 3 9 2 1.11 13.89 11.23 <
1895 1 1 3 9 3 8.76 0.60 3.04 <
1896 1 3 3 9 -4 1.35 3.88 1.93 <
1897 1 3 3 9 -3 47.94 42.93 6.84 o
1898 1 3 3 9 -2 0.10 3.30 1.53 <
1899 1 3 3 9 -1 0.90 2.99 2.45 <
1900 3 3 -3 9 0 48.18 36.52 13.24 <
1900 2 -6 3 9 -4 48.18 36.52 13.24 <
1900 1 3 3 9 0 48.18 36.52 13.24 <
1901 1 3 3 9 1 0.01 2.17 1.66 <
1902 1 5 3 9 -3 39.68 39.35 8.82 o
1903 1 5 3 9 -2 18.40 12.00 3.68 o
1904 1 5 3 9 -1 6.43 7.83 3.23 <
1905 3 2 -4 9 0 52.40 58.00 11.96 o
1905 2 -7 1 9 0 52.40 58.00 11.96 o
1905 1 5 3 9 0 52.40 58.00 11.96 o
1906 1 5 3 9 1 9.63 3.24 5.85 <
1907 1 5 3 9 2 3.30 5.89 6.54 <
1908 1 7 3 9 -4 5.85 3.36 2.94 <
1909 1 7 3 9 -3 8.04 5.73 3.45 <
1910 1 7 3 9 -2 1.13 6.75 3.59 <
1911 1 7 3 9 -1 3.07 3.62 4.81 <
1912 1 7 3 9 1 4.29 9.55 8.56 <
1913 3 9 1 9 0 593.32 577.05 57.82 o
1913 2 -3 -5 9 0 593.32 577.05 57.82 o
1913 1 -6 4 9 0 593.32 577.05 57.82 o
1914 3 8 3 9 -4 1.76 1.93 3.96 <
1914 2 -4 -4 9 0 1.76 1.93 3.96 <
1914 1 -4 4 9 0 1.76 1.93 3.96 <
1915 3 7 -1 9 0 47.99 56.03 17.20 o
1915 2 -5 -3 9 0 47.99 56.03 17.20 o
1915 1 -2 4 9 0 47.99 56.03 17.20 o
1916 1 0 4 9 -2 0.44 4.07 2.26 <
1917 1 2 4 9 -3 1.89 2.52 1.14 <
1918 1 2 4 9 -2 10.74 7.53 2.82 <
1919 1 2 4 9 -1 3.20 3.94 2.42 <
1920 3 5 -3 9 0 52.44 51.50 12.30 o
1920 2 -7 -1 9 0 52.44 51.50 12.30 o
1920 1 2 4 9 0 52.44 51.50 12.30 o
1921 1 2 4 9 1 18.28 11.63 7.33 <
1922 1 4 4 9 -3 0.11 6.94 5.96 <
1923 1 4 4 9 -2 0.24 -1.20 1.90 <
1924 1 4 4 9 -1 6.24 3.81 2.15 <
1925 3 4 -4 9 0 2.41 9.05 8.24 <
1925 2 -8 3 9 -4 2.41 9.05 8.24 <
1925 1 4 4 9 0 2.41 9.05 8.24 <
1926 1 4 4 9 1 20.54 14.37 7.75 <
1927 1 6 4 9 -3 3.02 11.29 5.59 <
1928 1 6 4 9 -2 0.72 3.45 2.71 <
1929 1 6 4 9 -1 4.68 5.65 3.57 <
1930 1 8 4 9 -3 64.53 38.43 9.35 o
1931 1 1 5 9 -3 1.03 4.24 2.64 <
1932 1 1 5 9 -2 1.65 4.29 2.22 <
1933 1 1 5 9 -1 8.68 5.75 5.43 <
1934 3 7 -3 9 0 123.42 94.48 22.27 o
1934 2 -8 -2 9 0 123.42 94.48 22.27 o
1934 1 1 5 9 0 123.42 94.48 22.27 o
1935 1 3 5 9 -3 4.97 9.55 4.75 <
1936 1 3 5 9 -2 2.77 6.75 3.72 <
1937 1 3 5 9 -1 5.13 3.47 3.71 <
1938 1 5 5 9 -3 12.08 8.46 3.53 <
1939 1 5 5 9 -2 11.41 6.74 3.75 <
1940 1 7 5 9 -3 7.01 7.85 2.76 <
1941 1 7 5 9 -2 4.56 11.48 8.14 <
1942 1 0 6 9 -2 9.40 15.48 7.33 <
1943 1 2 6 9 -3 4.35 -1.73 1.78 <
1944 1 2 6 9 -2 1.77 3.79 3.07 <
1945 1 4 6 9 -3 2.48 8.66 5.16 <
1946 1 4 6 9 -2 0.43 1.60 2.98 <
1947 1 6 6 9 -3 17.77 34.24 7.26 o
1948 1 1 7 9 -3 0.46 1.84 4.32 <
1949 1 0 0 10 2 112.16 99.61 13.26 o
1950 1 0 0 10 4 8.84 9.18 3.83 <
1951 3 -1 -1 10 0 12.77 18.44 8.16 <
1951 2 -1 1 10 0 12.77 18.44 8.16 <
1951 1 2 0 10 0 12.77 18.44 8.16 <
1952 1 2 0 10 1 182.49 177.38 8.96 o
1953 1 2 0 10 2 93.03 92.57 12.13 o
1954 1 2 0 10 3 1.83 1.15 2.85 <
1955 1 2 0 10 4 8.08 5.87 4.23 <
1956 3 -2 -2 10 0 166.92 163.28 11.94 o
1956 2 -2 2 10 0 166.92 163.28 11.94 o
1956 1 4 0 10 0 166.92 163.28 11.94 o
1957 1 4 0 10 1 12.76 11.94 2.78 o
1958 1 4 0 10 2 2.13 4.92 2.32 <
1959 1 4 0 10 3 4.26 8.71 2.73 o
1960 1 4 0 10 4 11.93 14.06 4.67 o
1961 3 -3 -3 10 0 1468.24 1439.64 82.27 o
1961 2 -3 3 10 0 1468.24 1439.64 82.27 o
1961 1 6 0 10 0 1468.24 1439.64 82.27 o
1962 1 6 0 10 1 92.74 103.50 23.16 o
1963 1 6 0 10 2 71.22 86.72 11.94 o
1964 1 6 0 10 3 4.62 2.70 2.47 <
1965 1 6 0 10 4 0.03 -5.07 4.45 <
1966 1 8 0 10 1 34.62 60.37 13.94 o
1967 3 3 1 10 0 830.99 881.73 36.66 o
1967 2 0 -2 10 0 830.99 881.73 36.66 o
1967 1 -3 1 10 0 830.99 881.73 36.66 o
1968 3 2 0 10 0 12.78 22.54 4.86 o
1968 2 -1 -1 10 0 12.78 22.54 4.86 o
1968 1 -1 1 10 0 12.78 22.54 4.86 o
1969 1 1 1 10 -4 0.12 -2.10 2.26 <
1970 1 1 1 10 -3 0.58 1.66 1.56 <
1971 1 1 1 10 -2 12.37 11.52 3.54 o
1972 1 1 1 10 -1 38.17 24.84 3.97 o
1973 3 1 -1 10 0 13.68 22.00 4.37 o
1973 2 -2 0 10 0 13.68 22.00 4.37 o
1973 1 1 1 10 0 13.68 22.00 4.37 o
1974 1 1 1 10 1 171.57 170.67 10.88 o
1975 1 1 1 10 3 4.88 4.54 2.24 <
1976 1 1 1 10 4 6.78 9.91 7.05 <
1977 1 3 1 10 -4 5.30 3.15 1.64 <
1978 1 3 1 10 -3 1.34 2.53 2.43 <
1979 1 3 1 10 -2 88.08 76.30 6.56 o
1980 1 3 1 10 -1 83.25 96.70 8.81 o
1981 3 0 -2 10 0 825.94 823.27 56.83 o
1981 2 -3 1 10 0 825.94 823.27 56.83 o
1981 1 3 1 10 0 825.94 823.27 56.83 o
1982 1 3 1 10 1 29.44 26.71 3.46 o
1983 1 3 1 10 2 93.47 80.48 10.41 o
1984 1 3 1 10 3 22.05 19.40 5.21 o
1985 1 3 1 10 4 10.94 5.66 3.92 <
1986 1 5 1 10 -4 12.43 14.13 4.03 o
1987 1 5 1 10 -3 1.67 1.81 1.68 <
1988 1 5 1 10 -2 134.85 136.28 12.08 o
1989 1 5 1 10 -1 83.62 92.54 9.11 o
1990 1 5 1 10 1 121.56 109.65 8.41 o
1991 1 5 1 10 2 161.80 154.22 15.93 o
1992 1 5 1 10 3 1.56 1.24 1.56 <
1993 1 7 1 10 -4 15.51 22.10 7.53 <
1994 1 7 1 10 -3 8.49 11.18 3.98 <
1995 1 7 1 10 -2 4.76 13.23 5.59 <
1996 1 7 1 10 -1 18.26 21.87 6.49 o
1997 3 -2 -4 10 0 5.83 4.08 4.12 <
1997 2 -5 3 10 0 5.83 4.08 4.12 <
1997 1 7 1 10 0 5.83 4.08 4.12 <
1998 1 7 1 10 1 0.51 5.38 3.62 <
1999 3 7 3 10 0 162.83 135.47 27.08 o
1999 2 1 -5 10 0 162.83 135.47 27.08 o
1999 1 -8 2 10 0 162.83 135.47 27.08 o
2000 3 6 2 10 0 141.31 171.92 26.92 o
2000 2 0 -4 10 0 141.31 171.92 26.92 o
2000 1 -6 2 10 0 141.31 171.92 26.92 o
2001 3 5 1 10 0 54.47 57.51 8.31 o
2001 2 -1 -3 10 0 54.47 57.51 8.31 o
2001 1 -4 2 10 0 54.47 57.51 8.31 o
2002 3 4 0 10 0 167.20 164.08 14.08 o
2002 2 -2 -2 10 0 167.20 164.08 14.08 o
2002 1 -2 2 10 0 167.20 164.08 14.08 o
2003 1 0 2 10 -4 5.41 4.45 1.91 <
2004 1 0 2 10 -2 25.30 13.75 3.20 o
2005 3 3 -1 10 0 826.56 872.88 33.13 o
2005 2 -3 -1 10 0 826.56 872.88 33.13 o
2005 1 0 2 10 0 826.56 872.88 33.13 o
2006 1 0 2 10 2 76.54 62.78 9.72 o
2007 1 2 2 10 -4 12.57 12.62 2.99 o
2008 1 2 2 10 -3 8.19 7.11 2.08 o
2009 1 2 2 10 -2 61.40 54.09 5.93 o
2010 1 2 2 10 -1 52.92 51.98 6.14 o
2011 3 2 -2 10 0 163.32 188.43 25.04 o
2011 2 -4 0 10 0 163.32 188.43 25.04 o
2011 1 2 2 10 0 163.32 188.43 25.04 o
2012 1 2 2 10 1 233.58 192.95 20.82 o
2013 1 2 2 10 2 69.89 56.05 16.43 o
2014 1 2 2 10 3 11.11 20.26 8.56 <
2015 1 4 2 10 -4 0.34 -0.23 1.15 <
2016 1 4 2 10 -3 0.31 1.37 1.92 <
2017 1 4 2 10 -2 0.66 -0.08 4.10 <
2018 1 4 2 10 -1 11.54 10.20 2.99 o
2019 3 1 -3 10 0 44.31 33.47 11.95 <
2019 2 -5 1 10 0 44.31 33.47 11.95 <
2019 1 4 2 10 0 44.31 33.47 11.95 <
2020 1 4 2 10 1 65.22 55.39 9.76 o
2021 1 4 2 10 2 0.04 -2.94 3.69 <
2022 1 6 2 10 -2 32.51 24.16 5.96 o
2023 1 6 2 10 -1 158.72 175.43 14.77 o
2024 3 0 -4 10 0 189.77 209.99 18.83 o
2024 2 -6 2 10 0 189.77 209.99 18.83 o
2024 1 6 2 10 0 189.77 209.99 18.83 o
2025 1 6 2 10 1 27.22 32.28 9.41 o
2026 1 8 2 10 -3 26.60 30.24 9.46 o
2027 1 8 2 10 -2 69.22 72.44 14.72 o
2028 3 7 1 10 0 12.54 13.55 4.61 <
2028 2 -2 -4 10 0 12.54 13.55 4.61 <
2028 1 -5 3 10 0 12.54 13.55 4.61 <
2029 3 6 0 10 0 1471.43 1526.90 58.40 o
2029 2 -3 -3 10 0 1471.43 1526.90 58.40 o
2029 1 -3 3 10 0 1471.43 1526.90 58.40 o
2030 3 5 -1 10 0 60.19 53.40 8.80 o
2030 2 -4 -2 10 0 60.19 53.40 8.80 o
2030 1 -1 3 10 0 60.19 53.40 8.80 o
2031 1 1 3 10 -4 0.00 0.75 1.58 <
2032 1 1 3 10 -3 23.09 15.75 3.17 o
2033 1 1 3 10 -2 1.08 0.29 1.13 <
2034 1 1 3 10 -1 0.15 2.49 2.27 <
2035 3 4 -2 10 0 44.46 47.73 10.27 o
2035 2 -5 -1 10 0 44.46 47.73 10.27 o
2035 1 1 3 10 0 44.46 47.73 10.27 o
2036 1 1 3 10 1 208.80 194.85 21.51 o
2037 1 1 3 10 2 6.40 8.39 5.76 <
2038 1 3 3 10 -4 0.00 0.09 2.18 <
2039 1 3 3 10 -3 3.32 4.24 2.71 <
2040 1 3 3 10 -2 3.44 1.43 1.49 <
2041 1 3 3 10 -1 87.28 90.81 11.66 o
2042 3 3 -3 10 0 1395.37 1375.57 58.61 o
2042 2 -6 0 10 0 1395.37 1375.57 58.61 o
2042 1 3 3 10 0 1395.37 1375.57 58.61 o
2043 1 3 3 10 1 6.45 15.44 8.57 <
2044 1 3 3 10 2 39.46 43.70 15.54 <
2045 1 5 3 10 -4 0.00 3.20 2.61 <
2046 1 5 3 10 -3 0.73 1.56 2.53 <
2047 1 5 3 10 -2 28.34 23.80 4.31 o
2048 1 5 3 10 -1 42.08 51.42 9.49 o
2049 3 2 -4 10 0 12.46 11.96 5.33 <
2049 2 -7 1 10 0 12.46 11.96 5.33 <
2049 1 5 3 10 0 12.46 11.96 5.33 <
2050 1 7 3 10 -3 0.01 2.58 2.31 <
2051 1 7 3 10 -2 3.68 0.85 2.99 <
2052 1 0 4 10 -2 4.91 9.08 3.75 <
2053 1 2 4 10 -3 1.69 1.90 1.69 <
2054 1 2 4 10 -1 6.71 14.07 5.21 <
2055 3 5 -3 10 0 12.46 14.64 5.33 <
2055 2 -7 -1 10 0 12.46 14.64 5.33 <
2055 1 2 4 10 0 12.46 14.64 5.33 <
2056 1 4 4 10 -3 0.47 0.50 2.11 <
2057 1 4 4 10 -2 4.15 1.74 3.64 <
2058 1 4 4 10 -1 34.54 38.52 8.20 o
2059 3 4 -4 10 0 159.93 162.12 32.53 o
2059 2 -8 0 10 0 159.93 162.12 32.53 o
2059 1 4 4 10 0 159.93 162.12 32.53 o
2060 1 6 4 10 -3 23.99 22.80 4.19 o
2061 1 6 4 10 -2 3.42 3.87 6.27 <
2062 1 6 4 10 -1 136.94 131.59 19.81 o
2063 1 8 4 10 -3 16.93 23.54 11.66 <
2064 1 1 5 10 -3 0.67 5.60 4.98 <
2065 1 1 5 10 -2 6.03 7.27 2.99 <
2066 1 1 5 10 -1 2.84 1.19 4.52 <
2067 1 3 5 10 -3 0.05 -0.50 2.07 <
2068 1 3 5 10 -2 23.63 31.56 6.42 o
2069 1 3 5 10 -1 45.30 51.07 10.18 o
2070 1 5 5 10 -3 5.91 5.50 2.95 <
2071 1 5 5 10 -2 0.46 8.08 4.45 <
2072 1 7 5 10 -3 8.92 8.56 4.91 <
2073 1 0 6 10 -2 58.64 65.30 14.17 o
2074 1 2 6 10 -3 0.91 0.51 3.34 <
2075 1 2 6 10 -2 14.18 12.34 5.41 <
2076 1 0 0 11 2 13.36 10.33 4.26 <
2077 1 0 0 11 4 0.92 -2.10 4.19 <
2078 1 2 0 11 1 0.18 3.05 2.55 <
2079 1 2 0 11 2 1.48 3.24 2.75 <
2080 1 2 0 11 3 8.95 14.50 5.78 <
2081 1 2 0 11 4 9.78 18.88 11.80 <
2082 1 4 0 11 1 0.71 1.07 1.42 <
2083 1 4 0 11 2 2.92 6.83 3.67 <
2084 1 4 0 11 3 13.11 5.04 1.97 <
2085 1 6 0 11 1 6.90 3.55 2.01 <
2086 1 6 0 11 2 0.26 6.32 4.17 <
2087 1 6 0 11 3 1.85 -1.43 2.49 <
2088 3 5 3 11 0 19.12 18.33 5.38 o
2088 2 2 -4 11 0 19.12 18.33 5.38 o
2088 1 -7 1 11 0 19.12 18.33 5.38 o
2089 3 4 2 11 0 11.02 11.36 3.87 <
2089 2 1 -3 11 0 11.02 11.36 3.87 <
2089 1 -5 1 11 0 11.02 11.36 3.87 <
2090 3 3 1 11 0 20.40 8.59 4.56 <
2090 2 0 -2 11 0 20.40 8.59 4.56 <
2090 1 -3 1 11 0 20.40 8.59 4.56 <
2091 1 1 1 11 -4 5.71 7.55 3.00 <
2092 1 1 1 11 -3 0.07 2.18 2.02 <
2093 1 1 1 11 -2 1.99 3.10 2.59 <
2094 1 1 1 11 -1 0.75 1.26 1.49 <
2095 3 1 -1 11 0 3.91 0.32 4.59 <
2095 2 -2 3 11 -4 3.91 0.32 4.59 <
2095 1 1 1 11 0 3.91 0.32 4.59 <
2096 1 1 1 11 1 0.62 2.95 1.80 <
2097 1 1 1 11 2 1.27 4.56 4.37 <
2098 1 1 1 11 4 4.44 6.23 4.03 <
2099 1 3 1 11 -4 3.40 4.49 2.04 <
2100 1 3 1 11 -3 5.84 4.13 3.20 <
2101 1 3 1 11 -2 2.28 5.83 2.71 <
2102 1 3 1 11 -1 1.32 0.90 2.17 <
2103 3 0 -2 11 0 15.74 13.85 4.14 o
2103 2 -3 1 11 0 15.74 13.85 4.14 o
2103 1 3 1 11 0 15.74 13.85 4.14 o
2104 1 3 1 11 1 1.65 -0.23 2.54 <
2105 1 3 1 11 2 8.98 9.07 2.93 o
2106 1 3 1 11 3 2.18 2.52 2.73 <
2107 1 3 1 11 4 16.85 15.82 6.67 <
2108 1 5 1 11 -4 51.92 61.57 7.61 o
2109 1 5 1 11 -3 10.55 0.13 2.99 <
2110 1 5 1 11 -1 0.52 0.40 2.62 <
2111 3 -1 -3 11 0 15.33 10.85 4.33 <
2111 2 -4 2 11 0 15.33 10.85 4.33 <
2111 1 5 1 11 0 15.33 10.85 4.33 <
2112 1 5 1 11 1 4.13 13.00 5.22 <
2113 1 5 1 11 2 0.54 0.94 0.88 <
2114 1 5 1 11 3 1.28 17.34 10.45 <
2115 1 5 1 11 4 51.17 39.64 14.61 <
2116 1 7 1 11 -4 10.22 3.41 7.60 <
2117 1 7 1 11 -3 27.25 18.21 7.51 <
2118 1 7 1 11 -2 0.84 1.27 2.63 <
2119 1 7 1 11 -1 2.62 13.72 8.74 <
2120 3 -2 -4 11 0 12.41 7.82 8.30 <
2120 2 -5 3 11 0 12.41 7.82 8.30 <
2120 1 7 1 11 0 12.41 7.82 8.30 <
2121 1 7 1 11 1 5.72 3.80 2.56 <
2122 1 7 1 11 2 22.48 23.24 10.72 <
2123 3 6 2 11 0 6.68 14.09 6.05 <
2123 2 0 -4 11 0 6.68 14.09 6.05 <
2123 1 -6 2 11 0 6.68 14.09 6.05 <
2124 3 5 1 11 0 11.03 11.44 5.20 <
2124 2 -1 -3 11 0 11.03 11.44 5.20 <
2124 1 -4 2 11 0 11.03 11.44 5.20 <
2125 3 4 3 11 -4 27.71 20.22 8.62 <
2125 2 -2 -2 11 0 27.71 20.22 8.62 <
2125 1 -2 2 11 0 27.71 20.22 8.62 <
2126 1 0 2 11 -4 0.33 0.44 1.06 <
2127 1 0 2 11 -2 0.03 1.75 2.74 <
2128 3 3 -1 11 0 15.72 4.27 3.53 <
2128 2 -3 -1 11 0 15.72 4.27 3.53 <
2128 1 0 2 11 0 15.72 4.27 3.53 <
2129 1 0 2 11 2 30.15 13.24 9.44 <
2130 1 2 2 11 -4 21.51 27.56 4.66 o
2131 1 2 2 11 -3 0.07 0.31 1.09 <
2132 1 2 2 11 -2 9.01 10.77 3.30 o
2133 1 2 2 11 -1 0.22 1.02 2.50 <
2134 3 2 -2 11 0 37.98 32.80 7.39 o
2134 2 -4 3 11 -4 37.98 32.80 7.39 o
2134 1 2 2 11 0 37.98 32.80 7.39 o
2135 1 2 2 11 1 2.16 5.69 3.02 <
2136 1 2 2 11 2 2.81 6.68 4.41 <
2137 1 2 2 11 3 15.50 11.92 5.44 <
2138 1 4 2 11 -4 4.07 5.73 2.47 <
2139 1 4 2 11 -3 29.70 26.20 5.94 o
2140 1 4 2 11 -2 0.58 2.57 1.90 <
2141 1 4 2 11 2 0.48 1.32 2.76 <
2142 1 6 2 11 -4 28.21 47.42 14.19 o
2143 1 6 2 11 -3 0.25 -1.90 2.28 <
2144 1 6 2 11 -2 2.11 -0.37 2.63 <
2145 1 6 2 11 -1 2.41 4.82 3.09 <
2146 3 0 -4 11 0 13.74 16.31 10.50 <
2146 2 -6 2 11 0 13.74 16.31 10.50 <
2146 1 6 2 11 0 13.74 16.31 10.50 <
2147 1 6 2 11 1 2.56 7.56 6.35 <
2148 1 6 2 11 2 2.04 0.55 5.52 <
2149 3 7 1 11 0 19.16 17.02 5.63 o
2149 2 -2 -4 11 0 19.16 17.02 5.63 o
2149 1 -5 3 11 0 19.16 17.02 5.63 o
2150 3 6 3 11 -4 2.79 -2.57 3.21 <
2150 2 -3 -3 11 0 2.79 -2.57 3.21 <
2150 1 -3 3 11 0 2.79 -2.57 3.21 <
2151 3 5 -1 11 0 15.38 19.42 6.53 <
2151 2 -4 -2 11 0 15.38 19.42 6.53 <
2151 1 -1 3 11 0 15.38 19.42 6.53 <
2152 1 1 3 11 -4 2.89 2.48 2.19 <
2153 1 1 3 11 -3 2.47 3.81 1.85 <
2154 1 1 3 11 -2 1.14 2.07 2.46 <
2155 1 1 3 11 -1 0.31 -2.92 2.33 <
2156 3 4 -2 11 0 18.01 18.83 5.87 o
2156 2 -5 -1 11 0 18.01 18.83 5.87 o
2156 1 1 3 11 0 18.01 18.83 5.87 o
2157 1 3 3 11 -3 1.42 2.75 1.78 <
2158 1 3 3 11 -2 0.27 4.50 3.41 <
2159 1 3 3 11 -1 0.09 -2.13 2.25 <
2160 3 3 -3 11 0 3.82 8.45 5.09 <
2160 2 -6 3 11 -4 3.82 8.45 5.09 <
2160 1 3 3 11 0 3.82 8.45 5.09 <
2161 1 3 3 11 1 0.01 3.27 3.48 <
2162 1 5 3 11 -4 19.14 27.46 9.01 o
2163 1 5 3 11 -3 7.90 3.97 2.52 <
2164 1 5 3 11 -2 12.15 4.34 3.75 <
2165 1 5 3 11 -1 0.01 1.89 1.86 <
2166 3 2 -4 11 0 18.02 19.04 7.74 <
2166 2 -7 1 11 0 18.02 19.04 7.74 <
2166 1 5 3 11 0 18.02 19.04 7.74 <
2167 1 5 3 11 1 10.23 26.19 12.89 <
2168 1 7 3 11 -3 29.14 18.40 7.12 <
2169 1 7 3 11 -2 2.84 3.61 3.20 <
2170 1 7 3 11 -1 4.80 8.12 7.84 <
2171 1 0 4 11 -2 0.16 1.73 1.96 <
2172 1 2 4 11 -3 11.26 7.37 5.23 <
2173 1 2 4 11 -2 0.79 3.46 2.63 <
2174 1 2 4 11 -1 0.02 -1.31 2.25 <
2175 3 5 -3 11 0 18.00 37.39 15.69 <
2175 2 -7 -1 11 0 18.00 37.39 15.69 <
2175 1 2 4 11 0 18.00 37.39 15.69 <
2176 1 4 4 11 -3 6.80 10.33 3.11 o
2177 1 4 4 11 -2 2.33 0.02 1.29 <
2178 1 4 4 11 -1 5.42 7.34 4.54 <
2179 1 6 4 11 -3 0.74 1.90 2.12 <
2180 1 1 5 11 -3 0.01 2.82 3.07 <
2181 1 1 5 11 -2 0.04 2.15 2.78 <
2182 1 1 5 11 -1 2.26 7.32 4.40 <
2183 1 3 5 11 -3 0.07 1.99 2.79 <
2184 1 3 5 11 -2 0.94 3.63 3.44 <
2185 1 3 5 11 -1 1.82 -3.67 4.38 <
2186 1 0 6 11 -2 5.38 0.82 2.47 <
2187 1 2 6 11 -3 10.61 8.74 5.43 <
2188 1 4 6 11 -3 2.05 10.23 7.52 <
2189 1 0 0 12 2 51.56 62.10 15.61 o
2190 1 0 0 12 4 91.98 88.34 14.59 o
2191 3 -1 -1 12 0 6333.69 6395.42 86.74 o
2191 2 -1 1 12 0 6333.69 6395.42 86.74 o
2191 1 2 0 12 0 6333.69 6395.42 86.74 o
2192 1 2 0 12 1 134.94 161.25 13.08 o
2193 1 2 0 12 2 46.66 44.51 14.48 o
2194 1 2 0 12 3 8.46 12.99 6.06 <
2195 1 2 0 12 4 27.30 27.50 8.08 o
2196 1 4 0 12 1 5.34 8.58 3.68 <
2197 1 4 0 12 2 25.61 21.03 8.82 <
2198 1 4 0 12 3 0.28 -0.32 2.15 <
2199 1 4 0 12 4 2.33 4.11 2.64 <
2200 3 -3 -3 12 0 3013.36 3075.44 124.41 o
2200 2 -3 3 12 0 3013.36 3075.44 124.41 o
2200 1 6 0 12 0 3013.36 3075.44 124.41 o
2201 1 6 0 12 1 8.87 10.21 8.21 <
2202 1 6 0 12 2 46.24 61.02 13.88 o
2203 1 6 0 12 3 2.51 0.68 3.40 <
2204 3 5 3 12 0 2023.73 2050.78 106.31 o
2204 2 2 -4 12 0 2023.73 2050.78 106.31 o
2204 1 -7 1 12 0 2023.73 2050.78 106.31 o
2205 3 4 2 12 0 4909.91 4895.03 93.15 o
2205 2 1 -3 12 0 4909.91 4895.03 93.15 o
2205 1 -5 1 12 0 4909.91 4895.03 93.15 o
2206 3 2 0 12 0 6335.63 6187.29 179.83 o
2206 2 -1 -1 12 0 6335.63 6187.29 179.83 o
2206 1 -1 1 12 0 6335.63 6187.29 179.83 o
2207 1 1 1 12 -4 1.58 -0.75 2.22 <
2208 1 1 1 12 -3 0.79 9.39 4.74 <
2209 1 1 1 12 -2 2.10 4.61 2.14 <
2210 1 1 1 12 -1 34.55 40.61 7.69 o
2211 3 1 -1 12 0 6561.69 6327.38 102.19 o
2211 2 -2 0 12 0 6561.69 6327.38 102.19 o
2211 1 1 1 12 0 6561.69 6327.38 102.19 o
2212 1 1 1 12 1 102.55 117.24 11.60 o
2213 1 1 1 12 2 0.12 2.89 2.51 <
2214 1 1 1 12 3 19.17 13.88 7.32 <
2215 1 1 1 12 4 7.53 12.68 11.57 <
2216 1 3 1 12 -4 22.42 21.71 9.76 <
2217 1 3 1 12 -3 0.69 0.16 1.77 <
2218 1 3 1 12 -2 61.36 66.67 12.11 o
2219 1 3 1 12 -1 17.01 24.42 6.82 o
2220 3 0 -2 12 0 198.51 206.62 21.55 o
2220 2 -3 1 12 0 198.51 206.62 21.55 o
2220 1 3 1 12 0 198.51 206.62 21.55 o
2221 1 3 1 12 1 2.37 3.23 2.10 <
2222 1 3 1 12 2 53.42 63.88 7.31 o
2223 1 3 1 12 3 2.38 14.95 6.84 <
2224 1 5 1 12 -4 11.53 12.87 5.79 <
2225 1 5 1 12 -3 58.37 70.88 8.65 o
2226 1 5 1 12 -2 132.13 131.24 27.07 o
2227 1 5 1 12 -1 104.47 124.42 17.66 o
2228 3 -1 -3 12 0 4752.37 4505.39 107.75 o
2228 2 -4 2 12 0 4752.37 4505.39 107.75 o
2228 1 5 1 12 0 4752.37 4505.39 107.75 o
2229 1 5 1 12 1 99.29 113.49 18.71 o
2230 1 5 1 12 2 102.91 117.56 15.53 o
2231 1 7 1 12 -3 3.01 44.10 10.39 o
2232 1 7 1 12 -2 18.06 15.28 8.55 <
2233 1 7 1 12 -1 14.65 10.34 8.04 <
2234 1 7 1 12 1 0.33 0.03 4.76 <
2235 3 6 2 12 0 2.51 10.88 7.26 <
2235 2 0 -4 12 0 2.51 10.88 7.26 <
2235 1 -6 2 12 0 2.51 10.88 7.26 <
2236 3 5 1 12 0 4913.75 4703.88 153.74 o
2236 2 -1 -3 12 0 4913.75 4703.88 153.74 o
2236 1 -4 2 12 0 4913.75 4703.88 153.74 o
2237 3 4 0 12 0 6495.63 6354.33 166.18 o
2237 2 -2 -2 12 0 6495.63 6354.33 166.18 o
2237 1 -2 2 12 0 6495.63 6354.33 166.18 o
2238 1 0 2 12 -4 16.45 15.17 8.14 <
2239 1 0 2 12 -2 45.54 39.58 11.84 o
2240 3 3 -1 12 0 198.64 222.00 31.55 o
2240 2 -3 -1 12 0 198.64 222.00 31.55 o
2240 1 0 2 12 0 198.64 222.00 31.55 o
2241 1 0 2 12 2 19.31 17.26 5.71 o
2242 1 2 2 12 -4 7.18 11.15 3.45 o
2243 1 2 2 12 -3 0.06 15.92 4.86 o
2244 1 2 2 12 -2 56.15 59.59 9.56 o
2245 1 2 2 12 -1 62.34 72.71 9.81 o
2246 3 2 -2 12 0 6437.83 6193.05 75.46 o
2246 2 -4 0 12 0 6437.83 6193.05 75.46 o
2246 1 2 2 12 0 6437.83 6193.05 75.46 o
2247 1 2 2 12 1 196.95 227.43 24.73 o
2248 1 2 2 12 2 23.90 23.19 5.86 o
2249 1 4 2 12 -4 0.62 -1.63 1.84 <
2250 1 4 2 12 -3 29.25 34.89 14.17 <
2251 1 4 2 12 -2 2.30 1.26 2.48 <
2252 1 4 2 12 -1 4.77 5.50 2.56 <
2253 3 1 -3 12 0 5151.67 4819.43 113.14 o
2253 2 -5 1 12 0 5151.67 4819.43 113.14 o
2253 1 4 2 12 0 5151.67 4819.43 113.14 o
2254 1 4 2 12 1 46.26 44.23 8.11 o
2255 1 6 2 12 -4 3.54 7.63 4.19 <
2256 1 6 2 12 -3 59.92 75.02 11.73 o
2257 1 6 2 12 -2 47.88 56.21 16.52 o
2258 1 6 2 12 -1 47.25 82.39 11.00 o
2259 3 0 -4 12 0 4.40 16.57 6.69 <
2259 2 -6 2 12 0 4.40 16.57 6.69 <
2259 1 6 2 12 0 4.40 16.57 6.69 <
2260 3 7 1 12 0 2024.69 1914.33 99.65 o
2260 2 -2 -4 12 0 2024.69 1914.33 99.65 o
2260 1 -5 3 12 0 2024.69 1914.33 99.65 o
2261 3 6 0 12 0 3017.89 2915.46 84.21 o
2261 2 -3 -3 12 0 3017.89 2915.46 84.21 o
2261 1 -3 3 12 0 3017.89 2915.46 84.21 o
2262 3 5 -1 12 0 4758.22 4872.20 161.35 o
2262 2 -4 -2 12 0 4758.22 4872.20 161.35 o
2262 1 -1 3 12 0 4758.22 4872.20 161.35 o
2263 1 1 3 12 -4 0.00 -0.35 2.62 <
2264 1 1 3 12 -3 37.25 40.02 5.49 o
2265 1 1 3 12 -2 2.13 4.43 2.87 <
2266 1 1 3 12 -1 3.56 8.49 4.85 <
2267 3 4 -2 12 0 5154.00 4587.69 154.65 o
2267 2 -5 -1 12 0 5154.00 4587.69 154.65 o
2267 1 1 3 12 0 5154.00 4587.69 154.65 o
2268 1 3 3 12 -4 0.00 3.39 2.92 <
2269 1 3 3 12 -3 6.96 6.17 2.53 <
2270 1 3 3 12 -2 19.71 22.58 4.41 o
2271 1 3 3 12 -1 32.72 58.42 10.40 o
2272 1 3 3 12 1 0.14 9.95 4.66 <
2273 1 5 3 12 -4 0.00 3.56 5.77 <
2274 1 5 3 12 -3 13.36 25.67 4.81 o
2275 1 5 3 12 -2 65.25 66.13 13.29 o
2276 1 5 3 12 -1 61.33 84.36 9.85 o
2277 1 7 3 12 -4 0.00 3.56 4.97 <
2278 1 7 3 12 -3 18.56 64.91 23.48 <
2279 1 7 3 12 -2 0.84 -17.25 10.90 <
2280 3 7 -1 12 0 2105.13 2012.82 114.53 o
2280 2 -5 -3 12 0 2105.13 2012.82 114.53 o
2280 1 -2 4 12 0 2105.13 2012.82 114.53 o
2281 1 0 4 12 -2 6.87 5.17 4.33 <
2282 3 6 -2 12 0 4.40 6.63 6.09 <
2282 2 -6 -2 12 0 4.40 6.63 6.09 <
2282 1 0 4 12 0 4.40 6.63 6.09 <
2283 1 2 4 12 -3 0.03 5.87 4.03 <
2284 1 2 4 12 -2 15.87 18.81 5.22 o
2285 1 2 4 12 -1 39.74 62.33 17.61 o
2286 1 4 4 12 -3 36.42 27.74 8.66 o
2287 1 4 4 12 -2 0.28 3.98 3.57 <
2288 1 4 4 12 -1 9.11 13.69 8.87 <
2289 1 6 4 12 -2 28.14 26.19 10.89 <
2290 1 1 5 12 -3 31.00 27.70 7.05 o
2291 1 1 5 12 -2 4.00 13.24 6.18 <
2292 1 3 5 12 -3 8.40 15.60 4.70 o
2293 1 3 5 12 -2 2.97 8.18 4.03 <
2294 1 5 5 12 -3 6.57 5.52 4.21 <
2295 1 2 6 12 -3 1.88 9.72 6.03 <
2296 1 0 0 13 2 0.26 5.65 4.61 <
2297 1 0 0 13 4 9.60 16.31 10.99 <
2298 1 2 0 13 1 1.61 6.19 3.17 <
2299 1 2 0 13 3 0.08 2.54 2.84 <
2300 1 2 0 13 4 7.74 19.93 10.50 <
2301 1 4 0 13 1 3.10 7.86 8.51 <
2302 1 4 0 13 3 22.60 17.12 4.89 o
2303 1 4 0 13 4 2.30 14.44 8.97 <
2304 1 6 0 13 3 1.80 17.40 11.41 <
2305 3 4 2 13 0 62.26 57.33 19.21 <
2305 2 1 -3 13 0 62.26 57.33 19.21 <
2305 1 -5 1 13 0 62.26 57.33 19.21 <
2306 3 3 1 13 0 1151.31 1260.02 73.85 o
2306 2 0 -2 13 0 1151.31 1260.02 73.85 o
2306 1 -3 1 13 0 1151.31 1260.02 73.85 o
2307 3 2 3 13 -4 6.91 14.83 10.54 <
2307 2 -1 -1 13 0 6.91 14.83 10.54 <
2307 1 -1 1 13 0 6.91 14.83 10.54 <
2308 1 1 1 13 -4 11.67 11.27 4.41 <
2309 1 1 1 13 -3 6.51 2.71 4.03 <
2310 1 1 1 13 -2 0.67 -1.29 1.46 <
2311 1 1 1 13 -1 1.03 1.13 2.18 <
2312 3 1 -1 13 0 9.47 17.20 10.32 <
2312 2 -2 3 13 -4 9.47 17.20 10.32 <
2312 1 1 1 13 0 9.47 17.20 10.32 <
2313 1 1 1 13 1 1.08 -4.46 5.96 <
2314 1 1 1 13 2 4.01 0.08 2.26 <
2315 1 1 1 13 3 0.04 7.27 3.90 <
2316 1 1 1 13 4 0.12 3.03 6.33 <
2317 1 3 1 13 -4 7.75 9.83 5.28 <
2318 1 3 1 13 -3 9.70 8.98 4.14 <
2319 1 3 1 13 -2 2.25 5.73 3.05 <
2320 1 3 1 13 -1 1.80 3.84 2.26 <
2321 3 0 -2 13 0 1110.21 1127.97 78.07 o
2321 2 -3 1 13 0 1110.21 1127.97 78.07 o
2321 1 3 1 13 0 1110.21 1127.97 78.07 o
2322 1 3 1 13 1 1.84 9.14 8.23 <
2323 1 3 1 13 2 0.14 -0.32 2.78 <
2324 1 5 1 13 -4 8.72 -3.87 5.44 <
2325 1 5 1 13 -3 0.00 8.27 4.17 <
2326 1 5 1 13 -2 1.54 9.22 5.17 <
2327 1 5 1 13 -1 4.84 9.37 5.12 <
2328 3 -1 -3 13 0 82.49 73.88 20.23 o
2328 2 -4 2 13 0 82.49 73.88 20.23 o
2328 1 5 1 13 0 82.49 73.88 20.23 o
2329 1 5 1 13 1 6.05 5.59 4.12 <
2330 1 7 1 13 -1 6.40 9.21 7.85 <
2331 3 4 3 13 -4 3.65 8.58 8.16 <
2331 2 -2 -2 13 0 3.65 8.58 8.16 <
2331 1 -2 2 13 0 3.65 8.58 8.16 <
2332 1 0 2 13 -4 1.72 3.36 2.52 <
2333 1 0 2 13 -2 3.02 -0.78 4.08 <
2334 3 3 -1 13 0 1110.68 1187.80 45.38 o
2334 2 -3 -1 13 0 1110.68 1187.80 45.38 o
2334 1 0 2 13 0 1110.68 1187.80 45.38 o
2335 1 0 2 13 2 4.40 6.33 5.28 <
2336 1 2 2 13 -3 0.52 5.60 2.26 <
2337 1 2 2 13 -2 0.05 -1.21 1.73 <
2338 1 2 2 13 -1 0.34 1.40 2.33 <
2339 3 2 -2 13 0 5.00 5.60 4.37 <
2339 2 -4 3 13 -4 5.00 5.60 4.37 <
2339 1 2 2 13 0 5.00 5.60 4.37 <
2340 1 2 2 13 1 5.50 5.52 5.85 <
2341 1 2 2 13 2 1.47 6.66 3.46 <
2342 1 4 2 13 -4 6.90 8.37 3.73 <
2343 1 4 2 13 -3 20.36 7.73 4.99 <
2344 1 4 2 13 -2 6.49 2.44 3.06 <
2345 1 4 2 13 -1 3.90 6.38 2.85 <
2346 3 1 -3 13 0 93.41 78.12 19.87 o
2346 2 -5 1 13 0 93.41 78.12 19.87 o
2346 1 4 2 13 0 93.41 78.12 19.87 o
2347 1 4 2 13 1 7.23 2.04 4.27 <
2348 1 6 2 13 -4 32.78 32.07 9.53 o
2349 1 6 2 13 -3 3.71 4.53 2.73 <
2350 1 6 2 13 -2 6.62 4.82 3.71 <
2351 1 6 2 13 -1 3.05 2.91 4.95 <
2352 3 0 -4 13 0 636.93 667.85 60.90 o
2352 2 -6 2 13 0 636.93 667.85 60.90 o
2352 1 6 2 13 0 636.93 667.85 60.90 o
2353 3 6 3 13 -4 8.01 3.35 2.39 <
2353 2 -3 -3 13 0 8.01 3.35 2.39 <
2353 1 -3 3 13 0 8.01 3.35 2.39 <
2354 3 5 -1 13 0 82.74 90.28 21.99 o
2354 2 -4 -2 13 0 82.74 90.28 21.99 o
2354 1 -1 3 13 0 82.74 90.28 21.99 o
2355 1 1 3 13 -4 1.51 3.73 3.43 <
2356 1 1 3 13 -3 3.46 6.22 2.72 <
2357 1 1 3 13 -2 4.57 7.73 4.52 <
2358 1 1 3 13 -1 4.43 4.76 3.10 <
2359 3 4 -2 13 0 93.59 82.18 12.24 o
2359 2 -5 -1 13 0 93.59 82.18 12.24 o
2359 1 1 3 13 0 93.59 82.18 12.24 o
2360 1 3 3 13 -4 6.12 15.69 6.07 <
2361 1 3 3 13 -3 0.39 5.75 4.75 <
2362 1 3 3 13 -2 12.33 12.99 3.64 o
2363 1 3 3 13 -1 0.01 0.28 1.50 <
2364 3 3 -3 13 0 10.98 11.19 10.38 <
2364 2 -6 3 13 -4 10.98 11.19 10.38 <
2364 1 3 3 13 0 10.98 11.19 10.38 <
2365 1 5 3 13 -4 17.07 22.48 10.60 <
2366 1 5 3 13 -3 0.16 2.57 3.67 <
2367 1 5 3 13 -2 0.98 3.99 3.58 <
2368 1 5 3 13 -1 1.98 -4.02 5.26 <
2369 1 7 3 13 -3 31.48 32.75 14.03 <
2370 1 0 4 13 -2 2.64 1.78 3.08 <
2371 1 2 4 13 -3 0.14 -0.23 1.95 <
2372 1 2 4 13 -2 0.53 2.73 3.63 <
2373 1 2 4 13 -1 2.72 7.03 6.16 <
2374 1 4 4 13 -3 24.38 20.24 10.28 <
2375 1 4 4 13 -2 2.74 7.80 6.82 <
2376 1 1 5 13 -3 0.03 6.02 7.28 <
2377 1 1 5 13 -2 6.35 19.76 10.78 <
2378 1 3 5 13 -3 0.15 6.39 3.93 <
2379 1 5 5 13 -3 1.76 7.36 8.45 <
2380 3 0 0 14 0 670.60 813.14 45.70 o
2380 2 0 0 14 0 670.60 813.14 45.70 o
2380 1 0 0 14 0 670.60 813.14 45.70 o
2381 1 0 0 14 2 98.24 80.92 21.93 o
2382 1 0 0 14 4 3.22 2.15 4.18 <
2383 3 -1 -1 14 0 118.35 141.34 27.03 o
2383 2 -1 1 14 0 118.35 141.34 27.03 o
2383 1 2 0 14 0 118.35 141.34 27.03 o
2384 1 2 0 14 2 73.41 77.76 20.36 o
2385 1 2 0 14 3 1.13 4.58 3.14 <
2386 1 2 0 14 4 19.04 22.50 8.18 <
2387 1 4 0 14 1 5.21 11.63 5.13 <
2388 1 4 0 14 2 0.05 4.60 3.04 <
2389 1 4 0 14 3 17.05 21.68 11.82 <
2390 3 4 2 14 0 147.15 105.12 28.34 o
2390 2 1 -3 14 0 147.15 105.12 28.34 o
2390 1 -5 1 14 0 147.15 105.12 28.34 o
2391 3 2 0 14 0 118.46 144.96 14.50 o
2391 2 -1 -1 14 0 118.46 144.96 14.50 o
2391 1 -1 1 14 0 118.46 144.96 14.50 o
2392 1 1 1 14 -4 9.87 10.90 3.96 <
2393 1 1 1 14 -3 6.72 9.48 7.66 <
2394 1 1 1 14 -2 1.84 4.41 3.68 <
2395 1 1 1 14 -1 25.32 19.65 4.34 o
2396 3 1 -1 14 0 133.13 138.64 26.94 o
2396 2 -2 0 14 0 133.13 138.64 26.94 o
2396 1 1 1 14 0 133.13 138.64 26.94 o
2397 1 1 1 14 1 116.03 101.73 13.61 o
2398 1 1 1 14 2 1.76 6.96 5.56 <
2399 1 1 1 14 3 4.36 5.24 7.27 <
2400 1 3 1 14 -4 6.47 6.63 4.45 <
2401 1 3 1 14 -3 0.01 -9.00 8.11 <
2402 1 3 1 14 -2 54.27 49.34 9.22 o
2403 1 3 1 14 -1 47.97 71.54 18.40 o
2404 3 0 -2 14 0 291.21 317.56 43.33 o
2404 2 -3 1 14 0 291.21 317.56 43.33 o
2404 1 3 1 14 0 291.21 317.56 43.33 o
2405 1 3 1 14 1 19.10 24.82 13.05 <
2406 1 5 1 14 -3 3.04 7.89 5.62 <
2407 1 5 1 14 -2 76.06 93.93 24.63 o
2408 3 -1 -3 14 0 127.80 107.35 19.01 o
2408 2 -4 2 14 0 127.80 107.35 19.01 o
2408 1 5 1 14 0 127.80 107.35 19.01 o
2409 1 5 1 14 1 94.47 65.60 20.06 o
2410 3 4 0 14 0 143.37 173.99 21.00 o
2410 2 -2 -2 14 0 143.37 173.99 21.00 o
2410 1 -2 2 14 0 143.37 173.99 21.00 o
2411 1 0 2 14 -4 1.05 3.45 3.36 <
2412 1 0 2 14 -2 34.13 30.91 13.42 <
2413 3 3 -1 14 0 291.29 373.09 44.94 o
2413 2 -3 -1 14 0 291.29 373.09 44.94 o
2413 1 0 2 14 0 291.29 373.09 44.94 o
2414 1 2 2 14 -3 5.25 0.33 3.34 <
2415 1 2 2 14 -2 10.92 12.40 7.70 <
2416 1 2 2 14 -1 38.93 66.84 19.64 o
2417 1 2 2 14 1 158.60 150.35 28.30 o
2418 1 2 2 14 2 33.57 29.11 13.14 <
2419 1 4 2 14 -4 6.56 5.56 2.75 <
2420 1 4 2 14 -3 0.03 2.66 3.60 <
2421 1 4 2 14 -2 13.17 10.40 8.17 <
2422 1 4 2 14 -1 6.74 12.93 6.60 <
2423 3 1 -3 14 0 106.61 111.77 17.10 o
2423 2 -5 1 14 0 106.61 111.77 17.10 o
2423 1 4 2 14 0 106.61 111.77 17.10 o
2424 1 6 2 14 -3 8.66 11.93 9.90 <
2425 3 6 0 14 0 178.42 229.20 37.07 o
2425 2 -3 -3 14 0 178.42 229.20 37.07 o
2425 1 -3 3 14 0 178.42 229.20 37.07 o
2426 3 5 -1 14 0 127.83 150.54 20.73 o
2426 2 -4 -2 14 0 127.83 150.54 20.73 o
2426 1 -1 3 14 0 127.83 150.54 20.73 o
2427 1 1 3 14 -3 2.56 0.15 2.62 <
2428 1 1 3 14 -2 0.00 7.93 9.24 <
2429 1 1 3 14 -1 0.02 2.75 3.54 <
2430 3 4 -2 14 0 106.65 122.55 25.72 o
2430 2 -5 -1 14 0 106.65 122.55 25.72 o
2430 1 1 3 14 0 106.65 122.55 25.72 o
2431 1 3 3 14 -4 0.00 -1.77 2.17 <
2432 1 3 3 14 -3 4.44 6.60 4.95 <
2433 1 3 3 14 -2 12.39 11.16 4.22 <
2434 1 3 3 14 -1 55.36 81.13 13.35 o
2435 1 5 3 14 -4 0.00 6.22 8.25 <
2436 1 5 3 14 -3 2.54 4.49 4.98 <
2437 1 5 3 14 -2 25.07 21.12 12.10 <
2438 1 2 4 14 -3 12.44 3.82 5.80 <
2439 1 2 4 14 -2 0.02 9.34 6.08 <
2440 1 2 4 14 -1 7.38 21.24 9.75 <
2441 1 4 4 14 -3 2.44 1.57 4.77 <
2442 1 1 5 14 -3 0.25 -8.72 7.54 <
2443 1 0 0 15 2 0.54 2.99 3.26 <
2444 1 2 0 15 1 0.00 -2.75 3.33 <
2445 1 4 0 15 1 0.18 3.62 2.81 <
2446 3 2 3 15 -4 2.61 4.38 3.72 <
2446 2 -1 -1 15 0 2.61 4.38 3.72 <
2446 1 -1 1 15 0 2.61 4.38 3.72 <
2447 1 1 1 15 -4 1.21 -1.41 1.44 <
2448 1 1 1 15 -3 0.12 0.70 2.84 <
2449 1 1 1 15 -2 1.14 1.11 2.61 <
2450 1 1 1 15 -1 0.38 0.39 4.08 <
2451 1 1 1 15 1 0.18 -6.39 7.72 <
2452 1 3 1 15 -4 19.49 25.36 8.93 <
2453 1 3 1 15 -3 10.55 2.97 5.30 <
2454 1 3 1 15 -2 2.57 2.11 2.89 <
2455 1 3 1 15 -1 0.04 0.60 1.46 <
2456 1 0 2 15 -4 1.70 3.55 4.13 <
2457 1 0 2 15 -2 0.15 2.04 3.16 <
2458 1 2 2 15 -4 0.05 -0.71 1.77 <
2459 1 2 2 15 -3 3.14 1.56 3.51 <
2460 1 2 2 15 -2 0.04 0.46 2.67 <
2461 1 2 2 15 -1 0.09 6.83 5.13 <
2462 1 2 2 15 1 5.19 -15.66 10.47 <
2463 1 4 2 15 -3 0.28 -4.96 6.53 <
2464 1 4 2 15 -2 4.14 5.64 4.93 <
2465 1 1 3 15 -4 0.07 3.22 4.44 <
2466 1 1 3 15 -3 0.43 6.71 4.60 <
2467 1 1 3 15 -2 2.13 6.19 3.39 <
2468 1 3 3 15 -3 20.68 20.45 8.17 <
2469 1 3 3 15 -2 2.67 18.54 11.82 <
2470 1 0 4 15 -2 1.49 0.29 2.99 <
2471 1 2 4 15 -3 0.13 3.93 5.59 <
2472 1 1 5 15 -3 8.50 -4.17 10.72 <
2473 1 0 0 16 2 30.34 46.41 16.89 <
2474 1 2 0 16 1 65.15 87.14 22.60 o
2475 1 0 2 16 -2 22.70 14.80 9.13 <
2476 1 2 2 16 -3 3.93 11.00 8.88 <
2477 1 1 3 16 -4 0.00 -1.84 3.84 <
2478 1 1 3 16 -3 13.60 10.04 7.24 <
2479 2 0 0 0 2 74.50 62.36 5.45 o
2480 2 0 0 0 4 78.99 43.31 10.27 o
2481 2 2 0 0 1 186.75 154.16 12.85 o
2482 2 2 0 0 2 121.87 103.66 13.09 o
2483 2 2 0 0 3 5.64 4.71 3.24 <
2484 2 2 0 0 4 60.47 48.88 8.30 o
2485 2 4 0 0 1 46.85 42.64 6.29 o
2486 2 4 0 0 2 14.11 13.82 2.95 o
2487 2 4 0 0 3 15.41 11.85 2.65 o
2488 2 4 0 0 4 14.28 13.01 4.53 <
2489 2 6 0 0 1 55.88 68.78 7.02 o
2490 2 6 0 0 2 31.99 47.69 8.28 o
2491 2 6 0 0 3 46.72 45.31 8.47 o
2492 2 6 0 0 4 11.65 9.60 2.84 o
2493 2 8 0 0 1 1.13 17.25 8.43 <
2494 2 8 0 0 2 94.73 98.45 20.01 o
2495 2 8 0 0 3 11.67 13.39 4.40 o
2496 2 10 0 0 1 5.46 19.24 11.14 <
2497 2 10 0 0 2 8.31 16.20 8.81 <
2498 2 1 1 0 -4 14.95 13.35 2.41 o
2499 2 1 1 0 -3 1.01 1.23 1.20 <
2500 2 1 1 0 1 212.23 189.52 8.56 o
2501 2 1 1 0 2 4.58 9.91 5.38 <
2502 2 1 1 0 3 29.96 26.25 4.51 o
2503 2 1 1 0 4 15.85 25.85 8.51 o
2504 2 3 1 0 -3 13.06 7.04 1.92 o
2505 2 3 1 0 -2 87.17 63.38 9.18 o
2506 2 3 1 0 -1 72.83 70.86 4.76 o
2507 2 3 1 0 3 24.72 126.56 20.99 o
2508 2 3 1 0 4 10.81 7.24 3.90 <
2509 2 5 1 0 -4 23.45 19.62 7.34 <
2510 2 5 1 0 -3 6.37 5.02 2.34 <
2511 2 5 1 0 -2 166.79 136.46 12.72 o
2512 2 5 1 0 -1 42.20 46.92 11.49 o
2513 2 5 1 0 1 31.53 28.74 4.72 o
2514 2 5 1 0 2 126.16 125.17 14.02 o
2515 2 5 1 0 3 9.28 9.03 3.10 <
2516 2 5 1 0 4 26.00 21.17 5.04 o
2517 2 7 1 0 -4 0.44 4.44 2.89 <
2518 2 7 1 0 -3 11.89 13.56 5.25 <
2519 2 7 1 0 -2 14.18 12.67 5.31 <
2520 2 7 1 0 -1 1.59 6.93 2.99 <
2521 2 7 1 0 3 23.24 9.22 4.12 <
2522 2 7 1 0 4 0.28 6.78 2.67 <
2523 2 9 1 0 -4 0.00 8.56 7.24 <
2524 2 9 1 0 -3 53.01 175.22 16.57 o
2525 2 9 1 0 -2 21.23 33.28 12.68 <
2526 2 9 1 0 -1 36.37 59.98 17.44 o
2527 2 9 1 0 1 14.87 38.70 9.79 o
2528 2 9 1 0 2 7.74 74.84 13.35 o
2529 2 0 2 0 2 1.18 -0.19 1.21 <
2530 2 2 2 0 -3 9.06 5.99 1.59 o
2531 2 2 2 0 -1 75.73 70.88 6.51 o
2532 2 2 2 0 1 158.95 146.05 19.49 o
2533 2 2 2 0 2 54.03 52.84 7.45 o
2534 2 4 2 0 -4 0.26 0.86 0.93 <
2535 2 4 2 0 -3 3.38 0.41 1.04 <
2536 2 4 2 0 -2 9.37 6.94 2.54 <
2537 2 4 2 0 -1 1.60 3.25 1.76 <
2538 2 4 2 0 1 106.08 108.83 12.74 o
2539 2 4 2 0 2 3.34 9.17 5.92 <
2540 2 4 2 0 3 38.82 33.87 11.84 <
2541 2 4 2 0 4 5.08 8.14 4.88 <
2542 2 6 2 0 -4 0.84 5.10 2.79 <
2543 2 6 2 0 -2 49.17 38.97 6.89 o
2544 2 6 2 0 -1 111.95 101.22 14.58 o
2545 2 6 2 0 1 8.47 14.38 4.31 o
2546 2 6 2 0 2 4.30 24.75 11.05 <
2547 2 6 2 0 3 0.94 15.20 5.57 <
2548 2 8 2 0 -4 2.48 2.38 0.93 <
2549 2 8 2 0 -1 5.37 27.29 6.01 o
2550 2 8 2 0 1 0.05 3.01 2.09 <
2551 2 8 2 0 2 70.87 88.10 11.16 o
2552 2 10 2 0 -4 0.69 3.23 7.27 <
2553 2 10 2 0 -2 2.84 -1.64 3.66 <
2554 2 1 3 0 -3 32.64 17.33 3.16 o
2555 2 1 3 0 -2 0.62 3.85 1.82 <
2556 2 1 3 0 -1 9.22 12.08 2.48 o
2557 2 1 3 0 1 161.87 174.82 16.09 o
2558 2 1 3 0 2 0.67 8.88 3.62 <
2559 2 1 3 0 4 24.12 17.98 10.33 <
2560 2 3 3 0 -4 0.00 18.73 5.89 o
2561 2 3 3 0 -3 59.02 35.44 5.02 o
2562 2 3 3 0 -2 59.25 44.77 4.24 o
2563 2 3 3 0 1 4.63 9.96 3.32 <
2564 2 3 3 0 2 0.16 0.57 2.72 <
2565 2 3 3 0 3 0.33 54.06 17.65 o
2566 2 3 3 0 4 14.27 11.60 7.61 <
2567 2 5 3 0 -3 0.77 -1.67 2.10 <
2568 2 5 3 0 -2 56.98 43.21 7.07 o
2569 2 5 3 0 -1 20.26 36.62 10.30 o
2570 2 5 3 0 1 27.31 24.12 3.98 o
2571 2 5 3 0 2 46.28 45.24 10.27 o
2572 2 5 3 0 3 15.12 9.61 5.12 <
2573 2 7 3 0 -3 6.19 5.54 6.32 <
2574 2 7 3 0 -2 1.60 5.71 3.53 <
2575 2 7 3 0 -1 0.66 7.45 4.15 <
2576 2 7 3 0 1 35.71 49.38 11.10 o
2577 2 7 3 0 2 4.04 9.09 9.60 <
2578 2 9 3 0 -3 118.41 203.90 30.79 o
2579 2 9 3 0 -2 36.78 29.88 12.27 <
2580 2 9 3 0 -1 60.73 78.08 13.47 o
2581 2 0 4 0 -2 30.26 23.40 5.91 o
2582 2 2 4 0 -3 15.64 8.97 2.27 o
2583 2 2 4 0 -2 3.60 6.31 2.99 <
2584 2 2 4 0 -1 26.66 40.19 11.24 o
2585 2 2 4 0 2 8.83 12.82 6.17 <
2586 2 4 4 0 -3 6.91 2.32 1.33 <
2587 2 4 4 0 -2 2.42 4.50 2.00 <
2588 2 4 4 0 -1 0.25 -0.15 2.10 <
2589 2 4 4 0 2 1.45 10.46 8.35 <
2590 2 6 4 0 -3 60.51 37.65 7.68 o
2591 2 6 4 0 -1 74.76 78.72 12.41 o
2592 2 6 4 0 1 3.52 13.76 6.25 <
2593 2 8 4 0 -3 7.46 1.38 2.19 <
2594 2 8 4 0 -2 12.74 8.57 7.04 <
2595 2 8 4 0 -1 10.59 53.95 16.41 o
2596 2 10 4 0 -3 6.97 22.34 8.66 <
2597 2 1 5 0 -3 26.63 12.39 5.01 <
2598 2 1 5 0 -2 1.26 5.78 2.52 <
2599 2 1 5 0 -1 8.45 19.65 9.24 <
2600 2 1 5 0 1 89.74 114.06 18.95 o
2601 2 3 5 0 -3 53.05 73.92 10.76 o
2602 2 3 5 0 -2 23.58 23.13 5.96 o
2603 2 3 5 0 1 1.68 17.05 12.14 <
2604 2 5 5 0 -3 6.46 3.56 2.67 <
2605 2 5 5 0 -2 1.44 2.86 3.18 <
2606 2 5 5 0 -1 18.23 31.40 7.14 o
2607 2 7 5 0 -3 0.50 8.91 4.50 <
2608 2 7 5 0 -2 0.67 10.52 4.88 <
2609 2 7 5 0 -1 0.65 8.88 4.78 <
2610 2 9 5 0 -3 125.56 175.36 31.05 o
2611 2 9 5 0 -2 32.45 50.28 17.73 <
2612 2 2 6 0 -3 9.64 10.85 4.51 <
2613 2 2 6 0 -2 0.10 6.46 6.22 <
2614 2 2 6 0 -1 14.89 35.76 9.95 o
2615 2 4 6 0 -3 1.11 7.30 4.72 <
2616 2 4 6 0 -2 0.05 6.90 4.72 <
2617 2 4 6 0 -1 0.57 3.42 2.83 <
2618 2 6 6 0 -3 32.44 32.30 7.31 o
2619 2 8 6 0 -3 1.14 4.88 5.08 <
2620 2 1 7 0 -3 0.70 2.49 2.26 <
2621 2 1 7 0 -2 2.21 9.57 8.17 <
2622 2 3 7 0 -3 2.76 38.54 10.36 o
2623 2 3 7 0 -2 12.68 10.32 5.43 <
2624 2 5 7 0 -3 1.49 1.85 3.55 <
2625 2 5 7 0 -2 1.08 22.33 10.96 <
2626 2 7 7 0 -3 2.83 4.06 4.11 <
2627 2 2 8 0 -3 2.64 9.26 5.42 <
2628 2 4 8 0 -3 0.20 10.74 7.57 <
2629 2 0 0 1 2 2.33 0.89 0.96 <
2630 2 0 0 1 4 6.01 2.12 1.86 <
2631 2 2 0 1 1 2.58 2.52 0.60 o
2632 2 2 0 1 2 1.00 0.49 0.86 <
2633 2 2 0 1 3 0.88 1.97 1.12 <
2634 2 2 0 1 4 13.68 15.20 6.58 <
2635 2 4 0 1 1 0.19 2.20 1.33 <
2636 2 4 0 1 2 0.34 0.39 0.87 <
2637 2 4 0 1 3 1.31 2.33 1.46 <
2638 2 4 0 1 4 0.94 2.18 1.33 <
2639 2 6 0 1 1 1.27 1.14 1.36 <
2640 2 6 0 1 2 1.86 5.96 3.34 <
2641 2 6 0 1 3 11.05 8.29 2.17 o
2642 2 6 0 1 4 23.48 21.67 3.13 o
2643 2 8 0 1 1 17.01 19.20 3.88 o
2644 2 8 0 1 2 1.21 2.35 2.73 <
2645 2 8 0 1 3 10.41 6.28 3.06 <
2646 2 8 0 1 4 16.98 6.89 3.10 <
2647 2 10 0 1 1 0.25 -2.61 3.60 <
2648 2 10 0 1 2 7.03 4.94 4.66 <
2649 2 10 0 1 3 3.60 8.62 6.98 <
2650 3 -1 -1 1 0 0.29 1.16 0.70 <
2650 2 -1 1 1 0 0.29 1.16 0.70 <
2650 1 2 3 1 -4 0.29 1.16 0.70 <
2651 2 1 1 1 -4 1.39 1.29 0.68 <
2652 2 1 1 1 -3 0.95 1.90 1.00 <
2653 2 1 1 1 -2 0.62 -0.29 0.55 <
2654 2 1 1 1 1 1.12 1.26 0.78 <
2655 2 1 1 1 2 3.06 3.30 1.17 <
2656 2 1 1 1 3 0.48 1.48 1.37 <
2657 2 1 1 1 4 1.01 0.70 1.26 <
2658 2 3 1 1 -4 4.36 5.27 1.63 o
2659 2 3 1 1 -3 49.43 35.23 4.45 o
2660 2 3 1 1 -2 0.27 0.98 1.41 <
2661 2 3 1 1 -1 0.50 0.92 0.82 <
2662 2 3 1 1 1 0.96 0.81 0.98 <
2663 2 3 1 1 2 0.92 2.67 1.01 <
2664 2 3 1 1 3 18.73 14.29 3.42 o
2665 2 3 1 1 4 11.06 8.26 2.88 <
2666 2 5 1 1 -4 20.78 22.08 5.23 o
2667 2 5 1 1 -3 9.50 4.93 1.54 o
2668 2 5 1 1 -2 2.17 0.40 0.81 <
2669 2 5 1 1 -1 8.92 9.60 1.80 o
2670 2 5 1 1 1 11.08 10.69 2.42 o
2671 2 5 1 1 2 1.72 2.39 1.47 <
2672 2 5 1 1 3 1.53 1.79 1.61 <
2673 2 5 1 1 4 27.52 16.70 3.20 o
2674 2 7 1 1 -4 0.05 0.44 1.73 <
2675 2 7 1 1 -3 1.61 -0.95 2.14 <
2676 2 7 1 1 -2 1.55 2.79 1.79 <
2677 2 7 1 1 -1 0.39 1.77 2.53 <
2678 2 7 1 1 1 0.77 0.49 1.96 <
2679 2 7 1 1 2 4.19 3.86 2.82 <
2680 2 7 1 1 3 0.01 -1.43 2.24 <
2681 2 7 1 1 4 0.15 4.14 2.59 <
2682 2 9 1 1 -4 27.50 20.04 5.70 o
2683 2 9 1 1 -3 21.05 21.82 11.74 <
2684 2 9 1 1 -2 2.59 6.23 5.81 <
2685 2 9 1 1 -1 2.04 7.08 6.09 <
2686 2 9 1 1 1 2.77 -5.72 5.12 <
2687 2 9 1 1 2 3.38 9.80 4.37 <
2688 2 9 1 1 3 11.11 9.12 7.01 <
2689 3 -2 -2 1 0 0.28 2.78 3.53 <
2689 2 -2 2 1 0 0.28 2.78 3.53 <
2689 1 4 3 1 -4 0.28 2.78 3.53 <
2690 2 0 2 1 -4 0.37 5.18 1.28 o
2691 2 0 2 1 2 4.42 4.97 3.40 <
2692 2 2 2 1 -4 10.03 13.24 1.72 o
2693 2 2 2 1 -3 0.92 1.11 0.49 <
2694 2 2 2 1 -2 4.96 4.18 0.87 o
2695 2 2 2 1 -1 0.91 2.03 1.22 <
2696 2 2 2 1 1 5.83 4.55 1.39 o
2697 2 2 2 1 2 5.56 2.30 2.21 <
2698 2 2 2 1 3 0.42 2.38 3.04 <
2699 2 2 2 1 4 7.48 5.87 2.21 <
2700 2 4 2 1 -4 0.50 1.84 1.22 <
2701 2 4 2 1 -3 1.37 0.11 0.80 <
2702 2 4 2 1 -2 0.96 0.59 0.94 <
2703 2 4 2 1 -1 0.77 1.01 1.17 <
2704 2 4 2 1 1 3.26 2.21 1.54 <
2705 2 4 2 1 2 0.00 -0.28 1.20 <
2706 2 4 2 1 3 0.82 4.28 2.36 <
2707 2 4 2 1 4 4.45 1.72 2.81 <
2708 2 6 2 1 -4 30.09 31.28 6.58 o
2709 2 6 2 1 -3 39.97 21.93 4.38 o
2710 2 6 2 1 -2 2.27 5.47 1.66 o
2711 2 6 2 1 -1 0.08 3.47 2.47 <
2712 2 6 2 1 1 0.44 4.14 2.02 <
2713 2 6 2 1 2 1.18 5.22 2.41 <
2714 2 6 2 1 3 16.00 11.53 2.83 o
2715 2 6 2 1 4 7.21 2.78 1.90 <
2716 2 8 2 1 -4 12.98 9.55 3.09 o
2717 2 8 2 1 -3 31.00 24.19 3.95 o
2718 2 8 2 1 -2 0.38 2.68 2.11 <
2719 2 8 2 1 -1 8.66 9.85 3.12 o
2720 2 8 2 1 1 9.82 18.05 6.67 <
2721 2 8 2 1 2 4.50 7.37 2.89 <
2722 2 8 2 1 3 10.13 -0.36 0.91 <
2723 2 10 2 1 -3 0.77 -7.33 7.13 <
2724 2 10 2 1 -1 0.06 5.62 5.23 <
2725 2 10 2 1 1 0.58 9.41 7.89 <
2726 2 1 3 1 -3 0.28 1.00 0.33 o
2727 2 1 3 1 -2 0.03 2.32 0.79 <
2728 2 1 3 1 -1 1.25 2.40 1.35 <
2729 2 1 3 1 1 10.11 11.83 4.43 <
2730 2 1 3 1 2 4.13 6.06 3.75 <
2731 2 1 3 1 3 2.79 5.08 2.71 <
2732 2 1 3 1 4 0.47 -2.54 2.94 <
2733 2 3 3 1 -4 6.38 13.76 4.37 o
2734 2 3 3 1 -3 7.86 7.64 2.00 o
2735 2 3 3 1 -2 0.93 1.68 1.03 <
2736 2 3 3 1 -1 1.51 3.10 2.81 <
2737 2 3 3 1 1 0.13 2.51 1.90 <
2738 2 3 3 1 2 0.11 4.92 2.13 <
2739 2 3 3 1 3 1.00 6.60 3.24 <
2740 2 3 3 1 4 9.24 3.89 4.12 <
2741 2 5 3 1 -4 23.92 28.26 4.57 o
2742 2 5 3 1 -3 11.14 10.55 2.82 o
2743 2 5 3 1 -2 8.11 2.82 1.08 <
2744 2 5 3 1 -1 3.70 3.79 1.08 o
2745 2 5 3 1 1 9.84 11.72 4.15 <
2746 2 5 3 1 2 6.07 2.69 2.06 <
2747 2 5 3 1 3 0.69 2.73 2.65 <
2748 2 7 3 1 -4 1.57 3.98 4.31 <
2749 2 7 3 1 -3 0.17 -2.90 2.09 <
2750 2 7 3 1 -2 0.29 3.02 1.81 <
2751 2 7 3 1 -1 0.77 4.44 1.86 <
2752 2 7 3 1 1 4.26 4.48 2.52 <
2753 2 7 3 1 2 2.66 5.45 2.72 <
2754 2 9 3 1 -4 39.27 24.37 8.09 o
2755 2 9 3 1 -3 0.49 2.18 1.79 <
2756 2 9 3 1 -2 0.98 -0.07 2.02 <
2757 2 9 3 1 -1 0.10 8.49 6.02 <
2758 2 11 3 1 -2 2.01 14.24 10.95 <
2759 3 -4 -4 1 0 17.48 21.91 8.67 <
2759 2 -4 4 1 0 17.48 21.91 8.67 <
2759 1 8 3 1 -4 17.48 21.91 8.67 <
2760 2 0 4 1 -2 0.14 1.51 1.98 <
2761 2 0 4 1 2 0.48 7.36 5.68 <
2762 2 2 4 1 -3 0.11 2.09 1.18 <
2763 2 2 4 1 -2 6.68 6.14 1.90 o
2764 2 2 4 1 -1 2.33 2.91 1.83 <
2765 2 2 4 1 1 9.94 11.31 4.75 <
2766 2 2 4 1 2 3.74 9.61 3.72 <
2767 2 4 4 1 -3 1.34 1.18 1.07 <
2768 2 4 4 1 -2 0.02 -1.13 1.79 <
2769 2 4 4 1 -1 3.68 1.71 1.52 <
2770 2 4 4 1 1 8.86 5.07 5.28 <
2771 2 4 4 1 2 0.00 9.49 7.88 <
2772 2 6 4 1 -3 21.23 18.42 4.66 o
2773 2 6 4 1 -2 1.43 1.80 1.96 <
2774 2 6 4 1 -1 2.88 6.78 2.78 <
2775 2 8 4 1 -3 43.84 34.80 5.23 o
2776 2 8 4 1 -2 1.26 3.88 3.09 <
2777 2 8 4 1 -1 2.82 7.80 3.91 <
2778 2 10 4 1 -3 1.30 -2.77 1.82 <
2779 2 10 4 1 -2 5.28 5.45 4.43 <
2780 3 -5 -5 1 0 13.89 11.44 5.28 <
2780 2 -5 5 1 0 13.89 11.44 5.28 <
2780 1 10 3 1 -4 13.89 11.44 5.28 <
2781 2 1 5 1 -3 2.69 1.25 0.89 <
2782 2 1 5 1 -2 0.03 1.41 2.02 <
2783 2 1 5 1 -1 2.41 3.34 2.30 <
2784 2 1 5 1 1 12.23 15.94 8.73 <
2785 2 3 5 1 -3 7.52 10.21 2.28 o
2786 2 3 5 1 -2 0.24 2.35 1.43 <
2787 2 3 5 1 -1 3.19 6.32 2.72 <
2788 2 3 5 1 1 0.69 0.32 6.72 <
2789 2 5 5 1 -3 17.52 17.73 3.49 o
2790 2 5 5 1 -2 2.43 5.89 2.37 <
2791 2 5 5 1 -1 0.41 -3.60 2.37 <
2792 2 5 5 1 1 4.69 6.48 1.92 o
2793 2 7 5 1 -3 0.01 -0.26 2.11 <
2794 2 7 5 1 -2 1.01 1.29 2.02 <
2795 2 7 5 1 -1 1.58 3.36 2.00 <
2796 2 9 5 1 -3 3.16 6.37 7.09 <
2797 2 9 5 1 -2 0.85 -1.64 3.80 <
2798 2 0 6 1 -2 3.21 5.84 2.59 <
2799 2 2 6 1 -3 0.00 3.02 2.16 <
2800 2 2 6 1 -2 0.37 1.35 1.02 <
2801 2 2 6 1 -1 0.80 -1.39 2.62 <
2802 2 4 6 1 -3 0.15 4.03 2.84 <
2803 2 4 6 1 -2 0.13 2.78 3.56 <
2804 2 4 6 1 -1 2.42 3.02 5.82 <
2805 2 6 6 1 -3 1.04 5.35 3.49 <
2806 2 6 6 1 -2 0.15 3.25 3.11 <
2807 2 6 6 1 -1 4.73 11.11 9.25 <
2808 2 8 6 1 -3 29.62 24.16 7.99 o
2809 2 8 6 1 -2 0.01 -12.63 9.84 <
2810 2 1 7 1 -3 0.02 0.96 1.27 <
2811 2 1 7 1 -2 0.01 3.21 2.16 <
2812 2 1 7 1 -1 1.01 7.12 8.27 <
2813 2 3 7 1 -3 3.91 10.74 3.51 o
2814 2 3 7 1 -2 2.80 1.18 2.38 <
2815 2 3 7 1 -1 2.19 10.55 7.20 <
2816 2 5 7 1 -3 10.97 10.41 4.30 <
2817 2 5 7 1 -2 0.25 14.32 10.07 <
2818 2 2 8 1 -3 1.15 -0.29 2.43 <
2819 2 0 0 2 2 167.79 139.12 7.88 o
2820 2 0 0 2 4 3.73 0.82 2.13 <
2821 2 2 0 2 1 240.65 192.65 8.04 o
2822 2 2 0 2 2 134.41 108.73 5.01 o
2823 2 2 0 2 3 0.13 0.42 0.62 <
2824 2 2 0 2 4 12.41 9.81 2.46 o
2825 2 4 0 2 1 10.46 6.22 1.69 o
2826 2 4 0 2 2 0.23 1.53 1.05 <
2827 2 4 0 2 3 9.75 10.08 1.87 o
2828 2 4 0 2 4 5.27 5.72 1.90 o
2829 2 6 0 2 1 75.66 74.72 7.15 o
2830 2 6 0 2 2 62.65 69.33 15.27 o
2831 2 6 0 2 3 2.92 3.49 1.75 <
2832 2 6 0 2 4 0.26 4.24 2.36 <
2833 2 8 0 2 1 23.19 45.13 5.55 o
2834 2 8 0 2 2 68.38 82.01 8.82 o
2835 2 8 0 2 3 2.18 -1.06 1.54 <
2836 2 8 0 2 4 11.92 8.32 3.02 <
2837 2 10 0 2 1 6.36 13.40 5.08 <
2838 2 10 0 2 2 0.74 1.94 3.08 <
2839 2 10 0 2 3 17.23 20.15 8.04 <
2840 2 1 1 2 -4 5.45 5.21 1.62 o
2841 2 1 1 2 -3 4.78 2.29 0.61 o
2842 2 1 1 2 -2 13.29 11.38 1.51 o
2843 2 1 1 2 -1 66.92 51.94 2.17 o
2844 2 1 1 2 1 218.85 189.75 5.70 o
2845 2 1 1 2 2 16.00 10.86 1.88 o
2846 2 1 1 2 3 3.94 3.82 1.60 <
2847 2 1 1 2 4 1.38 -0.45 2.32 <
2848 2 3 1 2 -4 5.66 2.84 0.89 o
2849 2 3 1 2 -3 1.03 1.11 0.80 <
2850 2 3 1 2 -2 103.77 81.29 5.10 o
2851 2 3 1 2 -1 102.82 104.73 5.80 o
2852 2 3 1 2 1 31.01 27.89 3.02 o
2853 2 3 1 2 2 93.77 86.21 9.82 o
2854 2 3 1 2 3 12.92 11.18 3.45 o
2855 2 3 1 2 4 3.46 1.04 1.68 <
2856 2 5 1 2 -4 17.04 13.00 2.68 o
2857 2 5 1 2 -3 0.28 -0.73 1.20 <
2858 2 5 1 2 -2 115.12 92.46 8.27 o
2859 2 5 1 2 -1 80.18 91.58 8.68 o
2860 2 5 1 2 1 107.86 100.16 8.64 o
2861 2 5 1 2 2 105.34 108.07 9.96 o
2862 2 5 1 2 3 0.05 0.92 1.40 <
2863 2 5 1 2 4 15.79 8.92 4.52 <
2864 2 7 1 2 -4 5.52 -2.65 3.11 <
2865 2 7 1 2 -3 9.04 7.83 2.40 o
2866 2 7 1 2 -2 4.13 1.50 1.36 <
2867 2 7 1 2 -1 12.97 18.01 6.11 <
2868 2 7 1 2 1 0.18 7.36 4.50 <
2869 2 7 1 2 2 1.68 7.31 3.41 <
2870 2 7 1 2 3 25.37 19.53 5.44 o
2871 2 7 1 2 4 9.72 8.32 3.51 <
2872 2 9 1 2 -4 0.91 -0.74 5.26 <
2873 2 9 1 2 -3 2.09 3.03 2.89 <
2874 2 9 1 2 -2 20.35 23.92 4.57 o
2875 2 9 1 2 -1 63.47 63.39 18.73 o
2876 2 9 1 2 1 18.82 19.48 7.40 <
2877 2 9 1 2 2 24.27 45.54 9.68 o
2878 2 9 1 2 3 14.10 8.41 3.88 <
2879 2 11 1 2 -3 4.93 -6.12 3.72 <
2880 2 0 2 2 -4 6.18 9.64 1.74 o
2881 2 0 2 2 2 69.65 54.88 8.65 o
2882 2 0 2 2 4 0.88 -3.81 3.73 <
2883 2 2 2 2 -4 5.21 6.89 1.73 o
2884 2 2 2 2 -3 12.17 7.10 0.88 o
2885 2 2 2 2 -2 56.10 42.79 2.85 o
2886 2 2 2 2 -1 72.17 62.01 3.68 o
2887 2 2 2 2 1 214.00 198.23 9.49 o
2888 2 2 2 2 2 49.43 36.94 5.97 o
2889 2 2 2 2 3 2.36 2.10 1.11 <
2890 2 2 2 2 4 7.18 6.35 3.21 <
2891 2 4 2 2 -4 1.32 2.07 0.98 <
2892 2 4 2 2 -3 0.04 0.11 0.81 <
2893 2 4 2 2 -2 5.98 2.64 1.18 <
2894 2 4 2 2 -1 11.78 12.25 2.98 o
2895 2 4 2 2 1 53.82 61.40 6.64 o
2896 2 4 2 2 2 0.00 4.16 2.01 <
2897 2 4 2 2 3 24.63 21.21 5.96 o
2898 2 4 2 2 4 1.20 4.36 2.94 <
2899 2 6 2 2 -4 0.06 2.52 2.32 <
2900 2 6 2 2 -3 0.04 -0.34 1.23 <
2901 2 6 2 2 -2 33.01 24.23 8.65 <
2902 2 6 2 2 -1 127.23 124.37 10.77 o
2903 2 6 2 2 1 19.71 16.53 2.63 o
2904 2 6 2 2 2 44.72 51.74 15.98 o
2905 2 6 2 2 3 10.86 8.76 2.80 o
2906 2 6 2 2 4 0.41 -1.22 4.23 <
2907 2 8 2 2 -4 2.64 -1.08 1.69 <
2908 2 8 2 2 -3 10.74 8.00 3.85 <
2909 2 8 2 2 -2 36.13 31.49 11.88 <
2910 2 8 2 2 -1 22.93 70.93 12.88 o
2911 2 8 2 2 1 13.05 14.54 6.22 <
2912 2 8 2 2 2 42.77 57.47 12.88 o
2913 2 8 2 2 3 0.07 -6.60 5.02 <
2914 2 10 2 2 -4 2.99 11.26 5.25 <
2915 2 10 2 2 -3 16.25 28.98 6.71 o
2916 2 10 2 2 -2 0.35 6.53 4.37 <
2917 2 10 2 2 -1 16.84 25.99 7.33 o
2918 2 10 2 2 1 0.62 0.33 1.74 <
2919 2 1 3 2 -4 0.00 8.59 1.67 o
2920 2 1 3 2 -3 20.16 11.42 0.95 o
2921 2 1 3 2 -2 0.22 2.57 1.12 <
2922 2 1 3 2 -1 0.01 0.12 0.91 <
2923 2 1 3 2 1 154.17 164.58 11.36 o
2924 2 1 3 2 2 8.00 8.08 3.45 <
2925 2 1 3 2 3 14.70 15.90 8.54 <
2926 2 1 3 2 4 0.02 4.81 3.71 <
2927 2 3 3 2 -4 0.00 1.17 2.00 <
2928 2 3 3 2 -3 6.39 3.28 0.79 o
2929 2 3 3 2 -2 8.44 4.42 1.54 <
2930 2 3 3 2 -1 80.96 81.99 9.31 o
2931 2 3 3 2 1 5.26 8.14 3.39 <
2932 2 3 3 2 2 31.73 28.48 7.40 o
2933 2 3 3 2 3 9.14 8.36 3.58 <
2934 2 3 3 2 4 1.08 -2.54 5.50 <
2935 2 5 3 2 -4 0.00 2.67 1.97 <
2936 2 5 3 2 -3 1.23 1.60 1.01 <
2937 2 5 3 2 -2 25.82 15.83 3.25 o
2938 2 5 3 2 -1 31.27 48.13 5.04 o
2939 2 5 3 2 1 66.60 69.48 8.56 o
2940 2 5 3 2 2 43.53 48.25 6.27 o
2941 2 5 3 2 3 0.27 6.25 3.20 <
2942 2 7 3 2 -4 0.00 1.59 1.81 <
2943 2 7 3 2 -3 1.68 1.91 1.45 <
2944 2 7 3 2 -2 1.39 -0.03 2.14 <
2945 2 7 3 2 -1 38.45 39.93 4.66 o
2946 2 7 3 2 1 7.22 19.21 7.63 <
2947 2 7 3 2 2 0.13 7.27 4.01 <
2948 2 9 3 2 -4 0.00 -1.40 3.03 <
2949 2 9 3 2 -2 9.81 12.81 3.69 o
2950 2 11 3 2 -4 0.00 -7.01 7.55 <
2951 2 11 3 2 -2 4.86 10.12 4.73 <
2952 2 0 4 2 -2 8.44 7.99 1.44 o
2953 2 2 4 2 -3 9.12 5.02 1.39 o
2954 2 2 4 2 -2 0.06 5.71 2.30 <
2955 2 2 4 2 -1 5.98 5.27 4.66 <
2956 2 2 4 2 1 120.41 143.16 14.40 o
2957 2 2 4 2 2 12.28 13.73 4.29 o
2958 2 4 4 2 -3 0.82 -0.16 0.83 <
2959 2 4 4 2 -2 5.12 5.12 3.04 <
2960 2 4 4 2 -1 26.19 24.53 5.35 o
2961 2 4 4 2 1 50.39 61.54 16.47 o
2962 2 4 4 2 2 0.43 5.70 4.49 <
2963 2 6 4 2 -3 12.95 9.11 3.33 <
2964 2 6 4 2 -2 0.73 1.51 1.34 <
2965 2 6 4 2 -1 92.29 112.17 12.35 o
2966 2 6 4 2 1 3.21 5.45 2.98 <
2967 2 8 4 2 -3 5.93 -0.91 2.01 <
2968 2 8 4 2 -2 4.22 6.53 2.80 <
2969 2 8 4 2 -1 8.69 46.87 16.52 <
2970 2 10 4 2 -3 7.65 5.46 1.53 o
2971 2 10 4 2 -2 0.51 0.18 3.56 <
2972 2 1 5 2 -3 0.19 0.39 0.71 <
2973 2 1 5 2 -2 11.69 14.12 3.56 o
2974 2 1 5 2 -1 2.80 1.17 2.03 <
2975 2 1 5 2 1 69.91 101.52 14.01 o
2976 2 3 5 2 -3 0.33 0.06 0.60 <
2977 2 3 5 2 -2 13.52 12.27 2.84 o
2978 2 3 5 2 -1 31.02 33.41 6.91 o
2979 2 3 5 2 1 1.79 10.64 4.75 <
2980 2 5 5 2 -3 3.56 3.72 1.76 <
2981 2 5 5 2 -2 0.16 9.61 2.76 o
2982 2 5 5 2 -1 5.70 20.95 4.29 o
2983 2 5 5 2 1 32.47 38.81 14.02 <
2984 2 7 5 2 -3 7.36 5.19 3.07 <
2985 2 7 5 2 -2 0.27 3.44 2.31 <
2986 2 7 5 2 -1 31.11 38.79 7.38 o
2987 2 9 5 2 -3 2.10 -0.49 2.78 <
2988 2 9 5 2 -2 2.49 14.82 9.43 <
2989 2 0 6 2 -2 39.23 35.15 5.75 o
2990 2 2 6 2 -3 1.60 2.10 1.41 <
2991 2 2 6 2 -2 10.91 15.40 3.10 o
2992 2 2 6 2 -1 1.39 2.96 2.26 <
2993 2 4 6 2 -3 1.60 2.00 2.03 <
2994 2 4 6 2 -2 6.33 9.59 6.61 <
2995 2 4 6 2 -1 12.75 13.61 5.31 <
2996 2 6 6 2 -3 1.87 0.56 1.81 <
2997 2 6 6 2 -2 2.97 7.00 2.78 <
2998 2 8 6 2 -3 8.51 5.81 4.32 <
2999 2 1 7 2 -3 4.97 7.38 2.52 <
3000 2 1 7 2 -2 11.42 10.97 5.38 <
3001 2 3 7 2 -2 27.63 21.42 5.91 o
3002 2 5 7 2 -3 2.63 3.76 2.24 <
3003 2 5 7 2 -2 4.26 19.94 7.45 <
3004 2 7 7 2 -3 7.99 2.09 2.73 <
3005 2 2 8 2 -3 8.76 4.04 3.32 <
3006 2 0 0 3 2 9.26 4.87 1.81 <
3007 2 2 0 3 1 0.11 0.23 0.47 <
3008 2 2 0 3 2 0.17 0.98 0.78 <
3009 2 2 0 3 3 4.19 6.84 1.34 o
3010 2 2 0 3 4 12.63 9.99 1.86 o
3011 2 4 0 3 1 1.11 0.61 1.16 <
3012 2 4 0 3 2 0.43 0.08 0.97 <
3013 2 4 0 3 3 15.27 9.21 1.86 o
3014 2 4 0 3 4 0.57 0.47 1.01 <
3015 2 6 0 3 1 9.51 7.47 2.58 <
3016 2 6 0 3 2 0.14 2.47 1.77 <
3017 2 6 0 3 3 24.20 13.09 3.37 o
3018 2 6 0 3 4 12.54 10.81 3.20 o
3019 2 8 0 3 1 4.52 7.87 3.07 <
3020 2 8 0 3 3 0.01 2.13 3.43 <
3021 2 8 0 3 4 21.01 15.27 4.63 o
3022 2 10 0 3 1 2.43 -1.18 5.26 <
3023 2 10 0 3 2 14.32 12.60 9.06 <
3024 2 10 0 3 3 13.53 18.78 11.42 <
3025 3 -1 -1 3 0 10.34 10.87 2.10 o
3025 2 -1 1 3 0 10.34 10.87 2.10 o
3025 1 2 3 3 -4 10.34 10.87 2.10 o
3026 2 1 1 3 -4 1.81 1.38 0.83 <
3027 2 1 1 3 -3 3.09 4.25 1.45 <
3028 2 1 1 3 -2 0.08 0.81 0.46 <
3029 2 1 1 3 -1 0.01 0.29 0.55 <
3030 2 1 1 3 1 1.13 1.69 0.71 <
3031 2 1 1 3 2 1.15 1.57 0.98 <
3032 2 1 1 3 3 0.29 0.66 1.33 <
3033 2 1 1 3 4 0.25 1.46 2.25 <
3034 2 3 1 3 -4 14.79 11.68 2.19 o
3035 2 3 1 3 -3 0.28 -0.18 0.84 <
3036 2 3 1 3 -2 0.05 0.60 0.57 <
3037 2 3 1 3 -1 1.45 1.07 0.79 <
3038 2 3 1 3 1 0.98 2.42 1.26 <
3039 2 3 1 3 2 4.21 0.95 1.11 <
3040 2 3 1 3 3 0.53 1.47 1.94 <
3041 2 3 1 3 4 4.00 4.66 1.92 <
3042 2 5 1 3 -4 32.25 31.41 3.82 o
3043 2 5 1 3 -3 2.34 0.26 1.23 <
3044 2 5 1 3 -2 2.63 5.02 2.07 <
3045 2 5 1 3 -1 2.13 4.91 1.58 o
3046 2 5 1 3 1 5.00 6.36 1.60 o
3047 2 5 1 3 2 0.58 0.38 1.48 <
3048 2 5 1 3 3 2.33 3.52 1.96 <
3049 2 5 1 3 4 24.09 18.67 4.59 o
3050 2 7 1 3 -4 3.96 5.59 2.60 <
3051 2 7 1 3 -3 18.08 7.73 3.56 <
3052 2 7 1 3 -2 2.31 -0.14 1.24 <
3053 2 7 1 3 -1 3.50 6.16 2.47 <
3054 2 7 1 3 1 4.31 5.30 5.44 <
3055 2 7 1 3 2 6.87 8.01 3.97 <
3056 2 7 1 3 3 8.61 1.97 4.13 <
3057 2 7 1 3 4 1.43 5.99 3.37 <
3058 2 9 1 3 -4 25.67 20.92 7.06 <
3059 2 9 1 3 -3 11.78 24.29 8.41 <
3060 2 9 1 3 -2 0.41 -0.34 3.15 <
3061 2 9 1 3 -1 6.24 8.00 4.60 <
3062 2 9 1 3 1 4.54 -2.04 5.67 <
3063 2 9 1 3 3 5.84 20.98 11.09 <
3064 2 11 1 3 -3 0.87 -5.90 5.95 <
3065 3 -2 -2 3 0 32.44 33.01 3.79 o
3065 2 -2 2 3 0 32.44 33.01 3.79 o
3065 1 4 3 3 -4 32.44 33.01 3.79 o
3066 2 0 2 3 -4 0.38 4.01 1.04 o
3067 2 0 2 3 -2 0.00 1.10 0.78 <
3068 2 0 2 3 2 11.64 9.27 4.00 <
3069 2 0 2 3 4 17.24 3.96 2.26 <
3070 2 2 2 3 -4 6.96 12.09 2.91 o
3071 2 2 2 3 -3 4.79 7.63 1.48 o
3072 2 2 2 3 -2 4.77 4.71 0.91 o
3073 2 2 2 3 -1 0.18 0.13 0.55 <
3074 2 2 2 3 1 6.50 6.01 1.58 o
3075 2 2 2 3 2 0.66 1.29 1.39 <
3076 2 2 2 3 3 4.52 5.06 4.37 <
3077 2 2 2 3 4 18.60 10.64 3.05 o
3078 2 4 2 3 -4 1.08 2.19 1.20 <
3079 2 4 2 3 -3 25.85 16.00 2.20 o
3080 2 4 2 3 -2 0.44 0.06 0.59 <
3081 2 4 2 3 -1 2.29 3.15 1.47 <
3082 2 4 2 3 1 6.07 6.66 2.18 o
3083 2 4 2 3 2 1.91 2.86 1.33 <
3084 2 4 2 3 3 2.86 -0.95 2.01 <
3085 2 4 2 3 4 0.23 -0.23 3.20 <
3086 2 6 2 3 -4 19.19 17.25 8.32 <
3087 2 6 2 3 -3 0.17 1.32 2.23 <
3088 2 6 2 3 -2 1.80 3.56 1.71 <
3089 2 6 2 3 -1 1.26 5.14 2.78 <
3090 2 6 2 3 1 1.79 2.69 1.78 <
3091 2 6 2 3 2 0.05 2.91 3.72 <
3092 2 6 2 3 3 2.03 1.27 2.89 <
3093 2 6 2 3 4 18.57 19.78 7.71 <
3094 2 8 2 3 -4 19.47 21.03 4.32 o
3095 2 8 2 3 -3 0.44 2.97 2.14 <
3096 2 8 2 3 -2 0.44 2.40 2.68 <
3097 2 8 2 3 -1 2.92 5.58 5.23 <
3098 2 8 2 3 1 7.13 11.03 4.75 <
3099 2 8 2 3 2 0.98 2.68 4.87 <
3100 2 10 2 3 -3 16.71 9.93 9.81 <
3101 2 10 2 3 -2 5.54 10.03 8.14 <
3102 2 10 2 3 -1 1.88 -5.19 6.34 <
3103 3 -3 -3 3 0 1.97 2.42 2.64 <
3103 2 -3 3 3 0 1.97 2.42 2.64 <
3103 1 6 3 3 -4 1.97 2.42 2.64 <
3104 2 1 3 3 -4 0.06 1.55 0.65 <
3105 2 1 3 3 -3 0.42 0.81 0.81 <
3106 2 1 3 3 -2 0.41 2.00 0.90 <
3107 2 1 3 3 -1 1.82 1.25 1.26 <
3108 2 1 3 3 1 6.20 0.19 1.85 <
3109 2 1 3 3 2 0.09 1.43 2.09 <
3110 2 1 3 3 3 4.73 4.39 2.49 <
3111 2 1 3 3 4 0.13 -6.56 8.62 <
3112 2 3 3 3 -4 4.84 10.53 2.39 o
3113 2 3 3 3 -3 24.26 23.44 2.89 o
3114 2 3 3 3 -2 1.81 2.38 0.99 <
3115 2 3 3 3 -1 0.00 0.65 0.75 <
3116 2 3 3 3 1 0.09 2.78 1.60 <
3117 2 3 3 3 2 7.38 9.80 3.56 <
3118 2 3 3 3 3 2.27 8.03 3.60 <
3119 2 5 3 3 -4 22.89 30.18 4.37 o
3120 2 5 3 3 -3 0.34 -0.45 0.60 <
3121 2 5 3 3 -2 6.49 3.42 1.54 <
3122 2 5 3 3 -1 0.03 2.24 1.49 <
3123 2 5 3 3 1 3.51 5.60 2.97 <
3124 2 5 3 3 2 0.25 -2.78 2.39 <
3125 2 5 3 3 3 4.51 -2.19 3.88 <
3126 2 7 3 3 -4 4.55 5.08 4.15 <
3127 2 7 3 3 -3 37.51 24.06 4.70 o
3128 2 7 3 3 -2 0.20 -0.49 1.72 <
3129 2 7 3 3 -1 6.27 6.33 2.97 <
3130 2 7 3 3 1 4.31 5.68 2.41 <
3131 2 7 3 3 2 12.54 7.76 4.82 <
3132 2 9 3 3 -4 27.31 19.08 10.13 <
3133 2 9 3 3 -2 1.52 1.48 3.46 <
3134 3 -4 -4 3 0 17.30 22.09 4.74 o
3134 2 -4 4 3 0 17.30 22.09 4.74 o
3134 1 8 3 3 -4 17.30 22.09 4.74 o
3135 2 0 4 3 -2 0.44 1.38 0.96 <
3136 2 0 4 3 2 5.94 2.27 3.37 <
3137 2 2 4 3 -3 4.19 4.14 0.93 o
3138 2 2 4 3 -2 0.87 1.64 1.10 <
3139 2 2 4 3 -1 0.00 0.85 1.48 <
3140 2 2 4 3 1 9.17 11.04 5.34 <
3141 2 2 4 3 2 0.41 -2.04 5.28 <
3142 2 2 4 3 3 3.21 1.17 4.00 <
3143 2 4 4 3 -3 2.08 2.62 1.28 <
3144 2 4 4 3 -2 1.25 2.03 1.34 <
3145 2 4 4 3 -1 5.72 5.12 2.11 <
3146 2 4 4 3 1 13.61 5.17 2.91 <
3147 2 4 4 3 2 1.23 6.64 5.56 <
3148 2 6 4 3 -3 7.80 6.57 3.73 <
3149 2 6 4 3 -2 1.75 4.34 1.99 <
3150 2 6 4 3 -1 0.27 2.63 2.26 <
3151 2 6 4 3 1 0.26 7.09 4.05 <
3152 2 8 4 3 -3 1.42 -2.21 3.76 <
3153 2 8 4 3 -2 0.10 0.25 1.14 <
3154 2 8 4 3 -1 0.18 4.36 3.95 <
3155 2 10 4 3 -3 5.54 12.66 8.19 <
3156 3 -5 -5 3 0 13.02 2.92 3.68 <
3156 2 -5 5 3 0 13.02 2.92 3.68 <
3156 1 10 3 3 -4 13.02 2.92 3.68 <
3157 2 1 5 3 -3 0.41 1.01 1.00 <
3158 2 1 5 3 -2 0.12 2.68 1.62 <
3159 2 1 5 3 -1 3.58 4.57 2.11 <
3160 2 1 5 3 1 14.70 13.38 4.18 o
3161 2 3 5 3 -3 0.22 3.18 1.69 <
3162 2 3 5 3 -2 0.08 0.77 1.13 <
3163 2 3 5 3 -1 1.28 1.98 1.97 <
3164 2 5 5 3 -3 0.94 2.15 1.55 <
3165 2 5 5 3 -2 1.92 4.30 2.62 <
3166 2 5 5 3 -1 0.01 2.02 1.98 <
3167 2 7 5 3 -3 31.16 24.00 6.87 o
3168 2 7 5 3 -2 1.02 5.80 3.25 <
3169 2 7 5 3 -1 4.50 6.07 3.60 <
3170 2 9 5 3 -3 12.88 11.69 5.38 <
3171 2 9 5 3 -2 1.86 0.55 1.13 <
3172 2 0 6 3 -2 0.85 -3.98 5.38 <
3173 2 2 6 3 -3 0.40 0.09 1.03 <
3174 2 2 6 3 -2 0.22 2.16 2.24 <
3175 2 2 6 3 -1 0.01 1.30 3.01 <
3176 2 4 6 3 -3 8.34 14.22 3.42 o
3177 2 4 6 3 -2 0.40 -2.69 2.42 <
3178 2 4 6 3 -1 5.52 4.60 3.46 <
3179 2 6 6 3 -3 0.27 8.25 4.22 <
3180 2 6 6 3 -2 1.08 2.32 2.01 <
3181 2 8 6 3 -3 11.11 3.80 3.17 <
3182 2 1 7 3 -3 0.63 0.02 1.90 <
3183 2 1 7 3 -2 2.37 4.48 2.59 <
3184 2 1 7 3 -1 0.43 3.46 2.94 <
3185 2 3 7 3 -3 0.44 2.39 3.27 <
3186 2 3 7 3 -2 0.12 11.98 9.45 <
3187 2 5 7 3 -3 0.13 1.41 2.13 <
3188 2 5 7 3 -2 1.23 6.07 4.17 <
3189 2 2 8 3 -3 0.06 0.60 3.05 <
3190 2 4 8 3 -3 11.51 16.62 8.79 <
3191 2 0 0 4 2 75.71 51.24 9.74 o
3192 2 0 0 4 4 53.45 49.81 6.63 o
3193 2 2 0 4 1 190.44 167.90 8.51 o
3194 2 2 0 4 2 67.28 56.96 6.37 o
3195 2 2 0 4 3 11.10 11.11 3.37 o
3196 2 2 0 4 4 14.68 10.43 2.44 o
3197 2 4 0 4 1 7.64 7.04 1.43 o
3198 2 4 0 4 2 23.71 19.70 3.17 o
3199 2 4 0 4 3 0.04 2.99 1.28 <
3200 2 4 0 4 4 0.09 2.44 2.18 <
3201 2 6 0 4 1 5.79 12.66 3.36 o
3202 2 6 0 4 2 36.63 49.74 5.40 o
3203 2 6 0 4 3 7.87 5.92 2.89 <
3204 2 6 0 4 4 10.07 7.48 3.37 <
3205 2 8 0 4 2 74.75 85.34 18.20 o
3206 2 8 0 4 3 54.06 46.11 10.87 o
3207 2 8 0 4 4 6.32 2.01 2.79 <
3208 2 10 0 4 1 5.32 6.55 3.77 <
3209 2 10 0 4 2 13.13 7.66 4.44 <
3210 2 10 0 4 3 1.40 9.68 6.28 <
3211 2 1 1 4 -4 6.88 4.81 1.54 o
3212 2 1 1 4 -3 0.53 1.67 0.86 <
3213 2 1 1 4 -2 3.18 3.20 0.84 o
3214 2 1 1 4 -1 54.08 48.65 3.90 o
3215 2 1 1 4 1 148.19 135.02 6.53 o
3216 2 1 1 4 2 0.22 0.18 1.18 <
3217 2 1 1 4 3 11.92 15.57 3.84 o
3218 2 1 1 4 4 14.92 9.79 2.84 o
3219 2 3 1 4 -4 31.14 21.46 3.20 o
3220 2 3 1 4 -3 20.32 15.85 2.09 o
3221 2 3 1 4 -2 81.44 64.34 3.82 o
3222 2 3 1 4 -1 29.90 27.81 3.70 o
3223 2 3 1 4 1 1.95 2.10 1.30 <
3224 2 3 1 4 2 36.82 34.75 5.13 o
3225 2 3 1 4 3 0.84 2.44 1.43 <
3226 2 3 1 4 4 52.28 36.86 7.62 o
3227 2 5 1 4 -4 11.48 8.46 1.58 o
3228 2 5 1 4 -3 41.83 30.23 3.03 o
3229 2 5 1 4 -2 124.19 109.18 6.79 o
3230 2 5 1 4 -1 87.51 85.76 7.35 o
3231 2 5 1 4 1 95.91 91.00 6.42 o
3232 2 5 1 4 2 87.64 86.71 6.21 o
3233 2 5 1 4 3 43.69 35.06 5.89 o
3234 2 5 1 4 4 17.24 6.32 6.20 <
3235 2 7 1 4 -4 1.52 1.04 1.48 <
3236 2 7 1 4 -3 5.83 32.15 9.01 o
3237 2 7 1 4 -2 16.74 12.94 6.75 <
3238 2 7 1 4 -1 10.02 9.65 2.81 o
3239 2 7 1 4 1 0.03 6.00 3.34 <
3240 2 7 1 4 2 21.59 17.17 5.06 o
3241 2 7 1 4 3 1.51 11.02 3.23 o
3242 2 7 1 4 4 0.02 3.31 2.98 <
3243 2 9 1 4 -4 0.39 6.20 3.77 <
3244 2 9 1 4 -3 38.11 31.73 7.28 o
3245 2 9 1 4 -2 22.79 28.62 8.60 o
3246 2 9 1 4 -1 4.58 20.31 5.58 o
3247 2 9 1 4 1 2.59 15.45 7.04 <
3248 2 9 1 4 2 15.15 24.45 11.43 <
3249 2 0 2 4 -4 25.34 34.14 7.47 o
3250 2 0 2 4 -2 65.43 54.35 3.83 o
3251 2 0 2 4 2 16.97 24.29 9.70 <
3252 2 2 2 4 -4 14.57 12.97 2.47 o
3253 2 2 2 4 -3 0.05 0.96 0.89 <
3254 2 2 2 4 -2 83.88 68.16 10.92 o
3255 2 2 2 4 -1 80.55 70.36 4.67 o
3256 2 2 2 4 1 172.16 158.68 7.98 o
3257 2 2 2 4 2 14.50 14.96 3.15 o
3258 2 2 2 4 3 39.95 32.73 6.42 o
3259 2 2 2 4 4 9.89 5.96 6.08 <
3260 2 4 2 4 -4 1.51 1.33 1.57 <
3261 2 4 2 4 -3 20.57 13.35 3.53 o
3262 2 4 2 4 -2 3.45 1.64 1.53 <
3263 2 4 2 4 -1 4.35 4.56 1.33 o
3264 2 4 2 4 1 33.81 31.91 5.77 o
3265 2 4 2 4 2 20.98 15.94 3.13 o
3266 2 4 2 4 3 14.33 32.12 5.96 o
3267 2 4 2 4 4 0.73 6.02 2.91 <
3268 2 6 2 4 -4 3.59 6.85 3.02 <
3269 2 6 2 4 -3 8.05 8.12 2.88 <
3270 2 6 2 4 -2 42.39 35.82 7.15 o
3271 2 6 2 4 -1 31.33 51.48 8.86 o
3272 2 6 2 4 1 0.63 0.67 1.60 <
3273 2 6 2 4 2 18.08 45.23 6.37 o
3274 2 6 2 4 3 1.38 0.31 3.07 <
3275 2 6 2 4 4 8.36 18.18 10.11 <
3276 2 8 2 4 -4 2.84 -0.62 2.86 <
3277 2 8 2 4 -3 84.33 160.36 19.86 o
3278 2 8 2 4 -2 66.71 64.57 8.66 o
3279 2 8 2 4 -1 41.00 69.35 12.60 o
3280 2 8 2 4 1 20.97 21.08 5.07 o
3281 2 8 2 4 2 38.93 62.27 11.21 o
3282 2 10 2 4 -2 0.79 4.15 2.98 <
3283 2 10 2 4 -1 10.50 9.03 6.27 <
3284 2 1 3 4 -4 0.00 -0.25 0.80 <
3285 2 1 3 4 -3 55.79 39.24 2.73 o
3286 2 1 3 4 -2 1.35 1.71 1.30 <
3287 2 1 3 4 -1 6.69 5.12 2.52 <
3288 2 1 3 4 1 121.73 143.33 9.43 o
3289 2 1 3 4 2 3.71 2.15 2.69 <
3290 2 1 3 4 3 22.13 32.90 11.39 <
3291 2 1 3 4 4 0.88 4.40 6.20 <
3292 2 3 3 4 -4 0.00 4.27 1.04 o
3293 2 3 3 4 -3 18.82 15.28 2.15 o
3294 2 3 3 4 -2 29.31 23.46 3.85 o
3295 2 3 3 4 -1 32.45 39.22 5.43 o
3296 2 3 3 4 1 0.41 11.37 3.95 <
3297 2 3 3 4 2 5.41 12.74 4.28 <
3298 2 3 3 4 3 0.84 3.83 4.66 <
3299 2 5 3 4 -4 0.00 -0.78 1.62 <
3300 2 5 3 4 -3 19.73 11.74 3.81 o
3301 2 5 3 4 -2 55.35 45.85 4.08 o
3302 2 5 3 4 -1 61.58 72.56 6.07 o
3303 2 5 3 4 2 19.43 30.01 6.82 o
3304 2 5 3 4 3 21.74 22.04 12.79 <
3305 2 7 3 4 -4 0.00 2.53 1.61 <
3306 2 7 3 4 -3 32.53 37.57 7.23 o
3307 2 7 3 4 -2 0.76 -1.59 1.79 <
3308 2 7 3 4 -1 18.79 18.40 3.87 o
3309 2 7 3 4 1 3.45 13.34 5.46 <
3310 2 9 3 4 -3 28.60 34.14 8.40 o
3311 2 9 3 4 -2 22.09 44.16 10.22 o
3312 2 9 3 4 -1 16.43 32.68 8.06 o
3313 2 0 4 4 -2 9.58 7.11 2.53 <
3314 2 0 4 4 2 0.04 4.64 3.46 <
3315 2 2 4 4 -3 3.47 2.83 1.75 <
3316 2 2 4 4 -2 18.94 14.12 4.19 o
3317 2 2 4 4 -1 30.55 30.33 4.71 o
3318 2 2 4 4 1 111.72 133.42 17.08 o
3319 2 2 4 4 2 0.49 2.86 3.59 <
3320 2 4 4 4 -3 37.30 24.55 3.41 o
3321 2 4 4 4 -2 0.87 2.78 1.27 <
3322 2 4 4 4 -1 5.39 2.55 2.21 <
3323 2 4 4 4 1 36.45 43.08 8.90 o
3324 2 6 4 4 -3 35.98 24.72 3.62 o
3325 2 6 4 4 -2 23.66 23.13 4.72 o
3326 2 6 4 4 -1 36.59 49.86 7.61 o
3327 2 8 4 4 -3 42.10 31.29 7.72 o
3328 2 8 4 4 -2 22.73 23.17 5.84 o
3329 2 8 4 4 -1 30.08 31.88 7.02 o
3330 2 10 4 4 -2 4.02 16.94 9.18 <
3331 2 1 5 4 -3 20.89 15.34 7.77 <
3332 2 1 5 4 -2 4.52 7.29 2.37 o
3333 2 1 5 4 -1 3.78 9.60 3.72 <
3334 2 1 5 4 1 63.65 108.85 18.28 o
3335 2 3 5 4 -3 0.64 1.76 1.02 <
3336 2 3 5 4 -2 3.10 3.84 1.87 <
3337 2 3 5 4 -1 15.00 26.94 8.71 o
3338 2 3 5 4 1 0.16 14.47 9.20 <
3339 2 5 5 4 -3 9.46 12.14 2.57 o
3340 2 5 5 4 -2 15.63 19.43 3.90 o
3341 2 5 5 4 -1 32.57 33.14 9.03 o
3342 2 7 5 4 -3 11.76 13.86 4.34 o
3343 2 7 5 4 -2 8.59 23.61 4.44 o
3344 2 7 5 4 -1 10.60 14.44 6.79 <
3345 2 9 5 4 -3 2.53 7.62 4.49 <
3346 2 0 6 4 -2 0.01 1.51 3.89 <
3347 2 2 6 4 -3 1.23 6.87 3.20 <
3348 2 2 6 4 -2 2.71 10.38 4.76 <
3349 2 2 6 4 -1 25.74 38.05 8.36 o
3350 2 4 6 4 -3 24.23 23.31 5.46 o
3351 2 4 6 4 -2 4.43 10.67 3.75 <
3352 2 4 6 4 -1 0.09 0.81 2.23 <
3353 2 6 6 4 -3 2.16 7.15 3.92 <
3354 2 6 6 4 -2 7.00 9.59 3.79 <
3355 2 8 6 4 -3 19.83 10.03 4.92 <
3356 2 1 7 4 -3 2.46 7.22 6.84 <
3357 2 1 7 4 -2 3.88 7.23 3.24 <
3358 2 3 7 4 -3 0.03 -3.41 1.67 <
3359 2 3 7 4 -2 0.69 3.29 3.04 <
3360 2 5 7 4 -3 2.39 4.41 3.11 <
3361 2 2 8 4 -3 0.28 13.37 13.81 <
3362 2 0 0 5 2 1.90 2.53 1.50 <
3363 2 0 0 5 4 3.76 1.55 1.07 <
3364 2 2 0 5 1 1.58 1.75 0.87 <
3365 2 2 0 5 2 0.03 -0.98 0.75 <
3366 2 2 0 5 3 1.11 3.83 1.11 o
3367 2 2 0 5 4 3.74 1.79 1.07 <
3368 2 4 0 5 1 1.96 2.78 0.92 o
3369 2 4 0 5 2 0.02 1.10 1.20 <
3370 2 4 0 5 3 15.42 8.13 2.53 o
3371 2 4 0 5 4 5.15 4.56 2.03 <
3372 2 6 0 5 1 5.27 4.86 2.35 <
3373 2 6 0 5 2 1.15 2.17 2.93 <
3374 2 6 0 5 3 0.08 0.59 3.78 <
3375 2 6 0 5 4 17.01 13.48 3.60 o
3376 2 8 0 5 1 8.51 6.93 4.50 <
3377 2 8 0 5 2 0.32 3.54 2.78 <
3378 2 8 0 5 3 0.83 -3.01 3.64 <
3379 2 8 0 5 4 15.47 8.35 4.39 <
3380 2 10 0 5 1 2.71 8.50 3.79 <
3381 3 -1 -1 5 0 1.02 1.29 1.25 <
3381 2 -1 1 5 0 1.02 1.29 1.25 <
3381 1 2 3 5 -4 1.02 1.29 1.25 <
3382 2 1 1 5 -4 0.35 2.21 1.64 <
3383 2 1 1 5 -3 1.95 2.84 1.22 <
3384 2 1 1 5 -2 4.82 5.42 1.82 <
3385 2 1 1 5 -1 0.07 0.70 0.55 <
3386 2 1 1 5 1 1.70 1.86 1.14 <
3387 2 1 1 5 2 0.13 1.30 1.26 <
3388 2 1 1 5 3 1.39 1.93 1.96 <
3389 2 1 1 5 4 0.16 -0.52 3.06 <
3390 2 3 1 5 -4 4.82 4.66 2.42 <
3391 2 3 1 5 -3 9.36 6.15 2.22 <
3392 2 3 1 5 -2 0.38 0.39 0.86 <
3393 2 3 1 5 -1 1.78 0.41 1.92 <
3394 2 3 1 5 1 1.81 1.33 1.77 <
3395 2 3 1 5 2 1.10 2.31 1.14 <
3396 2 3 1 5 3 2.59 3.30 1.62 <
3397 2 3 1 5 4 13.24 6.60 3.05 <
3398 2 5 1 5 -4 20.62 17.78 3.36 o
3399 2 5 1 5 -3 1.19 3.79 1.14 o
3400 2 5 1 5 -2 0.40 0.37 2.26 <
3401 2 5 1 5 -1 2.51 -0.92 1.64 <
3402 2 5 1 5 1 5.20 8.04 2.78 <
3403 2 5 1 5 2 0.07 -4.25 3.39 <
3404 2 5 1 5 3 0.66 -2.85 3.32 <
3405 2 5 1 5 4 23.41 18.61 4.74 o
3406 2 7 1 5 -4 0.21 -0.39 2.05 <
3407 2 7 1 5 -3 26.32 15.46 4.02 o
3408 2 7 1 5 -2 0.16 4.54 2.93 <
3409 2 7 1 5 1 4.22 0.34 3.51 <
3410 2 7 1 5 2 7.88 9.60 4.26 <
3411 2 7 1 5 3 14.32 12.86 4.34 <
3412 2 7 1 5 4 0.10 -1.62 3.38 <
3413 2 9 1 5 -4 20.83 23.48 6.81 o
3414 2 9 1 5 -3 0.15 2.47 3.19 <
3415 2 9 1 5 -2 2.04 0.92 5.30 <
3416 2 9 1 5 -1 7.40 11.80 4.36 <
3417 2 9 1 5 1 6.67 6.56 3.99 <
3418 2 9 1 5 2 2.13 2.73 2.29 <
3419 3 -2 -2 5 0 32.39 30.95 4.55 o
3419 2 -2 2 5 0 32.39 30.95 4.55 o
3419 1 4 3 5 -4 32.39 30.95 4.55 o
3420 2 0 2 5 -4 1.55 4.39 1.48 <
3421 2 0 2 5 -2 3.56 4.14 1.56 <
3422 2 0 2 5 2 8.30 9.60 5.59 <
3423 2 0 2 5 4 2.82 0.78 1.43 <
3424 2 2 2 5 -4 6.17 8.52 2.34 o
3425 2 2 2 5 -3 0.52 1.89 1.24 <
3426 2 2 2 5 -2 2.67 3.47 1.36 <
3427 2 2 2 5 -1 0.34 0.96 1.14 <
3428 2 2 2 5 1 3.27 2.23 1.08 <
3429 2 2 2 5 2 3.02 2.67 1.56 <
3430 2 2 2 5 3 4.54 4.77 2.62 <
3431 2 4 2 5 -4 0.35 1.77 1.30 <
3432 2 4 2 5 -3 28.86 20.86 6.42 o
3433 2 4 2 5 -2 0.86 2.09 0.87 <
3434 2 4 2 5 -1 4.56 5.92 1.31 o
3435 2 4 2 5 1 4.62 5.96 2.43 <
3436 2 4 2 5 2 0.12 5.13 2.91 <
3437 2 4 2 5 3 1.37 3.13 1.94 <
3438 2 4 2 5 4 2.61 3.52 3.01 <
3439 2 6 2 5 -4 25.37 20.79 5.06 o
3440 2 6 2 5 -3 1.21 2.98 1.85 <
3441 2 6 2 5 -2 5.25 4.49 2.96 <
3442 2 6 2 5 -1 2.56 5.07 2.37 <
3443 2 6 2 5 1 1.87 3.88 2.10 <
3444 2 6 2 5 2 0.04 2.58 2.08 <
3445 2 6 2 5 3 0.49 -0.03 2.90 <
3446 2 8 2 5 -4 15.24 13.27 3.15 o
3447 2 8 2 5 -3 2.45 10.02 5.25 <
3448 2 8 2 5 -2 0.32 4.21 2.82 <
3449 2 8 2 5 -1 2.29 11.40 4.51 <
3450 2 8 2 5 1 4.69 9.60 5.39 <
3451 2 10 2 5 -4 7.77 4.60 2.94 <
3452 2 10 2 5 -2 4.49 3.65 5.82 <
3453 2 10 2 5 -1 3.54 3.30 6.76 <
3454 3 -3 -3 5 0 6.77 7.40 3.29 <
3454 2 -3 3 5 0 6.77 7.40 3.29 <
3454 1 6 3 5 -4 6.77 7.40 3.29 <
3455 2 1 3 5 -4 10.42 10.85 1.69 o
3456 2 1 3 5 -3 0.05 0.36 0.59 <
3457 2 1 3 5 -2 0.27 2.68 1.21 <
3458 2 1 3 5 -1 2.58 2.41 1.74 <
3459 2 1 3 5 1 9.99 9.49 2.27 o
3460 2 1 3 5 2 0.20 0.82 2.69 <
3461 2 1 3 5 3 1.31 -0.86 0.81 <
3462 2 3 3 5 -4 3.42 2.45 1.09 <
3463 2 3 3 5 -3 0.46 0.23 0.85 <
3464 2 3 3 5 -2 2.08 1.22 1.05 <
3465 2 3 3 5 -1 0.03 0.16 1.09 <
3466 2 3 3 5 1 0.00 5.11 2.59 <
3467 2 3 3 5 2 1.40 7.35 4.76 <
3468 2 3 3 5 3 0.05 2.15 4.67 <
3469 2 5 3 5 -4 10.63 13.60 7.20 <
3470 2 5 3 5 -3 0.57 1.40 1.82 <
3471 2 5 3 5 -2 4.48 3.79 1.80 <
3472 2 5 3 5 -1 0.77 2.62 2.52 <
3473 2 5 3 5 1 7.18 7.21 3.16 <
3474 2 7 3 5 -4 0.02 4.40 3.76 <
3475 2 7 3 5 -3 24.11 15.86 5.44 <
3476 2 7 3 5 -1 5.70 1.52 3.49 <
3477 2 7 3 5 1 6.29 8.35 5.44 <
3478 2 9 3 5 -3 8.23 17.61 5.76 o
3479 2 9 3 5 -2 1.35 2.11 3.25 <
3480 2 9 3 5 -1 1.79 6.13 5.98 <
3481 3 -4 -4 5 0 0.85 11.88 5.85 <
3481 2 -4 4 5 0 0.85 11.88 5.85 <
3481 1 8 3 5 -4 0.85 11.88 5.85 <
3482 2 0 4 5 -2 1.08 3.39 3.09 <
3483 2 0 4 5 2 3.63 8.05 6.29 <
3484 2 2 4 5 -3 1.84 2.44 1.30 <
3485 2 2 4 5 -2 0.11 1.40 1.30 <
3486 2 2 4 5 -1 0.98 3.77 3.31 <
3487 2 2 4 5 1 8.08 4.42 2.51 <
3488 2 2 4 5 2 0.07 5.42 2.29 <
3489 2 4 4 5 -3 13.69 12.33 1.84 o
3490 2 4 4 5 -2 3.86 2.80 1.65 <
3491 2 4 4 5 -1 8.22 7.58 3.44 <
3492 2 4 4 5 1 10.27 7.09 2.94 <
3493 2 6 4 5 -3 0.01 2.71 1.74 <
3494 2 6 4 5 -2 3.88 6.99 2.31 o
3495 2 6 4 5 -1 0.10 3.62 3.69 <
3496 2 6 4 5 1 0.04 0.03 4.46 <
3497 2 8 4 5 -3 3.93 0.65 2.59 <
3498 2 8 4 5 -2 0.07 4.05 5.13 <
3499 2 8 4 5 -1 0.08 8.87 9.38 <
3500 2 10 4 5 -3 23.48 19.27 12.03 <
3501 2 1 5 5 -3 0.24 2.89 1.93 <
3502 2 1 5 5 -2 1.99 4.63 1.73 <
3503 2 1 5 5 -1 4.13 3.71 1.89 <
3504 2 1 5 5 1 11.14 -1.44 3.19 <
3505 2 3 5 5 -3 0.01 2.89 1.33 <
3506 2 3 5 5 -2 2.04 4.24 2.44 <
3507 2 5 5 5 -3 2.34 4.51 1.90 <
3508 2 5 5 5 -2 0.25 0.36 1.60 <
3509 2 7 5 5 -3 20.06 18.74 6.61 <
3510 2 7 5 5 -2 0.06 0.78 2.38 <
3511 2 7 5 5 -1 7.29 4.74 5.02 <
3512 2 9 5 5 -3 6.27 3.84 5.75 <
3513 2 0 6 5 -2 0.40 5.49 3.78 <
3514 2 2 6 5 -3 1.79 0.46 1.73 <
3515 2 2 6 5 -2 0.40 5.79 5.22 <
3516 2 2 6 5 -1 0.38 0.05 1.10 <
3517 2 4 6 5 -3 4.14 3.16 3.15 <
3518 2 4 6 5 -2 0.59 3.52 3.28 <
3519 2 4 6 5 -1 6.18 7.66 4.76 <
3520 2 6 6 5 -3 2.37 9.40 5.02 <
3521 2 6 6 5 -2 1.18 0.69 4.78 <
3522 2 8 6 5 -3 3.57 -1.66 4.16 <
3523 2 1 7 5 -3 0.51 2.32 3.60 <
3524 2 1 7 5 -2 2.50 4.75 4.38 <
3525 2 3 7 5 -3 0.01 5.80 5.63 <
3526 2 3 7 5 -2 0.11 8.32 5.75 <
3527 2 5 7 5 -3 0.85 2.73 2.82 <
3528 2 2 8 5 -3 0.39 5.57 5.24 <
3529 2 0 0 6 2 106.90 78.37 9.74 o
3530 2 0 0 6 4 14.26 5.75 2.98 <
3531 2 2 0 6 1 150.97 120.25 16.79 o
3532 2 2 0 6 2 66.61 55.39 5.85 o
3533 2 2 0 6 3 1.01 -3.03 3.28 <
3534 2 2 0 6 4 20.24 14.53 3.25 o
3535 2 4 0 6 1 7.62 6.61 2.09 o
3536 2 4 0 6 2 1.98 3.84 2.43 <
3537 2 4 0 6 3 7.02 5.69 2.20 <
3538 2 4 0 6 4 0.00 -1.48 2.13 <
3539 2 6 0 6 1 61.30 60.15 10.48 o
3540 2 6 0 6 2 53.98 60.79 11.37 o
3541 2 6 0 6 3 3.69 2.33 2.68 <
3542 2 6 0 6 4 0.60 1.64 1.84 <
3543 2 8 0 6 1 20.64 26.53 7.13 o
3544 2 8 0 6 2 51.75 60.03 12.60 o
3545 2 8 0 6 3 1.19 3.99 2.52 <
3546 2 8 0 6 4 12.46 7.90 4.22 <
3547 2 10 0 6 1 5.52 -1.17 7.20 <
3548 2 1 1 6 -4 0.36 1.74 1.03 <
3549 2 1 1 6 -3 2.28 0.76 1.12 <
3550 2 1 1 6 -2 6.37 4.19 1.59 <
3551 2 1 1 6 -1 37.16 25.88 2.47 o
3552 2 1 1 6 1 127.12 106.51 8.19 o
3553 2 1 1 6 2 10.62 9.27 2.44 o
3554 2 1 1 6 3 7.00 5.45 2.16 <
3555 2 1 1 6 4 0.33 0.26 1.95 <
3556 2 3 1 6 -4 1.38 0.92 1.31 <
3557 2 3 1 6 -3 4.04 3.58 2.21 <
3558 2 3 1 6 -2 74.69 54.81 8.07 o
3559 2 3 1 6 -1 57.23 55.86 10.96 o
3560 2 3 1 6 1 24.68 24.45 5.75 o
3561 2 3 1 6 2 83.54 78.28 6.25 o
3562 2 3 1 6 3 0.20 3.11 1.94 <
3563 2 3 1 6 4 0.08 2.37 2.43 <
3564 2 5 1 6 -4 11.64 6.24 2.76 <
3565 2 5 1 6 -3 0.17 -0.26 1.09 <
3566 2 5 1 6 -2 85.01 67.38 8.73 o
3567 2 5 1 6 -1 66.91 75.93 9.39 o
3568 2 5 1 6 1 72.28 64.54 7.52 o
3569 2 5 1 6 2 80.60 97.48 12.05 o
3570 2 5 1 6 3 0.02 -0.81 1.64 <
3571 2 5 1 6 4 13.91 10.72 8.02 <
3572 2 7 1 6 -4 8.91 10.79 7.93 <
3573 2 7 1 6 -3 13.73 15.45 6.42 <
3574 2 7 1 6 -2 3.71 7.78 4.45 <
3575 2 7 1 6 -1 11.94 18.58 9.20 <
3576 2 7 1 6 1 0.03 4.27 5.47 <
3577 2 7 1 6 2 2.25 5.23 3.15 <
3578 2 7 1 6 3 22.31 19.90 9.73 <
3579 2 7 1 6 4 12.74 19.66 13.10 <
3580 2 9 1 6 -4 1.22 3.61 2.60 <
3581 2 9 1 6 -3 2.54 -1.79 4.14 <
3582 2 9 1 6 -2 20.88 31.14 14.15 <
3583 2 9 1 6 1 19.32 20.00 7.97 <
3584 2 0 2 6 -4 2.01 3.40 1.95 <
3585 2 0 2 6 -2 41.10 23.36 4.52 o
3586 2 0 2 6 2 51.36 35.96 6.46 o
3587 2 0 2 6 4 0.71 3.80 2.95 <
3588 2 2 2 6 -4 4.01 3.79 1.12 o
3589 2 2 2 6 -3 7.93 5.58 1.33 o
3590 2 2 2 6 -2 32.28 26.93 2.78 o
3591 2 2 2 6 -1 45.90 38.15 4.06 o
3592 2 2 2 6 1 169.82 169.61 9.85 o
3593 2 2 2 6 2 44.19 35.67 4.85 o
3594 2 2 2 6 3 0.40 -0.39 1.64 <
3595 2 2 2 6 4 4.74 7.86 7.58 <
3596 2 4 2 6 -4 0.40 2.10 1.29 <
3597 2 4 2 6 -3 0.61 0.14 0.58 <
3598 2 4 2 6 -2 3.44 2.70 1.53 <
3599 2 4 2 6 -1 7.91 9.65 2.28 o
3600 2 4 2 6 1 48.06 55.22 6.58 o
3601 2 4 2 6 3 24.45 24.19 4.95 o
3602 2 4 2 6 4 2.33 0.78 2.96 <
3603 2 6 2 6 -4 0.00 5.35 2.89 <
3604 2 6 2 6 -3 24.15 25.38 7.79 o
3605 2 6 2 6 -2 25.85 21.10 9.02 <
3606 2 6 2 6 -1 109.56 111.40 15.56 o
3607 2 6 2 6 1 11.96 11.12 2.92 o
3608 2 6 2 6 2 37.21 63.23 13.07 o
3609 2 6 2 6 3 29.14 24.07 7.86 o
3610 2 8 2 6 -4 2.12 -5.41 2.65 <
3611 2 8 2 6 -3 1.58 5.00 3.61 <
3612 2 8 2 6 -2 28.60 30.74 9.03 o
3613 2 8 2 6 -1 18.66 44.48 15.53 <
3614 2 8 2 6 1 15.12 13.08 4.30 o
3615 2 10 2 6 -3 5.66 2.35 6.05 <
3616 2 10 2 6 -2 0.60 3.73 5.45 <
3617 2 10 2 6 -1 14.88 15.58 10.08 <
3618 2 1 3 6 -4 0.00 1.24 0.91 <
3619 2 1 3 6 -3 12.02 7.09 1.55 o
3620 2 1 3 6 -2 0.63 3.32 1.55 <
3621 2 1 3 6 -1 0.08 0.13 1.06 <
3622 2 1 3 6 1 128.50 148.55 10.40 o
3623 2 1 3 6 2 3.13 6.37 2.63 <
3624 2 1 3 6 3 12.91 8.09 4.34 <
3625 2 1 3 6 4 2.80 1.01 1.99 <
3626 2 3 3 6 -4 0.00 2.27 1.88 <
3627 2 3 3 6 -3 1.69 1.74 0.90 <
3628 2 3 3 6 -2 5.18 3.44 1.40 <
3629 2 3 3 6 -1 59.41 69.48 6.64 o
3630 2 3 3 6 1 4.95 9.85 3.18 o
3631 2 3 3 6 2 26.93 31.60 7.13 o
3632 2 3 3 6 3 7.98 12.81 5.72 <
3633 2 5 3 6 -4 0.00 0.03 2.18 <
3634 2 5 3 6 -3 0.21 2.82 2.39 <
3635 2 5 3 6 -2 18.90 11.42 3.62 o
3636 2 5 3 6 -1 20.29 50.37 9.29 o
3637 2 5 3 6 1 62.48 58.50 8.50 o
3638 2 5 3 6 2 31.27 36.01 7.47 o
3639 2 7 3 6 -4 0.00 1.64 2.39 <
3640 2 7 3 6 -3 9.08 6.51 2.72 <
3641 2 7 3 6 -2 1.83 -7.47 6.69 <
3642 2 7 3 6 -1 30.64 37.41 5.52 o
3643 2 7 3 6 1 5.37 19.43 6.47 o
3644 2 9 3 6 -4 0.00 8.05 5.06 <
3645 2 9 3 6 -3 5.43 9.16 9.37 <
3646 2 9 3 6 -2 11.15 8.72 3.87 <
3647 2 9 3 6 -1 64.97 60.74 11.18 o
3648 2 0 4 6 2 13.38 12.20 7.89 <
3649 2 2 4 6 -3 0.83 0.81 1.26 <
3650 2 2 4 6 -2 0.31 4.26 2.02 <
3651 2 2 4 6 -1 6.62 13.98 4.89 <
3652 2 2 4 6 2 8.44 12.03 8.36 <
3653 2 4 4 6 -3 0.06 -0.22 1.45 <
3654 2 4 4 6 -2 7.13 5.51 2.52 <
3655 2 4 4 6 -1 23.51 23.03 6.76 o
3656 2 4 4 6 1 38.72 55.90 9.13 o
3657 2 6 4 6 -3 0.59 -4.11 3.25 <
3658 2 6 4 6 -2 2.03 2.89 1.97 <
3659 2 6 4 6 -1 73.82 81.56 10.00 o
3660 2 8 4 6 -3 17.64 20.33 7.87 <
3661 2 8 4 6 -2 2.91 6.13 5.74 <
3662 2 8 4 6 -1 11.68 45.28 9.85 o
3663 2 1 5 6 -3 2.17 -1.33 1.61 <
3664 2 1 5 6 -2 10.14 8.88 4.02 <
3665 2 1 5 6 -1 1.52 -0.84 1.38 <
3666 2 3 5 6 -3 7.54 8.94 2.86 o
3667 2 3 5 6 -2 8.78 11.59 3.17 o
3668 2 3 5 6 -1 26.58 30.63 7.54 o
3669 2 5 5 6 -3 0.30 -3.71 3.40 <
3670 2 5 5 6 -2 0.58 4.72 2.61 <
3671 2 5 5 6 -1 6.37 26.76 8.45 o
3672 2 7 5 6 -3 0.34 2.11 4.53 <
3673 2 7 5 6 -2 0.30 0.62 2.54 <
3674 2 0 6 6 -2 34.89 26.01 11.28 <
3675 2 2 6 6 -3 0.43 -2.02 1.85 <
3676 2 2 6 6 -2 6.70 11.09 4.19 <
3677 2 2 6 6 -1 0.35 1.10 1.85 <
3678 2 4 6 6 -2 4.46 12.25 3.89 o
3679 2 6 6 6 -3 1.05 3.49 4.26 <
3680 2 8 6 6 -3 3.39 16.00 10.84 <
3681 2 1 7 6 -3 6.17 1.43 2.95 <
3682 2 1 7 6 -2 13.53 14.23 5.93 <
3683 2 3 7 6 -3 0.13 2.57 3.68 <
3684 2 3 7 6 -2 20.57 23.42 10.44 <
3685 2 5 7 6 -3 6.87 2.23 3.61 <
3686 2 0 0 7 2 0.27 1.51 1.47 <
3687 2 0 0 7 4 9.80 4.45 2.52 <
3688 2 2 0 7 1 0.50 0.75 1.22 <
3689 2 2 0 7 2 3.06 5.97 3.20 <
3690 2 2 0 7 3 0.36 0.22 1.02 <
3691 2 2 0 7 4 9.59 6.52 1.60 o
3692 2 4 0 7 1 0.00 0.57 2.00 <
3693 2 4 0 7 2 1.75 -0.26 2.06 <
3694 2 4 0 7 3 0.27 0.75 3.49 <
3695 2 4 0 7 4 0.28 0.45 2.83 <
3696 2 6 0 7 1 0.67 1.22 4.11 <
3697 2 6 0 7 2 2.42 -1.30 4.18 <
3698 2 6 0 7 3 6.75 2.21 2.93 <
3699 2 6 0 7 4 26.76 22.97 6.00 o
3700 2 8 0 7 2 2.67 3.76 2.89 <
3701 2 8 0 7 3 7.52 4.19 4.29 <
3702 3 -1 -1 7 0 2.22 2.22 1.42 <
3702 2 -1 1 7 0 2.22 2.22 1.42 <
3702 1 2 3 7 -4 2.22 2.22 1.42 <
3703 2 1 1 7 -4 3.68 3.18 0.92 o
3704 2 1 1 7 -3 0.12 2.42 0.96 <
3705 2 1 1 7 -2 0.32 1.37 0.77 <
3706 2 1 1 7 -1 0.10 -0.39 0.91 <
3707 2 1 1 7 1 0.13 2.20 1.07 <
3708 2 1 1 7 2 6.03 3.59 1.21 <
3709 2 1 1 7 3 2.15 0.15 2.21 <
3710 2 1 1 7 4 0.25 1.85 2.50 <
3711 2 3 1 7 -4 7.12 8.34 4.45 <
3712 2 3 1 7 -3 30.90 24.04 3.69 o
3713 2 3 1 7 -2 0.53 1.92 1.20 <
3714 2 3 1 7 -1 0.19 1.63 2.44 <
3715 2 3 1 7 1 0.47 0.14 1.21 <
3716 2 3 1 7 2 0.34 2.62 1.64 <
3717 2 3 1 7 3 15.49 10.00 5.31 <
3718 2 3 1 7 4 12.14 10.27 4.86 <
3719 2 5 1 7 -4 8.52 17.60 8.89 <
3720 2 5 1 7 -3 5.95 5.11 2.21 <
3721 2 5 1 7 -2 0.72 0.28 1.06 <
3722 2 5 1 7 -1 4.60 4.44 2.05 <
3723 2 5 1 7 1 6.40 4.12 2.15 <
3724 2 5 1 7 2 4.07 0.80 1.72 <
3725 2 5 1 7 3 0.10 0.33 1.85 <
3726 2 5 1 7 4 18.71 7.32 5.12 <
3727 2 7 1 7 -4 0.66 0.96 2.00 <
3728 2 7 1 7 -3 0.87 1.66 1.13 <
3729 2 7 1 7 -2 1.16 0.21 2.38 <
3730 2 7 1 7 -1 0.15 1.67 3.67 <
3731 2 7 1 7 1 0.24 1.53 3.75 <
3732 2 7 1 7 2 1.39 2.00 3.01 <
3733 2 7 1 7 3 0.16 3.09 4.11 <
3734 2 9 1 7 -4 29.08 16.41 6.89 <
3735 2 9 1 7 -3 21.01 12.27 8.50 <
3736 2 9 1 7 -1 1.63 6.68 5.72 <
3737 2 9 1 7 1 2.21 7.04 4.45 <
3738 2 9 1 7 2 3.20 11.35 10.16 <
3739 3 -2 -2 7 0 1.74 3.82 2.71 <
3739 2 -2 2 7 0 1.74 3.82 2.71 <
3739 1 4 3 7 -4 1.74 3.82 2.71 <
3740 2 0 2 7 -4 2.09 5.91 1.90 o
3741 2 0 2 7 2 2.24 4.17 4.58 <
3742 2 0 2 7 4 3.40 2.95 4.64 <
3743 2 2 2 7 -4 1.77 4.92 1.92 <
3744 2 2 2 7 -3 0.48 2.91 1.33 <
3745 2 2 2 7 -2 0.20 1.26 1.17 <
3746 2 2 2 7 -1 0.01 -0.75 1.05 <
3747 2 2 2 7 1 3.64 4.04 1.69 <
3748 2 2 2 7 2 5.23 3.33 2.24 <
3749 2 2 2 7 4 2.98 7.31 4.90 <
3750 2 4 2 7 -4 1.43 1.15 1.55 <
3751 2 4 2 7 -3 0.06 2.89 2.57 <
3752 2 4 2 7 -2 2.62 -2.61 3.81 <
3753 2 4 2 7 -1 0.01 -0.29 1.14 <
3754 2 4 2 7 1 2.12 -1.92 2.64 <
3755 2 4 2 7 2 0.01 -1.90 3.21 <
3756 2 4 2 7 3 0.81 -2.56 2.99 <
3757 2 4 2 7 4 7.04 10.74 6.64 <
3758 2 6 2 7 -4 29.40 27.16 5.35 o
3759 2 6 2 7 -3 33.12 20.45 5.02 o
3760 2 6 2 7 -2 1.89 8.25 2.36 o
3761 2 6 2 7 -1 0.01 4.50 5.48 <
3762 2 6 2 7 2 1.40 9.23 6.16 <
3763 2 8 2 7 -4 6.75 10.23 4.06 <
3764 2 8 2 7 -3 18.83 17.03 9.18 <
3765 2 8 2 7 -2 0.01 0.74 2.54 <
3766 2 8 2 7 1 8.11 3.49 3.16 <
3767 2 1 3 7 -4 0.04 0.18 0.96 <
3768 2 1 3 7 -3 0.46 2.21 1.01 <
3769 2 1 3 7 -2 0.68 1.17 1.07 <
3770 2 1 3 7 -1 0.14 1.16 0.89 <
3771 2 1 3 7 1 6.78 9.24 3.37 <
3772 2 1 3 7 2 6.11 4.26 3.36 <
3773 2 1 3 7 3 2.66 3.53 2.90 <
3774 2 3 3 7 -3 3.52 3.09 2.94 <
3775 2 3 3 7 -2 2.42 2.16 1.19 <
3776 2 3 3 7 -1 1.17 0.45 1.41 <
3777 2 3 3 7 1 0.13 5.90 4.23 <
3778 2 3 3 7 2 0.04 5.44 3.60 <
3779 2 5 3 7 -3 6.59 5.96 2.05 <
3780 2 5 3 7 -1 1.46 3.88 3.29 <
3781 2 5 3 7 1 7.23 9.06 3.83 <
3782 2 5 3 7 2 7.78 4.64 2.73 <
3783 2 7 3 7 -3 0.02 -0.20 2.64 <
3784 2 7 3 7 -2 0.01 -3.93 2.94 <
3785 2 7 3 7 -1 0.36 7.43 5.18 <
3786 2 9 3 7 -3 0.03 0.97 2.31 <
3787 2 9 3 7 -2 1.79 2.35 2.82 <
3788 2 9 3 7 -1 0.15 -1.78 3.84 <
3789 2 0 4 7 -2 0.01 3.15 3.87 <
3790 2 0 4 7 2 0.24 -2.24 3.42 <
3791 2 2 4 7 -3 0.04 1.17 0.89 <
3792 2 2 4 7 -2 3.32 6.20 2.17 <
3793 2 2 4 7 -1 0.69 -0.27 1.22 <
3794 2 2 4 7 1 7.86 8.58 3.21 <
3795 2 2 4 7 2 5.85 3.25 4.61 <
3796 2 4 4 7 -3 0.21 -0.63 1.29 <
3797 2 4 4 7 -2 0.03 -1.72 2.21 <
3798 2 4 4 7 -1 1.80 2.73 2.17 <
3799 2 4 4 7 1 6.74 10.38 7.89 <
3800 2 6 4 7 -3 19.33 14.79 4.49 o
3801 2 6 4 7 -2 1.90 -0.28 2.30 <
3802 2 6 4 7 -1 2.46 6.18 3.01 <
3803 2 8 4 7 -3 34.36 22.26 6.16 o
3804 2 8 4 7 -1 1.48 7.15 8.31 <
3805 2 1 5 7 -3 5.57 3.38 2.57 <
3806 2 1 5 7 -2 0.51 5.85 2.91 <
3807 2 1 5 7 -1 0.71 0.97 1.58 <
3808 2 1 5 7 1 10.83 12.98 8.19 <
3809 2 3 5 7 -3 6.12 8.03 2.58 o
3810 2 3 5 7 -2 0.10 -2.48 2.36 <
3811 2 3 5 7 -1 2.75 4.25 4.83 <
3812 2 5 5 7 -3 8.56 7.64 2.87 <
3813 2 5 5 7 -2 0.68 5.16 2.75 <
3814 2 5 5 7 -1 0.01 -2.11 2.65 <
3815 2 7 5 7 -3 0.37 2.96 3.31 <
3816 2 7 5 7 -2 0.30 1.31 3.46 <
3817 2 0 6 7 -2 0.68 0.15 4.19 <
3818 2 2 6 7 -3 0.03 0.93 2.11 <
3819 2 2 6 7 -2 0.00 -0.56 2.84 <
3820 2 2 6 7 -1 0.21 1.04 2.62 <
3821 2 4 6 7 -3 0.49 2.44 2.59 <
3822 2 4 6 7 -2 0.01 2.40 6.85 <
3823 2 6 6 7 -3 0.42 1.93 0.65 <
3824 2 1 7 7 -3 0.05 1.69 1.74 <
3825 2 1 7 7 -2 0.00 5.41 5.19 <
3826 2 3 7 7 -3 3.83 6.37 5.59 <
3827 2 2 8 7 -3 0.25 -7.68 7.30 <
3828 2 0 0 8 2 33.76 24.90 5.96 o
3829 2 0 0 8 4 21.26 11.63 3.43 o
3830 2 2 0 8 1 68.98 60.85 5.74 o
3831 2 2 0 8 2 74.40 72.60 7.65 o
3832 2 2 0 8 3 7.47 3.60 1.57 <
3833 2 2 0 8 4 26.50 21.83 3.52 o
3834 2 4 0 8 1 23.50 19.49 9.18 <
3835 2 4 0 8 2 2.76 4.48 2.56 <
3836 2 4 0 8 3 14.14 10.80 3.88 <
3837 2 4 0 8 4 2.54 3.07 3.78 <
3838 2 6 0 8 2 23.44 26.21 10.33 <
3839 2 6 0 8 3 39.68 26.32 11.62 <
3840 2 6 0 8 4 2.35 -0.25 3.36 <
3841 2 8 0 8 3 11.54 17.16 9.98 <
3842 2 1 1 8 -4 19.96 22.71 5.00 o
3843 2 1 1 8 -3 1.63 1.60 0.61 <
3844 2 1 1 8 -2 2.36 3.86 1.48 <
3845 2 1 1 8 -1 36.75 34.47 2.91 o
3846 2 1 1 8 1 107.36 104.06 5.35 o
3847 2 1 1 8 2 0.93 1.85 1.60 <
3848 2 1 1 8 3 12.29 11.79 3.73 o
3849 2 1 1 8 4 11.02 9.66 5.70 <
3850 2 3 1 8 -4 18.79 13.20 4.61 <
3851 2 3 1 8 -3 24.28 19.73 4.38 o
3852 2 3 1 8 -2 33.60 30.20 4.59 o
3853 2 3 1 8 1 12.69 14.97 4.74 o
3854 2 3 1 8 2 10.94 19.01 5.12 o
3855 2 3 1 8 3 3.43 10.48 3.21 o
3856 2 3 1 8 4 18.43 12.70 4.09 o
3857 2 5 1 8 -4 20.58 7.61 4.16 <
3858 2 5 1 8 -3 0.13 2.04 2.79 <
3859 2 5 1 8 -2 90.41 76.58 8.84 o
3860 2 5 1 8 -1 18.87 29.67 5.11 o
3861 2 5 1 8 1 26.13 26.45 4.72 o
3862 2 5 1 8 2 81.54 90.23 20.72 o
3863 2 5 1 8 3 6.36 5.88 2.78 <
3864 2 5 1 8 4 17.96 9.33 5.08 <
3865 2 7 1 8 -4 0.42 9.09 8.81 <
3866 2 7 1 8 -3 5.34 6.48 3.36 <
3867 2 7 1 8 -2 11.05 14.40 7.19 <
3868 2 7 1 8 -1 1.66 5.38 4.91 <
3869 2 7 1 8 1 16.73 19.66 8.29 <
3870 2 7 1 8 2 14.52 14.31 4.89 <
3871 2 7 1 8 3 19.54 11.74 5.68 <
3872 2 9 1 8 -1 36.38 65.94 15.42 o
3873 2 0 2 8 -4 6.58 8.71 2.43 o
3874 2 0 2 8 -2 42.37 34.66 9.23 o
3875 2 0 2 8 2 2.03 1.34 2.15 <
3876 2 0 2 8 4 20.28 15.58 5.23 <
3877 2 2 2 8 -4 1.77 0.99 1.17 <
3878 2 2 2 8 -3 3.22 2.85 2.17 <
3879 2 2 2 8 -2 25.95 20.62 7.70 <
3880 2 2 2 8 -1 32.68 32.38 5.14 o
3881 2 2 2 8 1 84.04 113.80 14.62 o
3882 2 2 2 8 2 28.73 25.07 5.45 o
3883 2 2 2 8 3 10.71 7.14 3.46 <
3884 2 2 2 8 4 23.67 13.76 5.20 <
3885 2 4 2 8 -4 0.41 -0.38 1.64 <
3886 2 4 2 8 -3 0.26 0.28 1.17 <
3887 2 4 2 8 -2 9.50 9.29 3.17 <
3888 2 4 2 8 -1 1.02 3.11 2.32 <
3889 2 4 2 8 1 65.77 83.41 10.80 o
3890 2 4 2 8 2 4.25 2.06 3.93 <
3891 2 4 2 8 3 26.81 13.09 8.03 <
3892 2 4 2 8 4 7.95 3.14 2.51 <
3893 2 6 2 8 -4 0.77 -1.75 3.52 <
3894 2 6 2 8 -3 71.02 130.65 14.83 o
3895 2 6 2 8 -2 36.24 37.61 6.33 o
3896 2 6 2 8 -1 71.42 82.87 9.61 o
3897 2 6 2 8 1 9.58 24.89 11.62 <
3898 2 6 2 8 2 5.20 35.92 7.22 o
3899 2 8 2 8 -4 1.35 -0.12 1.77 <
3900 2 8 2 8 -3 7.46 9.81 5.94 <
3901 2 8 2 8 -2 43.91 42.51 9.29 o
3902 2 8 2 8 -1 5.24 35.14 7.22 o
3903 2 1 3 8 -4 0.00 -1.04 1.53 <
3904 2 1 3 8 -3 8.35 5.11 1.77 <
3905 2 1 3 8 -2 1.07 3.45 1.40 <
3906 2 1 3 8 -1 5.69 11.25 2.49 o
3907 2 1 3 8 1 105.76 152.13 25.99 o
3908 2 1 3 8 2 2.67 7.70 3.67 <
3909 2 1 3 8 3 32.34 20.08 10.80 <
3910 2 3 3 8 -4 0.00 6.06 4.50 <
3911 2 3 3 8 -3 36.74 38.11 6.63 o
3912 2 3 3 8 -2 36.67 28.06 3.98 o
3913 2 3 3 8 -1 40.63 48.00 14.18 o
3914 2 3 3 8 1 3.08 10.73 2.89 o
3915 2 3 3 8 2 0.02 2.25 3.10 <
3916 2 3 3 8 3 0.34 20.49 14.67 <
3917 2 5 3 8 -4 0.00 -5.58 5.21 <
3918 2 5 3 8 -3 0.42 1.72 1.26 <
3919 2 5 3 8 -2 36.10 28.45 5.35 o
3920 2 5 3 8 -1 16.17 24.06 12.14 <
3921 2 5 3 8 1 18.48 28.12 7.58 o
3922 2 7 3 8 -4 0.00 1.64 3.62 <
3923 2 7 3 8 -3 1.13 0.00 3.72 <
3924 2 7 3 8 -2 0.50 4.08 2.71 <
3925 2 7 3 8 -1 1.28 3.38 2.53 <
3926 2 9 3 8 -4 0.00 0.72 2.16 <
3927 2 0 4 8 -2 10.55 9.78 3.37 <
3928 2 2 4 8 -3 22.64 25.77 5.44 o
3929 2 2 4 8 -2 3.28 6.66 3.49 <
3930 2 2 4 8 -1 14.25 30.19 12.64 <
3931 2 2 4 8 1 71.75 83.81 14.20 o
3932 2 4 4 8 -3 6.30 5.41 3.54 <
3933 2 4 4 8 -2 0.80 -0.45 1.77 <
3934 2 4 4 8 -1 0.05 0.25 3.25 <
3935 2 4 4 8 1 66.26 72.09 15.78 o
3936 2 6 4 8 -3 72.99 91.17 15.71 o
3937 2 6 4 8 -2 23.97 25.11 11.20 <
3938 2 6 4 8 -1 62.46 61.46 9.57 o
3939 2 8 4 8 -3 0.03 8.47 6.55 <
3940 2 1 5 8 -3 7.42 3.94 1.96 <
3941 2 1 5 8 -1 4.55 27.86 8.00 o
3942 2 1 5 8 1 63.76 78.63 22.39 o
3943 2 3 5 8 -3 16.83 21.21 7.60 <
3944 2 3 5 8 -2 16.38 16.61 3.79 o
3945 2 3 5 8 -1 22.31 33.49 5.62 o
3946 2 5 5 8 -3 1.37 0.59 2.88 <
3947 2 5 5 8 -2 0.89 8.57 4.18 <
3948 2 5 5 8 -1 12.43 32.96 6.62 o
3949 2 7 5 8 -3 1.73 8.52 5.82 <
3950 2 7 5 8 -2 0.13 18.20 9.49 <
3951 2 0 6 8 -2 8.83 9.26 5.18 <
3952 2 2 6 8 -3 3.78 3.15 2.84 <
3953 2 2 6 8 -2 0.65 8.09 3.85 <
3954 2 2 6 8 -1 14.74 24.08 8.57 <
3955 2 4 6 8 -3 0.05 2.78 3.18 <
3956 2 4 6 8 -2 0.01 11.92 6.74 <
3957 2 6 6 8 -3 28.45 28.60 14.69 <
3958 2 1 7 8 -2 1.04 -1.65 3.04 <
3959 2 3 7 8 -3 3.72 15.58 6.92 <
3960 2 0 0 9 2 2.88 1.89 1.57 <
3961 2 0 0 9 4 0.08 1.42 1.91 <
3962 2 2 0 9 1 0.93 1.90 1.53 <
3963 2 2 0 9 2 0.12 0.12 2.03 <
3964 2 2 0 9 3 0.49 -0.45 1.64 <
3965 2 2 0 9 4 11.26 8.73 2.19 o
3966 2 4 0 9 1 0.12 0.39 1.38 <
3967 2 4 0 9 2 0.10 1.25 1.60 <
3968 2 4 0 9 3 1.72 -1.61 3.88 <
3969 2 6 0 9 1 2.23 2.73 2.36 <
3970 2 6 0 9 2 0.48 1.05 2.23 <
3971 2 6 0 9 3 44.62 26.51 5.27 o
3972 2 6 0 9 4 8.83 3.30 3.32 <
3973 2 8 0 9 1 10.10 2.02 2.50 <
3974 2 8 0 9 2 0.01 1.17 2.89 <
3975 2 8 0 9 3 17.10 16.25 7.01 <
3976 2 1 1 9 -4 0.58 2.22 1.17 <
3977 2 1 1 9 -3 2.28 0.24 0.90 <
3978 2 1 1 9 -2 0.43 -0.27 0.83 <
3979 2 1 1 9 -1 0.13 1.32 1.17 <
3980 2 1 1 9 1 0.96 1.72 1.56 <
3981 2 1 1 9 2 1.11 2.27 1.69 <
3982 2 1 1 9 3 0.00 3.61 2.32 <
3983 2 1 1 9 4 0.04 1.49 2.24 <
3984 2 3 1 9 -4 2.83 1.59 1.19 <
3985 2 3 1 9 -3 6.42 4.56 2.77 <
3986 2 3 1 9 -2 0.01 5.72 2.96 <
3987 2 3 1 9 -1 0.08 -1.28 1.35 <
3988 2 3 1 9 1 0.14 -0.60 1.86 <
3989 2 3 1 9 2 0.87 3.86 3.00 <
3990 2 3 1 9 3 6.01 2.90 4.66 <
3991 2 3 1 9 4 0.90 1.12 4.24 <
3992 2 5 1 9 -4 20.76 16.10 4.05 o
3993 2 5 1 9 -3 7.46 4.84 4.22 <
3994 2 5 1 9 -2 3.39 3.10 1.87 <
3995 2 5 1 9 -1 6.92 7.30 2.23 o
3996 2 5 1 9 1 8.46 8.29 4.41 <
3997 2 5 1 9 2 0.76 -2.56 4.17 <
3998 2 5 1 9 3 1.93 -3.32 4.17 <
3999 2 5 1 9 4 19.60 9.63 4.52 <
4000 2 7 1 9 -4 0.90 -1.85 2.88 <
4001 2 7 1 9 -3 0.43 4.28 3.14 <
4002 2 7 1 9 -1 0.53 0.49 2.34 <
4003 2 7 1 9 1 1.11 6.21 6.72 <
4004 2 7 1 9 2 3.22 -0.80 2.64 <
4005 2 7 1 9 3 0.13 7.71 7.00 <
4006 2 9 1 9 -4 20.95 15.23 7.75 <
4007 3 -2 -2 9 0 0.02 -0.07 2.45 <
4007 2 -2 2 9 0 0.02 -0.07 2.45 <
4007 1 4 3 9 -4 0.02 -0.07 2.45 <
4008 2 0 2 9 -4 2.89 2.44 1.64 <
4009 2 0 2 9 -2 0.47 1.48 2.02 <
4010 2 0 2 9 2 2.06 2.12 2.93 <
4011 2 2 2 9 -4 4.00 6.97 2.66 <
4012 2 2 2 9 -3 0.14 0.34 1.16 <
4013 2 2 2 9 -2 4.53 3.04 1.92 <
4014 2 2 2 9 -1 2.14 -0.74 2.45 <
4015 2 2 2 9 1 5.92 6.22 2.64 <
4016 2 2 2 9 2 1.02 -0.20 3.92 <
4017 2 2 2 9 3 0.01 -2.29 2.87 <
4018 2 2 2 9 4 14.47 6.11 3.77 <
4019 2 4 2 9 -4 0.92 4.02 1.89 <
4020 2 4 2 9 -3 1.97 3.86 2.38 <
4021 2 4 2 9 -2 0.00 1.38 1.64 <
4022 2 4 2 9 -1 0.63 1.49 1.81 <
4023 2 4 2 9 1 2.94 1.85 3.12 <
4024 2 4 2 9 2 0.65 -8.44 8.89 <
4025 2 4 2 9 3 0.00 6.27 5.43 <
4026 2 6 2 9 -4 9.06 9.55 4.96 <
4027 2 6 2 9 -3 11.25 9.86 4.51 <
4028 2 6 2 9 -2 0.51 -1.41 2.35 <
4029 2 6 2 9 -1 0.00 -0.81 2.60 <
4030 2 6 2 9 1 0.31 0.12 1.92 <
4031 2 6 2 9 2 0.90 5.84 4.51 <
4032 2 8 2 9 -4 13.35 15.22 9.85 <
4033 2 8 2 9 -3 13.00 11.67 5.94 <
4034 2 8 2 9 -2 0.99 3.55 5.18 <
4035 2 8 2 9 -1 10.68 7.32 3.72 <
4036 3 -3 -3 9 0 35.09 26.67 7.60 o
4036 2 -3 3 9 0 35.09 26.67 7.60 o
4036 1 6 3 9 -4 35.09 26.67 7.60 o
4037 2 1 3 9 -4 0.36 1.29 1.93 <
4038 2 1 3 9 -3 0.66 0.99 0.87 <
4039 2 1 3 9 -2 0.30 2.54 1.48 <
4040 2 1 3 9 -1 1.56 -0.23 1.11 <
4041 2 1 3 9 1 4.13 3.15 1.80 <
4042 2 1 3 9 2 0.51 -3.90 3.11 <
4043 2 3 3 9 -4 0.62 -1.05 4.53 <
4044 2 3 3 9 -2 0.04 3.77 1.92 <
4045 2 3 3 9 -1 0.41 2.66 2.69 <
4046 2 3 3 9 1 0.00 4.22 2.74 <
4047 2 3 3 9 2 1.34 8.40 6.26 <
4048 2 5 3 9 -4 16.66 16.65 5.34 o
4049 2 5 3 9 -3 18.15 15.73 3.91 o
4050 2 5 3 9 -2 8.42 4.91 4.71 <
4051 2 7 3 9 -4 2.68 -0.20 3.52 <
4052 2 7 3 9 -3 3.68 0.33 2.73 <
4053 2 7 3 9 -2 0.52 17.73 7.18 <
4054 2 7 3 9 -1 1.40 7.73 4.74 <
4055 2 9 3 9 -2 0.81 6.34 5.80 <
4056 3 -4 -4 9 0 1.75 5.49 4.37 <
4056 2 -4 4 9 0 1.75 5.49 4.37 <
4056 1 8 3 9 -4 1.75 5.49 4.37 <
4057 2 0 4 9 -2 0.20 5.87 2.18 <
4058 2 2 4 9 -3 0.86 0.60 1.60 <
4059 2 2 4 9 -2 4.91 -1.55 3.46 <
4060 2 2 4 9 1 8.36 7.83 7.98 <
4061 2 4 4 9 -3 0.05 1.53 2.26 <
4062 2 4 4 9 -2 0.11 0.68 2.51 <
4063 2 4 4 9 -1 2.86 5.10 3.61 <
4064 2 4 4 9 1 9.40 21.66 12.42 <
4065 2 6 4 9 -3 1.38 1.68 3.19 <
4066 2 6 4 9 -2 0.33 6.84 3.19 <
4067 2 6 4 9 -1 2.14 6.33 3.86 <
4068 2 8 4 9 -3 29.51 18.01 8.88 <
4069 2 1 5 9 -3 0.47 1.12 1.36 <
4070 2 1 5 9 -2 0.75 0.89 1.43 <
4071 2 1 5 9 -1 3.97 10.15 3.95 <
4072 2 3 5 9 -3 2.27 5.96 2.69 <
4073 2 3 5 9 -2 1.27 1.68 1.48 <
4074 2 3 5 9 -1 2.35 0.91 3.82 <
4075 2 5 5 9 -3 5.53 5.52 3.12 <
4076 2 5 5 9 -2 5.22 6.49 3.78 <
4077 2 5 5 9 -1 2.64 6.91 8.28 <
4078 2 7 5 9 -3 3.21 -0.45 2.27 <
4079 2 7 5 9 -2 2.09 -8.23 6.42 <
4080 2 2 6 9 -3 1.99 0.13 2.20 <
4081 2 2 6 9 -2 0.81 0.97 2.41 <
4082 2 4 6 9 -3 1.14 1.15 2.88 <
4083 2 1 7 9 -3 0.21 5.90 4.24 <
4084 2 3 7 9 -3 0.76 11.35 6.71 <
4085 2 0 0 10 2 51.30 37.69 5.16 o
4086 2 0 0 10 4 4.04 2.38 3.93 <
4087 2 2 0 10 1 83.46 77.19 7.20 o
4088 2 2 0 10 2 42.55 49.06 14.08 o
4089 2 2 0 10 3 0.84 -0.21 2.22 <
4090 2 2 0 10 4 3.69 3.40 2.42 <
4091 2 4 0 10 1 5.84 5.96 3.34 <
4092 2 4 0 10 2 0.97 0.07 2.12 <
4093 2 4 0 10 3 1.95 3.34 2.71 <
4094 2 4 0 10 4 5.46 6.63 3.21 <
4095 2 6 0 10 2 32.57 26.83 8.10 o
4096 2 6 0 10 3 2.11 2.43 2.27 <
4097 2 6 0 10 4 0.01 2.90 3.87 <
4098 2 8 0 10 1 15.83 33.04 8.71 o
4099 2 1 1 10 -4 0.06 1.28 1.49 <
4100 2 1 1 10 -3 0.26 0.75 1.40 <
4101 2 1 1 10 -2 5.66 4.11 1.66 <
4102 2 1 1 10 -1 17.45 12.45 3.35 o
4103 2 1 1 10 1 78.47 83.93 9.62 o
4104 2 1 1 10 2 12.79 10.20 2.52 o
4105 2 1 1 10 3 2.23 0.52 2.44 <
4106 2 1 1 10 4 3.10 5.97 3.11 <
4107 2 3 1 10 -4 2.43 4.60 3.33 <
4108 2 3 1 10 -3 0.61 1.56 1.90 <
4109 2 3 1 10 -2 40.28 33.70 7.67 o
4110 2 3 1 10 -1 38.08 45.18 6.59 o
4111 2 3 1 10 2 42.75 36.12 7.57 o
4112 2 3 1 10 3 10.09 10.22 2.91 o
4113 2 3 1 10 4 5.00 1.74 4.58 <
4114 2 5 1 10 -4 5.69 -5.10 5.45 <
4115 2 5 1 10 -3 0.77 -0.60 2.59 <
4116 2 5 1 10 -2 61.67 48.00 14.47 o
4117 2 5 1 10 -1 38.25 38.88 7.07 o
4118 2 5 1 10 1 55.60 63.33 10.40 o
4119 2 5 1 10 2 74.00 53.01 17.43 o
4120 2 5 1 10 3 0.71 5.10 4.50 <
4121 2 5 1 10 4 14.23 7.30 5.21 <
4122 2 7 1 10 -4 7.10 4.40 7.57 <
4123 2 7 1 10 -3 3.88 8.37 4.16 <
4124 2 7 1 10 -2 2.18 8.40 5.35 <
4125 2 7 1 10 -1 8.35 11.45 10.04 <
4126 2 7 1 10 1 0.23 13.18 10.41 <
4127 2 7 1 10 2 0.29 11.18 6.76 <
4128 2 0 2 10 -2 11.57 7.99 5.46 <
4129 2 0 2 10 2 35.01 25.41 4.85 o
4130 2 2 2 10 -4 5.75 3.84 2.18 <
4131 2 2 2 10 -3 3.75 1.85 1.44 <
4132 2 2 2 10 -2 28.08 22.07 3.51 o
4133 2 2 2 10 -1 24.20 23.08 5.58 o
4134 2 2 2 10 1 106.83 102.29 9.51 o
4135 2 2 2 10 2 31.96 24.80 7.93 o
4136 2 2 2 10 3 5.08 6.77 6.52 <
4137 2 4 2 10 -4 0.15 2.94 1.83 <
4138 2 4 2 10 -3 0.14 1.33 1.53 <
4139 2 4 2 10 -2 0.30 -0.72 1.61 <
4140 2 4 2 10 1 29.83 44.71 11.65 o
4141 2 4 2 10 2 0.02 9.77 5.43 <
4142 2 4 2 10 3 17.40 15.18 8.58 <
4143 2 6 2 10 -4 0.15 4.97 2.89 <
4144 2 6 2 10 -2 14.87 12.30 5.06 <
4145 2 6 2 10 -1 72.59 82.17 11.12 o
4146 2 6 2 10 1 12.45 8.58 3.63 <
4147 2 8 2 10 -3 12.17 16.20 9.97 <
4148 2 8 2 10 -2 31.66 30.29 14.04 <
4149 2 8 2 10 -1 14.82 43.88 15.70 <
4150 2 1 3 10 -4 0.00 -1.72 2.34 <
4151 2 1 3 10 -3 10.56 5.83 2.05 <
4152 2 1 3 10 -2 0.49 2.52 1.94 <
4153 2 1 3 10 -1 0.07 -0.81 1.62 <
4154 2 1 3 10 1 95.49 124.59 17.76 o
4155 2 1 3 10 2 2.93 -3.17 3.46 <
4156 2 3 3 10 -3 1.52 11.81 5.93 <
4157 2 3 3 10 -2 1.57 1.58 3.00 <
4158 2 3 3 10 -1 39.92 54.54 7.29 o
4159 2 3 3 10 1 2.95 1.22 2.88 <
4160 2 3 3 10 2 18.05 18.82 9.86 <
4161 2 5 3 10 -4 0.00 0.04 3.58 <
4162 2 5 3 10 -3 0.33 -6.14 3.10 <
4163 2 5 3 10 -2 12.96 1.87 2.25 <
4164 2 5 3 10 -1 19.25 54.95 10.51 o
4165 2 5 3 10 1 46.26 60.69 18.55 o
4166 2 7 3 10 -3 0.01 -1.00 3.69 <
4167 2 7 3 10 -2 1.68 1.85 2.72 <
4168 2 7 3 10 -1 22.07 24.54 7.02 o
4169 2 0 4 10 -2 2.25 8.25 4.24 <
4170 2 2 4 10 -3 0.77 -1.01 1.69 <
4171 2 2 4 10 -2 0.18 3.95 4.35 <
4172 2 2 4 10 -1 3.07 2.89 3.71 <
4173 2 2 4 10 1 81.27 101.90 17.57 o
4174 2 4 4 10 -3 0.22 1.21 1.41 <
4175 2 4 4 10 -2 1.90 1.95 2.84 <
4176 2 4 4 10 -1 15.80 20.85 5.79 o
4177 2 6 4 10 -3 10.97 3.57 2.12 <
4178 2 6 4 10 -2 1.56 7.15 2.83 <
4179 2 6 4 10 -1 62.63 49.75 12.94 o
4180 2 1 5 10 -3 0.31 -0.65 1.46 <
4181 2 1 5 10 -2 2.76 7.97 2.86 <
4182 2 1 5 10 -1 1.30 5.95 4.31 <
4183 2 3 5 10 -3 0.02 3.19 2.28 <
4184 2 3 5 10 -2 10.81 17.59 5.47 o
4185 2 3 5 10 -1 20.72 31.89 8.38 o
4186 2 5 5 10 -2 0.21 9.85 4.03 <
4187 2 5 5 10 -1 4.51 12.65 9.82 <
4188 2 2 6 10 -3 0.41 2.18 3.07 <
4189 2 2 6 10 -2 6.48 14.44 6.53 <
4190 2 4 6 10 -3 0.01 3.88 3.16 <
4191 2 1 7 10 -3 4.17 2.37 3.41 <
4192 2 0 0 11 2 6.11 4.96 2.40 <
4193 2 0 0 11 4 0.42 1.88 1.74 <
4194 2 2 0 11 1 0.08 2.18 1.62 <
4195 2 2 0 11 2 0.68 6.09 4.53 <
4196 2 2 0 11 3 4.09 13.26 5.76 <
4197 2 2 0 11 4 4.47 4.70 3.04 <
4198 2 4 0 11 1 0.32 3.18 3.11 <
4199 2 4 0 11 2 1.34 4.88 2.63 <
4200 2 4 0 11 4 1.25 2.72 2.07 <
4201 2 6 0 11 1 3.15 -0.63 3.25 <
4202 2 6 0 11 2 0.12 4.24 2.16 <
4203 2 6 0 11 3 0.84 0.65 3.47 <
4204 2 8 0 11 2 0.00 3.91 7.06 <
4205 3 -1 -1 11 0 2.85 2.63 2.21 <
4205 2 -1 1 11 0 2.85 2.63 2.21 <
4205 1 2 3 11 -4 2.85 2.63 2.21 <
4206 2 1 1 11 -4 2.61 3.91 2.25 <
4207 2 1 1 11 -3 0.03 2.54 1.77 <
4208 2 1 1 11 -2 0.91 1.66 2.33 <
4209 2 1 1 11 -1 0.34 1.63 2.55 <
4210 2 1 1 11 1 0.28 1.75 1.74 <
4211 2 1 1 11 2 0.58 2.44 2.58 <
4212 2 1 1 11 3 0.68 0.94 2.21 <
4213 2 1 1 11 4 2.03 7.23 7.93 <
4214 2 3 1 11 -4 1.55 5.83 4.27 <
4215 2 3 1 11 -3 2.67 0.97 1.90 <
4216 2 3 1 11 -2 1.04 3.25 1.79 <
4217 2 3 1 11 -1 0.60 0.68 0.91 <
4218 2 3 1 11 1 0.75 8.74 4.44 <
4219 2 3 1 11 2 4.11 6.36 3.36 <
4220 2 3 1 11 3 1.00 1.98 2.50 <
4221 2 3 1 11 4 7.71 8.15 4.62 <
4222 2 5 1 11 -4 23.75 26.60 5.38 o
4223 2 5 1 11 -3 4.82 1.21 3.03 <
4224 2 5 1 11 -2 0.52 -2.14 1.98 <
4225 2 5 1 11 -1 0.24 4.29 3.74 <
4226 2 5 1 11 1 1.89 7.75 4.94 <
4227 2 5 1 11 2 0.25 3.84 3.12 <
4228 2 5 1 11 3 0.58 -2.16 3.44 <
4229 2 7 1 11 -4 4.67 8.78 7.65 <
4230 2 7 1 11 -2 0.39 -3.88 4.49 <
4231 2 7 1 11 -1 1.20 5.18 4.92 <
4232 3 -2 -2 11 0 27.66 20.56 7.80 <
4232 2 -2 2 11 0 27.66 20.56 7.80 <
4232 1 4 3 11 -4 27.66 20.56 7.80 <
4233 2 0 2 11 -4 0.15 -0.28 2.08 <
4234 2 0 2 11 2 13.79 7.94 3.80 <
4235 2 0 2 11 4 1.33 8.15 7.78 <
4236 2 2 2 11 -4 9.84 18.80 6.61 <
4237 2 2 2 11 -3 0.03 1.96 1.71 <
4238 2 2 2 11 -2 4.12 4.66 2.47 <
4239 2 2 2 11 -1 0.10 -0.71 1.40 <
4240 2 2 2 11 1 0.99 4.19 2.14 <
4241 2 2 2 11 2 1.28 3.65 3.60 <
4242 2 4 2 11 -4 1.86 4.64 2.68 <
4243 2 4 2 11 -3 13.58 10.64 4.90 <
4244 2 4 2 11 -2 0.26 0.38 2.33 <
4245 2 4 2 11 -1 1.07 7.15 3.51 <
4246 2 4 2 11 1 2.03 1.56 2.19 <
4247 2 4 2 11 2 0.22 4.42 4.25 <
4248 2 6 2 11 -4 12.90 12.55 6.94 <
4249 2 6 2 11 -3 0.11 -3.70 3.28 <
4250 2 6 2 11 -2 0.96 -0.52 3.41 <
4251 2 6 2 11 -1 1.10 6.01 3.07 <
4252 3 -3 -3 11 0 2.78 -3.36 3.74 <
4252 2 -3 3 11 0 2.78 -3.36 3.74 <
4252 1 6 3 11 -4 2.78 -3.36 3.74 <
4253 2 1 3 11 -4 1.32 3.72 2.32 <
4254 2 1 3 11 -3 1.13 3.41 1.96 <
4255 2 1 3 11 -2 0.52 2.23 2.01 <
4256 2 1 3 11 -1 0.14 -1.05 2.11 <
4257 2 1 3 11 1 5.79 10.22 5.09 <
4258 2 1 3 11 2 0.11 -0.80 2.16 <
4259 2 3 3 11 -4 0.28 2.40 5.33 <
4260 2 3 3 11 -3 0.65 0.60 2.16 <
4261 2 3 3 11 -2 0.12 -0.08 1.46 <
4262 2 3 3 11 -1 0.04 2.20 2.63 <
4263 2 3 3 11 1 0.00 -0.41 2.21 <
4264 2 3 3 11 2 4.09 3.08 2.97 <
4265 2 5 3 11 -4 8.75 16.94 8.17 <
4266 2 5 3 11 -3 3.61 0.02 2.70 <
4267 2 5 3 11 -2 5.56 6.06 3.41 <
4268 2 5 3 11 -1 0.00 10.06 7.78 <
4269 2 5 3 11 1 4.68 6.49 7.78 <
4270 2 7 3 11 -3 13.33 15.53 9.39 <
4271 2 7 3 11 -2 1.30 2.88 3.51 <
4272 2 0 4 11 -2 0.07 -0.13 1.97 <
4273 2 2 4 11 -3 5.15 0.48 0.62 <
4274 2 2 4 11 -2 0.36 5.07 3.69 <
4275 2 4 4 11 -3 3.11 9.76 4.19 <
4276 2 4 4 11 -2 1.07 0.75 3.68 <
4277 2 4 4 11 -1 2.48 0.52 1.84 <
4278 2 6 4 11 -3 0.34 -0.29 3.07 <
4279 2 6 4 11 -2 0.53 1.70 5.25 <
4280 2 1 5 11 -3 0.00 -0.13 1.63 <
4281 2 1 5 11 -2 0.02 -2.57 3.10 <
4282 2 1 5 11 -1 1.04 5.90 2.91 <
4283 2 3 5 11 -3 0.03 -0.27 2.68 <
4284 2 3 5 11 -2 0.43 -0.01 2.07 <
4285 2 3 5 11 -1 0.83 2.56 4.48 <
4286 2 5 5 11 -3 0.35 0.19 3.84 <
4287 2 5 5 11 -2 1.08 8.67 7.83 <
4288 2 0 6 11 -2 2.46 0.70 0.80 <
4289 2 2 6 11 -3 4.85 1.64 3.13 <
4290 2 2 6 11 -2 0.07 -2.22 2.54 <
4291 2 4 6 11 -3 0.94 5.70 4.25 <
4292 2 1 7 11 -3 0.05 1.97 4.50 <
4293 2 0 0 12 2 23.58 25.49 7.45 o
4294 2 0 0 12 4 42.07 35.16 9.54 o
4295 2 2 0 12 1 61.71 74.68 10.84 o
4296 2 2 0 12 2 21.34 23.63 5.49 o
4297 2 2 0 12 3 3.87 5.10 4.01 <
4298 2 2 0 12 4 12.48 7.45 3.14 <
4299 2 4 0 12 1 2.44 6.51 3.32 <
4300 2 4 0 12 2 11.71 12.89 6.84 <
4301 2 4 0 12 3 0.13 9.83 5.66 <
4302 2 4 0 12 4 1.06 2.29 4.20 <
4303 2 6 0 12 1 4.06 9.62 5.31 <
4304 2 6 0 12 2 21.15 68.70 20.58 o
4305 2 6 0 12 3 1.15 1.01 5.05 <
4306 2 1 1 12 -4 0.72 5.01 3.01 <
4307 2 1 1 12 -3 0.36 4.71 2.84 <
4308 2 1 1 12 -2 0.96 -1.09 2.47 <
4309 2 1 1 12 -1 15.80 23.90 6.26 o
4310 2 1 1 12 1 46.90 58.22 9.28 o
4311 2 1 1 12 2 0.05 -1.23 1.46 <
4312 2 1 1 12 3 8.77 3.99 3.10 <
4313 2 1 1 12 4 3.45 3.62 3.46 <
4314 2 3 1 12 -4 10.25 3.62 2.42 <
4315 2 3 1 12 -3 0.32 5.72 2.27 <
4316 2 3 1 12 -2 28.06 24.94 5.62 o
4317 2 3 1 12 -1 7.78 22.02 8.75 <
4318 2 3 1 12 1 1.08 2.45 2.79 <
4319 2 3 1 12 2 24.43 32.73 8.14 o
4320 2 3 1 12 3 1.09 2.16 3.28 <
4321 2 5 1 12 -4 5.27 5.07 3.70 <
4322 2 5 1 12 -3 26.69 66.15 13.86 o
4323 2 5 1 12 -2 60.43 66.41 12.80 o
4324 2 5 1 12 -1 47.78 61.04 8.35 o
4325 2 5 1 12 1 45.41 68.96 9.81 o
4326 2 5 1 12 2 47.07 64.20 20.37 o
4327 2 0 2 12 -4 7.52 6.11 5.49 <
4328 2 0 2 12 -2 20.83 14.62 8.24 <
4329 2 0 2 12 2 8.83 9.22 5.33 <
4330 2 2 2 12 -4 3.28 5.28 3.14 <
4331 2 2 2 12 -3 0.03 4.36 3.15 <
4332 2 2 2 12 -2 25.68 22.31 5.54 o
4333 2 2 2 12 -1 28.51 32.75 6.51 o
4334 2 2 2 12 1 90.07 133.45 14.64 o
4335 2 2 2 12 2 10.93 11.60 7.01 <
4336 2 2 2 12 3 15.99 18.16 9.65 <
4337 2 4 2 12 -4 0.28 -3.41 5.46 <
4338 2 4 2 12 -2 1.05 3.48 3.14 <
4339 2 4 2 12 -1 2.18 1.74 2.78 <
4340 2 4 2 12 1 21.16 37.51 10.52 o
4341 2 6 2 12 -4 1.62 8.44 4.08 <
4342 2 6 2 12 -3 27.41 85.60 16.20 o
4343 2 6 2 12 -2 21.90 21.44 11.80 <
4344 2 6 2 12 -1 21.61 50.16 14.04 o
4345 2 1 3 12 -4 0.00 -3.31 0.96 <
4346 2 1 3 12 -3 17.04 14.02 3.85 o
4347 2 1 3 12 -2 0.98 1.65 2.23 <
4348 2 1 3 12 -1 1.63 5.90 3.77 <
4349 2 1 3 12 1 69.17 106.94 11.21 o
4350 2 1 3 12 2 2.44 -6.01 7.40 <
4351 2 3 3 12 -4 0.00 -0.75 3.46 <
4352 2 3 3 12 -3 3.18 4.49 2.29 <
4353 2 3 3 12 -2 9.01 12.13 3.28 o
4354 2 3 3 12 -1 14.96 43.63 9.86 o
4355 2 3 3 12 1 0.06 8.82 5.29 <
4356 2 5 3 12 -3 6.11 2.05 3.74 <
4357 2 5 3 12 -2 29.84 17.97 7.13 <
4358 2 5 3 12 -1 28.05 64.13 14.50 o
4359 2 7 3 12 -4 0.00 -1.87 4.84 <
4360 2 7 3 12 -3 8.49 98.97 29.85 o
4361 2 0 4 12 -2 3.14 4.55 4.96 <
4362 2 2 4 12 -3 0.01 5.78 2.99 <
4363 2 2 4 12 -2 7.26 10.47 4.80 <
4364 2 2 4 12 -1 18.18 27.91 6.98 o
4365 2 4 4 12 -3 16.66 31.62 14.01 <
4366 2 4 4 12 -1 4.17 11.23 6.03 <
4367 2 6 4 12 -3 3.74 2.06 2.72 <
4368 2 6 4 12 -2 12.87 12.46 9.28 <
4369 2 1 5 12 -2 1.83 14.12 7.59 <
4370 2 1 5 12 -1 2.02 2.96 4.19 <
4371 2 3 5 12 -3 3.84 -0.34 3.40 <
4372 2 3 5 12 -2 1.36 3.19 3.51 <
4373 2 3 5 12 -1 10.05 34.52 16.98 <
4374 2 5 5 12 -3 3.00 5.80 5.58 <
4375 2 2 6 12 -3 0.86 11.64 9.54 <
4376 2 4 6 12 -3 5.02 1.64 7.62 <
4377 2 0 0 13 2 0.12 4.45 5.88 <
4378 2 0 0 13 4 4.39 2.08 2.08 <
4379 2 2 0 13 1 0.73 4.64 4.71 <
4380 2 2 0 13 2 0.93 1.85 2.99 <
4381 2 2 0 13 3 0.04 3.96 3.48 <
4382 2 2 0 13 4 3.54 7.91 4.31 <
4383 2 4 0 13 1 1.42 4.04 2.89 <
4384 2 4 0 13 2 0.68 3.03 2.42 <
4385 2 4 0 13 3 10.34 5.59 2.94 <
4386 2 4 0 13 4 1.05 -9.07 7.76 <
4387 2 6 0 13 1 2.67 0.69 2.59 <
4388 2 6 0 13 2 2.70 -2.78 4.40 <
4389 3 -1 -1 13 0 6.90 8.90 4.23 <
4389 2 -1 1 13 0 6.90 8.90 4.23 <
4389 1 2 3 13 -4 6.90 8.90 4.23 <
4390 2 1 1 13 -4 5.34 3.04 2.68 <
4391 2 1 1 13 -3 2.98 1.33 1.81 <
4392 2 1 1 13 -2 0.31 -3.87 3.94 <
4393 2 1 1 13 -1 0.47 1.63 1.85 <
4394 2 1 1 13 1 0.49 -0.29 2.34 <
4395 2 1 1 13 2 1.84 0.83 3.02 <
4396 2 1 1 13 3 0.02 11.68 5.07 <
4397 2 3 1 13 -4 3.54 5.07 1.93 <
4398 2 3 1 13 -3 4.44 9.19 7.02 <
4399 2 3 1 13 -2 1.03 -2.24 2.81 <
4400 2 3 1 13 -1 0.82 5.49 4.63 <
4401 2 3 1 13 1 0.84 3.43 2.02 <
4402 2 3 1 13 2 0.06 7.66 7.21 <
4403 2 3 1 13 3 2.30 2.26 5.14 <
4404 2 5 1 13 -4 3.99 11.04 5.22 <
4405 2 5 1 13 -3 0.00 2.73 4.14 <
4406 2 5 1 13 -2 0.70 5.27 3.56 <
4407 2 5 1 13 -1 2.21 -0.63 3.84 <
4408 2 5 1 13 1 2.77 8.03 8.11 <
4409 2 0 2 13 -4 0.79 0.19 3.42 <
4410 2 0 2 13 -2 1.38 8.86 7.35 <
4411 2 0 2 13 2 2.01 -0.55 5.54 <
4412 2 2 2 13 -4 0.01 -4.13 4.54 <
4413 2 2 2 13 -3 0.24 3.11 4.30 <
4414 2 2 2 13 -2 0.02 3.10 5.10 <
4415 2 2 2 13 -1 0.16 -0.85 1.67 <
4416 2 2 2 13 1 2.52 -0.50 4.86 <
4417 2 2 2 13 2 0.67 22.25 12.25 <
4418 2 4 2 13 -4 3.16 3.39 4.73 <
4419 2 4 2 13 -3 9.31 7.49 3.38 <
4420 2 4 2 13 -2 2.97 5.44 4.87 <
4421 2 4 2 13 -1 1.78 0.33 2.91 <
4422 2 4 2 13 1 3.30 8.45 5.09 <
4423 2 6 2 13 -4 14.99 8.30 7.18 <
4424 2 6 2 13 -2 3.03 -4.36 6.04 <
4425 2 6 2 13 -1 1.40 6.40 5.80 <
4426 3 -3 -3 13 0 7.99 28.35 13.61 <
4426 2 -3 3 13 0 7.99 28.35 13.61 <
4426 1 6 3 13 -4 7.99 28.35 13.61 <
4427 2 1 3 13 -3 1.58 5.80 6.36 <
4428 2 1 3 13 -2 2.09 4.91 2.79 <
4429 2 1 3 13 -1 2.03 7.39 3.54 <
4430 2 1 3 13 1 5.61 8.19 5.58 <
4431 2 3 3 13 -2 5.64 4.65 2.31 <
4432 2 3 3 13 -1 0.01 2.29 3.56 <
4433 2 3 3 13 1 0.00 7.41 7.36 <
4434 2 5 3 13 -3 0.07 6.68 3.90 <
4435 2 5 3 13 -2 0.45 4.31 5.28 <
4436 2 0 4 13 -2 1.21 -2.50 6.31 <
4437 2 2 4 13 -3 0.06 -1.27 2.42 <
4438 2 2 4 13 -2 0.24 4.79 2.07 <
4439 2 2 4 13 -1 1.24 6.00 3.77 <
4440 2 4 4 13 -3 11.15 9.10 3.93 <
4441 2 4 4 13 -1 6.28 6.28 4.14 <
4442 2 6 4 13 -3 0.39 6.22 5.96 <
4443 2 1 5 13 -3 0.01 0.90 2.99 <
4444 2 1 5 13 -2 2.90 -0.26 2.47 <
4445 2 3 5 13 -2 0.71 -10.48 6.96 <
4446 2 5 5 13 -3 0.80 -4.61 5.23 <
4447 2 2 6 13 -3 0.04 15.72 11.16 <
4448 2 2 0 14 1 47.70 42.90 11.32 o
4449 2 2 0 14 2 33.57 35.66 7.73 o
4450 2 2 0 14 3 0.52 -0.83 3.46 <
4451 2 2 0 14 4 8.71 1.64 5.47 <
4452 2 4 0 14 1 2.38 6.75 10.78 <
4453 2 4 0 14 2 0.02 0.18 4.33 <
4454 2 6 0 14 1 27.48 35.74 14.21 <
4455 2 1 1 14 -4 4.52 4.67 2.80 <
4456 2 1 1 14 -3 3.07 1.33 4.55 <
4457 2 1 1 14 -2 0.84 -2.08 2.25 <
4458 2 1 1 14 -1 11.58 9.91 3.75 <
4459 2 1 1 14 1 53.07 66.77 14.31 o
4460 2 1 1 14 2 0.80 2.84 3.87 <
4461 2 3 1 14 -4 2.96 5.67 4.60 <
4462 2 3 1 14 -3 0.00 5.28 2.67 <
4463 2 3 1 14 -1 21.94 23.96 11.69 <
4464 2 3 1 14 1 8.74 14.90 6.58 <
4465 2 3 1 14 2 34.85 39.46 7.99 o
4466 2 5 1 14 -3 1.39 4.10 2.93 <
4467 2 5 1 14 -2 34.79 40.71 10.04 o
4468 2 5 1 14 -1 27.15 54.55 14.06 o
4469 2 5 1 14 1 43.20 40.77 14.62 <
4470 2 0 2 14 -4 0.48 2.18 2.37 <
4471 2 0 2 14 -2 15.61 11.42 6.01 <
4472 2 2 2 14 -4 0.01 4.77 3.81 <
4473 2 2 2 14 -3 2.40 1.94 3.52 <
4474 2 2 2 14 -2 5.00 5.90 4.49 <
4475 2 4 2 14 -4 3.00 0.38 1.57 <
4476 2 4 2 14 -3 0.02 -5.94 7.08 <
4477 2 4 2 14 -1 3.08 8.66 4.01 <
4478 2 4 2 14 1 23.66 17.63 11.50 <
4479 2 6 2 14 -2 17.60 12.17 7.07 <
4480 2 1 3 14 -4 0.00 0.91 3.37 <
4481 2 1 3 14 -3 1.17 0.96 2.99 <
4482 2 1 3 14 -2 0.00 4.92 2.56 <
4483 2 1 3 14 -1 0.01 2.31 2.14 <
4484 2 3 3 14 -4 0.00 -2.68 1.17 <
4485 2 3 3 14 -3 2.03 5.68 4.31 <
4486 2 3 3 14 -2 5.66 7.73 3.89 <
4487 2 3 3 14 -1 25.32 42.53 12.43 o
4488 2 5 3 14 -4 0.00 -0.19 3.73 <
4489 2 5 3 14 -2 11.46 14.64 4.98 <
4490 2 0 4 14 -2 2.65 2.41 3.72 <
4491 2 2 4 14 -3 5.69 0.91 2.67 <
4492 2 2 4 14 -2 0.01 33.20 15.22 <
4493 2 4 4 14 -3 1.12 6.13 3.99 <
4494 2 4 4 14 -2 2.79 4.26 6.06 <
4495 2 1 5 14 -3 0.12 -1.67 1.57 <
4496 2 3 5 14 -3 1.69 10.66 8.47 <
4497 2 0 0 15 2 0.25 0.15 2.78 <
4498 2 2 0 15 1 0.00 -2.27 3.09 <
4499 3 -1 -1 15 0 2.61 2.54 3.06 <
4499 2 -1 1 15 0 2.61 2.54 3.06 <
4499 1 2 3 15 -4 2.61 2.54 3.06 <
4500 2 1 1 15 -4 0.55 1.75 3.08 <
4501 2 1 1 15 -3 0.05 4.39 3.56 <
4502 2 1 1 15 -2 0.52 5.05 4.23 <
4503 2 1 1 15 -1 0.17 5.89 4.27 <
4504 2 1 1 15 1 0.08 1.43 2.51 <
4505 2 3 1 15 -4 8.91 9.33 5.06 <
4506 2 3 1 15 -3 4.82 9.50 8.25 <
4507 2 3 1 15 -2 1.18 3.92 3.05 <
4508 2 3 1 15 -1 0.02 2.03 2.64 <
4509 2 5 1 15 -2 0.01 -3.32 4.65 <
4510 3 -2 -2 15 0 0.04 -0.74 2.25 <
4510 2 -2 2 15 0 0.04 -0.74 2.25 <
4510 1 4 3 15 -4 0.04 -0.74 2.25 <
4511 2 0 2 15 -4 0.78 6.26 4.54 <
4512 2 0 2 15 -2 0.07 -1.77 3.36 <
4513 2 2 2 15 -4 0.02 -1.20 3.66 <
4514 2 2 2 15 -3 1.44 1.60 3.86 <
4515 2 2 2 15 -2 0.02 1.04 4.31 <
4516 2 4 2 15 -3 0.13 3.62 4.18 <
4517 2 4 2 15 -2 1.89 -0.71 3.14 <
4518 2 1 3 15 -3 0.20 3.42 3.39 <
4519 2 1 3 15 -2 0.97 5.24 5.04 <
4520 2 1 3 15 -1 0.00 0.31 4.68 <
4521 2 3 3 15 -3 9.46 11.83 9.07 <
4522 2 3 3 15 -2 1.22 4.65 4.07 <
4523 2 2 4 15 -3 0.06 1.80 4.41 <
4524 2 1 1 16 -2 1.14 -2.87 1.93 <
4525 2 1 1 16 -1 11.28 16.25 6.13 <
4526 2 3 1 16 -1 16.47 17.34 12.79 <
4527 2 0 2 16 -4 2.48 -0.93 4.20 <
4528 2 2 2 16 -3 1.80 -4.71 5.63 <
4529 2 1 3 16 -4 0.00 -6.16 5.43 <
4530 2 1 3 16 -3 6.22 0.16 2.42 <
4531 2 1 3 16 -2 0.08 0.96 8.11 <
4532 3 0 0 0 2 162.45 140.34 8.75 o
4533 3 0 0 0 4 172.23 131.65 9.67 o
4534 3 2 0 0 2 265.73 242.97 9.03 o
4535 3 2 0 0 3 12.30 14.29 4.80 <
4536 3 2 0 0 4 131.85 122.03 16.76 o
4537 3 4 0 0 1 102.15 106.16 9.39 o
4538 3 4 0 0 2 30.78 32.98 8.51 o
4539 3 4 0 0 3 33.61 30.21 6.49 o
4540 3 4 0 0 4 31.13 20.65 7.95 <
4541 3 6 0 0 1 121.84 119.29 10.45 o
4542 3 6 0 0 3 101.88 81.32 8.07 o
4543 3 6 0 0 4 25.41 14.80 5.31 <
4544 3 8 0 0 1 2.46 13.39 5.38 <
4545 3 8 0 0 3 25.45 17.97 8.99 <
4546 3 8 0 0 4 34.58 32.11 6.26 o
4547 3 10 0 0 1 11.90 25.90 9.51 <
4548 3 10 0 0 2 18.11 17.92 9.45 <
4549 3 1 1 0 -3 2.21 1.80 0.85 <
4550 3 1 1 0 1 462.75 432.99 13.45 o
4551 3 1 1 0 2 9.98 8.59 2.16 o
4552 3 1 1 0 3 65.32 66.70 9.17 o
4553 3 1 1 0 4 34.56 35.09 5.00 o
4554 3 3 1 0 -4 48.97 43.11 5.19 o
4555 3 3 1 0 -3 28.47 16.95 3.81 o
4556 3 3 1 0 -2 190.07 164.10 5.77 o
4557 3 3 1 0 -1 158.79 170.48 11.63 o
4558 3 3 1 0 1 58.28 49.44 4.80 o
4559 3 3 1 0 2 50.59 51.32 6.44 o
4560 3 3 1 0 3 53.90 165.76 16.85 o
4561 3 3 1 0 4 23.58 17.50 7.21 <
4562 3 5 1 0 -4 51.13 47.08 7.39 o
4563 3 5 1 0 -3 13.90 16.86 2.58 o
4564 3 5 1 0 -2 363.69 332.08 17.98 o
4565 3 5 1 0 -1 92.02 73.18 14.07 o
4566 3 5 1 0 1 68.74 47.11 7.97 o
4567 3 5 1 0 2 275.09 265.43 19.17 o
4568 3 5 1 0 3 20.24 24.49 9.20 <
4569 3 5 1 0 4 56.69 38.92 13.66 <
4570 3 7 1 0 -4 0.96 -0.03 2.20 <
4571 3 7 1 0 -3 25.92 25.34 4.84 o
4572 3 7 1 0 -2 30.92 30.66 10.75 <
4573 3 7 1 0 -1 3.46 9.70 4.52 <
4574 3 7 1 0 1 46.29 54.67 8.49 o
4575 3 7 1 0 2 36.26 31.07 10.75 <
4576 3 7 1 0 3 50.68 45.90 10.08 o
4577 3 7 1 0 4 0.60 9.78 5.67 <
4578 3 9 1 0 -4 0.00 4.44 2.76 <
4579 3 9 1 0 -3 115.59 164.29 21.19 o
4580 3 9 1 0 -2 46.28 64.16 12.81 o
4581 3 9 1 0 -1 79.29 80.77 11.77 o
4582 3 9 1 0 1 32.42 36.16 8.00 o
4583 3 9 1 0 2 16.87 97.66 24.64 o
4584 3 9 1 0 3 188.68 262.51 38.71 o
4585 3 0 2 0 -4 30.66 40.84 4.84 o
4586 3 0 2 0 2 2.58 2.19 2.03 <
4587 3 2 2 0 -4 25.63 19.87 2.09 o
4588 3 2 2 0 -3 19.76 16.86 2.89 o
4589 3 2 2 0 -2 184.18 166.50 7.85 o
4590 3 2 2 0 1 346.59 332.99 18.74 o
4591 3 2 2 0 2 117.81 104.55 8.31 o
4592 3 2 2 0 3 28.58 44.22 8.93 o
4593 3 2 2 0 4 49.94 38.97 7.22 o
4594 3 4 2 0 -4 0.58 1.63 1.57 <
4595 3 4 2 0 -3 7.36 3.72 1.35 <
4596 3 4 2 0 -1 3.50 5.18 2.89 <
4597 3 4 2 0 1 231.29 238.83 18.60 o
4598 3 4 2 0 2 7.29 7.08 2.86 <
4599 3 4 2 0 4 11.07 14.67 7.69 <
4600 3 6 2 0 -4 1.83 4.90 4.50 <
4601 3 6 2 0 -3 514.47 526.59 28.71 o
4602 3 6 2 0 -2 107.22 107.20 11.42 o
4603 3 6 2 0 -1 244.10 238.24 14.48 o
4604 3 6 2 0 1 18.46 25.36 4.83 o
4605 3 6 2 0 2 9.37 31.29 8.69 o
4606 3 6 2 0 3 2.06 24.01 7.03 o
4607 3 6 2 0 4 9.40 18.23 12.24 <
4608 3 8 2 0 -4 5.40 2.01 2.14 <
4609 3 8 2 0 -3 6.40 23.77 10.87 <
4610 3 8 2 0 -2 134.33 95.42 11.84 o
4611 3 8 2 0 -1 11.72 37.62 9.39 o
4612 3 8 2 0 2 154.54 163.39 29.58 o
4613 3 8 2 0 3 14.48 29.65 12.59 <
4614 3 10 2 0 -3 6.63 18.03 8.14 <
4615 3 10 2 0 -2 6.18 10.28 6.37 <
4616 3 10 2 0 -1 1.45 7.62 5.16 <
4617 3 1 3 0 -3 71.17 45.13 3.70 o
4618 3 1 3 0 -1 20.11 20.08 5.98 o
4619 3 1 3 0 1 352.95 366.80 18.45 o
4620 3 1 3 0 2 1.46 0.44 1.80 <
4621 3 1 3 0 3 77.51 60.34 9.43 o
4622 3 1 3 0 4 52.58 55.55 18.69 <
4623 3 3 3 0 -4 0.00 21.21 6.29 o
4624 3 3 3 0 -3 128.70 104.31 6.84 o
4625 3 3 3 0 -1 155.46 155.32 11.02 o
4626 3 3 3 0 1 10.10 17.58 7.33 <
4627 3 3 3 0 2 0.35 7.39 6.16 <
4628 3 3 3 0 3 0.73 55.38 17.65 o
4629 3 3 3 0 4 31.12 15.41 8.86 <
4630 3 5 3 0 -4 0.00 1.95 2.73 <
4631 3 5 3 0 -3 1.68 4.20 2.78 <
4632 3 5 3 0 -2 124.23 101.33 10.17 o
4633 3 5 3 0 -1 44.18 56.55 7.61 o
4634 3 5 3 0 1 59.55 47.24 8.92 o
4635 3 5 3 0 2 100.91 84.80 18.21 o
4636 3 5 3 0 3 32.96 24.08 7.13 o
4637 3 7 3 0 -3 13.50 17.67 9.34 <
4638 3 7 3 0 -2 3.50 11.06 7.00 <
4639 3 7 3 0 1 77.87 115.04 23.90 o
4640 3 7 3 0 2 8.81 16.44 6.92 <
4641 3 9 3 0 -4 0.00 1.64 3.33 <
4642 3 9 3 0 -3 258.19 277.67 38.05 o
4643 3 9 3 0 -2 80.19 87.80 14.33 o
4644 3 0 4 0 -2 65.99 62.19 10.27 o
4645 3 0 4 0 2 10.14 11.12 8.92 <
4646 3 2 4 0 -3 34.09 27.18 3.87 o
4647 3 2 4 0 -2 7.85 10.50 3.20 o
4648 3 2 4 0 -1 58.13 60.85 8.63 o
4649 3 2 4 0 1 165.25 195.03 12.71 o
4650 3 4 4 0 -3 15.08 9.44 4.76 <
4651 3 4 4 0 -2 5.27 7.94 3.71 <
4652 3 4 4 0 -1 0.54 6.48 3.75 <
4653 3 4 4 0 1 163.46 183.30 28.16 o
4654 3 4 4 0 2 3.16 11.30 8.51 <
4655 3 6 4 0 -3 131.95 100.91 12.79 o
4656 3 6 4 0 -1 163.02 147.77 12.40 o
4657 3 6 4 0 1 7.67 12.72 6.20 <
4658 3 8 4 0 -3 16.27 15.40 5.49 <
4659 3 8 4 0 -2 27.78 25.41 11.11 <
4660 3 8 4 0 -1 23.08 55.01 12.16 o
4661 3 10 4 0 -3 15.19 22.18 6.84 o
4662 3 1 5 0 -3 58.06 39.86 6.11 o
4663 3 1 5 0 -2 2.76 4.67 2.30 <
4664 3 1 5 0 -1 18.42 24.11 6.00 o
4665 3 3 5 0 -3 115.67 154.80 21.68 o
4666 3 3 5 0 -2 51.41 45.44 7.43 o
4667 3 3 5 0 -1 63.80 64.35 8.67 o
4668 3 3 5 0 1 3.66 20.44 7.61 <
4669 3 5 5 0 -3 14.08 13.24 3.62 o
4670 3 5 5 0 -2 3.15 6.27 3.07 <
4671 3 7 5 0 -3 1.10 0.39 3.72 <
4672 3 7 5 0 -2 1.47 17.14 9.10 <
4673 3 7 5 0 -1 1.42 3.26 2.76 <
4674 3 9 5 0 -3 273.78 214.35 33.89 o
4675 3 9 5 0 -2 70.76 83.61 21.23 o
4676 3 2 6 0 -3 21.02 20.68 7.82 <
4677 3 2 6 0 -2 0.21 3.41 2.02 <
4678 3 2 6 0 -1 32.46 50.94 9.08 o
4679 3 4 6 0 -3 2.41 7.21 5.14 <
4680 3 4 6 0 -2 0.11 11.96 7.39 <
4681 3 4 6 0 -1 1.25 13.59 8.66 <
4682 3 6 6 0 -3 70.74 63.40 9.99 o
4683 3 6 6 0 -2 61.34 82.22 20.99 o
4684 3 6 6 0 -1 71.41 77.70 20.31 o
4685 3 8 6 0 -3 2.49 0.03 1.31 <
4686 3 8 6 0 -2 1.43 8.66 6.29 <
4687 3 1 7 0 -3 1.53 7.36 3.51 <
4688 3 1 7 0 -2 4.83 9.61 4.53 <
4689 3 3 7 0 -3 6.02 39.31 14.56 <
4690 3 3 7 0 -2 27.65 28.03 11.37 <
4691 3 5 7 0 -3 3.26 7.62 7.29 <
4692 3 4 8 0 -3 0.44 5.81 6.82 <
4693 3 0 0 1 2 5.07 2.26 1.33 <
4694 3 0 0 1 4 13.10 11.98 2.57 o
4695 3 2 0 1 1 5.62 6.04 1.65 o
4696 3 2 0 1 2 2.17 2.86 1.01 <
4697 3 2 0 1 3 1.91 1.27 1.34 <
4698 3 2 0 1 4 29.82 26.32 3.90 o
4699 3 4 0 1 1 0.42 1.10 0.56 <
4700 3 4 0 1 2 0.74 0.65 1.02 <
4701 3 4 0 1 3 2.86 0.96 0.95 <
4702 3 4 0 1 4 2.06 2.52 1.69 <
4703 3 6 0 1 1 2.76 2.65 1.36 <
4704 3 6 0 1 2 4.06 10.55 2.88 o
4705 3 6 0 1 3 24.08 14.62 3.27 o
4706 3 6 0 1 4 51.20 42.91 5.81 o
4707 3 8 0 1 1 37.09 32.75 5.87 o
4708 3 8 0 1 2 2.63 6.97 1.95 o
4709 3 8 0 1 3 22.70 18.65 6.87 <
4710 3 8 0 1 4 37.02 17.45 6.01 <
4711 3 10 0 1 1 0.55 -5.49 6.09 <
4712 3 10 0 1 2 15.33 12.24 6.24 <
4713 3 10 0 1 3 7.85 10.08 7.02 <
4714 3 1 1 1 -4 3.04 2.16 2.42 <
4715 3 1 1 1 -3 2.07 5.36 1.39 o
4716 3 1 1 1 -2 1.36 1.77 0.68 <
4717 3 1 1 1 1 2.44 3.12 1.12 <
4718 3 1 1 1 2 6.68 5.37 1.29 o
4719 3 1 1 1 3 1.04 3.26 1.12 <
4720 3 1 1 1 4 2.20 2.09 0.92 <
4721 3 3 1 1 -4 9.50 13.70 2.38 o
4722 3 3 1 1 -3 107.79 95.57 6.23 o
4723 3 3 1 1 -2 0.59 3.82 1.11 o
4724 3 3 1 1 -1 1.09 1.49 0.72 <
4725 3 3 1 1 1 2.09 1.91 1.04 <
4726 3 3 1 1 2 2.00 4.70 2.02 <
4727 3 3 1 1 3 40.84 30.75 3.85 o
4728 3 3 1 1 4 24.11 12.51 3.68 o
4729 3 5 1 1 -4 45.31 47.64 6.63 o
4730 3 5 1 1 -3 20.71 21.89 4.05 o
4731 3 5 1 1 -2 4.74 5.58 4.36 <
4732 3 5 1 1 -1 19.44 22.15 2.68 o
4733 3 5 1 1 1 24.15 21.89 3.68 o
4734 3 5 1 1 2 3.76 3.63 1.79 <
4735 3 5 1 1 3 3.34 6.79 2.42 <
4736 3 5 1 1 4 60.00 45.52 6.25 o
4737 3 7 1 1 -4 0.10 0.87 1.44 <
4738 3 7 1 1 -3 3.50 -0.59 1.47 <
4739 3 7 1 1 -2 3.37 1.95 1.81 <
4740 3 7 1 1 -1 0.85 3.61 2.43 <
4741 3 7 1 1 1 1.69 4.16 2.76 <
4742 3 7 1 1 2 9.13 7.79 4.34 <
4743 3 7 1 1 3 0.01 4.26 2.50 <
4744 3 7 1 1 4 0.32 4.62 2.78 <
4745 3 9 1 1 -4 59.97 44.03 5.79 o
4746 3 9 1 1 -3 45.90 30.50 7.47 o
4747 3 9 1 1 -2 5.66 5.85 3.85 <
4748 3 9 1 1 -1 4.46 5.49 3.20 <
4749 3 9 1 1 1 6.04 0.76 2.86 <
4750 3 9 1 1 2 7.37 18.15 10.08 <
4751 3 9 1 1 3 24.24 20.89 6.27 o
4752 3 0 2 1 -4 0.80 7.18 1.02 o
4753 3 0 2 1 2 9.63 6.95 2.32 <
4754 3 0 2 1 4 3.84 -0.24 3.90 <
4755 3 2 2 1 -4 21.87 35.79 4.44 o
4756 3 2 2 1 -3 2.00 4.26 0.99 o
4757 3 2 2 1 -2 10.81 9.33 1.40 o
4758 3 2 2 1 -1 1.99 3.12 0.80 o
4759 3 2 2 1 1 12.72 9.57 3.87 <
4760 3 2 2 1 2 12.12 5.71 1.94 <
4761 3 2 2 1 3 0.91 2.00 1.28 <
4762 3 2 2 1 4 16.32 9.63 2.42 o
4763 3 4 2 1 -4 1.08 1.53 1.22 <
4764 3 4 2 1 -3 2.99 0.33 1.15 <
4765 3 4 2 1 -2 2.08 3.10 1.32 <
4766 3 4 2 1 -1 1.67 2.07 1.32 <
4767 3 4 2 1 1 7.10 8.71 5.36 <
4768 3 4 2 1 2 0.01 1.07 4.29 <
4769 3 4 2 1 3 1.79 1.26 3.35 <
4770 3 4 2 1 4 9.69 5.28 2.77 <
4771 3 6 2 1 -4 65.60 59.42 8.13 o
4772 3 6 2 1 -3 87.14 64.45 14.02 o
4773 3 6 2 1 -2 4.95 6.10 2.74 <
4774 3 6 2 1 -1 0.18 0.33 1.37 <
4775 3 6 2 1 1 0.95 4.24 2.13 <
4776 3 6 2 1 2 2.57 7.27 2.58 <
4777 3 6 2 1 3 34.88 30.20 10.84 <
4778 3 6 2 1 4 15.72 14.76 8.25 <
4779 3 8 2 1 -4 28.30 20.62 5.91 o
4780 3 8 2 1 -3 67.58 55.70 7.63 o
4781 3 8 2 1 -2 0.83 3.71 2.57 <
4782 3 8 2 1 -1 18.88 18.45 4.36 o
4783 3 8 2 1 1 21.41 21.06 7.47 <
4784 3 8 2 1 2 9.81 11.28 7.49 <
4785 3 8 2 1 3 22.08 31.80 13.81 <
4786 3 10 2 1 -4 10.48 5.14 4.01 <
4787 3 10 2 1 -3 1.67 5.29 3.11 <
4788 3 10 2 1 -2 9.19 8.69 5.53 <
4789 3 10 2 1 -1 0.14 1.53 1.83 <
4790 3 1 3 1 -3 0.60 1.63 0.42 o
4791 3 1 3 1 -2 0.06 1.49 0.89 <
4792 3 1 3 1 -1 2.73 3.01 0.86 o
4793 3 1 3 1 1 22.04 19.23 2.52 o
4794 3 1 3 1 2 9.01 6.52 4.68 <
4795 3 1 3 1 3 6.07 12.97 4.24 o
4796 3 1 3 1 4 1.02 6.98 5.37 <
4797 3 3 3 1 -4 13.91 28.49 3.21 o
4798 3 3 3 1 -3 17.14 15.71 1.93 o
4799 3 3 3 1 -2 2.02 1.74 0.98 <
4800 3 3 3 1 -1 3.30 5.95 2.07 <
4801 3 3 3 1 1 0.29 6.09 3.26 <
4802 3 3 3 1 2 0.24 4.13 3.85 <
4803 3 3 3 1 3 2.18 4.78 3.85 <
4804 3 3 3 1 4 20.14 6.66 6.38 <
4805 3 5 3 1 -3 24.29 23.10 2.42 o
4806 3 5 3 1 -2 17.68 8.79 2.33 o
4807 3 5 3 1 -1 8.07 9.72 2.07 o
4808 3 5 3 1 1 21.46 19.03 5.01 o
4809 3 5 3 1 2 13.24 10.27 5.26 <
4810 3 5 3 1 3 1.51 -0.97 2.41 <
4811 3 7 3 1 -3 0.38 0.20 1.18 <
4812 3 7 3 1 -2 0.63 2.58 2.01 <
4813 3 7 3 1 -1 1.69 5.25 2.16 <
4814 3 7 3 1 1 9.29 7.90 3.36 <
4815 3 7 3 1 2 5.80 14.52 7.12 <
4816 3 9 3 1 -4 85.62 63.44 17.85 o
4817 3 9 3 1 -3 1.06 2.47 2.27 <
4818 3 9 3 1 -2 2.13 -4.15 3.60 <
4819 3 9 3 1 -1 0.21 7.13 3.86 <
4820 3 0 4 1 -2 0.30 3.62 1.59 <
4821 3 0 4 1 2 1.04 4.18 3.62 <
4822 3 2 4 1 -3 0.23 0.19 0.76 <
4823 3 2 4 1 -2 14.57 13.03 1.95 o
4824 3 2 4 1 -1 5.08 0.87 1.06 <
4825 3 2 4 1 1 21.67 17.92 4.99 o
4826 3 2 4 1 2 8.15 -3.21 3.27 <
4827 3 2 4 1 3 10.26 16.39 10.62 <
4828 3 4 4 1 -3 2.92 4.17 2.31 <
4829 3 4 4 1 -2 0.05 2.08 1.43 <
4830 3 4 4 1 -1 8.01 8.19 2.02 o
4831 3 4 4 1 1 19.31 12.64 3.59 o
4832 3 4 4 1 2 0.00 11.37 6.98 <
4833 3 6 4 1 -3 46.30 43.51 8.45 o
4834 3 6 4 1 -2 3.12 2.23 1.48 <
4835 3 6 4 1 -1 6.29 8.57 2.73 o
4836 3 6 4 1 1 0.48 9.82 6.37 <
4837 3 8 4 1 -3 95.60 80.62 12.82 o
4838 3 8 4 1 -1 6.16 14.38 5.10 <
4839 3 10 4 1 -3 2.84 1.43 4.08 <
4840 3 1 5 1 -3 5.86 4.20 1.22 o
4841 3 1 5 1 -2 0.07 -1.13 1.26 <
4842 3 1 5 1 -1 5.26 4.87 2.38 <
4843 3 1 5 1 1 26.68 20.44 8.58 <
4844 3 3 5 1 -3 16.40 28.01 4.16 o
4845 3 3 5 1 -2 0.53 1.74 1.08 <
4846 3 3 5 1 -1 6.96 7.09 2.37 <
4847 3 3 5 1 1 1.51 12.79 5.67 <
4848 3 5 5 1 -3 38.20 39.69 7.34 o
4849 3 5 5 1 -2 5.30 6.65 2.11 o
4850 3 5 5 1 -1 0.89 4.70 2.94 <
4851 3 7 5 1 -3 0.02 -0.16 2.10 <
4852 3 7 5 1 -2 2.21 0.85 3.35 <
4853 3 7 5 1 -1 3.45 3.40 2.91 <
4854 3 9 5 1 -3 6.90 15.65 4.97 o
4855 3 9 5 1 -2 1.86 5.13 4.98 <
4856 3 0 6 1 -2 7.00 9.64 3.82 <
4857 3 2 6 1 -3 0.01 1.29 1.61 <
4858 3 2 6 1 -2 0.82 0.39 1.59 <
4859 3 2 6 1 -1 1.74 2.12 1.50 <
4860 3 4 6 1 -3 0.33 4.83 2.26 <
4861 3 4 6 1 -2 0.29 -0.25 2.16 <
4862 3 4 6 1 -1 5.28 7.93 2.58 o
4863 3 6 6 1 -3 2.27 8.72 5.02 <
4864 3 6 6 1 -2 0.33 2.18 5.11 <
4865 3 6 6 1 -1 10.32 2.83 1.85 <
4866 3 8 6 1 -3 64.58 65.45 13.14 o
4867 3 1 7 1 -3 0.04 3.24 1.49 <
4868 3 1 7 1 -2 0.02 3.47 3.08 <
4869 3 3 7 1 -2 6.10 6.45 4.00 <
4870 3 5 7 1 -3 23.93 20.35 5.54 o
4871 3 5 7 1 -2 0.54 -1.85 4.97 <
4872 3 7 7 1 -3 10.71 20.63 8.18 <
4873 3 2 8 1 -3 2.50 0.39 3.02 <
4874 3 0 0 2 2 365.85 317.78 10.84 o
4875 3 0 0 2 4 8.13 3.74 1.44 <
4876 3 2 0 2 1 524.73 481.64 9.83 o
4877 3 2 0 2 2 293.08 276.37 6.26 o
4878 3 2 0 2 3 0.29 0.69 0.68 <
4879 3 2 0 2 4 27.07 19.42 3.19 o
4880 3 4 0 2 1 22.81 17.35 2.08 o
4881 3 4 0 2 2 0.51 -0.07 1.03 <
4882 3 4 0 2 3 21.27 26.59 4.69 o
4883 3 4 0 2 4 11.49 14.75 3.96 o
4884 3 6 0 2 1 164.96 144.87 8.51 o
4885 3 6 0 2 2 136.60 149.44 9.71 o
4886 3 6 0 2 3 6.38 5.78 1.85 o
4887 3 6 0 2 4 0.58 5.36 3.49 <
4888 3 8 0 2 1 50.56 54.70 10.86 o
4889 3 8 0 2 2 149.10 144.92 17.65 o
4890 3 8 0 2 3 4.75 1.48 1.71 <
4891 3 8 0 2 4 25.98 13.14 6.74 <
4892 3 10 0 2 1 13.86 12.35 4.42 <
4893 3 10 0 2 2 1.61 5.61 3.68 <
4894 3 10 0 2 3 37.58 19.49 8.39 <
4895 3 1 1 2 -4 11.88 12.33 1.79 o
4896 3 1 1 2 -3 10.42 12.20 3.73 o
4897 3 1 1 2 -2 28.98 24.90 1.67 o
4898 3 1 1 2 -1 145.92 134.76 3.20 o
4899 3 1 1 2 1 477.19 432.17 14.80 o
4900 3 1 1 2 2 34.88 25.58 3.13 o
4901 3 1 1 2 3 8.58 8.01 1.45 o
4902 3 1 1 2 4 3.01 3.17 2.24 <
4903 3 3 1 2 -4 12.33 6.90 1.57 o
4904 3 3 1 2 -3 2.24 2.05 1.48 <
4905 3 3 1 2 -2 226.26 189.60 8.36 o
4906 3 3 1 2 1 67.62 62.37 5.67 o
4907 3 3 1 2 2 204.46 197.83 10.33 o
4908 3 3 1 2 3 28.16 28.05 4.25 o
4909 3 3 1 2 4 7.54 0.69 0.87 <
4910 3 5 1 2 -4 37.16 30.90 4.06 o
4911 3 5 1 2 -3 0.62 0.43 1.34 <
4912 3 5 1 2 -2 251.02 219.82 12.22 o
4913 3 5 1 2 -1 174.82 168.43 9.29 o
4914 3 5 1 2 1 235.18 197.29 10.65 o
4915 3 5 1 2 2 229.68 225.25 14.67 o
4916 3 5 1 2 3 0.12 -0.60 1.18 <
4917 3 5 1 2 4 34.42 22.81 4.55 o
4918 3 7 1 2 -4 12.03 17.61 5.65 o
4919 3 7 1 2 -3 19.70 14.04 4.64 o
4920 3 7 1 2 -2 9.00 8.42 3.36 <
4921 3 7 1 2 -1 28.29 30.30 4.48 o
4922 3 7 1 2 1 0.38 3.40 2.54 <
4923 3 7 1 2 2 3.67 4.94 4.12 <
4924 3 7 1 2 4 21.19 25.50 7.92 o
4925 3 9 1 2 -4 1.98 1.76 5.50 <
4926 3 9 1 2 -3 4.56 3.31 2.22 <
4927 3 9 1 2 -2 44.36 55.64 8.22 o
4928 3 9 1 2 -1 138.40 129.19 12.86 o
4929 3 9 1 2 1 41.03 36.31 6.63 o
4930 3 9 1 2 2 52.91 80.64 12.00 o
4931 3 9 1 2 3 30.75 13.91 7.51 <
4932 3 0 2 2 -4 13.48 11.48 1.54 o
4933 3 0 2 2 -2 142.76 107.87 4.88 o
4934 3 0 2 2 2 151.87 137.32 8.28 o
4935 3 0 2 2 4 1.92 -1.01 2.70 <
4936 3 2 2 2 -4 11.35 12.36 2.00 o
4937 3 2 2 2 -3 26.53 20.85 2.00 o
4938 3 2 2 2 -2 122.33 102.14 3.51 o
4939 3 2 2 2 -1 157.35 138.01 6.53 o
4940 3 2 2 2 1 466.62 435.01 13.57 o
4941 3 2 2 2 2 107.78 100.20 7.27 o
4942 3 2 2 2 3 5.14 4.34 2.13 <
4943 3 2 2 2 4 15.66 16.62 5.16 o
4944 3 4 2 2 -4 2.89 3.76 1.33 <
4945 3 4 2 2 -3 0.09 1.97 0.79 <
4946 3 4 2 2 -2 13.05 9.46 1.62 o
4947 3 4 2 2 -1 25.69 27.59 3.96 o
4948 3 4 2 2 1 117.34 107.96 7.73 o
4949 3 4 2 2 2 0.01 3.40 1.83 <
4950 3 4 2 2 3 53.70 47.62 5.73 o
4951 3 4 2 2 4 2.61 2.28 2.59 <
4952 3 6 2 2 -4 0.13 -0.53 1.17 <
4953 3 6 2 2 -3 0.09 -0.11 1.19 <
4954 3 6 2 2 -2 71.98 61.86 7.62 o
4955 3 6 2 2 -1 277.42 269.95 16.25 o
4956 3 6 2 2 1 42.98 42.12 7.10 o
4957 3 6 2 2 2 97.52 129.46 11.45 o
4958 3 6 2 2 3 23.68 19.10 5.11 o
4959 3 6 2 2 4 0.88 -7.55 7.57 <
4960 3 8 2 2 -4 5.76 9.21 3.99 <
4961 3 8 2 2 -3 23.41 17.73 3.70 o
4962 3 8 2 2 -2 78.78 49.20 13.34 o
4963 3 8 2 2 -1 50.00 82.93 9.02 o
4964 3 8 2 2 1 28.45 13.69 7.84 <
4965 3 8 2 2 2 93.27 105.41 22.33 o
4966 3 10 2 2 -4 6.52 9.43 2.89 o
4967 3 10 2 2 -3 35.44 44.10 8.29 o
4968 3 10 2 2 -2 0.77 1.16 1.89 <
4969 3 10 2 2 -1 36.71 34.45 10.48 o
4970 3 1 3 2 -4 0.00 11.06 1.85 o
4971 3 1 3 2 -3 43.95 27.67 2.12 o
4972 3 1 3 2 -2 0.47 2.43 1.10 <
4973 3 1 3 2 -1 0.02 0.09 0.65 <
4974 3 1 3 2 1 336.16 356.18 19.17 o
4975 3 1 3 2 2 17.44 15.17 8.35 <
4976 3 1 3 2 3 32.05 31.85 8.92 o
4977 3 1 3 2 4 0.04 -3.31 3.74 <
4978 3 3 3 2 -4 0.00 1.66 1.12 <
4979 3 3 3 2 -3 13.94 12.74 1.51 o
4980 3 3 3 2 -2 18.41 12.42 2.41 o
4981 3 3 3 2 -1 176.53 182.86 7.65 o
4982 3 3 3 2 1 11.47 13.71 3.67 o
4983 3 3 3 2 2 69.19 66.47 11.42 o
4984 3 3 3 2 3 19.92 18.72 6.79 <
4985 3 3 3 2 4 2.35 1.71 5.04 <
4986 3 5 3 2 -4 0.00 1.91 1.95 <
4987 3 5 3 2 -3 2.68 2.52 1.02 <
4988 3 5 3 2 -2 56.29 42.12 4.46 o
4989 3 5 3 2 -1 68.19 80.93 6.10 o
4990 3 5 3 2 1 145.21 134.27 16.90 o
4991 3 5 3 2 2 94.92 88.10 20.17 o
4992 3 5 3 2 3 0.59 -6.56 7.25 <
4993 3 7 3 2 -4 0.00 -1.09 3.28 <
4994 3 7 3 2 -3 3.67 5.42 2.14 <
4995 3 7 3 2 -2 3.04 3.73 2.36 <
4996 3 7 3 2 -1 83.84 85.43 9.03 o
4997 3 7 3 2 1 15.75 14.90 7.62 <
4998 3 7 3 2 2 0.28 9.74 8.57 <
4999 3 9 3 2 -4 0.00 -2.22 2.79 <
5000 3 9 3 2 -3 16.79 12.50 4.43 <
5001 3 9 3 2 -1 159.12 136.83 28.75 o
5002 3 0 4 2 -2 18.41 25.20 2.49 o
5003 3 0 4 2 2 18.87 1.72 2.33 <
5004 3 2 4 2 -3 19.90 12.93 1.80 o
5005 3 2 4 2 -2 0.12 4.60 3.52 <
5006 3 2 4 2 -1 13.04 16.51 4.17 o
5007 3 2 4 2 1 262.54 293.91 20.54 o
5008 3 2 4 2 2 26.79 23.64 6.54 o
5009 3 4 4 2 -3 1.79 -0.05 1.10 <
5010 3 4 4 2 -2 11.16 8.22 1.81 o
5011 3 4 4 2 -1 57.10 56.23 6.71 o
5012 3 4 4 2 1 109.87 122.04 17.45 o
5013 3 4 4 2 2 0.94 9.33 4.48 <
5014 3 6 4 2 -3 28.23 24.06 3.69 o
5015 3 6 4 2 -2 1.60 3.92 1.64 <
5016 3 6 4 2 -1 201.23 216.75 12.99 o
5017 3 8 4 2 -3 12.92 9.62 3.47 <
5018 3 8 4 2 -2 9.20 9.29 3.37 <
5019 3 8 4 2 -1 18.94 35.53 13.34 <
5020 3 10 4 2 -3 16.67 16.07 10.42 <
5021 3 1 5 2 -3 0.41 0.55 0.91 <
5022 3 1 5 2 -2 25.50 29.47 4.45 o
5023 3 1 5 2 -1 6.10 3.76 1.53 <
5024 3 3 5 2 -3 0.73 1.59 1.42 <
5025 3 3 5 2 -2 29.48 28.37 4.81 o
5026 3 3 5 2 -1 67.65 62.40 9.06 o
5027 3 3 5 2 1 3.90 18.36 10.33 <
5028 3 5 5 2 -3 7.76 6.78 3.11 <
5029 3 5 5 2 -2 0.36 9.53 3.12 o
5030 3 5 5 2 -1 12.42 18.70 6.12 o
5031 3 7 5 2 -3 16.04 20.59 5.26 o
5032 3 7 5 2 -2 0.59 -0.78 3.26 <
5033 3 9 5 2 -3 4.58 1.21 3.61 <
5034 3 9 5 2 -2 5.44 11.52 5.80 <
5035 3 2 6 2 -3 3.50 2.62 1.08 <
5036 3 2 6 2 -2 23.79 17.66 8.96 <
5037 3 2 6 2 -1 3.03 9.43 3.22 <
5038 3 4 6 2 -3 3.49 8.82 2.26 o
5039 3 4 6 2 -2 13.81 16.57 4.30 o
5040 3 4 6 2 -1 27.80 22.42 6.52 o
5041 3 6 6 2 -3 4.08 4.25 2.60 <
5042 3 6 6 2 -2 6.47 7.70 7.52 <
5043 3 8 6 2 -3 18.56 8.40 3.99 <
5044 3 8 6 2 -2 1.78 2.66 6.27 <
5045 3 1 7 2 -3 10.84 14.70 4.08 o
5046 3 1 7 2 -2 24.91 23.18 6.14 o
5047 3 1 7 2 -1 0.91 6.67 7.00 <
5048 3 3 7 2 -3 0.13 5.97 3.01 <
5049 3 3 7 2 -2 60.25 62.30 10.44 o
5050 3 5 7 2 -3 5.74 8.09 3.95 <
5051 3 7 7 2 -3 17.42 19.41 8.05 <
5052 3 2 8 2 -3 19.09 20.70 5.35 o
5053 3 4 8 2 -3 33.24 33.00 14.56 <
5054 3 0 0 3 2 20.19 17.82 3.79 o
5055 3 0 0 3 4 2.64 3.82 2.26 <
5056 3 2 0 3 1 0.25 -0.13 0.63 <
5057 3 2 0 3 2 0.36 2.17 0.83 <
5058 3 2 0 3 3 9.14 14.02 2.35 o
5059 3 2 0 3 4 27.53 26.64 2.94 o
5060 3 4 0 3 1 2.43 3.25 2.57 <
5061 3 4 0 3 2 0.93 0.69 1.44 <
5062 3 4 0 3 3 33.29 25.53 4.55 o
5063 3 4 0 3 4 1.25 2.05 1.57 <
5064 3 6 0 3 1 20.73 17.25 3.26 o
5065 3 6 0 3 2 0.30 2.60 2.30 <
5066 3 6 0 3 3 52.77 28.24 5.02 o
5067 3 6 0 3 4 27.35 25.33 4.83 o
5068 3 8 0 3 1 9.85 9.97 3.04 o
5069 3 8 0 3 2 0.02 -0.69 1.75 <
5070 3 8 0 3 3 0.03 4.97 3.03 <
5071 3 8 0 3 4 45.82 28.76 10.73 <
5072 3 10 0 3 1 5.31 6.23 5.11 <
5073 3 10 0 3 2 31.22 20.81 7.26 <
5074 3 10 0 3 3 29.50 16.50 10.27 <
5075 3 1 1 3 -4 3.94 3.88 1.27 o
5076 3 1 1 3 -3 6.74 7.86 0.91 o
5077 3 1 1 3 -2 0.18 0.81 0.97 <
5078 3 1 1 3 -1 0.02 -0.39 0.39 <
5079 3 1 1 3 1 2.47 2.32 0.86 <
5080 3 1 1 3 2 2.50 2.41 0.78 o
5081 3 1 1 3 3 0.62 3.00 1.48 <
5082 3 1 1 3 4 0.54 4.08 3.37 <
5083 3 3 1 3 -4 32.26 33.06 3.13 o
5084 3 3 1 3 -3 0.61 1.50 1.24 <
5085 3 3 1 3 -2 0.12 1.53 0.87 <
5086 3 3 1 3 -1 3.17 3.22 0.95 o
5087 3 3 1 3 1 2.13 2.24 0.86 <
5088 3 3 1 3 2 9.17 3.27 1.08 o
5089 3 3 1 3 3 1.16 2.89 1.73 <
5090 3 3 1 3 4 8.72 8.99 3.54 <
5091 3 5 1 3 -4 70.32 75.19 5.44 o
5092 3 5 1 3 -3 5.10 6.54 2.05 o
5093 3 5 1 3 -2 5.73 5.92 1.63 o
5094 3 5 1 3 -1 4.65 8.41 2.70 o
5095 3 5 1 3 1 10.90 9.54 2.20 o
5096 3 5 1 3 2 1.26 1.34 1.23 <
5097 3 5 1 3 3 5.09 11.16 3.66 o
5098 3 5 1 3 4 52.52 44.24 7.65 o
5099 3 7 1 3 -4 8.64 4.50 3.02 <
5100 3 7 1 3 -3 39.43 24.06 4.92 o
5101 3 7 1 3 -2 5.04 4.72 2.00 <
5102 3 7 1 3 -1 7.63 8.97 2.15 o
5103 3 7 1 3 1 9.41 10.96 4.14 <
5104 3 7 1 3 2 14.99 17.65 3.36 o
5105 3 7 1 3 3 18.77 9.81 4.55 <
5106 3 7 1 3 4 3.11 5.16 2.82 <
5107 3 9 1 3 -4 55.96 37.89 6.14 o
5108 3 9 1 3 -3 25.69 33.81 6.76 o
5109 3 9 1 3 -2 0.89 5.03 3.25 <
5110 3 9 1 3 -1 13.61 11.46 2.96 o
5111 3 9 1 3 1 9.91 4.66 4.71 <
5112 3 9 1 3 3 12.73 18.57 8.02 <
5113 3 0 2 3 -4 0.82 6.27 1.50 o
5114 3 0 2 3 -2 0.01 -0.19 0.39 <
5115 3 0 2 3 2 25.39 20.55 3.67 o
5116 3 2 2 3 -4 15.19 29.90 2.33 o
5117 3 2 2 3 -3 10.45 17.33 2.26 o
5118 3 2 2 3 -2 10.41 10.53 2.23 o
5119 3 2 2 3 -1 0.39 1.24 0.97 <
5120 3 2 2 3 1 14.16 9.16 2.03 o
5121 3 2 2 3 2 1.45 1.46 1.47 <
5122 3 2 2 3 3 9.86 13.18 2.47 o
5123 3 4 2 3 -4 2.36 3.57 1.38 <
5124 3 4 2 3 -3 56.36 44.83 4.79 o
5125 3 4 2 3 -2 0.95 1.49 0.87 <
5126 3 4 2 3 -1 4.99 6.30 1.80 o
5127 3 4 2 3 1 13.24 15.14 4.30 o
5128 3 4 2 3 2 4.17 1.07 2.42 <
5129 3 4 2 3 3 6.23 6.60 2.15 o
5130 3 4 2 3 4 0.50 12.49 6.22 <
5131 3 6 2 3 -4 41.84 46.35 4.68 o
5132 3 6 2 3 -3 0.38 3.36 2.32 <
5133 3 6 2 3 -2 3.92 4.46 1.83 <
5134 3 6 2 3 -1 2.75 2.16 1.85 <
5135 3 6 2 3 1 3.91 5.24 2.63 <
5136 3 6 2 3 2 0.11 3.48 5.07 <
5137 3 6 2 3 3 4.44 8.10 7.22 <
5138 3 6 2 3 4 40.49 25.86 7.03 o
5139 3 8 2 3 -4 42.45 49.26 13.97 o
5140 3 8 2 3 -3 0.96 -0.23 1.85 <
5141 3 8 2 3 -2 0.95 0.25 1.71 <
5142 3 8 2 3 -1 6.37 7.58 2.83 <
5143 3 8 2 3 1 15.54 10.32 5.33 <
5144 3 8 2 3 2 2.15 3.93 4.41 <
5145 3 10 2 3 -4 17.57 11.52 4.32 <
5146 3 10 2 3 -3 36.45 17.91 4.78 o
5147 3 10 2 3 -2 12.08 15.63 4.92 o
5148 3 10 2 3 -1 4.10 4.21 4.34 <
5149 3 1 3 3 -4 0.12 1.16 0.47 <
5150 3 1 3 3 -3 0.92 2.55 0.86 <
5151 3 1 3 3 -2 0.89 1.81 0.73 <
5152 3 1 3 3 -1 3.97 4.74 1.60 <
5153 3 1 3 3 1 13.52 12.67 4.50 <
5154 3 1 3 3 2 0.19 0.74 1.65 <
5155 3 1 3 3 3 10.31 6.82 6.49 <
5156 3 1 3 3 4 0.28 1.93 2.43 <
5157 3 3 3 3 -4 10.55 28.87 3.00 o
5158 3 3 3 3 -3 52.89 49.77 3.04 o
5159 3 3 3 3 -2 3.94 2.01 1.06 <
5160 3 3 3 3 -1 0.01 0.82 0.81 <
5161 3 3 3 3 1 0.19 3.65 2.31 <
5162 3 3 3 3 2 16.08 12.48 2.99 o
5163 3 3 3 3 3 4.95 10.46 4.29 <
5164 3 5 3 3 -4 49.91 64.73 8.41 o
5165 3 5 3 3 -3 0.73 1.86 1.05 <
5166 3 5 3 3 -2 14.16 10.26 2.21 o
5167 3 5 3 3 -1 0.06 1.07 1.32 <
5168 3 5 3 3 1 7.64 8.88 3.22 <
5169 3 5 3 3 2 0.55 3.01 3.26 <
5170 3 5 3 3 3 9.84 14.74 9.55 <
5171 3 7 3 3 -4 9.93 9.49 4.13 <
5172 3 7 3 3 -3 81.78 59.73 10.72 o
5173 3 7 3 3 -2 0.43 -1.83 2.24 <
5174 3 7 3 3 -1 13.68 18.19 4.91 o
5175 3 7 3 3 1 9.41 7.15 4.06 <
5176 3 9 3 3 -4 59.54 38.12 13.79 <
5177 3 9 3 3 -3 2.26 8.91 4.40 <
5178 3 9 3 3 -2 3.32 1.78 2.71 <
5179 3 9 3 3 -1 6.19 6.28 4.06 <
5180 3 0 4 3 -2 0.97 1.20 0.98 <
5181 3 0 4 3 2 12.96 10.37 5.57 <
5182 3 2 4 3 -3 9.13 8.14 1.84 o
5183 3 2 4 3 -2 1.89 3.10 1.35 <
5184 3 2 4 3 -1 0.01 -0.47 1.27 <
5185 3 2 4 3 1 19.99 18.33 5.17 o
5186 3 2 4 3 2 0.90 5.90 2.40 <
5187 3 4 4 3 -3 4.53 7.55 2.54 <
5188 3 4 4 3 -2 2.73 1.38 1.33 <
5189 3 4 4 3 -1 12.46 16.47 5.39 o
5190 3 4 4 3 1 29.68 27.33 6.74 o
5191 3 4 4 3 2 2.69 9.04 6.59 <
5192 3 6 4 3 -3 17.00 25.50 3.41 o
5193 3 6 4 3 -2 3.82 2.62 1.84 <
5194 3 6 4 3 -1 0.59 6.05 3.66 <
5195 3 6 4 3 1 0.57 1.03 2.64 <
5196 3 8 4 3 -3 3.10 1.49 1.60 <
5197 3 8 4 3 -2 0.21 2.57 2.85 <
5198 3 10 4 3 -3 12.07 13.56 5.92 <
5199 3 1 5 3 -3 0.90 0.39 0.86 <
5200 3 1 5 3 -2 0.27 4.22 1.44 <
5201 3 1 5 3 -1 7.81 5.05 1.79 <
5202 3 1 5 3 1 32.06 19.42 5.20 o
5203 3 3 5 3 -3 0.49 1.82 1.57 <
5204 3 3 5 3 -2 0.18 4.28 2.40 <
5205 3 3 5 3 -1 2.79 1.01 2.54 <
5206 3 3 5 3 1 0.68 15.69 9.90 <
5207 3 5 5 3 -3 2.04 3.64 2.99 <
5208 3 5 5 3 -2 4.19 2.61 2.57 <
5209 3 5 5 3 -1 0.02 6.00 5.39 <
5210 3 7 5 3 -3 67.95 61.77 8.03 o
5211 3 7 5 3 -2 2.22 6.47 3.39 <
5212 3 7 5 3 -1 9.81 7.87 3.43 <
5213 3 9 5 3 -3 28.09 19.17 6.79 <
5214 3 2 6 3 -3 0.86 2.50 1.12 <
5215 3 2 6 3 -2 0.48 2.57 1.44 <
5216 3 2 6 3 -1 0.01 1.54 1.81 <
5217 3 4 6 3 -3 18.18 24.53 6.53 o
5218 3 4 6 3 -2 0.88 1.01 2.43 <
5219 3 4 6 3 -1 12.03 7.64 3.99 <
5220 3 6 6 3 -2 2.35 2.26 2.91 <
5221 3 6 6 3 -1 2.62 2.81 5.02 <
5222 3 1 7 3 -3 1.38 3.91 3.11 <
5223 3 1 7 3 -2 5.16 2.82 2.85 <
5224 3 3 7 3 -3 0.97 0.83 2.18 <
5225 3 3 7 3 -2 0.26 -1.12 2.84 <
5226 3 5 7 3 -3 0.29 -1.70 2.31 <
5227 3 7 7 3 -3 9.58 29.35 12.64 <
5228 3 2 8 3 -3 0.13 -0.52 2.71 <
5229 3 0 0 4 2 165.07 125.55 6.33 o
5230 3 0 0 4 4 116.54 102.51 11.88 o
5231 3 2 0 4 1 415.25 392.61 14.70 o
5232 3 2 0 4 2 146.70 135.05 7.01 o
5233 3 2 0 4 3 24.21 20.46 3.22 o
5234 3 2 0 4 4 32.02 22.66 5.33 o
5235 3 4 0 4 1 16.66 13.80 2.67 o
5236 3 4 0 4 2 51.71 45.18 3.71 o
5237 3 4 0 4 3 0.08 3.70 1.98 <
5238 3 4 0 4 4 0.19 4.87 2.40 <
5239 3 6 0 4 1 12.62 16.41 3.77 o
5240 3 6 0 4 2 79.87 105.27 8.23 o
5241 3 6 0 4 3 17.17 16.54 3.42 o
5242 3 6 0 4 4 21.97 22.77 5.59 o
5243 3 8 0 4 1 73.93 89.51 9.13 o
5244 3 8 0 4 2 162.99 183.50 11.53 o
5245 3 8 0 4 3 117.87 99.86 12.82 o
5246 3 8 0 4 4 13.78 11.35 3.23 o
5247 3 10 0 4 1 11.61 1.62 3.70 <
5248 3 10 0 4 2 28.62 15.63 9.59 <
5249 3 1 1 4 -4 15.00 12.49 2.55 o
5250 3 1 1 4 -3 1.16 -0.97 1.83 <
5251 3 1 1 4 -2 6.93 5.19 0.83 o
5252 3 1 1 4 -1 117.92 113.18 3.61 o
5253 3 1 1 4 1 323.11 306.86 23.91 o
5254 3 1 1 4 2 0.47 1.17 0.81 <
5255 3 1 1 4 3 26.00 30.39 3.99 o
5256 3 1 1 4 4 32.54 26.22 4.09 o
5257 3 3 1 4 -4 67.90 54.18 3.97 o
5258 3 3 1 4 -3 44.31 38.39 3.84 o
5259 3 3 1 4 -2 177.57 159.79 6.02 o
5260 3 3 1 4 -1 65.19 67.53 5.67 o
5261 3 3 1 4 1 4.24 5.79 1.16 o
5262 3 3 1 4 2 80.28 79.18 4.97 o
5263 3 3 1 4 3 1.82 3.50 1.55 <
5264 3 3 1 4 4 114.00 88.36 10.46 o
5265 3 5 1 4 -4 25.04 21.27 5.17 o
5266 3 5 1 4 -3 91.21 70.02 9.18 o
5267 3 5 1 4 -2 270.78 259.24 10.60 o
5268 3 5 1 4 -1 190.82 169.79 15.32 o
5269 3 5 1 4 1 209.12 188.22 12.93 o
5270 3 5 1 4 2 191.10 185.05 16.93 o
5271 3 5 1 4 3 95.26 87.34 10.48 o
5272 3 5 1 4 4 37.60 23.63 10.33 <
5273 3 7 1 4 -4 3.31 4.77 2.27 <
5274 3 7 1 4 -3 12.72 17.09 4.53 o
5275 3 7 1 4 -2 36.49 28.47 5.85 o
5276 3 7 1 4 -1 21.86 21.13 3.62 o
5277 3 7 1 4 1 0.06 0.55 1.55 <
5278 3 7 1 4 2 47.07 32.13 7.13 o
5279 3 7 1 4 3 3.28 10.18 7.52 <
5280 3 7 1 4 4 0.04 5.25 3.81 <
5281 3 9 1 4 -4 0.85 1.29 3.03 <
5282 3 9 1 4 -3 83.09 83.02 10.08 o
5283 3 9 1 4 -2 49.69 47.78 7.96 o
5284 3 9 1 4 -1 9.98 15.70 5.10 o
5285 3 9 1 4 1 5.64 14.35 5.02 <
5286 3 9 1 4 2 33.04 67.94 14.07 o
5287 3 9 1 4 3 0.01 -1.70 4.25 <
5288 3 0 2 4 -4 55.25 66.85 5.48 o
5289 3 0 2 4 -2 142.68 148.66 7.97 o
5290 3 0 2 4 2 36.99 37.69 6.98 o
5291 3 0 2 4 4 76.88 55.27 9.10 o
5292 3 2 2 4 -4 31.78 34.02 3.10 o
5293 3 2 2 4 -3 0.10 0.59 1.09 <
5294 3 2 2 4 -2 182.90 188.83 9.55 o
5295 3 2 2 4 -1 175.64 173.16 8.76 o
5296 3 2 2 4 1 375.39 359.65 16.22 o
5297 3 2 2 4 2 31.61 31.32 3.62 o
5298 3 2 2 4 3 87.11 84.61 9.51 o
5299 3 2 2 4 4 21.57 13.80 3.62 o
5300 3 4 2 4 -4 3.29 2.61 1.20 <
5301 3 4 2 4 -3 44.86 35.92 3.77 o
5302 3 4 2 4 -2 7.53 4.55 1.55 <
5303 3 4 2 4 -1 9.49 14.10 2.31 o
5304 3 4 2 4 1 73.71 72.73 10.08 o
5305 3 4 2 4 2 45.75 34.44 5.02 o
5306 3 4 2 4 3 31.25 51.20 6.58 o
5307 3 4 2 4 4 1.59 -0.99 3.45 <
5308 3 6 2 4 -4 7.83 9.15 2.79 o
5309 3 6 2 4 -3 17.56 16.83 3.15 o
5310 3 6 2 4 -2 92.43 87.29 7.62 o
5311 3 6 2 4 -1 68.31 80.37 5.49 o
5312 3 6 2 4 1 1.37 8.84 3.40 <
5313 3 6 2 4 2 39.43 75.68 11.94 o
5314 3 6 2 4 3 3.00 9.73 7.59 <
5315 3 6 2 4 4 18.22 18.23 10.73 <
5316 3 8 2 4 -4 6.18 5.76 2.71 <
5317 3 8 2 4 -3 183.87 215.98 11.94 o
5318 3 8 2 4 -2 145.46 128.57 24.99 o
5319 3 8 2 4 -1 89.41 95.82 10.62 o
5320 3 8 2 4 1 45.72 32.68 8.76 o
5321 3 8 2 4 2 84.89 106.98 13.57 o
5322 3 10 2 4 -4 0.43 2.03 6.18 <
5323 3 10 2 4 -3 6.00 38.26 8.63 o
5324 3 10 2 4 -2 1.72 2.87 2.25 <
5325 3 10 2 4 -1 22.89 14.64 6.52 <
5326 3 1 3 4 -4 0.00 1.39 1.79 <
5327 3 1 3 4 -3 121.66 99.49 7.01 o
5328 3 1 3 4 -2 2.94 1.21 1.04 <
5329 3 1 3 4 -1 14.58 14.74 2.87 o
5330 3 1 3 4 1 265.44 295.70 15.20 o
5331 3 1 3 4 2 8.08 8.69 3.20 <
5332 3 1 3 4 3 48.26 58.91 9.35 o
5333 3 1 3 4 4 1.92 -1.87 3.42 <
5334 3 3 3 4 -4 0.00 4.61 2.09 <
5335 3 3 3 4 -3 41.04 36.59 2.71 o
5336 3 3 3 4 -2 63.90 57.85 4.21 o
5337 3 3 3 4 -1 70.76 84.17 7.54 o
5338 3 3 3 4 1 0.88 7.56 2.94 <
5339 3 3 3 4 2 11.80 13.66 3.76 o
5340 3 3 3 4 3 1.84 14.86 6.99 <
5341 3 5 3 4 -4 0.00 5.33 2.57 <
5342 3 5 3 4 -3 43.01 40.80 5.58 o
5343 3 5 3 4 -2 120.70 111.98 9.01 o
5344 3 5 3 4 -1 134.27 142.44 11.94 o
5345 3 5 3 4 1 152.98 156.10 14.36 o
5346 3 5 3 4 2 42.37 44.82 6.84 o
5347 3 5 3 4 3 47.40 43.17 16.89 <
5348 3 7 3 4 -4 0.00 1.09 1.80 <
5349 3 7 3 4 -3 70.93 67.05 8.31 o
5350 3 7 3 4 -2 1.66 -1.65 2.46 <
5351 3 7 3 4 -1 40.97 38.06 8.62 o
5352 3 7 3 4 1 7.52 17.26 3.96 o
5353 3 9 3 4 -4 0.00 2.45 2.37 <
5354 3 9 3 4 -3 62.35 53.47 12.61 o
5355 3 9 3 4 -2 48.17 43.72 7.20 o
5356 3 9 3 4 -1 35.82 45.82 8.36 o
5357 3 0 4 4 -2 20.90 15.87 4.29 o
5358 3 0 4 4 2 0.08 -2.61 3.61 <
5359 3 2 4 4 -3 7.56 5.55 2.06 <
5360 3 2 4 4 -2 41.29 33.34 4.10 o
5361 3 2 4 4 -1 66.62 72.24 7.07 o
5362 3 2 4 4 1 243.61 271.89 33.30 o
5363 3 2 4 4 2 1.07 0.57 4.27 <
5364 3 4 4 4 -3 81.34 55.53 4.09 o
5365 3 4 4 4 -2 1.89 5.75 2.37 <
5366 3 4 4 4 -1 11.76 9.57 2.61 o
5367 3 4 4 4 1 79.47 88.39 12.40 o
5368 3 4 4 4 2 19.42 8.09 4.64 <
5369 3 6 4 4 -3 78.44 62.98 8.40 o
5370 3 6 4 4 -2 51.58 51.48 6.99 o
5371 3 6 4 4 -1 79.78 95.75 14.25 o
5372 3 6 4 4 1 7.88 9.53 5.93 <
5373 3 8 4 4 -3 91.79 77.51 10.95 o
5374 3 8 4 4 -2 49.56 51.00 9.33 o
5375 3 8 4 4 -1 65.60 71.40 13.66 o
5376 3 1 5 4 -3 45.54 37.01 4.10 o
5377 3 1 5 4 -2 9.86 14.81 4.73 o
5378 3 1 5 4 -1 8.24 13.40 3.80 o
5379 3 1 5 4 1 138.80 165.53 15.30 o
5380 3 3 5 4 -3 1.38 2.08 1.23 <
5381 3 3 5 4 -2 6.75 7.21 1.98 o
5382 3 3 5 4 -1 32.71 32.60 12.03 <
5383 3 3 5 4 1 0.36 11.35 4.61 <
5384 3 5 5 4 -3 20.62 16.36 3.98 o
5385 3 5 5 4 -1 71.03 67.30 8.75 o
5386 3 7 5 4 -3 25.64 23.93 4.16 o
5387 3 7 5 4 -2 18.72 29.91 11.23 <
5388 3 9 5 4 -3 5.51 -0.90 3.48 <
5389 3 0 6 4 -2 0.01 -1.49 2.40 <
5390 3 2 6 4 -3 2.69 11.18 3.15 o
5391 3 2 6 4 -2 5.92 11.08 3.61 o
5392 3 2 6 4 -1 56.13 58.63 11.98 o
5393 3 4 6 4 -3 52.83 48.77 5.09 o
5394 3 4 6 4 -2 9.67 20.40 4.85 o
5395 3 4 6 4 -1 0.20 3.93 4.32 <
5396 3 6 6 4 -3 4.70 2.55 2.60 <
5397 3 6 6 4 -2 15.26 31.08 14.30 <
5398 3 8 6 4 -3 43.24 29.05 8.65 o
5399 3 1 7 4 -3 5.36 15.83 4.50 o
5400 3 1 7 4 -2 8.46 12.60 5.85 <
5401 3 3 7 4 -3 0.06 -1.43 1.87 <
5402 3 3 7 4 -2 1.49 -0.98 6.52 <
5403 3 5 7 4 -3 5.22 7.55 4.02 <
5404 3 2 8 4 -3 0.61 15.71 5.38 <
5405 3 4 8 4 -3 0.69 1.54 4.40 <
5406 3 0 0 5 2 4.13 2.41 1.39 <
5407 3 0 0 5 4 8.21 8.90 3.18 <
5408 3 2 0 5 1 3.45 3.43 1.11 o
5409 3 2 0 5 2 0.07 2.02 0.91 <
5410 3 2 0 5 3 2.42 8.41 2.03 o
5411 3 2 0 5 4 8.16 3.84 3.16 <
5412 3 4 0 5 1 4.27 5.98 1.88 o
5413 3 4 0 5 2 0.04 2.46 1.17 <
5414 3 4 0 5 3 33.62 19.95 3.66 o
5415 3 6 0 5 1 11.48 8.55 3.64 <
5416 3 6 0 5 2 2.50 2.63 1.29 <
5417 3 6 0 5 3 0.18 0.78 1.38 <
5418 3 6 0 5 4 37.09 31.48 6.34 o
5419 3 8 0 5 1 18.56 15.27 4.17 o
5420 3 8 0 5 3 1.82 5.60 2.97 <
5421 3 8 0 5 4 33.73 24.07 5.49 o
5422 3 10 0 5 1 5.92 5.88 7.50 <
5423 3 10 0 5 2 21.27 19.28 11.97 <
5424 3 1 1 5 -4 0.77 1.30 1.01 <
5425 3 1 1 5 -3 4.26 2.51 1.32 <
5426 3 1 1 5 -2 10.52 12.51 1.68 o
5427 3 1 1 5 -1 0.16 1.87 1.01 <
5428 3 1 1 5 2 0.29 0.15 1.11 <
5429 3 1 1 5 3 3.02 1.40 2.70 <
5430 3 1 1 5 4 0.34 5.04 3.93 <
5431 3 3 1 5 -4 10.51 13.99 3.46 o
5432 3 3 1 5 -3 20.41 14.75 2.07 o
5433 3 3 1 5 -2 0.84 1.02 1.04 <
5434 3 3 1 5 -1 3.89 4.00 1.22 o
5435 3 3 1 5 1 3.94 3.58 1.22 <
5436 3 3 1 5 2 2.41 4.17 2.38 <
5437 3 3 1 5 3 5.65 11.12 6.53 <
5438 3 3 1 5 4 28.86 14.75 8.14 <
5439 3 5 1 5 -4 44.97 39.15 7.93 o
5440 3 5 1 5 -3 2.59 3.42 1.41 <
5441 3 5 1 5 -2 0.88 1.57 1.89 <
5442 3 5 1 5 -1 5.48 4.57 1.94 <
5443 3 5 1 5 1 11.35 13.43 3.18 o
5444 3 5 1 5 2 0.15 3.67 2.89 <
5445 3 5 1 5 3 1.44 2.42 2.00 <
5446 3 5 1 5 4 51.04 36.00 6.45 o
5447 3 7 1 5 -4 0.45 1.64 0.53 o
5448 3 7 1 5 -3 57.40 37.14 6.04 o
5449 3 7 1 5 -2 0.35 -1.59 1.67 <
5450 3 7 1 5 -1 7.98 7.70 2.67 <
5451 3 7 1 5 2 17.19 16.94 4.68 o
5452 3 7 1 5 4 0.23 0.08 3.11 <
5453 3 9 1 5 -4 45.42 29.34 9.47 o
5454 3 9 1 5 -2 4.45 2.40 3.04 <
5455 3 9 1 5 -1 16.13 18.20 7.05 <
5456 3 9 1 5 1 14.55 11.23 3.25 o
5457 3 9 1 5 2 4.64 0.03 4.55 <
5458 3 0 2 5 -4 3.38 8.66 2.52 o
5459 3 0 2 5 -2 7.76 8.91 1.81 o
5460 3 0 2 5 2 18.10 12.66 3.88 o
5461 3 0 2 5 4 6.15 2.34 4.24 <
5462 3 2 2 5 -4 13.45 21.64 2.80 o
5463 3 2 2 5 -3 1.13 2.14 1.09 <
5464 3 2 2 5 -2 5.83 7.14 1.43 o
5465 3 2 2 5 -1 0.75 0.44 0.86 <
5466 3 2 2 5 1 7.14 5.42 2.93 <
5467 3 2 2 5 2 6.60 7.73 3.00 <
5468 3 2 2 5 3 9.89 10.98 3.23 o
5469 3 2 2 5 4 17.28 14.14 4.21 o
5470 3 4 2 5 -4 0.76 4.30 2.79 <
5471 3 4 2 5 -3 62.93 56.18 6.39 o
5472 3 4 2 5 -2 1.88 1.99 1.22 <
5473 3 4 2 5 -1 9.94 10.66 3.13 o
5474 3 4 2 5 1 10.07 10.18 4.79 <
5475 3 4 2 5 2 0.25 0.47 1.43 <
5476 3 4 2 5 3 2.98 5.34 3.36 <
5477 3 4 2 5 4 5.70 5.84 3.24 <
5478 3 6 2 5 -4 55.31 55.92 7.79 o
5479 3 6 2 5 -3 2.64 2.17 1.48 <
5480 3 6 2 5 -2 11.45 9.81 2.83 o
5481 3 6 2 5 -1 5.59 7.24 2.47 <
5482 3 6 2 5 1 4.07 1.78 2.09 <
5483 3 6 2 5 2 0.08 -1.17 3.98 <
5484 3 6 2 5 3 1.06 -3.06 3.76 <
5485 3 8 2 5 -4 33.22 31.45 5.82 o
5486 3 8 2 5 -3 5.33 2.63 2.57 <
5487 3 8 2 5 -2 0.70 0.57 1.70 <
5488 3 8 2 5 -1 4.99 3.84 2.68 <
5489 3 8 2 5 1 10.22 21.58 12.60 <
5490 3 8 2 5 2 4.76 2.84 4.22 <
5491 3 10 2 5 -4 16.95 7.86 6.37 <
5492 3 10 2 5 -3 31.61 17.76 5.16 o
5493 3 10 2 5 -2 9.79 8.74 9.53 <
5494 3 10 2 5 -1 7.72 5.53 2.55 <
5495 3 1 3 5 -4 22.71 25.63 4.91 o
5496 3 1 3 5 -3 0.11 0.62 1.41 <
5497 3 1 3 5 -2 0.60 1.74 0.84 <
5498 3 1 3 5 -1 5.62 5.49 2.93 <
5499 3 1 3 5 1 21.77 13.64 3.84 o
5500 3 1 3 5 2 0.43 2.61 2.47 <
5501 3 1 3 5 3 2.87 4.37 3.88 <
5502 3 1 3 5 4 0.04 5.37 4.69 <
5503 3 3 3 5 -4 7.45 19.56 6.33 o
5504 3 3 3 5 -3 1.00 1.03 0.93 <
5505 3 3 3 5 -2 4.53 3.75 1.50 <
5506 3 3 3 5 -1 0.06 -0.05 0.87 <
5507 3 3 3 5 1 0.00 -4.28 4.77 <
5508 3 3 3 5 2 3.06 3.79 3.13 <
5509 3 3 3 5 3 0.10 -2.47 2.43 <
5510 3 5 3 5 -4 23.18 29.82 9.75 o
5511 3 5 3 5 -3 1.23 1.80 1.24 <
5512 3 5 3 5 -2 9.77 10.75 3.24 o
5513 3 5 3 5 -1 1.69 5.42 2.68 <
5514 3 5 3 5 2 2.88 0.46 1.88 <
5515 3 7 3 5 -4 0.04 6.19 4.41 <
5516 3 7 3 5 -3 52.57 34.56 7.68 o
5517 3 7 3 5 -2 0.07 2.07 1.27 <
5518 3 7 3 5 -1 12.44 6.42 4.05 <
5519 3 7 3 5 1 13.72 15.63 5.40 <
5520 3 9 3 5 -4 61.44 38.87 8.36 o
5521 3 9 3 5 -3 17.95 20.00 6.09 o
5522 3 9 3 5 -2 2.93 1.64 5.45 <
5523 3 0 4 5 -2 2.35 2.80 1.31 <
5524 3 0 4 5 2 7.92 10.02 7.90 <
5525 3 2 4 5 -3 4.01 2.84 0.86 o
5526 3 2 4 5 -2 0.24 1.91 1.14 <
5527 3 2 4 5 -1 2.13 2.82 1.44 <
5528 3 2 4 5 1 17.63 15.57 3.41 o
5529 3 2 4 5 2 0.14 -3.63 2.95 <
5530 3 4 4 5 -3 29.86 31.34 3.53 o
5531 3 4 4 5 -2 8.41 4.63 2.09 <
5532 3 4 4 5 1 22.40 11.07 4.91 <
5533 3 4 4 5 2 4.68 6.52 5.29 <
5534 3 6 4 5 -3 0.01 0.82 1.32 <
5535 3 6 4 5 -2 8.46 8.26 3.40 <
5536 3 6 4 5 -1 0.22 -0.98 1.93 <
5537 3 6 4 5 1 0.08 -2.74 5.98 <
5538 3 8 4 5 -3 8.58 6.15 3.07 <
5539 3 8 4 5 -2 0.16 3.41 2.54 <
5540 3 8 4 5 -1 0.17 4.06 7.32 <
5541 3 10 4 5 -3 51.20 48.93 11.71 o
5542 3 1 5 5 -3 0.52 2.81 1.94 <
5543 3 1 5 5 -2 4.34 2.13 1.74 <
5544 3 1 5 5 -1 9.00 6.86 3.94 <
5545 3 1 5 5 1 24.30 21.89 8.25 <
5546 3 3 5 5 -3 0.03 4.36 1.95 <
5547 3 3 5 5 -2 4.46 5.99 2.39 <
5548 3 3 5 5 -1 1.88 1.27 1.62 <
5549 3 3 5 5 1 0.92 16.52 9.79 <
5550 3 5 5 5 -3 5.09 4.73 2.23 <
5551 3 5 5 5 -2 0.56 -7.27 6.88 <
5552 3 5 5 5 -1 0.09 -1.64 2.04 <
5553 3 7 5 5 -3 43.75 40.11 10.40 o
5554 3 7 5 5 -2 0.14 1.77 2.73 <
5555 3 7 5 5 -1 15.89 15.20 6.95 <
5556 3 9 5 5 -3 13.68 16.89 9.38 <
5557 3 2 6 5 -3 3.90 5.95 3.63 <
5558 3 2 6 5 -2 0.88 -1.95 2.52 <
5559 3 2 6 5 -1 0.82 6.42 2.78 <
5560 3 4 6 5 -3 9.04 19.70 4.61 o
5561 3 4 6 5 -2 1.29 5.27 3.15 <
5562 3 4 6 5 -1 13.47 12.09 4.28 <
5563 3 6 6 5 -3 5.16 2.11 2.83 <
5564 3 6 6 5 -2 2.56 6.57 4.50 <
5565 3 1 7 5 -3 1.11 0.74 2.50 <
5566 3 1 7 5 -2 5.46 5.97 4.14 <
5567 3 3 7 5 -3 0.03 5.45 4.88 <
5568 3 3 7 5 -2 0.25 -10.43 8.85 <
5569 3 5 7 5 -3 1.85 -4.50 4.77 <
5570 3 2 8 5 -3 0.86 0.73 2.23 <
5571 3 0 0 6 2 233.10 174.07 11.99 o
5572 3 0 0 6 4 31.09 12.92 4.08 o
5573 3 2 0 6 1 329.18 291.81 13.17 o
5574 3 2 0 6 2 145.25 125.75 9.89 o
5575 3 2 0 6 3 2.21 1.37 1.16 <
5576 3 2 0 6 4 44.13 32.99 7.72 o
5577 3 4 0 6 1 16.61 13.18 2.93 o
5578 3 4 0 6 2 4.31 4.34 2.83 <
5579 3 4 0 6 3 15.31 12.21 5.41 <
5580 3 4 0 6 4 0.01 -2.02 2.81 <
5581 3 6 0 6 1 133.67 129.86 18.08 o
5582 3 6 0 6 2 117.70 122.04 12.36 o
5583 3 6 0 6 3 8.05 5.85 2.92 <
5584 3 6 0 6 4 1.32 -1.32 2.40 <
5585 3 8 0 6 1 45.00 42.64 7.41 o
5586 3 8 0 6 2 112.83 120.19 17.18 o
5587 3 8 0 6 3 2.60 4.78 2.35 <
5588 3 8 0 6 4 27.16 22.79 6.74 o
5589 3 1 1 6 -4 0.79 2.36 1.11 <
5590 3 1 1 6 -3 4.97 2.44 1.01 <
5591 3 1 1 6 -2 13.90 7.87 2.52 o
5592 3 1 1 6 -1 81.02 71.22 4.55 o
5593 3 1 1 6 1 277.19 251.71 9.60 o
5594 3 1 1 6 2 23.16 20.38 3.72 o
5595 3 1 1 6 3 15.26 14.39 3.85 o
5596 3 1 1 6 4 0.71 2.52 1.85 <
5597 3 3 1 6 -4 3.00 1.63 2.27 <
5598 3 3 1 6 -3 8.82 10.33 1.97 o
5599 3 3 1 6 -2 162.85 140.74 8.65 o
5600 3 3 1 6 -1 124.80 129.75 6.89 o
5601 3 3 1 6 1 53.81 49.61 5.62 o
5602 3 3 1 6 2 182.15 173.13 11.21 o
5603 3 3 1 6 3 0.45 8.49 5.56 <
5604 3 3 1 6 4 0.18 -1.99 4.87 <
5605 3 5 1 6 -4 25.37 19.04 6.31 o
5606 3 5 1 6 -3 0.37 -2.75 3.82 <
5607 3 5 1 6 -2 185.37 169.32 9.95 o
5608 3 5 1 6 -1 145.88 139.32 12.09 o
5609 3 5 1 6 1 157.60 127.85 21.25 o
5610 3 5 1 6 2 175.73 179.35 13.24 o
5611 3 5 1 6 3 0.03 2.72 3.49 <
5612 3 5 1 6 4 30.33 25.54 5.80 o
5613 3 7 1 6 -4 19.43 24.68 6.08 o
5614 3 7 1 6 -3 29.93 27.23 7.32 o
5615 3 7 1 6 -2 8.10 12.19 4.70 <
5616 3 7 1 6 -1 26.03 25.80 5.06 o
5617 3 7 1 6 1 0.07 2.52 2.08 <
5618 3 7 1 6 2 4.90 6.02 3.49 <
5619 3 9 1 6 -4 2.67 6.57 5.14 <
5620 3 9 1 6 -3 5.53 15.07 3.90 o
5621 3 9 1 6 -2 45.54 41.00 14.59 <
5622 3 9 1 6 -1 99.30 95.56 10.36 o
5623 3 9 1 6 1 42.12 32.68 9.39 o
5624 3 9 1 6 2 50.49 60.60 13.00 o
5625 3 9 1 6 3 1.49 8.21 8.66 <
5626 3 0 2 6 -4 4.39 5.76 2.30 <
5627 3 0 2 6 -2 89.62 71.73 5.13 o
5628 3 0 2 6 2 112.00 85.45 17.82 o
5629 3 0 2 6 4 1.54 -5.47 4.08 <
5630 3 2 2 6 -4 8.75 9.63 1.47 o
5631 3 2 2 6 -3 17.28 15.92 2.72 o
5632 3 2 2 6 -2 70.38 62.17 4.40 o
5633 3 2 2 6 -1 100.09 89.30 5.34 o
5634 3 2 2 6 1 370.29 352.47 14.12 o
5635 3 2 2 6 2 96.36 81.62 10.50 o
5636 3 2 2 6 3 0.88 0.27 2.16 <
5637 3 2 2 6 4 10.34 12.15 6.01 <
5638 3 4 2 6 -4 0.88 0.96 1.00 <
5639 3 4 2 6 -3 1.33 1.27 1.87 <
5640 3 4 2 6 -2 7.50 7.99 1.91 o
5641 3 4 2 6 -1 17.24 18.33 3.93 o
5642 3 4 2 6 2 0.22 1.33 1.74 <
5643 3 4 2 6 3 53.31 60.16 16.30 o
5644 3 4 2 6 4 5.08 3.97 3.72 <
5645 3 6 2 6 -4 0.01 2.94 1.74 <
5646 3 6 2 6 -3 52.65 57.24 8.41 o
5647 3 6 2 6 -2 56.37 54.55 5.11 o
5648 3 6 2 6 -1 238.90 243.23 21.98 o
5649 3 6 2 6 1 26.08 19.72 4.54 o
5650 3 6 2 6 2 81.14 106.81 23.06 o
5651 3 6 2 6 3 63.53 67.06 9.72 o
5652 3 8 2 6 -4 4.62 5.81 2.80 <
5653 3 8 2 6 -3 3.44 12.98 5.15 <
5654 3 8 2 6 -2 62.35 59.76 6.84 o
5655 3 8 2 6 -1 40.70 66.89 11.08 o
5656 3 8 2 6 1 32.98 21.71 7.09 o
5657 3 8 2 6 2 93.26 102.76 24.11 o
5658 3 10 2 6 -4 5.08 -6.35 4.39 <
5659 3 10 2 6 -3 12.34 16.29 8.66 <
5660 3 10 2 6 -2 1.30 5.06 5.74 <
5661 3 1 3 6 -4 0.00 2.04 1.59 <
5662 3 1 3 6 -3 26.22 16.48 1.89 o
5663 3 1 3 6 -2 1.37 2.97 0.92 o
5664 3 1 3 6 -1 0.18 2.99 1.20 <
5665 3 1 3 6 1 280.19 281.54 16.47 o
5666 3 1 3 6 2 6.84 -1.79 2.17 <
5667 3 1 3 6 3 28.15 20.95 6.37 o
5668 3 1 3 6 4 6.11 -2.39 6.37 <
5669 3 3 3 6 -4 0.00 -0.22 1.13 <
5670 3 3 3 6 -3 3.69 4.03 1.53 <
5671 3 3 3 6 -2 11.29 9.44 2.73 o
5672 3 3 3 6 -1 129.54 143.72 10.17 o
5673 3 3 3 6 1 10.79 13.61 8.81 <
5674 3 3 3 6 2 58.73 65.45 12.75 o
5675 3 5 3 6 -4 0.00 0.66 1.50 <
5676 3 5 3 6 -3 0.47 -1.65 2.68 <
5677 3 5 3 6 -2 41.22 33.59 5.08 o
5678 3 5 3 6 -1 44.23 62.82 8.60 o
5679 3 5 3 6 1 136.24 133.91 15.01 o
5680 3 5 3 6 2 68.17 52.31 13.15 o
5681 3 7 3 6 -4 0.00 4.65 4.46 <
5682 3 7 3 6 -3 19.79 16.40 5.38 o
5683 3 7 3 6 -2 3.98 3.30 1.95 <
5684 3 7 3 6 -1 66.82 75.70 8.90 o
5685 3 9 3 6 -4 0.00 2.25 3.69 <
5686 3 9 3 6 -3 11.83 8.29 3.82 <
5687 3 9 3 6 -2 24.31 17.96 7.52 <
5688 3 9 3 6 -1 141.65 112.30 19.43 o
5689 3 0 4 6 -2 6.50 9.18 4.60 <
5690 3 0 4 6 2 29.17 28.75 12.76 <
5691 3 2 4 6 -3 1.81 -1.08 2.98 <
5692 3 2 4 6 -2 0.68 5.96 4.81 <
5693 3 2 4 6 -1 14.43 22.71 5.32 o
5694 3 2 4 6 1 197.56 218.37 16.79 o
5695 3 4 4 6 -3 0.13 1.81 1.25 <
5696 3 4 4 6 -2 15.54 13.54 3.09 o
5697 3 4 4 6 -1 51.27 48.16 7.02 o
5698 3 4 4 6 1 84.44 83.67 12.52 o
5699 3 4 4 6 2 0.08 0.42 4.03 <
5700 3 6 4 6 -3 1.29 1.39 1.40 <
5701 3 6 4 6 -2 4.44 -1.51 3.74 <
5702 3 6 4 6 -1 160.95 166.40 27.68 o
5703 3 8 4 6 -3 38.46 31.35 8.21 o
5704 3 8 4 6 -2 6.34 3.52 2.79 <
5705 3 8 4 6 -1 25.46 27.44 13.85 <
5706 3 1 5 6 -2 22.12 27.68 7.39 o
5707 3 1 5 6 -1 3.31 3.07 2.00 <
5708 3 1 5 6 1 158.27 174.70 31.96 o
5709 3 3 5 6 -3 16.44 15.45 2.58 o
5710 3 3 5 6 -2 19.13 27.91 9.86 <
5711 3 3 5 6 -1 57.96 63.39 12.05 o
5712 3 5 5 6 -3 0.65 3.66 2.76 <
5713 3 5 5 6 -2 1.27 3.25 5.47 <
5714 3 5 5 6 -1 13.88 13.62 10.01 <
5715 3 7 5 6 -3 0.73 1.37 1.67 <
5716 3 7 5 6 -2 0.64 3.10 3.07 <
5717 3 0 6 6 -2 76.07 68.65 12.29 o
5718 3 2 6 6 -3 0.93 6.64 4.71 <
5719 3 2 6 6 -2 14.62 19.48 4.44 o
5720 3 2 6 6 -1 0.76 5.90 4.48 <
5721 3 4 6 6 -3 18.45 19.95 9.27 <
5722 3 4 6 6 -2 9.72 11.98 4.24 <
5723 3 4 6 6 -1 25.98 21.60 7.23 <
5724 3 6 6 6 -2 4.64 3.74 8.23 <
5725 3 1 7 6 -3 13.45 12.92 6.26 <
5726 3 1 7 6 -2 29.51 32.05 7.00 o
5727 3 3 7 6 -2 44.85 39.68 11.12 o
5728 3 0 0 7 2 0.59 0.19 1.91 <
5729 3 0 0 7 4 21.36 16.75 8.01 <
5730 3 2 0 7 1 1.08 2.59 1.06 <
5731 3 2 0 7 2 6.68 5.87 3.46 <
5732 3 2 0 7 3 0.78 3.26 1.44 <
5733 3 2 0 7 4 20.91 17.61 5.21 o
5734 3 4 0 7 1 0.01 0.58 1.07 <
5735 3 4 0 7 2 3.81 1.57 1.00 <
5736 3 4 0 7 3 0.58 1.54 1.82 <
5737 3 4 0 7 4 0.60 -0.67 2.05 <
5738 3 6 0 7 1 1.45 4.30 2.44 <
5739 3 6 0 7 2 5.27 10.90 3.25 o
5740 3 6 0 7 3 14.71 4.92 2.89 <
5741 3 6 0 7 4 58.36 49.92 15.27 o
5742 3 8 0 7 1 25.75 21.61 6.69 o
5743 3 8 0 7 2 5.83 8.44 3.42 <
5744 3 8 0 7 3 16.41 16.10 4.60 o
5745 3 8 0 7 4 27.90 17.89 8.81 <
5746 3 1 1 7 -4 8.02 7.97 1.91 o
5747 3 1 1 7 -3 0.25 3.86 1.12 o
5748 3 1 1 7 -2 0.70 0.94 0.86 <
5749 3 1 1 7 -1 0.21 0.62 0.52 <
5750 3 1 1 7 1 0.29 -0.87 2.59 <
5751 3 1 1 7 2 13.14 10.94 3.28 o
5752 3 1 1 7 3 4.68 6.94 3.40 <
5753 3 1 1 7 4 0.54 2.73 2.46 <
5754 3 3 1 7 -4 15.53 26.00 4.39 o
5755 3 3 1 7 -3 67.37 56.87 5.47 o
5756 3 3 1 7 -2 1.15 2.26 1.64 <
5757 3 3 1 7 -1 0.42 1.22 0.80 <
5758 3 3 1 7 1 1.03 3.37 2.48 <
5759 3 3 1 7 2 0.74 3.08 1.40 <
5760 3 3 1 7 3 33.77 34.36 12.25 <
5761 3 3 1 7 4 26.48 16.71 4.27 o
5762 3 5 1 7 -4 18.58 19.80 3.60 o
5763 3 5 1 7 -2 1.56 0.35 1.22 <
5764 3 5 1 7 -1 10.04 12.97 2.95 o
5765 3 5 1 7 1 13.96 10.82 6.66 <
5766 3 5 1 7 2 8.87 7.85 5.59 <
5767 3 5 1 7 3 0.21 5.47 4.45 <
5768 3 5 1 7 4 40.80 17.06 10.50 <
5769 3 7 1 7 -4 1.44 1.97 1.36 <
5770 3 7 1 7 -3 1.90 1.21 1.52 <
5771 3 7 1 7 -2 2.54 6.84 6.36 <
5772 3 7 1 7 -1 0.32 0.03 1.98 <
5773 3 7 1 7 1 0.52 0.63 1.24 <
5774 3 7 1 7 2 3.03 4.32 4.45 <
5775 3 7 1 7 3 0.35 2.47 3.12 <
5776 3 9 1 7 -3 45.80 31.03 8.47 o
5777 3 9 1 7 -2 6.28 2.64 2.52 <
5778 3 9 1 7 -1 3.55 9.57 3.29 <
5779 3 9 1 7 1 4.82 3.38 4.44 <
5780 3 9 1 7 2 6.97 -0.62 2.69 <
5781 3 0 2 7 -4 4.56 12.70 3.01 o
5782 3 0 2 7 -2 0.08 1.56 1.89 <
5783 3 0 2 7 2 4.88 3.56 3.36 <
5784 3 0 2 7 4 7.42 9.99 6.03 <
5785 3 2 2 7 -4 3.86 10.53 1.92 o
5786 3 2 2 7 -3 1.05 3.55 1.11 o
5787 3 2 2 7 -2 0.45 1.95 1.22 <
5788 3 2 2 7 -1 0.01 1.17 1.38 <
5789 3 2 2 7 1 7.94 6.34 2.63 <
5790 3 2 2 7 2 11.41 7.15 3.04 <
5791 3 2 2 7 3 0.79 1.43 2.63 <
5792 3 2 2 7 4 6.49 6.15 6.12 <
5793 3 4 2 7 -4 3.12 5.12 1.55 o
5794 3 4 2 7 -3 0.14 -0.11 2.37 <
5795 3 4 2 7 -2 5.72 4.46 1.37 o
5796 3 4 2 7 -1 0.02 1.39 1.12 <
5797 3 4 2 7 1 4.62 2.08 1.57 <
5798 3 4 2 7 2 0.01 -0.23 2.59 <
5799 3 4 2 7 3 1.77 2.05 2.03 <
5800 3 4 2 7 4 15.34 1.80 2.34 <
5801 3 6 2 7 -4 64.10 65.53 6.40 o
5802 3 6 2 7 -3 72.22 47.94 7.05 o
5803 3 6 2 7 -2 4.11 4.89 2.78 <
5804 3 6 2 7 -1 0.03 0.29 2.19 <
5805 3 6 2 7 1 0.60 8.88 4.77 <
5806 3 8 2 7 -4 14.71 18.99 6.14 o
5807 3 8 2 7 -3 41.06 41.08 8.30 o
5808 3 8 2 7 -2 0.03 3.97 2.39 <
5809 3 8 2 7 -1 11.37 12.98 4.46 <
5810 3 8 2 7 1 17.68 7.38 5.72 <
5811 3 8 2 7 2 10.69 6.31 4.40 <
5812 3 1 3 7 -4 0.09 0.18 0.45 <
5813 3 1 3 7 -3 1.00 2.00 0.86 <
5814 3 1 3 7 -2 1.49 4.29 2.05 <
5815 3 1 3 7 -1 0.30 0.82 1.45 <
5816 3 1 3 7 1 14.79 15.25 4.97 o
5817 3 1 3 7 2 13.33 1.03 5.02 <
5818 3 1 3 7 3 5.80 3.45 2.73 <
5819 3 3 3 7 -4 20.16 28.32 10.46 <
5820 3 3 3 7 -3 7.68 3.93 1.30 o
5821 3 3 3 7 -2 5.28 3.81 1.18 o
5822 3 3 3 7 -1 2.54 4.51 2.13 <
5823 3 3 3 7 1 0.29 2.55 3.15 <
5824 3 3 3 7 2 0.09 6.91 4.03 <
5825 3 3 3 7 3 1.26 7.48 8.23 <
5826 3 5 3 7 -4 32.53 50.07 8.15 o
5827 3 5 3 7 -3 14.37 20.13 4.39 o
5828 3 5 3 7 -2 4.81 4.05 1.69 <
5829 3 5 3 7 -1 3.19 10.85 6.09 <
5830 3 5 3 7 1 15.77 8.83 4.35 <
5831 3 7 3 7 -4 5.08 6.59 5.12 <
5832 3 7 3 7 -3 0.04 2.16 1.81 <
5833 3 7 3 7 -2 0.01 1.52 2.08 <
5834 3 7 3 7 -1 0.78 1.14 2.42 <
5835 3 9 3 7 -4 87.92 78.56 15.37 o
5836 3 9 3 7 -2 3.91 3.47 3.36 <
5837 3 9 3 7 -1 0.32 9.56 7.79 <
5838 3 0 4 7 -2 0.01 -0.06 2.09 <
5839 3 2 4 7 -3 0.08 -1.81 2.39 <
5840 3 2 4 7 -2 7.24 4.76 2.24 <
5841 3 2 4 7 -1 1.51 -1.85 2.74 <
5842 3 2 4 7 1 17.13 15.26 5.73 <
5843 3 2 4 7 2 12.75 8.95 5.70 <
5844 3 4 4 7 -3 0.45 1.32 1.85 <
5845 3 4 4 7 -2 0.07 0.67 1.39 <
5846 3 4 4 7 -1 3.92 5.54 2.09 <
5847 3 4 4 7 1 14.70 13.79 5.08 <
5848 3 6 4 7 -3 42.14 42.00 7.91 o
5849 3 6 4 7 -2 4.14 5.76 2.63 <
5850 3 8 4 7 -3 74.91 67.72 9.20 o
5851 3 8 4 7 -2 1.11 2.26 3.26 <
5852 3 8 4 7 -1 3.23 15.68 10.45 <
5853 3 1 5 7 -3 12.14 7.62 2.08 o
5854 3 1 5 7 -2 1.11 0.61 1.64 <
5855 3 1 5 7 -1 1.56 0.30 4.23 <
5856 3 3 5 7 -3 13.34 15.00 5.49 <
5857 3 3 5 7 -2 0.23 -2.16 3.18 <
5858 3 3 5 7 -1 6.00 8.63 4.57 <
5859 3 5 5 7 -3 18.67 26.79 7.44 o
5860 3 5 5 7 -2 1.48 3.96 2.69 <
5861 3 5 5 7 -1 0.02 -11.21 7.83 <
5862 3 7 5 7 -3 0.81 7.00 4.71 <
5863 3 7 5 7 -2 0.65 -8.03 3.79 <
5864 3 9 5 7 -3 8.08 -5.11 7.00 <
5865 3 0 6 7 -2 1.47 0.72 1.56 <
5866 3 2 6 7 -3 0.07 4.41 3.13 <
5867 3 2 6 7 -2 0.01 2.35 3.06 <
5868 3 2 6 7 -1 0.45 1.84 4.14 <
5869 3 4 6 7 -2 0.03 2.73 2.81 <
5870 3 6 6 7 -3 0.91 4.53 4.79 <
5871 3 8 6 7 -3 50.89 29.11 12.98 <
5872 3 1 7 7 -3 0.11 2.94 2.94 <
5873 3 1 7 7 -2 0.01 -1.38 1.70 <
5874 3 3 7 7 -3 8.35 17.22 7.38 <
5875 3 0 0 8 2 73.61 62.74 7.95 o
5876 3 0 0 8 4 46.35 29.60 9.87 <
5877 3 2 0 8 1 150.40 136.75 8.51 o
5878 3 2 0 8 2 162.23 169.17 12.91 o
5879 3 2 0 8 3 16.29 8.67 3.39 <
5880 3 2 0 8 4 57.78 48.51 4.90 o
5881 3 4 0 8 1 51.25 51.73 6.50 o
5882 3 4 0 8 2 6.01 4.85 3.29 <
5883 3 4 0 8 3 30.83 27.77 4.76 o
5884 3 4 0 8 4 5.54 6.14 1.92 o
5885 3 6 0 8 1 80.03 81.73 9.13 o
5886 3 6 0 8 2 51.12 73.42 9.11 o
5887 3 6 0 8 3 86.52 77.18 17.71 o
5888 3 8 0 8 1 1.78 11.01 4.24 <
5889 3 8 0 8 2 178.07 172.22 11.59 o
5890 3 8 0 8 3 25.16 23.02 12.62 <
5891 3 1 1 8 -4 43.52 41.05 5.72 o
5892 3 1 1 8 -3 3.56 2.74 1.97 <
5893 3 1 1 8 -2 5.14 5.68 1.57 o
5894 3 1 1 8 -1 80.13 81.03 5.71 o
5895 3 1 1 8 1 234.08 243.57 13.40 o
5896 3 1 1 8 2 2.02 3.02 1.54 <
5897 3 1 1 8 3 26.79 18.26 8.48 <
5898 3 1 1 8 4 24.03 23.53 10.28 <
5899 3 3 1 8 -4 40.96 31.76 6.70 o
5900 3 3 1 8 -3 52.94 50.00 5.92 o
5901 3 3 1 8 -2 73.26 65.97 6.04 o
5902 3 3 1 8 -1 82.69 92.94 6.38 o
5903 3 3 1 8 1 27.67 26.56 6.02 o
5904 3 3 1 8 2 23.86 28.72 6.71 o
5905 3 3 1 8 3 7.48 19.24 6.58 <
5906 3 3 1 8 4 40.19 33.03 10.92 o
5907 3 5 1 8 -4 44.88 38.73 7.84 o
5908 3 5 1 8 -3 0.27 2.05 1.48 <
5909 3 5 1 8 -2 197.13 174.93 10.84 o
5910 3 5 1 8 -1 41.15 61.18 8.90 o
5911 3 5 1 8 1 56.97 52.34 6.32 o
5912 3 5 1 8 2 177.80 177.43 18.65 o
5913 3 5 1 8 3 13.88 9.93 4.78 <
5914 3 5 1 8 4 39.17 24.37 8.32 <
5915 3 7 1 8 -4 0.91 -4.01 5.56 <
5916 3 7 1 8 -3 11.65 12.19 4.90 <
5917 3 7 1 8 -2 24.09 24.59 5.33 o
5918 3 7 1 8 -1 3.61 8.20 3.28 <
5919 3 7 1 8 1 36.48 40.62 8.64 o
5920 3 7 1 8 2 31.66 27.18 6.56 o
5921 3 7 1 8 3 42.60 36.80 15.15 <
5922 3 9 1 8 -3 172.50 162.48 18.10 o
5923 3 9 1 8 -2 31.95 73.64 14.52 o
5924 3 9 1 8 -1 79.34 71.77 11.56 o
5925 3 9 1 8 1 22.24 28.85 13.68 <
5926 3 9 1 8 2 14.51 26.14 13.33 <
5927 3 0 2 8 -4 14.34 13.00 2.80 o
5928 3 0 2 8 -2 92.38 83.77 7.83 o
5929 3 0 2 8 2 4.43 8.86 4.69 <
5930 3 0 2 8 4 44.21 31.43 9.26 o
5931 3 2 2 8 -4 3.87 3.77 1.49 <
5932 3 2 2 8 -3 7.01 5.84 1.74 o
5933 3 2 2 8 -2 56.59 51.17 3.91 o
5934 3 2 2 8 -1 71.25 76.71 6.48 o
5935 3 2 2 8 1 183.24 207.69 14.93 o
5936 3 2 2 8 2 62.65 48.88 14.62 o
5937 3 2 2 8 3 23.35 26.10 11.63 <
5938 3 4 2 8 -4 0.89 1.84 1.24 <
5939 3 4 2 8 -3 0.57 1.75 2.11 <
5940 3 4 2 8 -2 20.71 17.76 4.62 o
5941 3 4 2 8 -1 2.22 3.15 1.76 <
5942 3 4 2 8 1 143.40 153.54 17.94 o
5943 3 4 2 8 2 9.28 6.62 3.84 <
5944 3 4 2 8 3 58.45 47.83 16.15 <
5945 3 6 2 8 -4 1.68 1.94 1.90 <
5946 3 6 2 8 -3 154.85 151.73 13.84 o
5947 3 6 2 8 -2 79.02 91.33 18.16 o
5948 3 6 2 8 -1 155.73 154.48 26.63 o
5949 3 6 2 8 1 20.90 26.71 11.25 <
5950 3 6 2 8 2 11.34 34.57 6.11 o
5951 3 8 2 8 -4 2.94 4.81 2.99 <
5952 3 8 2 8 -3 16.27 17.52 10.46 <
5953 3 8 2 8 -2 95.74 73.21 13.42 o
5954 3 8 2 8 -1 11.43 50.46 9.68 o
5955 3 8 2 8 1 0.09 6.01 5.24 <
5956 3 1 3 8 -4 0.00 -0.94 3.20 <
5957 3 1 3 8 -3 18.21 12.56 1.95 o
5958 3 1 3 8 -2 2.34 5.44 2.10 <
5959 3 1 3 8 -1 12.40 15.91 4.02 o
5960 3 1 3 8 2 5.81 3.15 2.21 <
5961 3 1 3 8 3 70.52 53.62 12.75 o
5962 3 3 3 8 -4 0.00 2.08 1.55 <
5963 3 3 3 8 -3 80.11 83.65 6.32 o
5964 3 3 3 8 -2 79.97 74.14 6.00 o
5965 3 3 3 8 -1 88.60 91.57 8.84 o
5966 3 3 3 8 1 6.72 9.86 5.00 <
5967 3 3 3 8 2 0.05 8.00 7.61 <
5968 3 5 3 8 -4 0.00 2.26 1.85 <
5969 3 5 3 8 -3 0.92 2.30 1.39 <
5970 3 5 3 8 -2 78.72 70.46 6.60 o
5971 3 5 3 8 -1 35.25 55.09 15.21 o
5972 3 5 3 8 1 40.29 45.44 8.37 o
5973 3 7 3 8 -4 0.00 1.53 3.76 <
5974 3 7 3 8 -3 2.47 15.42 5.27 <
5975 3 7 3 8 -2 1.08 -0.89 2.39 <
5976 3 9 3 8 -3 221.03 257.49 24.09 o
5977 3 9 3 8 -2 61.46 71.02 13.93 o
5978 3 9 3 8 -1 105.91 91.43 16.34 o
5979 3 0 4 8 -2 23.00 17.60 3.35 o
5980 3 2 4 8 -3 49.36 45.06 6.84 o
5981 3 2 4 8 -2 7.15 9.67 4.53 <
5982 3 2 4 8 -1 31.06 31.47 12.99 <
5983 3 2 4 8 1 156.44 211.89 17.32 o
5984 3 4 4 8 -3 13.73 8.58 2.62 o
5985 3 4 4 8 -2 1.75 3.66 2.75 <
5986 3 6 4 8 -3 159.15 158.51 18.60 o
5987 3 8 4 8 -3 0.07 6.60 5.34 <
5988 3 1 5 8 -3 16.18 6.96 2.11 o
5989 3 1 5 8 -2 4.14 2.70 3.10 <
5990 3 1 5 8 -1 9.91 20.99 6.93 o
5991 3 3 5 8 -3 36.69 35.75 8.63 o
5992 3 3 5 8 -2 35.71 38.86 9.37 o
5993 3 3 5 8 -1 48.64 53.89 9.91 o
5994 3 5 5 8 -3 2.99 2.62 2.87 <
5995 3 5 5 8 -2 1.94 7.46 4.47 <
5996 3 5 5 8 -1 27.10 33.84 14.18 <
5997 3 7 5 8 -3 3.78 2.55 4.04 <
5998 3 7 5 8 -2 0.28 6.66 6.08 <
5999 3 0 6 8 -2 19.26 2.16 9.81 <
6000 3 2 6 8 -3 8.25 7.32 3.34 <
6001 3 2 6 8 -2 1.43 8.34 4.22 <
6002 3 4 6 8 -3 0.10 5.20 4.62 <
6003 3 4 6 8 -2 0.01 0.27 2.67 <
6004 3 6 6 8 -3 62.03 52.36 13.12 o
6005 3 1 7 8 -3 3.64 7.22 3.08 <
6006 3 3 7 8 -3 8.12 40.58 13.76 <
6007 3 0 0 9 2 6.28 5.30 2.56 <
6008 3 0 0 9 4 0.18 2.74 3.10 <
6009 3 2 0 9 1 2.02 1.08 1.31 <
6010 3 2 0 9 2 0.27 -0.13 1.22 <
6011 3 2 0 9 3 1.07 -0.45 1.85 <
6012 3 2 0 9 4 24.55 24.30 4.04 o
6013 3 4 0 9 1 0.26 -0.22 1.67 <
6014 3 4 0 9 2 0.21 -1.76 1.67 <
6015 3 4 0 9 3 3.75 2.21 2.13 <
6016 3 4 0 9 4 0.25 2.89 2.88 <
6017 3 6 0 9 1 4.86 4.93 5.92 <
6018 3 6 0 9 2 1.05 -0.20 2.61 <
6019 3 6 0 9 4 19.26 18.95 4.90 o
6020 3 8 0 9 1 22.03 21.51 5.35 o
6021 3 8 0 9 2 0.03 3.08 3.48 <
6022 3 8 0 9 3 37.29 32.90 9.13 o
6023 3 1 1 9 -4 1.27 2.06 1.95 <
6024 3 1 1 9 -3 4.97 4.52 2.05 <
6025 3 1 1 9 -2 0.94 1.07 1.19 <
6026 3 1 1 9 -1 0.28 1.78 0.95 <
6027 3 1 1 9 1 2.09 4.67 2.71 <
6028 3 1 1 9 2 2.43 4.55 2.14 <
6029 3 1 1 9 3 0.00 4.09 3.17 <
6030 3 1 1 9 4 0.08 -2.68 2.51 <
6031 3 3 1 9 -4 6.17 5.29 2.84 <
6032 3 3 1 9 -3 13.99 15.05 2.81 o
6033 3 3 1 9 -2 0.02 3.89 2.57 <
6034 3 3 1 9 -1 0.17 1.27 1.22 <
6035 3 3 1 9 1 0.30 0.77 1.82 <
6036 3 3 1 9 2 1.89 6.56 2.68 <
6037 3 3 1 9 3 13.10 7.78 3.37 <
6038 3 3 1 9 4 1.97 2.90 1.74 <
6039 3 5 1 9 -4 45.28 45.27 12.63 o
6040 3 5 1 9 -3 16.27 11.32 3.75 o
6041 3 5 1 9 -2 7.38 6.36 3.45 <
6042 3 5 1 9 -1 15.10 17.87 5.06 o
6043 3 5 1 9 1 18.45 21.88 5.44 o
6044 3 5 1 9 2 1.67 -0.07 2.00 <
6045 3 5 1 9 3 4.21 4.55 2.65 <
6046 3 5 1 9 4 42.73 28.22 6.49 o
6047 3 7 1 9 -4 1.96 3.13 2.84 <
6048 3 7 1 9 -3 0.95 1.22 3.49 <
6049 3 7 1 9 -2 5.57 7.51 4.45 <
6050 3 7 1 9 -1 1.15 2.78 2.71 <
6051 3 7 1 9 1 2.42 2.52 2.63 <
6052 3 7 1 9 2 7.01 8.71 6.40 <
6053 3 7 1 9 3 0.28 3.18 6.11 <
6054 3 9 1 9 -3 1.76 1.09 3.44 <
6055 3 9 1 9 -2 2.00 10.65 8.45 <
6056 3 9 1 9 -1 2.73 -1.48 5.38 <
6057 3 9 1 9 1 2.74 -3.56 5.12 <
6058 3 0 2 9 -4 6.29 6.08 2.00 o
6059 3 0 2 9 -2 1.02 3.38 2.43 <
6060 3 0 2 9 2 4.49 2.50 3.06 <
6061 3 0 2 9 4 17.45 9.33 5.98 <
6062 3 2 2 9 -4 8.73 11.73 2.74 o
6063 3 2 2 9 -3 0.30 -0.35 1.32 <
6064 3 2 2 9 -2 9.87 9.31 2.64 o
6065 3 2 2 9 -1 4.67 6.76 2.90 <
6066 3 2 2 9 1 12.90 8.49 3.63 <
6067 3 2 2 9 2 2.22 3.09 2.68 <
6068 3 2 2 9 3 0.02 4.29 4.02 <
6069 3 4 2 9 -4 2.00 4.70 1.78 <
6070 3 4 2 9 -3 4.29 6.38 3.10 <
6071 3 4 2 9 -2 0.01 -0.96 1.98 <
6072 3 4 2 9 -1 1.37 3.94 1.93 <
6073 3 4 2 9 2 1.41 3.94 1.79 <
6074 3 4 2 9 3 0.00 0.26 1.54 <
6075 3 6 2 9 -4 19.74 20.23 4.63 o
6076 3 6 2 9 -3 24.53 15.74 3.83 o
6077 3 6 2 9 -2 1.12 1.01 2.16 <
6078 3 6 2 9 -1 0.00 3.63 2.40 <
6079 3 6 2 9 1 0.67 3.74 5.91 <
6080 3 6 2 9 2 1.97 6.48 3.20 <
6081 3 8 2 9 -4 29.10 26.84 12.13 <
6082 3 8 2 9 -3 28.35 24.83 6.11 o
6083 3 8 2 9 -2 2.17 6.67 3.10 <
6084 3 8 2 9 -1 23.28 15.72 5.65 <
6085 3 1 3 9 -3 1.44 0.13 1.60 <
6086 3 1 3 9 -2 0.66 3.76 1.92 <
6087 3 1 3 9 -1 3.41 3.59 1.79 <
6088 3 1 3 9 1 9.00 8.69 3.30 <
6089 3 1 3 9 2 1.10 2.42 2.04 <
6090 3 3 3 9 -4 1.34 4.29 1.60 <
6091 3 3 3 9 -3 47.80 54.11 7.49 o
6092 3 3 3 9 -2 0.10 5.56 2.42 <
6093 3 3 3 9 -1 0.90 1.50 1.76 <
6094 3 3 3 9 1 0.01 -3.87 2.77 <
6095 3 3 3 9 2 2.91 7.27 4.29 <
6096 3 5 3 9 -4 36.32 43.15 7.21 o
6097 3 5 3 9 -3 39.57 35.78 6.58 o
6098 3 5 3 9 -2 18.35 11.92 3.12 o
6099 3 5 3 9 -1 6.41 3.62 2.64 <
6100 3 5 3 9 1 9.60 6.62 4.09 <
6101 3 7 3 9 -4 5.84 5.98 3.93 <
6102 3 7 3 9 -3 8.02 7.66 3.46 <
6103 3 7 3 9 -2 1.13 1.43 2.63 <
6104 3 7 3 9 -1 3.06 2.03 3.74 <
6105 3 9 3 9 -3 40.06 41.01 16.13 <
6106 3 9 3 9 -2 1.77 1.37 3.82 <
6107 3 0 4 9 -2 0.44 2.69 2.21 <
6108 3 2 4 9 -2 10.71 10.03 2.55 o
6109 3 2 4 9 -1 3.19 4.19 2.84 <
6110 3 2 4 9 1 18.23 21.35 6.29 o
6111 3 4 4 9 -3 0.11 2.32 1.38 <
6112 3 4 4 9 -1 6.23 -1.36 1.41 <
6113 3 6 4 9 -3 3.01 12.98 6.21 <
6114 3 6 4 9 -1 4.67 2.73 3.41 <
6115 3 8 4 9 -3 64.35 49.54 7.98 o
6116 3 1 5 9 -3 1.03 -0.14 2.13 <
6117 3 1 5 9 -2 1.65 2.68 2.47 <
6118 3 1 5 9 -1 8.66 6.09 3.98 <
6119 3 3 5 9 -3 4.96 11.20 4.06 <
6120 3 3 5 9 -2 2.76 2.04 2.80 <
6121 3 5 5 9 -3 12.05 12.34 3.48 o
6122 3 5 5 9 -2 11.38 13.32 9.75 <
6123 3 7 5 9 -3 6.99 11.58 5.36 <
6124 3 0 6 9 -2 9.38 17.98 7.65 <
6125 3 2 6 9 -3 4.34 5.31 3.02 <
6126 3 2 6 9 -2 1.76 -1.27 1.85 <
6127 3 4 6 9 -3 2.48 -2.42 3.01 <
6128 3 6 6 9 -3 17.72 48.13 17.16 <
6129 3 1 7 9 -3 0.46 -3.54 4.55 <
6130 3 0 0 10 2 111.85 99.86 18.29 o
6131 3 0 0 10 4 8.81 9.75 5.28 <
6132 3 2 0 10 1 181.99 170.12 16.62 o
6133 3 2 0 10 2 92.77 90.86 6.85 o
6134 3 2 0 10 3 1.83 1.71 1.09 <
6135 3 2 0 10 4 8.05 9.49 2.93 o
6136 3 4 0 10 1 12.73 8.64 2.34 o
6137 3 4 0 10 2 2.12 5.12 2.64 <
6138 3 4 0 10 3 4.25 10.92 4.62 <
6139 3 4 0 10 4 11.90 16.07 6.05 <
6140 3 6 0 10 1 92.48 88.31 11.92 o
6141 3 6 0 10 2 71.02 80.23 13.91 o
6142 3 6 0 10 3 4.61 7.72 3.25 <
6143 3 6 0 10 4 0.03 2.51 6.14 <
6144 3 8 0 10 1 34.53 54.35 11.94 o
6145 3 8 0 10 2 99.70 98.65 11.89 o
6146 3 1 1 10 -4 0.12 2.12 1.27 <
6147 3 1 1 10 -3 0.58 0.06 1.64 <
6148 3 1 1 10 -2 12.34 8.44 1.77 o
6149 3 1 1 10 -1 38.06 25.67 4.00 o
6150 3 1 1 10 1 171.10 152.60 12.03 o
6151 3 1 1 10 2 27.88 27.86 7.68 o
6152 3 1 1 10 3 4.87 8.52 4.96 <
6153 3 1 1 10 4 6.76 6.01 3.02 <
6154 3 3 1 10 -4 5.29 5.28 2.58 <
6155 3 3 1 10 -3 1.33 1.58 1.30 <
6156 3 3 1 10 -2 87.84 73.21 7.85 o
6157 3 3 1 10 -1 83.02 93.82 10.29 o
6158 3 3 1 10 1 29.36 27.89 5.28 o
6159 3 3 1 10 2 93.21 75.50 12.78 o
6160 3 3 1 10 3 21.99 24.20 6.59 o
6161 3 3 1 10 4 10.91 7.81 3.44 <
6162 3 5 1 10 -4 12.40 15.67 5.65 <
6163 3 5 1 10 -3 1.67 0.84 1.85 <
6164 3 5 1 10 -2 134.47 128.93 23.93 o
6165 3 5 1 10 -1 83.39 82.27 11.62 o
6166 3 5 1 10 1 121.23 102.94 10.77 o
6167 3 5 1 10 2 161.35 149.89 11.88 o
6168 3 5 1 10 3 1.55 4.16 2.70 <
6169 3 7 1 10 -4 15.47 13.50 6.49 <
6170 3 7 1 10 -3 8.47 8.13 3.30 <
6171 3 7 1 10 -2 4.74 1.24 4.92 <
6172 3 7 1 10 -1 18.21 29.59 13.69 <
6173 3 7 1 10 1 0.50 1.87 4.19 <
6174 3 7 1 10 2 0.63 10.68 6.84 <
6175 3 0 2 10 -4 5.40 5.20 4.52 <
6176 3 0 2 10 4 1.54 -13.17 9.99 <
6177 3 2 2 10 -4 12.54 11.74 2.94 o
6178 3 2 2 10 -3 8.17 6.22 2.45 <
6179 3 2 2 10 -2 61.23 48.20 5.26 o
6180 3 2 2 10 -1 52.77 50.58 6.04 o
6181 3 2 2 10 1 232.93 222.53 15.96 o
6182 3 2 2 10 2 69.69 59.55 12.20 o
6183 3 2 2 10 3 11.08 11.12 4.58 <
6184 3 4 2 10 -4 0.34 2.71 1.78 <
6185 3 4 2 10 -3 0.31 3.44 2.75 <
6186 3 4 2 10 -2 0.66 2.34 2.69 <
6187 3 4 2 10 -1 11.50 16.04 3.97 o
6188 3 4 2 10 1 65.04 72.91 13.20 o
6189 3 4 2 10 2 0.04 1.43 3.36 <
6190 3 6 2 10 -3 2.75 5.21 6.42 <
6191 3 6 2 10 -2 32.42 25.26 5.50 o
6192 3 6 2 10 -1 158.28 143.55 19.16 o
6193 3 6 2 10 1 27.15 22.52 6.58 o
6194 3 8 2 10 -4 7.26 8.59 4.41 <
6195 3 8 2 10 -3 26.53 28.36 7.40 o
6196 3 8 2 10 -2 69.03 47.31 12.32 o
6197 3 8 2 10 -1 32.32 73.85 12.99 o
6198 3 1 3 10 -4 0.00 3.88 4.74 <
6199 3 1 3 10 -3 23.03 12.68 4.84 <
6200 3 1 3 10 -2 1.07 4.66 2.10 <
6201 3 1 3 10 -1 0.15 -0.27 2.99 <
6202 3 1 3 10 1 208.22 214.11 16.56 o
6203 3 1 3 10 2 6.38 4.22 3.44 <
6204 3 3 3 10 -4 0.00 -3.55 3.02 <
6205 3 3 3 10 -3 3.31 3.29 1.60 <
6206 3 3 3 10 -2 3.43 1.91 1.58 <
6207 3 3 3 10 -1 87.03 98.35 19.69 o
6208 3 3 3 10 1 6.43 11.68 8.25 <
6209 3 5 3 10 -4 0.00 1.48 2.67 <
6210 3 5 3 10 -3 0.73 4.10 2.41 <
6211 3 5 3 10 -2 28.26 27.31 5.40 o
6212 3 5 3 10 1 100.87 115.82 18.19 o
6213 3 7 3 10 -4 0.00 6.85 5.52 <
6214 3 7 3 10 -3 0.01 2.67 2.53 <
6215 3 7 3 10 -2 3.67 1.09 1.74 <
6216 3 7 3 10 -1 48.13 34.27 13.37 <
6217 3 9 3 10 -3 12.06 17.29 9.23 <
6218 3 0 4 10 -2 4.90 2.47 2.59 <
6219 3 2 4 10 -3 1.68 0.79 1.38 <
6220 3 2 4 10 -2 0.38 8.56 5.33 <
6221 3 2 4 10 -1 6.69 9.18 4.24 <
6222 3 4 4 10 -3 0.47 1.69 2.66 <
6223 3 4 4 10 -2 4.14 3.62 3.66 <
6224 3 4 4 10 -1 34.44 33.39 9.19 o
6225 3 6 4 10 -3 23.93 19.50 5.67 o
6226 3 6 4 10 -2 3.41 1.10 1.90 <
6227 3 6 4 10 -1 136.56 147.50 20.68 o
6228 3 8 4 10 -3 16.88 9.38 4.40 <
6229 3 1 5 10 -3 0.67 5.26 4.27 <
6230 3 1 5 10 -2 6.01 3.12 3.80 <
6231 3 1 5 10 -1 2.83 -1.77 1.64 <
6232 3 3 5 10 -3 0.05 0.98 1.52 <
6233 3 3 5 10 -2 23.56 28.00 7.34 o
6234 3 3 5 10 -1 45.18 44.33 9.32 o
6235 3 5 5 10 -3 5.89 1.46 1.07 <
6236 3 5 5 10 -2 0.46 7.10 4.85 <
6237 3 7 5 10 -3 8.90 2.87 2.90 <
6238 3 2 6 10 -3 0.90 -0.61 3.14 <
6239 3 2 6 10 -2 14.14 16.91 7.32 <
6240 3 4 6 10 -3 0.03 6.48 7.82 <
6241 3 1 7 10 -3 9.09 15.34 7.53 <
6242 3 0 0 11 2 13.33 1.09 2.49 <
6243 3 0 0 11 4 0.92 0.74 2.73 <
6244 3 2 0 11 1 0.18 2.78 2.51 <
6245 3 2 0 11 2 1.47 3.96 1.68 <
6246 3 2 0 11 3 8.92 10.06 4.45 <
6247 3 2 0 11 4 9.75 4.94 3.15 <
6248 3 4 0 11 1 0.71 2.37 3.36 <
6249 3 4 0 11 2 2.91 1.79 1.85 <
6250 3 4 0 11 3 13.07 8.50 4.45 <
6251 3 4 0 11 4 2.72 5.12 5.23 <
6252 3 6 0 11 1 6.88 7.10 3.41 <
6253 3 6 0 11 2 0.26 -0.77 2.51 <
6254 3 6 0 11 3 1.84 3.48 4.26 <
6255 3 6 0 11 4 16.64 15.57 9.57 <
6256 3 8 0 11 1 10.08 11.84 5.70 <
6257 3 8 0 11 2 0.00 -0.48 3.95 <
6258 3 1 1 11 -4 5.69 6.90 3.22 <
6259 3 1 1 11 -3 0.07 5.11 2.39 <
6260 3 1 1 11 -2 1.98 3.54 3.39 <
6261 3 1 1 11 -1 0.75 1.46 1.41 <
6262 3 1 1 11 1 0.62 1.18 2.23 <
6263 3 1 1 11 2 1.27 1.24 1.64 <
6264 3 1 1 11 3 1.49 3.02 3.04 <
6265 3 1 1 11 4 4.43 6.39 5.40 <
6266 3 3 1 11 -4 3.39 8.26 5.90 <
6267 3 3 1 11 -3 5.83 3.87 2.48 <
6268 3 3 1 11 -2 2.28 2.84 2.88 <
6269 3 3 1 11 -1 1.31 3.58 1.96 <
6270 3 3 1 11 1 1.64 -1.66 2.43 <
6271 3 3 1 11 2 8.95 3.77 2.39 <
6272 3 3 1 11 3 2.17 -3.71 3.40 <
6273 3 3 1 11 4 16.80 11.12 6.28 <
6274 3 5 1 11 -4 51.78 66.71 12.78 o
6275 3 5 1 11 -3 10.52 5.79 3.41 <
6276 3 5 1 11 -2 1.14 -1.44 3.05 <
6277 3 5 1 11 -1 0.52 2.28 2.01 <
6278 3 5 1 11 1 4.12 9.19 3.36 <
6279 3 5 1 11 2 0.54 10.91 4.49 <
6280 3 5 1 11 3 1.27 4.51 4.26 <
6281 3 7 1 11 -4 10.19 14.33 9.91 <
6282 3 7 1 11 -3 27.17 23.33 6.33 o
6283 3 7 1 11 -2 0.84 -1.81 1.99 <
6284 3 7 1 11 -1 2.61 7.17 3.51 <
6285 3 7 1 11 1 5.71 0.41 2.08 <
6286 3 0 2 11 -4 0.32 3.05 2.54 <
6287 3 0 2 11 -2 0.03 2.40 2.22 <
6288 3 2 2 11 -4 21.45 22.99 5.05 o
6289 3 2 2 11 -3 0.07 3.77 1.48 <
6290 3 2 2 11 -2 8.99 9.91 2.62 o
6291 3 2 2 11 -1 0.22 1.17 2.49 <
6292 3 2 2 11 1 2.15 6.79 3.73 <
6293 3 2 2 11 2 2.80 8.66 4.29 <
6294 3 2 2 11 3 15.45 14.09 10.96 <
6295 3 4 2 11 -4 4.06 6.94 2.94 <
6296 3 4 2 11 -3 29.62 27.22 10.16 <
6297 3 4 2 11 -2 0.58 1.92 2.90 <
6298 3 4 2 11 -1 2.33 6.94 2.71 <
6299 3 4 2 11 1 4.43 -1.19 5.33 <
6300 3 6 2 11 -4 28.13 22.17 5.82 o
6301 3 6 2 11 -3 0.25 1.85 2.49 <
6302 3 6 2 11 -2 2.10 2.68 3.03 <
6303 3 6 2 11 -1 2.40 1.84 2.68 <
6304 3 6 2 11 1 2.55 -2.81 4.45 <
6305 3 8 2 11 -3 1.83 -6.27 7.82 <
6306 3 8 2 11 -2 2.02 4.91 4.91 <
6307 3 8 2 11 -1 1.60 7.62 6.89 <
6308 3 1 3 11 -4 2.88 1.08 1.70 <
6309 3 1 3 11 -3 2.47 2.03 1.38 <
6310 3 1 3 11 -2 1.14 1.74 1.85 <
6311 3 1 3 11 -1 0.31 1.93 2.42 <
6312 3 1 3 11 1 12.63 12.64 4.56 <
6313 3 3 3 11 -4 0.62 5.02 2.63 <
6314 3 3 3 11 -3 1.42 3.32 2.44 <
6315 3 3 3 11 -2 0.27 2.99 2.08 <
6316 3 3 3 11 -1 0.09 -1.69 2.24 <
6317 3 3 3 11 1 0.01 1.55 3.53 <
6318 3 5 3 11 -4 19.09 31.76 6.84 o
6319 3 5 3 11 -3 7.88 2.08 2.89 <
6320 3 5 3 11 -2 12.12 5.43 2.47 <
6321 3 7 3 11 -4 1.53 -4.40 3.99 <
6322 3 7 3 11 -3 29.06 19.83 7.31 <
6323 3 7 3 11 -2 2.83 12.06 7.19 <
6324 3 7 3 11 -1 4.79 1.50 1.02 <
6325 3 0 4 11 -2 0.16 0.20 2.00 <
6326 3 2 4 11 -3 11.23 3.36 2.11 <
6327 3 2 4 11 -2 0.78 4.82 2.94 <
6328 3 4 4 11 -3 6.78 14.59 5.90 <
6329 3 4 4 11 -2 2.33 2.31 3.55 <
6330 3 4 4 11 -1 5.40 6.85 4.40 <
6331 3 6 4 11 -3 0.74 0.49 1.99 <
6332 3 6 4 11 -2 1.15 4.78 3.06 <
6333 3 6 4 11 -1 0.66 -6.81 5.41 <
6334 3 1 5 11 -3 0.01 3.10 1.90 <
6335 3 1 5 11 -2 0.04 -3.72 3.53 <
6336 3 1 5 11 -1 2.26 4.09 2.98 <
6337 3 3 5 11 -3 0.07 -0.85 1.91 <
6338 3 3 5 11 -2 0.93 5.78 4.73 <
6339 3 5 5 11 -3 0.77 4.94 4.95 <
6340 3 5 5 11 -2 2.35 -3.76 6.39 <
6341 3 7 5 11 -3 30.59 36.81 13.69 <
6342 3 0 6 11 -2 5.36 3.69 5.28 <
6343 3 2 6 11 -3 10.58 1.01 2.61 <
6344 3 2 6 11 -2 0.15 3.26 4.92 <
6345 3 4 6 11 -3 2.05 6.38 7.14 <
6346 3 2 0 12 1 134.56 163.59 14.99 o
6347 3 2 0 12 2 46.53 46.45 7.62 o
6348 3 2 0 12 3 8.44 7.60 3.92 <
6349 3 2 0 12 4 27.22 24.45 8.11 o
6350 3 4 0 12 1 5.33 12.14 4.37 <
6351 3 4 0 12 2 25.54 17.77 6.16 <
6352 3 4 0 12 3 0.28 6.71 3.53 <
6353 3 4 0 12 4 2.32 -4.74 4.56 <
6354 3 6 0 12 1 8.85 24.07 7.26 o
6355 3 6 0 12 2 46.12 57.32 13.71 o
6356 3 6 0 12 3 2.50 -1.46 4.57 <
6357 3 6 0 12 4 24.40 18.13 10.01 <
6358 3 1 1 12 -4 1.58 1.83 1.71 <
6359 3 1 1 12 -3 0.79 2.47 2.97 <
6360 3 1 1 12 -2 2.10 -0.08 1.56 <
6361 3 1 1 12 -1 34.46 38.73 6.84 o
6362 3 1 1 12 1 102.26 116.20 12.23 o
6363 3 1 1 12 2 0.12 -2.02 1.88 <
6364 3 1 1 12 3 19.11 19.94 6.26 o
6365 3 1 1 12 4 7.51 3.96 2.62 <
6366 3 3 1 12 -4 22.36 17.98 5.22 o
6367 3 3 1 12 -3 0.69 -3.95 3.46 <
6368 3 3 1 12 -2 61.19 61.90 16.90 o
6369 3 3 1 12 -1 16.96 20.87 6.57 o
6370 3 3 1 12 1 2.36 1.38 1.65 <
6371 3 3 1 12 2 53.27 66.15 9.03 o
6372 3 3 1 12 3 2.37 9.53 8.31 <
6373 3 5 1 12 -3 58.21 43.48 14.90 <
6374 3 5 1 12 -1 104.18 115.00 13.41 o
6375 3 5 1 12 1 99.01 103.81 17.10 o
6376 3 5 1 12 2 102.62 130.76 13.58 o
6377 3 7 1 12 -3 3.00 24.19 9.18 <
6378 3 7 1 12 -2 18.01 12.54 8.02 <
6379 3 7 1 12 -1 14.61 5.99 3.32 <
6380 3 0 2 12 -4 16.40 16.64 6.74 <
6381 3 0 2 12 -2 45.41 39.25 12.85 o
6382 3 0 2 12 2 19.26 44.04 16.07 <
6383 3 2 2 12 -4 7.16 11.69 5.35 <
6384 3 2 2 12 -3 0.06 9.26 4.72 <
6385 3 2 2 12 -2 55.99 53.54 8.77 o
6386 3 2 2 12 -1 62.16 73.27 8.07 o
6387 3 2 2 12 1 196.40 201.47 31.59 o
6388 3 2 2 12 2 23.83 18.38 9.32 <
6389 3 4 2 12 -4 0.62 1.65 2.15 <
6390 3 4 2 12 -3 29.17 71.21 11.84 o
6391 3 4 2 12 -2 2.29 2.12 2.01 <
6392 3 4 2 12 -1 4.75 10.34 5.13 <
6393 3 4 2 12 1 46.14 67.13 18.59 o
6394 3 4 2 12 2 18.50 17.04 9.65 <
6395 3 6 2 12 -4 3.53 4.88 4.03 <
6396 3 6 2 12 -3 59.76 78.56 12.09 o
6397 3 6 2 12 -2 47.74 54.10 9.87 o
6398 3 6 2 12 -1 47.11 66.07 18.93 o
6399 3 8 2 12 -2 82.72 92.51 24.94 o
6400 3 1 3 12 -4 0.00 -2.60 1.96 <
6401 3 1 3 12 -3 37.15 34.05 5.81 o
6402 3 1 3 12 -2 2.13 3.90 3.36 <
6403 3 1 3 12 -1 3.55 11.16 4.02 <
6404 3 1 3 12 1 150.82 181.50 18.44 o
6405 3 3 3 12 -4 0.00 4.24 3.55 <
6406 3 3 3 12 -3 6.94 5.98 3.20 <
6407 3 3 3 12 -2 19.66 25.24 7.21 o
6408 3 3 3 12 -1 32.62 47.40 8.73 o
6409 3 3 3 12 1 0.14 6.93 9.02 <
6410 3 5 3 12 -4 0.00 3.62 3.58 <
6411 3 5 3 12 -3 13.33 6.02 4.38 <
6412 3 5 3 12 -2 65.07 58.65 7.81 o
6413 3 5 3 12 -1 61.16 66.71 14.77 o
6414 3 7 3 12 -3 18.51 1.46 3.03 <
6415 3 7 3 12 -2 0.84 -4.34 7.53 <
6416 3 0 4 12 -2 6.85 -0.14 2.05 <
6417 3 2 4 12 -3 0.03 9.33 4.03 <
6418 3 2 4 12 -2 15.83 15.23 8.63 <
6419 3 2 4 12 -1 39.63 62.01 17.86 o
6420 3 4 4 12 -3 36.32 44.85 11.90 o
6421 3 4 4 12 -2 0.28 0.94 2.82 <
6422 3 4 4 12 -1 9.09 13.41 9.44 <
6423 3 6 4 12 -3 8.15 -2.21 2.21 <
6424 3 6 4 12 -2 28.06 45.36 15.11 o
6425 3 1 5 12 -3 30.91 26.00 5.59 o
6426 3 1 5 12 -2 3.99 8.99 4.11 <
6427 3 3 5 12 -3 8.37 16.22 6.65 <
6428 3 3 5 12 -2 2.96 3.41 3.45 <
6429 3 5 5 12 -3 6.55 5.81 3.91 <
6430 3 0 0 13 4 9.58 9.81 4.90 <
6431 3 2 0 13 1 1.60 3.35 2.99 <
6432 3 2 0 13 2 2.02 0.34 2.39 <
6433 3 2 0 13 3 0.08 1.27 2.58 <
6434 3 2 0 13 4 7.72 5.64 2.73 <
6435 3 4 0 13 1 3.09 4.45 2.03 <
6436 3 4 0 13 2 1.48 1.33 2.67 <
6437 3 4 0 13 3 22.54 17.35 8.19 <
6438 3 4 0 13 4 2.29 0.45 2.87 <
6439 3 6 0 13 1 5.83 10.90 8.55 <
6440 3 6 0 13 2 5.89 10.12 8.73 <
6441 3 1 1 13 -4 11.64 8.46 5.09 <
6442 3 1 1 13 -3 6.49 4.57 3.10 <
6443 3 1 1 13 -2 0.67 2.15 2.92 <
6444 3 1 1 13 -1 1.03 0.79 1.82 <
6445 3 1 1 13 1 1.08 3.62 3.67 <
6446 3 1 1 13 2 4.00 3.49 2.08 <
6447 3 1 1 13 3 0.04 6.32 8.87 <
6448 3 1 1 13 4 0.12 9.47 9.75 <
6449 3 3 1 13 -4 7.73 11.88 5.35 <
6450 3 3 1 13 -3 9.67 7.96 2.66 <
6451 3 3 1 13 -2 2.24 0.93 2.58 <
6452 3 3 1 13 -1 1.80 0.44 1.71 <
6453 3 3 1 13 1 1.83 3.34 4.70 <
6454 3 3 1 13 2 0.14 7.12 4.16 <
6455 3 5 1 13 -4 8.70 13.36 6.07 <
6456 3 5 1 13 -3 0.00 3.37 4.55 <
6457 3 5 1 13 -2 1.54 4.24 2.28 <
6458 3 5 1 13 -1 4.82 5.74 4.18 <
6459 3 5 1 13 1 6.03 7.82 3.94 <
6460 3 7 1 13 -2 1.46 -8.71 11.08 <
6461 3 7 1 13 -1 6.38 -3.20 9.75 <
6462 3 0 2 13 -4 1.72 2.65 2.60 <
6463 3 0 2 13 -2 3.02 9.94 8.56 <
6464 3 0 2 13 2 4.38 0.51 1.85 <
6465 3 2 2 13 -4 0.03 5.44 3.62 <
6466 3 2 2 13 -3 0.52 1.59 3.31 <
6467 3 2 2 13 -2 0.05 2.63 2.78 <
6468 3 2 2 13 -1 0.34 2.14 2.94 <
6469 3 2 2 13 1 5.49 9.27 3.23 <
6470 3 2 2 13 2 1.47 8.95 4.97 <
6471 3 4 2 13 -4 6.88 4.24 1.88 <
6472 3 4 2 13 -3 20.31 14.28 5.41 <
6473 3 4 2 13 -2 6.47 2.58 2.21 <
6474 3 4 2 13 -1 3.89 4.69 3.10 <
6475 3 4 2 13 1 7.21 2.68 1.90 <
6476 3 6 2 13 -3 3.70 0.86 2.75 <
6477 3 6 2 13 -2 6.60 12.54 6.58 <
6478 3 1 3 13 -4 1.51 5.75 4.49 <
6479 3 1 3 13 -3 3.45 1.99 2.16 <
6480 3 1 3 13 -2 4.56 3.12 2.48 <
6481 3 1 3 13 -1 4.42 8.29 3.46 <
6482 3 3 3 13 -4 6.11 14.98 9.18 <
6483 3 3 3 13 -3 0.39 4.88 3.53 <
6484 3 3 3 13 -2 12.29 7.78 2.63 <
6485 3 3 3 13 -1 0.01 -4.71 5.58 <
6486 3 5 3 13 -4 17.02 21.91 7.99 <
6487 3 5 3 13 -3 0.15 4.57 1.75 <
6488 3 5 3 13 -2 0.98 3.06 3.16 <
6489 3 5 3 13 -1 1.97 7.87 9.82 <
6490 3 0 4 13 -2 2.63 8.25 4.07 <
6491 3 2 4 13 -3 0.14 0.06 3.52 <
6492 3 2 4 13 -2 0.53 1.81 1.93 <
6493 3 2 4 13 -1 2.71 7.53 3.76 <
6494 3 4 4 13 -3 24.31 22.57 6.24 o
6495 3 4 4 13 -2 2.74 1.17 3.08 <
6496 3 4 4 13 -1 13.68 10.80 8.50 <
6497 3 1 5 13 -3 0.03 0.61 2.16 <
6498 3 1 5 13 -1 5.47 -6.72 7.29 <
6499 3 3 5 13 -3 0.15 3.73 3.95 <
6500 3 2 6 13 -3 0.09 3.12 4.95 <
6501 3 0 0 14 2 97.97 91.78 21.77 o
6502 3 0 0 14 4 3.21 2.68 4.01 <
6503 3 2 0 14 1 104.00 90.15 16.39 o
6504 3 2 0 14 2 73.21 65.09 13.50 o
6505 3 2 0 14 3 1.13 5.96 4.79 <
6506 3 2 0 14 4 18.99 10.61 5.28 <
6507 3 4 0 14 1 5.19 9.10 3.58 <
6508 3 4 0 14 2 0.05 2.48 2.63 <
6509 3 4 0 14 3 17.00 19.95 7.73 <
6510 3 6 0 14 1 59.92 62.14 19.99 o
6511 3 1 1 14 -4 9.85 13.56 8.77 <
6512 3 1 1 14 -3 6.70 5.59 2.68 <
6513 3 1 1 14 -2 1.84 0.95 3.46 <
6514 3 1 1 14 1 115.71 105.06 25.37 o
6515 3 1 1 14 2 1.75 5.16 3.56 <
6516 3 1 1 14 3 4.34 5.16 3.87 <
6517 3 3 1 14 -4 6.45 3.95 3.08 <
6518 3 3 1 14 -3 0.01 -0.05 2.04 <
6519 3 3 1 14 -2 54.12 56.16 12.51 o
6520 3 3 1 14 -1 47.83 50.71 11.68 o
6521 3 3 1 14 1 19.05 22.89 7.50 o
6522 3 3 1 14 2 75.99 79.15 24.00 o
6523 3 5 1 14 -4 24.19 22.70 12.23 <
6524 3 5 1 14 -3 3.03 2.89 3.81 <
6525 3 5 1 14 1 94.21 82.58 15.69 o
6526 3 0 2 14 -4 1.05 2.33 1.79 <
6527 3 0 2 14 -2 34.03 24.98 11.52 <
6528 3 2 2 14 -4 0.01 -1.01 2.36 <
6529 3 2 2 14 -3 5.24 2.70 2.61 <
6530 3 2 2 14 -2 10.89 9.58 4.45 <
6531 3 2 2 14 -1 38.82 43.15 9.53 o
6532 3 4 2 14 -4 6.54 10.12 3.70 <
6533 3 4 2 14 -3 0.03 4.45 4.02 <
6534 3 4 2 14 -2 13.14 12.67 4.37 <
6535 3 4 2 14 -1 6.72 14.54 4.01 o
6536 3 6 2 14 -3 8.63 10.11 4.33 <
6537 3 6 2 14 -2 38.38 33.58 14.70 <
6538 3 1 3 14 -3 2.56 -0.31 2.68 <
6539 3 1 3 14 -2 0.00 3.98 3.86 <
6540 3 1 3 14 -1 0.02 6.97 6.92 <
6541 3 3 3 14 -4 0.00 0.29 4.59 <
6542 3 3 3 14 -3 4.42 1.48 1.99 <
6543 3 3 3 14 -2 12.35 16.34 7.07 <
6544 3 5 3 14 -4 0.00 -2.42 3.87 <
6545 3 5 3 14 -2 25.00 17.06 7.61 <
6546 3 0 4 14 -2 5.78 7.27 4.66 <
6547 3 2 4 14 -3 12.40 3.30 4.27 <
6548 3 2 4 14 -2 0.02 7.05 8.97 <
6549 3 2 4 14 -1 7.36 12.41 9.91 <
6550 3 4 4 14 -3 2.43 3.88 3.98 <
6551 3 4 4 14 -2 6.08 5.54 5.52 <
6552 3 1 5 14 -3 0.25 2.94 1.99 <
6553 3 1 5 14 -2 16.99 40.12 16.63 <
6554 3 0 0 15 2 0.54 -2.26 3.74 <
6555 3 2 0 15 1 0.00 3.70 4.42 <
6556 3 2 0 15 2 4.05 7.14 3.42 <
6557 3 2 0 15 3 0.04 6.11 5.76 <
6558 3 1 1 15 -3 0.12 2.68 4.45 <
6559 3 1 1 15 -2 1.14 6.40 3.34 <
6560 3 1 1 15 -1 0.38 2.64 2.14 <
6561 3 1 1 15 1 0.18 0.89 3.56 <
6562 3 3 1 15 -4 19.43 25.68 12.25 <
6563 3 3 1 15 -3 10.52 10.71 9.34 <
6564 3 3 1 15 -2 2.56 6.04 4.69 <
6565 3 3 1 15 -1 0.04 6.96 6.78 <
6566 3 3 1 15 1 0.14 1.80 2.51 <
6567 3 0 2 15 -4 1.69 10.27 6.38 <
6568 3 0 2 15 -2 0.15 6.22 6.01 <
6569 3 2 2 15 -4 0.05 0.31 2.58 <
6570 3 2 2 15 -3 3.14 6.14 7.81 <
6571 3 2 2 15 -1 0.09 2.63 2.32 <
6572 3 4 2 15 -4 5.45 7.30 4.81 <
6573 3 4 2 15 -2 4.13 5.07 4.76 <
6574 3 4 2 15 -1 0.00 -1.69 7.99 <
6575 3 1 3 15 -4 0.07 3.01 3.74 <
6576 3 1 3 15 -3 0.43 2.85 2.43 <
6577 3 1 3 15 -1 0.00 15.12 10.34 <
6578 3 3 3 15 -4 18.16 26.99 9.11 <
6579 3 3 3 15 -3 20.62 20.13 8.50 <
6580 3 3 3 15 -2 2.66 1.18 2.65 <
6581 3 3 3 15 -1 0.85 4.48 5.72 <
6582 3 2 4 15 -3 0.13 2.14 2.19 <
6583 3 2 4 15 -2 0.78 6.38 5.85 <
6584 3 1 5 15 -3 8.48 0.67 5.36 <
6585 3 1 1 16 -3 0.04 -12.14 8.29 <
6586 3 1 1 16 -2 2.48 1.35 3.30 <
6587 3 1 1 16 -1 24.59 14.21 6.76 <
6588 3 2 2 16 -4 10.68 9.21 9.03 <
6589 3 2 2 16 -3 3.92 0.71 4.68 <
6590 3 2 2 16 -1 26.13 36.01 17.04 <
6591 3 1 3 16 -4 0.00 3.49 3.25 <
6592 3 1 3 16 -3 13.56 15.42 6.70 <
6593 3 1 3 16 -2 0.18 -7.99 6.84 <
6594 3 1 1 17 -2 0.26 1.37 2.91 <
6595 3 1 1 17 -1 0.02 2.89 5.34 <
6596 3 1 3 17 -3 0.08 6.58 5.29 <
