#------------------------------------------------------------------------------
#$Date: 2016-07-21 04:10:48 +0300 (Thu, 21 Jul 2016) $
#$Revision: 184562 $
#$URL: file:///home/coder/svn-repositories/cod/cif/2/02/05/2020560.cif $
#------------------------------------------------------------------------------
#
# This file is available in the Crystallography Open Database (COD),
# http://www.crystallography.net/. The original data for this entry
# were provided by IUCr Journals, http://journals.iucr.org/.
#
# The file may be used within the scientific community so long as
# proper attribution is given to the journal article from which the
# data were obtained.
#
data_2020560
loop_
_publ_author_name
'H\"utzler, Wilhelm Maximilian'
'Egert, Ernst'
'Bolte, Michael'
_publ_section_title
;
 6-Propyl-2-thiouracil <i>versus</i> 6-methoxymethyl-2-thiouracil:
 enhancing the hydrogen-bonded synthon motif by replacement of a methylene
 group with an O atom
;
_journal_issue                   8
_journal_name_full               'Acta Crystallographica Section C'
_journal_page_first
;
;
_journal_paper_doi               10.1107/S2053229616011281
_journal_volume                  72
_journal_year                    2016
_chemical_formula_iupac          'C6 H8 N2 O2 S, C5 H9 N O'
_chemical_formula_moiety         'C6 H8 N2 O2 S, C5 H9 N O'
_chemical_formula_sum            'C11 H17 N3 O3 S'
_chemical_formula_weight         271.33
_chemical_name_systematic
;
6-Methoxymethyl-2-thiouracil--1-methylpyrrolidin-2-one (1/1)
;
_space_group_crystal_system      triclinic
_space_group_IT_number           2
_space_group_name_Hall           '-P 1'
_space_group_name_H-M_alt        'P -1'
_symmetry_space_group_name_Hall  '-P 1'
_symmetry_space_group_name_H-M   'P -1'
_atom_sites_solution_hydrogens   mixed
_audit_creation_method           SHELXL-2014/7
_cell_angle_alpha                82.868(13)
_cell_angle_beta                 74.093(13)
_cell_angle_gamma                74.741(13)
_cell_formula_units_Z            2
_cell_length_a                   6.7673(13)
_cell_length_b                   9.9189(15)
_cell_length_c                   10.4097(17)
_cell_measurement_reflns_used    11541
_cell_measurement_temperature    173(2)
_cell_measurement_theta_max      26.23
_cell_measurement_theta_min      3.41
_cell_volume                     647.3(2)
_computing_cell_refinement
;
X-AREA (Stoe & Cie, 2001)
;
_computing_data_collection
;
X-AREA (Stoe & Cie, 2001)
;
_computing_data_reduction
;
X-AREA (Stoe & Cie, 2001)
;
_computing_molecular_graphics
;
Mercury (Macrae <i>et al.</i>,  2008) and XP in SHELXTL-Plus (Sheldrick,
2008)
;
_computing_publication_material
;
publCIF (Westrip, 2010)
;
_computing_structure_refinement
;
SHELXL2014 (Sheldrick, 2015)
;
_computing_structure_solution
;
SHELXS97 (Sheldrick, 2008)
;
_diffrn_ambient_temperature      173(2)
_diffrn_measured_fraction_theta_full 0.989
_diffrn_measured_fraction_theta_max 0.986
_diffrn_measurement_device_type  'Stoe IPDS II two-circle'
_diffrn_measurement_method       \w
_diffrn_radiation_type           MoK\a
_diffrn_radiation_wavelength     0.71073
_diffrn_reflns_av_R_equivalents  0.0415
_diffrn_reflns_limit_h_max       8
_diffrn_reflns_limit_h_min       -8
_diffrn_reflns_limit_k_max       12
_diffrn_reflns_limit_k_min       -11
_diffrn_reflns_limit_l_max       12
_diffrn_reflns_limit_l_min       -12
_diffrn_reflns_number            5425
_diffrn_reflns_theta_full        25.000
_diffrn_reflns_theta_max         25.828
_diffrn_reflns_theta_min         3.412
_exptl_absorpt_coefficient_mu    0.255
_exptl_absorpt_correction_T_max  1.000
_exptl_absorpt_correction_T_min  0.320
_exptl_absorpt_correction_type   multi-scan
_exptl_absorpt_process_details
;
(X-AREA; Stoe & Cie, 2001)
;
_exptl_crystal_colour            colourless
_exptl_crystal_density_diffrn    1.392
_exptl_crystal_description       plate
_exptl_crystal_F_000             288
_exptl_crystal_size_max          0.460
_exptl_crystal_size_mid          0.320
_exptl_crystal_size_min          0.210
_refine_diff_density_max         0.346
_refine_diff_density_min         -0.238
_refine_ls_extinction_method     none
_refine_ls_goodness_of_fit_ref   1.091
_refine_ls_hydrogen_treatment    mixed
_refine_ls_matrix_type           full
_refine_ls_number_parameters     171
_refine_ls_number_reflns         2463
_refine_ls_number_restraints     0
_refine_ls_restrained_S_all      1.091
_refine_ls_R_factor_all          0.0460
_refine_ls_R_factor_gt           0.0402
_refine_ls_shift/su_max          0.001
_refine_ls_shift/su_mean         0.000
_refine_ls_structure_factor_coef Fsqd
_refine_ls_weighting_details
'w=1/[\s^2^(Fo^2^)+(0.0635P)^2^+0.1726P] where P=(Fo^2^+2Fc^2^)/3'
_refine_ls_weighting_scheme      calc
_refine_ls_wR_factor_gt          0.1092
_refine_ls_wR_factor_ref         0.1124
_reflns_number_gt                2201
_reflns_number_total             2463
_reflns_threshold_expression     'I > 2\s(I)'
_cod_data_source_file            sk3632sup1.cif
_cod_data_source_block           V
_cod_database_code               2020560
_shelx_space_group_comment
;
The symmetry employed for this shelxl refinement is uniquely defined
by the following loop, which should always be used as a source of
symmetry information in preference to the above space-group names.
They are only intended as comments.
;
_shelx_estimated_absorpt_t_min   0.892
_shelx_estimated_absorpt_t_max   0.948
_shelx_hkl_file
;
  -4  -1 -12  132.47    3.22   0
  -4   0 -12   13.11    2.48   0
  -3  -4  -8  178.35    4.93   0
  -3   3  -7   35.83    2.42   0
   0   4   0 3991.85   17.50   0
   1  -6  -2    5.89    2.38   0
   1  -1   1  214.25    5.74   0
   1   6   1   19.74    3.19   0
   2  -6  -1  568.92    5.35   0
   2  -1   2    0.02    2.77   0
   2   9   1   51.82    3.41   0
   4  -7  -1  154.82    3.45   0
   4  -5   1   44.35    2.86   0
   4  -2   3   75.81    2.86   0
   4   1   4   19.45    2.65   0
   6  -3   3    6.39    2.84   0
   6   2   5   19.15    2.72   0
   7  -3   3    5.42    2.48   0
   7   1   5    3.15    2.58   0
   7   8   5    5.61    3.25   0
   8   1   5   -0.24    2.35   0
  -4  -2 -12   86.71    2.99   0
  -4  -1 -11   12.54    2.41   0
  -4   0 -11   27.72    2.61   0
  -4   1 -11   48.59    2.84   0
  -3   4  -7   13.15    2.69   0
  -3   5  -8   66.91    3.22   0
  -2  -6  -8    0.06    1.04   0
  -2  -2  -4    5.72    3.37   0
  -2   4  -4   54.36    2.60   0
  -2   6  -5   17.04    2.89   0
  -2   7  -6    2.19    2.30   0
  -1  -8  -9   41.72    4.81   0
  -1   5  -2  221.52    3.97   0
  -1   7  -3   48.92    2.98   0
  -1   8  -4  136.74    3.15   0
  -1   9  -5  164.29    3.71   0
   0   7  -1    8.67    2.62   0
   1  -9  -7    1.23    2.44   0
   2   7   2  142.95    5.06   0
   3  -8  -3   10.40    2.41   0
   3  11   1    5.65    2.81   0
   4  -6   0    9.92    2.35   0
   5  -7  -1   13.94    2.35   0
   5  -4   2   53.28    2.66   0
   6  -4   2   30.81    3.00   0
   6  -1   4   47.45    2.63   0
   7  -1   4   58.98    3.18   0
  -4  -2 -11    1.99    2.62   0
  -4   2 -11   74.32    3.12   0
  -3  -5  -9    4.96    3.76   0
  -3  -3  -7   11.97    3.07   0
  -3   0  -6   15.57    2.41   0
  -3   1  -6  292.50    3.92   0
  -3   2  -6    2.50    2.52   0
  -3   6  -9   14.86    2.51   0
  -2   8  -7   17.77    2.48   0
   1  -8  -5   65.79    3.28   0
   1  -3   0  258.14    5.62   0
   1  10  -1   33.84    2.93   0
   1  11  -2    1.96    2.45   0
   2  -8  -4   92.77    3.31   0
   2  -3   1 2094.98   10.58   0
   3  -4   1   15.67    2.51   0
   3   0   3 2926.86   12.81   0
   4   2   4  305.99    5.04   0
   5  -6   0    9.84    2.32   0
   5  -5   1    1.24    2.29   0
   5   0   4    2.95    2.63   0
   6  -5   1   10.52    2.26   0
   6   3   5   71.83    3.07   0
   6   6   5    4.27    3.14   0
   7   2   5  193.50    3.98   0
   8   2   5   12.82    2.44   0
  -4  -3 -12   14.27    2.49   0
  -4  -1 -10  327.51    4.35   0
  -4   0 -10  135.27    3.19   0
  -4   1 -10  133.43    3.19   0
  -4   2 -10   41.38    2.95   0
  -4   3 -11    2.08    2.37   0
  -3  -6 -11   32.90    3.65   0
  -3  -1  -6   44.52    2.95   0
  -3   3  -6   89.56    2.84   0
  -3   5  -7    7.78    2.71   0
  -3   6  -8  230.23    3.90   0
  -2   5  -4  470.92    4.75   0
   0  -7  -5    3.59    3.39   0
   0   5   0 3323.64   15.05   0
   0   9  -2  146.62    3.47   0
   0  10  -3   85.99    2.77   0
   3  -7  -2   35.50    2.84   0
   4  -3   2  651.25    6.16   0
   5  -2   3  167.45    3.50   0
   6   4   5   33.94    2.86   0
   6   5   5   72.39    3.35   0
   7  -2   3    6.52    2.92   0
   7   3   5    2.38    2.76   0
   8   3   5   37.02    2.98   0
  -4  -3 -11    4.55    2.56   0
  -4  -2 -10  174.90    3.80   0
  -4   1  -9  388.86    4.80   0
  -4   3 -10   16.99    3.00   0
  -3   4  -6   36.21    2.94   0
  -2  -4  -5  393.74   10.29   0
  -2   7  -5   43.41    2.64   0
  -2   8  -6    5.34    2.34   0
  -1   6  -2 1328.83    7.66   0
  -1   9  -4    3.99    2.72   0
   1   9   0   24.26    2.99   0
   2  11   0   40.97    3.02   0
   3  -6  -1   46.38    2.60   0
   3  -5   0   85.17    2.84   0
   3  -2   2   35.13    2.59   0
   4  -7  -2   27.93    2.79   0
   4  -1   3    8.75    2.31   0
   4   3   4   64.57    3.64   0
   4   5   4   30.32    3.82   0
   6  -2   3  172.06    3.55   0
   6   0   4    0.29    2.22   0
   7  -3   2   19.26    3.09   0
   7   0   4   -0.77    2.34   0
   7   4   5   17.24    3.03   0
   7   7   5   11.25    3.02   0
   8   4   5    0.27    2.68   0
  -4  -1  -9   49.59    2.90   0
  -4   0  -9  125.35    3.14   0
  -4   2  -9   29.99    2.56   0
  -4   4 -10  106.03    3.39   0
  -3  -2  -6  764.25    7.42   0
  -3   6  -7   14.12    2.88   0
  -2   1  -3  960.33    7.72   0
  -2   2  -3  599.85    5.94   0
  -2   3  -3  320.96    4.49   0
  -2   6  -4 1671.27    8.31   0
  -1  -7  -7  235.72    7.57   0
  -1   8  -3  383.75    4.39   0
  -1  10  -5    4.57    2.55   0
   0  -8  -7   52.50    3.70   0
   0  -4  -2  118.83    4.87   0
   0   8  -1   81.82    3.18   0
   1  -7  -4  984.22    8.30   0
   1   7   1  222.99    5.12   0
   2  -7  -3    5.01    2.56   0
   2  -4   0 2225.56   11.18   0
   2   0   2 1815.30   12.25   0
   3  -8  -4   78.53    2.94   0
   3   1   3  114.00    4.45   0
   3  10   2   21.74    4.10   0
   4  -6  -1   20.63    3.01   0
   4  -4   1   21.10    2.67   0
   4   4   4  414.89    6.48   0
   5  -3   2   24.00    2.44   0
   5   1   4  850.77    6.41   0
   5   8   4   48.84    5.43   0
   6  -3   2   41.12    2.83   0
   7   5   5    4.77    2.84   0
   7   6   5    2.65    2.76   0
   8   1   4    6.44    2.93   0
   8   5   5    4.85    2.64   0
  -4  -4 -12   57.63    2.97   0
  -4  -3 -10   20.87    2.85   0
  -4   3  -9  164.47    3.34   0
  -3   5  -6   24.19    2.47   0
  -3   7  -8   30.45    2.77   0
  -2   4  -3  112.98    3.39   0
   0   6   0  129.39    4.09   0
   2  -8  -5   31.29    2.83   0
   2  -6  -2  478.76    5.33   0
   2  -5  -1   33.02    2.61   0
   2  10   1   18.41    3.58   0
   4  -5   0  266.03    3.91   0
   5  -6  -1   18.09    2.63   0
   5  -5   0   26.57    2.85   0
   5  -4   1   58.01    2.89   0
   5  -1   3   15.71    2.66   0
   6  -5   0    7.48    2.51   0
   6  -4   1   78.27    2.99   0
   6   1   4   28.45    3.03   0
   7  -1   3   20.85    3.01   0
   7   1   4   14.88    2.95   0
  -4  -4 -11    3.82    2.82   0
  -4  -2  -9   60.66    2.92   0
  -4   0  -8   89.53    3.21   0
  -4   1  -8   12.54    2.46   0
  -4   2  -8   65.24    3.04   0
  -4   4  -9  100.76    3.11   0
  -3  -6 -10   34.25    4.35   0
  -3   1  -5   96.38    3.03   0
  -3   2  -5  325.86    4.29   0
  -3   3  -5   19.73    2.51   0
  -3   7  -7   14.13    2.91   0
  -2   0  -3    5.59    2.61   0
  -2   7  -4 1064.34    6.98   0
  -2   8  -5    9.44    2.51   0
  -2   9  -6  121.09    3.26   0
  -1   2  -1 1712.00   12.08   0
  -1   3  -1   94.81    3.60   0
  -1   7  -2  422.82    4.76   0
   0  -6  -4    5.80    3.03   0
   0  10  -2   21.56    2.66   0
   0  11  -3   10.18    2.62   0
   1  -8  -6    2.32    2.53   0
   1  -4  -1  673.22    7.81   0
   1  11  -1   13.01    2.92   0
   2   8   2    0.67    4.18   0
   3  -7  -3   16.68    2.67   0
   5   2   4   18.01    2.94   0
   6  -1   3   99.28    3.20   0
   8   2   4   91.27    3.66   0
  -4  -1  -8   15.10    2.72   0
  -4   3  -8    7.75    2.28   0
  -4   5  -9    1.29    2.94   0
  -3   0  -5   16.40    2.44   0
  -3   4  -5  266.97    4.22   0
  -3   6  -6  144.34    3.34   0
  -2   5  -3  115.22    3.03   0
  -1   4  -1  120.39    3.81   0
  -1   9  -3  302.39    4.41   0
  -1  10  -4   76.57    2.92   0
   0  -5  -3  208.11    5.48   0
   1  -6  -3   88.89    3.55   0
   1  -5  -2    1.18    2.87   0
   2  -2   1  330.85    5.12   0
   3  -8  -5   68.91    2.86   0
   3  -3   1   81.11    3.10   0
   3  12   1    4.39    3.36   0
   4  -7  -3   64.29    2.70   0
   4  -2   2  512.00    5.44   0
   4   0   3   38.17    2.69   0
   7  -3   1   -1.49    3.15   0
   7  -2   2   14.83    2.70   0
   7   2   4   82.28    3.50   0
  -4   4  -8   25.58    2.68   0
  -3  -4  -7   28.87    3.72   0
  -3   5  -5   12.41    2.95   0
  -2   9  -5  123.30    3.85   0
  -1  -8 -10   23.47    4.07   0
  -1   5  -1  392.91    5.62   0
   0   7   0  281.71    5.04   0
   0   9  -1   26.49    2.82   0
   1   8   1   14.75    3.48   0
   1  10   0   11.76    2.82   0
   3  -6  -2  441.36    5.18   0
   3  -4   0  282.44    4.28   0
   3  -1   2  263.61    4.61   0
   3   2   3  411.86    6.45   0
   5  -6  -2   49.95    3.22   0
   5  -2   2   35.45    2.78   0
   5   3   4  120.53    3.84   0
   6  -5  -1    3.83    2.96   0
   6  -2   2  501.64    5.14   0
   6   2   4  140.18    3.66   0
   6   9   4   10.90    4.17   0
   7   0   3    5.16    2.95   0
   8   3   4   12.32    3.03   0
  -4  -4 -10   60.41    3.75   0
  -4  -3  -9  107.58    3.66   0
  -4   1  -7  400.43    4.88   0
  -4   2  -7  127.38    3.22   0
  -4   5  -8    6.77    2.70   0
  -3  -5  -8   11.14    4.02   0
  -3  -1  -5   26.91    2.88   0
  -3   7  -6  112.17    3.23   0
  -2   6  -3  245.75    3.95   0
  -2   8  -4  201.92    4.07   0
  -1   1  -1  194.69    6.00   0
  -1   8  -2  205.41    3.76   0
   0  -8  -8   96.20    4.17   0
   2  -8  -6    8.12    2.65   0
   2  -7  -4   38.64    2.98   0
   2  12   0    8.41    3.10   0
   3  -5  -1    3.91    2.14   0
   4  -6  -2    2.22    2.45   0
   4  -3   1 1151.59    7.69   0
   5  -5  -1  176.74    3.85   0
   5   0   3   51.68    2.88   0
   6  -4   0  113.28    3.21   0
   6  -3   1    2.95    2.64   0
   6   0   3   28.75    3.13   0
   7   3   4   41.44    3.17   0
   8   1   3   45.67    3.27   0
  -5   0 -11  149.05    3.56   0
  -5   1 -11    7.54    2.82   0
  -4  -2  -8   61.38    3.10   0
  -4   0  -7   14.58    2.76   0
  -4   3  -7   28.48    2.75   0
  -4   4  -7   35.14    3.14   0
  -3  -3  -6  162.25    4.82   0
  -3   6  -5    2.74    2.56   0
  -2  -1  -3 1221.20   11.01   0
  -1   6  -1    0.87    2.54   0
  -1  10  -3    4.15    2.72   0
   0  11  -2   21.74    2.88   0
   1  -8  -7   53.97    3.38   0
   1  -2   0 3453.56   18.62   0
   2   1   2  246.02    6.51   0
   3  -7  -4   48.75    2.87   0
   4  -7  -4   19.96    2.82   0
   4  -5  -1  294.07    4.08   0
   4  -4   0    6.97    2.52   0
   4   1   3  559.44    6.37   0
   5  -4   0    9.58    2.47   0
   5  -3   1   74.52    3.01   0
   5   4   4    1.49    3.26   0
   5   7   4   15.80    4.34   0
   6   3   4    8.98    3.15   0
   7  -1   2   35.93    2.85   0
   8   4   4  494.10    5.79   0
  -5  -1 -11  103.81    3.35   0
  -5   1 -10    4.86    2.95   0
  -4   6  -8    4.34    2.77   0
  -3   2  -4   72.77    3.36   0
  -3   3  -4   26.39    2.63   0
  -3   8  -6  121.21    3.64   0
  -2  -3  -4  117.59    6.43   0
  -2   7  -3  659.29    5.75   0
   0  -7  -6    7.15    3.38   0
   1  -7  -5   11.88    2.86   0
   2  -6  -3    2.09    2.79   0
   2  -3   0  468.91    6.05   0
   3   3   3   57.90    4.18   0
   4  -1   2  134.45    3.85   0
   5   5   4    5.55    3.25   0
   5   6   4   43.68    4.21   0
   7  -2   1    2.11    2.66   0
   7   1   3  122.50    3.72   0
   7   4   4   29.23    3.15   0
   8   5   4   -0.54    2.84   0
  -5   0 -10  269.86    4.31   0
  -5   2 -10    1.10    2.65   0
  -5   3 -10   55.27    3.08   0
  -4  -5 -11   24.28    3.35   0
  -4  -1  -7  287.66    4.48   0
  -4   5  -7  346.85    4.59   0
  -3   1  -4  234.85    4.26   0
  -3   4  -4  413.81    5.08   0
  -3   7  -5   81.71    3.13   0
  -2   3  -2  158.97    3.97   0
  -2   4  -2   31.88    3.17   0
  -2   9  -4   76.61    3.24   0
  -1   7  -1  652.32    6.19   0
  -1   9  -2   27.47    3.06   0
   0   8   0   59.69    3.53   0
   0  10  -1   49.80    3.13   0
   2  -8  -7   30.87    2.81   0
   2  11   1  140.65    4.54   0
   3  -2   1  204.67    4.49   0
   5  -6  -3   36.77    2.85   0
   5  -1   2   68.30    3.09   0
   5   1   3  188.15    4.06   0
   6  -1   2   39.84    3.01   0
   6   1   3  306.75    4.87   0
   6   4   4   41.78    3.24   0
   6   8   4   56.03    4.45   0
   8   2   3   24.70    3.04   0
   8   6   4   15.58    2.81   0
  -5  -2 -11   29.07    2.86   0
  -5  -1 -10   22.84    2.88   0
  -5   2  -9    6.81    3.15   0
  -4  -4  -9  145.67    4.64   0
  -4  -3  -8   55.73    3.55   0
  -4   1  -6  135.59    3.64   0
  -4   2  -6  194.67    3.93   0
  -4   3  -6  123.91    3.45   0
  -4   6  -7   -1.35    2.70   0
  -3  -2  -5  229.33    5.22   0
  -3   5  -4  245.56    4.11   0
  -2   2  -2  155.74    4.04   0
  -2   5  -2   50.05    3.00   0
  -2   8  -3  110.51    3.70   0
   1   9   1   29.35    3.53   0
   1  11   0    4.84    2.98   0
   2  -5  -2    2.31    2.57   0
   2  -4  -1  220.34    4.32   0
   2   9   2   19.37    4.27   0
   3  -6  -3  883.30    6.84   0
   3   0   2  274.08    5.35   0
   3  11   2   53.16    4.68   0
   4  -6  -3   33.55    2.67   0
   5  -5  -2  538.81    5.79   0
   6  -4  -1    1.41    2.77   0
   6  -3   0   -1.53    3.13   0
   6  -2   1   14.94    2.78   0
   6   5   4    4.77    3.05   0
   6   7   4    6.96    3.93   0
   7   0   2   37.73    3.44   0
   7   5   4   -1.38    2.67   0
   7   6   4   29.28    3.21   0
   7   7   4   42.51    3.71   0
   7   8   4   10.85    3.19   0
  -5   0  -9   75.80    3.39   0
  -5   1  -9   68.07    2.98   0
  -5   3  -9  477.74    5.32   0
  -5   4  -9   12.56    3.27   0
  -4  -2  -7    2.82    3.27   0
  -4   4  -6  157.08    3.62   0
  -3   0  -4  101.30    4.01   0
  -3   6  -4   11.86    3.26   0
  -3   8  -5   10.15    2.98   0
   0  -8  -9   10.21    3.43   0
   0  -2  -1  199.48    8.10   0
   1  -8  -8   37.17    3.19   0
   1  -6  -4 1130.31    9.42   0
   2  -7  -5  119.28    3.39   0
   2  -1   1 2608.80   14.02   0
   3  -7  -5    2.61    2.59   0
   3   4   3    8.65    4.06   0
   4  -2   1  139.01    3.80   0
   4   2   3   50.55    3.97   0
   5  -4  -1    1.26    2.88   0
   5  -2   1   91.26    3.26   0
   6   6   4  132.14    4.34   0
   7   2   3    0.69    2.67   0
   8   1   2    7.36    2.76   0
   8   3   3   71.89    3.32   0
  -5  -3 -11   24.70    3.05   0
  -5  -2 -10  229.59    4.23   0
  -4   0  -6   -1.35    2.20   0
  -4   5  -6   16.36    2.75   0
  -4   7  -7    3.14    2.84   0
  -2   1  -2    0.76    2.82   0
  -2   6  -2    9.23    2.52   0
  -2  10  -4    6.12    2.74   0
  -1  -6  -6  977.55   13.27   0
  -1   8  -1   11.31    2.94   0
  -1  10  -2   17.89    2.95   0
   0   9   0   51.74    3.51   0
   0  11  -1   15.79    3.18   0
   3  -5  -2    3.76    2.43   0
   3  -4  -1    6.66    2.61   0
   3  -3   0  244.72    4.35   0
   4  -5  -2    2.24    2.45   0
   4  -4  -1    0.72    2.91   0
   4  -3   0   49.03    3.42   0
   5  -3   0    9.20    2.57   0
   6   0   2  203.46    4.55   0
   6   2   3   17.57    4.13   0
   7  -2   0    5.49    2.68   0
   7  -1   1    1.51    2.89   0
  -5  -1  -9  102.53    3.52   0
  -5   1  -8    9.22    2.87   0
  -5   2  -8    8.63    2.53   0
  -5   3  -8   19.56    2.87   0
  -4  -5 -10  163.74    5.12   0
  -4   6  -6   52.60    3.16   0
  -3   7  -4  261.89    4.24   0
  -2   7  -2   61.96    3.34   0
  -2   9  -3   22.22    3.01   0
   0  -6  -5 1643.08   12.47   0
   1  -7  -6   18.20    3.06   0
   1  -3  -1  603.92    8.25   0
   3   5   3  104.74    6.62   0
   4  -6  -4   78.05    3.42   0
   4   0   2  893.60    7.38   0
   5   0   2  483.60    5.72   0
   5   2   3  202.56    4.23   0
   6  -4  -2   -2.05    3.00   0
   7   1   2   13.86    3.17   0
   7   3   3   66.05    3.58   0
   8   2   2   22.12    3.39   0
   8   4   3  160.87    4.22   0
  -5   0  -8   -0.52    2.95   0
  -5   4  -8   -3.39    2.92   0
  -4  -1  -6    8.97    2.77   0
  -4   2  -5   45.13    3.44   0
  -4   3  -5   54.85    3.10   0
  -4   4  -5  216.25    4.22   0
  -4   7  -6    7.00    3.13   0
  -3   3  -3  404.17    5.33   0
  -3   4  -3   48.57    3.40   0
  -1  -7  -8    3.11    4.22   0
   0   5   1 2830.51   15.88   0
   1  -5  -3  297.42    5.42   0
   1  -4  -2  342.14    6.71   0
   2  -6  -4    2.75    2.82   0
   3  -7  -6   48.77    3.04   0
   3  -6  -4   38.69    3.23   0
   3   6   3   78.77    8.22   0
   4   3   3  363.98    6.37   0
   5  -5  -3   73.64    3.16   0
   6  -3  -1   13.68    3.28   0
   6  -2   0   22.03    3.40   0
   6  -1   1    1.71    2.73   0
   8   5   3   10.30    2.97   0
  -5  -3 -10   -1.43    2.97   0
  -5  -2  -9  615.12    6.16   0
  -5   5  -8   15.49    3.05   0
  -4   1  -5 1242.48    8.16   0
  -4   5  -5  752.08    6.22   0
  -3  -1  -4  559.18    7.11   0
  -3   2  -3    7.93    2.64   0
  -3   5  -3  798.37    6.44   0
  -3   8  -4  179.11    3.94   0
  -2   8  -2    6.33    3.08   0
  -1   5   0    1.95    3.05   0
  -1   9  -1   13.74    3.05   0
   0  -7  -7  113.23    4.67   0
   0   4   1  905.79   10.61   0
   0   6   1  409.60    6.54   0
   1  10   1   45.89    3.73   0
   2  -7  -6   31.20    2.99   0
   2   2   2 1727.37   16.60   0
   2  12   1   25.54    3.80   0
   3  -1   1 1513.05    9.92   0
   6   3   3 2483.69   12.44   0
   7  -2  -1   28.09    3.62   0
   7   0   1    0.18    2.78   0
   7   4   3   38.57    3.28   0
   8   1   1    4.01    2.78   0
   8   6   3   12.07    3.27   0
  -5  -1  -8   55.74    3.31   0
  -5   2  -7   34.67    3.21   0
  -5   3  -7   29.83    2.87   0
  -5   4  -7   10.33    3.26   0
  -4  -4  -8   10.27    3.42   0
  -4  -3  -7  679.07    7.74   0
  -4   6  -5  650.93    5.97   0
  -3  -4  -6  882.99   11.39   0
  -3   6  -3  439.68    5.27   0
  -2  -7 -10   15.85    5.60   0
  -2  10  -3   18.62    2.84   0
  -1   4   0  278.65    6.06   0
  -1   6   0  307.42    5.22   0
   0  10   0  283.50    4.77   0
   2  -2   0 2098.85   12.09   0
   2  10   2   20.23    4.66   0
   3   1   2  767.38    8.50   0
   4  -6  -5   15.60    2.99   0
   4  -5  -3    4.63    2.71   0
   4  -1   1  613.91    6.49   0
   5  -4  -2  273.30    4.36   0
   5  -1   1   95.64    3.43   0
   5   3   3  103.04    4.04   0
   6   1   2   51.29    3.12   0
   7  -1   0  197.33    4.20   0
   7   2   2    0.42    3.16   0
   8   3   2    7.33    2.94   0
  -5  -4 -11   73.32    3.52   0
  -5   1  -7    0.27    2.51   0
  -5   5  -7   52.61    3.19   0
  -4   0  -5   27.12    2.96   0
  -3   1  -3    0.67    2.90   0
  -3   7  -3  154.33    4.02   0
  -3   9  -4    8.24    3.25   0
  -2  -2  -3  113.60    5.48   0
  -2   0  -2 1782.47   12.81   0
  -1   3   0  327.68    6.24   0
   0   7   1   36.36    3.63   0
   1   5   2  520.24   11.11   0
   1   6   2  572.39    9.73   0
   2  -5  -3    0.83    2.92   0
   3  -5  -3  637.78    6.05   0
   4  -4  -2   11.48    3.10   0
   5  -5  -4   12.45    2.80   0
   5  -3  -1   30.53    3.07   0
   5  -2   0   31.00    2.98   0
   5   1   2   43.35    3.23   0
   7   5   3   14.61    3.10   0
  -6   1 -10    7.16    2.77   0
  -5   0  -7   83.38    3.49   0
  -4  -2  -6  525.45    6.43   0
  -4   7  -5  109.02    3.57   0
  -3  -3  -5  515.46    8.11   0
  -2   4  -1 2047.38   10.84   0
  -2   5  -1   89.96    3.53   0
  -2   9  -2   26.34    3.19   0
  -1   7   0   39.37    3.40   0
  -1  10  -1    1.10    2.89   0
   0  -5  -4  162.74    5.54   0
   1  -7  -7   96.33    3.83   0
   1  -6  -5   24.81    3.64   0
   1   7   2  177.27    6.07   0
   2  -7  -7   83.19    3.70   0
   2  -4  -2  102.28    3.69   0
   2  -3  -1   91.75    4.22   0
   3  -6  -5   16.76    3.01   0
   3  -4  -2  118.16    3.71   0
   3  -2   0  230.28    4.46   0
   3  12   2   14.74    4.62   0
   4  -3  -1   55.40    3.36   0
   4  -2   0   19.11    2.82   0
   4   1   2  123.12    4.21   0
   4   4   3    1.67    3.62   0
   6  -3  -2  194.49    3.95   0
   6   0   1   20.43    2.98   0
   6   4   3    0.61    3.31   0
   7   1   1    3.07    3.26   0
   8   2   1    6.37    2.92   0
   8   4   2   28.40    3.22   0
  -6   0 -10  142.96    3.51   0
  -6   2  -9   11.27    3.28   0
  -5  -3  -9   37.02    3.37   0
  -5  -2  -8   24.45    3.03   0
  -5   3  -6  102.83    3.72   0
  -4  -6 -11    3.26    4.21   0
  -4  -5  -9   35.65    4.34   0
  -4   3  -4   27.88    2.82   0
  -4   4  -4  115.27    3.53   0
  -4   5  -4  192.87    4.40   0
  -4   8  -5   67.05    3.69   0
  -3  -5  -7  166.93    7.76   0
  -3   8  -3   16.94    3.30   0
  -2   3  -1 2241.06   11.85   0
  -2   6  -1  129.68    3.46   0
   0  -3  -2   23.55    4.39   0
   0   3   1 3818.38   24.10   0
   0   8   1   23.52    3.61   0
   0  11   0   38.73    3.49   0
   1  11   1   26.44    3.61   0
   2  -6  -5   28.38    3.01   0
   3  -3  -1  159.66    3.82   0
   4  -5  -4   41.00    3.54   0
   5  -4  -3   43.88    3.65   0
   5   4   3    2.62    3.14   0
   6  -2  -1   26.14    3.12   0
   6  -1   0   21.59    2.87   0
   6   2   2  218.93    5.37   0
   7  -1  -1    8.36    3.45   0
   7   0   0    3.28    3.49   0
   7   3   2   11.76    3.35   0
   7   6   3   85.10    3.63   0
  -6  -1 -10   72.86    3.47   0
  -6   1  -9   16.65    2.96   0
  -5  -4 -10    9.92    3.33   0
  -5  -1  -7   52.22    3.33   0
  -5   2  -6   13.91    2.81   0
  -5   4  -6    8.67    2.89   0
  -5   5  -6   -2.96    3.02   0
  -4  -1  -5   61.01    3.45   0
  -4   2  -4  119.38    3.62   0
  -4   6  -4  479.15    5.64   0
  -3   0  -3 2823.32   13.98   0
  -2   7  -1   34.66    3.41   0
  -2  10  -2    8.56    3.03   0
  -1   8   0   34.98    3.18   0
   0  -4  -3  273.28    6.86   0
   1  -1   0  492.46    9.72   0
   2   0   1  448.75    7.50   0
   4   9   3    0.59    6.95   0
   5   0   1   41.04    3.10   0
   5  10   3    6.82    5.09   0
   6   5   3  113.80    4.05   0
   6  10   3   15.61    4.28   0
   7   7   3    2.30    2.91   0
   7   8   3   16.69    3.21   0
   8   3   1   13.45    3.49   0
   8   5   2   -1.56    2.96   0
  -6   0  -9    7.07    2.95   0
  -5   1  -6  108.64    3.51   0
  -5   6  -6   46.58    3.28   0
  -4   1  -4  359.06    4.99   0
  -4   7  -4   34.97    3.81   0
  -3  -2  -4  185.44    5.41   0
  -3   4  -2  349.39    4.91   0
  -3   5  -2   40.04    2.97   0
  -3   9  -3   25.30    3.52   0
  -2   2  -1  351.33    5.87   0
  -1  -5  -5  353.07    9.39   0
  -1   2   0 3651.52   19.45   0
  -1  11  -1    1.90    2.90   0
   0  -7  -8   18.63    3.59   0
   0   9   1   24.94    3.64   0
   1   8   2    0.71    3.98   0
   2  -7  -8   13.24    2.67   0
   3  -6  -6   72.46    3.40   0
   3  -5  -4   42.21    3.38   0
   4   5   3  626.39    8.79   0
   5  -3  -2   65.71    3.31   0
   5  -2  -1  540.56    5.88   0
   5  -1   0    3.46    3.26   0
   5   2   2  209.67    4.53   0
   5   5   3  181.23    5.27   0
   6  -3  -3  354.99    4.85   0
   6   6   3  143.98    4.64   0
   7   2   1   22.25    3.42   0
  -6  -2 -10   33.28    3.48   0
  -6   2  -8    1.80    2.76   0
  -6   3  -8    5.92    2.82   0
  -3   3  -2  316.92    4.81   0
  -3   6  -2  266.52    4.42   0
  -2   8  -1   30.22    2.83   0
  -1   9   0   30.84    3.31   0
   1  -7  -8   54.83    3.46   0
   1  -5  -4  214.68    5.03   0
   2  11   2    2.99    3.97   0
   3   0   1  225.95    5.00   0
   3   2   2  226.73    6.03   0
   4  -4  -3  492.22    5.30   0
   4   0   1  145.74    3.97   0
   5  -4  -4  116.57    4.06   0
   6  -2  -2   45.52    3.37   0
   6   1   1   91.37    3.31   0
   6   3   2  417.76    6.00   0
   6   7   3  147.73    5.31   0
   6   9   3    5.49    3.77   0
   7  -1  -2    9.98    3.66   0
   7   4   2  109.05    3.72   0
  -6  -1  -9   11.28    3.07   0
  -6   1  -8   47.61    3.22   0
  -5  -5 -11   41.05    3.73   0
  -5  -3  -8   17.70    3.38   0
  -5   0  -6   26.08    2.88   0
  -5   4  -5   98.70    4.18   0
  -4   8  -4   18.35    3.15   0
  -3   2  -2   41.81    3.58   0
  -3   7  -2   10.00    2.80   0
  -2   9  -1  241.79    4.56   0
  -1  -7  -9   31.93    4.08   0
   0  -6  -6 1112.12   10.25   0
   2  -6  -6   80.49    3.52   0
   2  -5  -4  984.75    8.11   0
   4  -5  -5   26.39    2.90   0
   4  -3  -2   56.78    3.56   0
   4   2   2 9999.99   26.07   0
   5   6   3  148.83    5.28   0
   6  -3  -4   25.45    3.52   0
   6  -1  -1   61.73    3.29   0
   6   0   0   17.76    2.98   0
   6   8   3  239.46    6.06   0
   7   0  -1   -0.94    3.05   0
   7   1   0   89.29    3.50   0
   8   4   1    5.72    2.92   0
  -6   0  -8  108.03    3.76   0
  -5  -4  -9   85.82    4.41   0
  -5  -2  -7   14.32    3.03   0
  -5   2  -5   37.32    3.50   0
  -5   3  -5  127.67    3.68   0
  -5   5  -5    2.98    3.14   0
  -5   6  -5  170.82    4.33   0
  -4  -4  -7   98.90    4.68   0
  -4  -3  -6  161.48    4.93   0
  -4   0  -4  335.33    5.18   0
  -4   4  -3   27.17    2.97   0
  -4   5  -3   13.39    3.51   0
  -3   8  -2    7.38    3.26   0
   1  -6  -6  265.28    5.15   0
   1   4   2  371.87   12.72   0
   1   9   2  288.30    6.34   0
   1  12   1   83.54    4.17   0
   3  -6  -7   51.19    3.18   0
   3  -4  -3  111.73    3.60   0
   4  -2  -1   87.74    3.51   0
   4  -1   0   80.55    3.43   0
   4   6   3   30.62    4.49   0
   5  -3  -3  352.28    5.30   0
   5   1   1   29.34    3.36   0
   5   9   3   24.23    5.16   0
   7   3   1   23.37    3.46   0
   7   5   2   88.35    3.77   0
  -6   2  -7   42.47    3.16   0
  -6   3  -7   72.35    3.30   0
  -6   4  -7    2.26    3.04   0
  -5  -1  -6    0.85    2.97   0
  -4  -2  -5   21.80    3.57   0
  -4   3  -3   -0.22    2.97   0
  -4   6  -3   26.30    2.93   0
  -2  -1  -2  248.53    6.83   0
  -1  10   0   34.91    3.24   0
   0  -7  -9   72.01    3.72   0
   0  10   1    9.92    2.96   0
   1  -7  -9   20.39    3.10   0
   1  -4  -3 1595.33   11.33   0
   2  -4  -3  113.20    3.83   0
   2  -1   0  311.15    6.00   0
   2   3   2   24.44    5.39   0
   3  -5  -5  153.96    4.20   0
   3  -1   0   63.73    3.91   0
   4  -5  -6   32.80    3.35   0
   4  -4  -4  734.11    6.64   0
   4   7   3  279.11    8.25   0
   4   8   3   50.03    6.41   0
   5  -4  -5   -0.24    2.99   0
   5   3   2  148.96    4.54   0
   5   7   3   38.44    4.56   0
   5   8   3   45.07    4.97   0
   6  -2  -3    9.89    3.60   0
   6   2   1   27.38    3.36   0
   6   4   2   25.90    3.50   0
   8   5   1   11.92    2.85   0
  -6  -3 -10   22.74    3.33   0
  -6  -2  -9    5.80    2.79   0
  -6  -1  -8   10.04    3.07   0
  -6   1  -7   44.85    3.13   0
  -5   1  -5   72.77    3.27   0
  -4   2  -3   84.99    3.46   0
  -4   7  -3    1.42    2.88   0
  -3  -1  -3  104.10    4.88   0
  -3   1  -2  273.06    5.07   0
  -3   9  -2    1.15    2.92   0
  -2   1  -1 2858.57   15.08   0
  -2  10  -1   15.64    3.10   0
  -1  -6  -7   63.57    5.30   0
   1  -2  -1   25.03    3.78   0
   3  -3  -2 1031.83    7.61   0
   3  -2  -1   34.00    3.44   0
   5  -2  -2   53.32    3.33   0
   5  -1  -1   16.54    3.31   0
   5   0   0   19.59    3.12   0
   7   0  -2   33.29    3.21   0
   7   1  -1  126.05    4.17   0
   7   2   0   -2.48    2.74   0
   7   6   2   28.23    3.19   0
  -4  -6 -10    2.54    4.75   0
  -4  -5  -8    0.96    4.51   0
  -4   8  -3   10.44    2.98   0
  -2  -7 -11   57.71    5.12   0
  -2   5   0  158.91    3.88   0
  -2   6   0   52.54    3.10   0
  -2   7   0    9.94    3.18   0
  -1  -7 -10  200.46    5.64   0
  -1   6   1  167.46    4.47   0
  -1  11   0  114.31    4.00   0
   1  -3  -2  183.90    5.50   0
   1  10   2  300.72    6.59   0
   2  -6  -7   28.96    3.06   0
   2  -3  -2  220.49    5.01   0
   2  -2  -1   68.21    4.40   0
   4   1   1  939.05    8.38   0
   5  -3  -4   37.50    3.59   0
   6  -1  -2   26.81    3.24   0
   6   0  -1   90.79    3.55   0
   6   1   0   51.62    3.36   0
   7   4   1    1.92    3.20   0
   7   7   2    5.98    3.48   0
  -6   0  -7   27.73    3.01   0
  -6   3  -6   72.60    3.37   0
  -6   4  -6  267.73    4.54   0
  -5  -5 -10   43.58    3.96   0
  -5   0  -5   57.74    3.11   0
  -5   3  -4    6.27    2.90   0
  -5   4  -4  354.21    4.98   0
  -5   5  -4  302.10    4.64   0
  -5   6  -4   95.55    3.67   0
  -4  -1  -4   16.64    3.00   0
  -4   1  -3    3.51    2.91   0
  -3   4  -1   15.17    2.92   0
  -3   5  -1  179.85    3.88   0
  -3   6  -1   85.12    3.34   0
  -3   7  -1   18.16    3.27   0
  -2   4   0 2600.73   12.63   0
  -2   8   0    7.83    3.20   0
  -1   5   1  668.21    7.50   0
  -1   7   1    0.37    3.07   0
   0  -7 -10   83.82    3.81   0
   0  11   1   80.71    3.77   0
   1  -6  -7    2.68    3.01   0
   2  -5  -5 1025.06    7.99   0
   2  12   2   54.65    4.68   0
   3  -5  -6    1.34    2.96   0
   4  -3  -3  135.14    3.67   0
   4   3   2   10.14    3.69   0
   6  -2  -4    0.87    2.89   0
   6   5   2   24.77    3.43   0
   7   8   2   16.79    3.28   0
  -6  -3  -9    9.45    3.20   0
  -6  -2  -8   78.12    3.47   0
  -6   2  -6   26.83    2.93   0
  -5  -3  -7  244.14    4.89   0
  -5  -2  -6   47.04    3.37   0
  -5   2  -4  113.16    3.59   0
  -5   7  -4   13.43    3.13   0
  -1   8   1  351.33    5.45   0
   0  -6  -7  382.91    6.39   0
   0  -5  -5  148.52    5.15   0
   1  -5  -5  969.30    8.99   0
   2  -6  -8   61.55    3.35   0
   3  -4  -4  660.24    6.31   0
   3   1   1  404.76    6.85   0
   3   3   2   24.82    4.14   0
   4  -4  -5  107.39    3.42   0
   4  -2  -2  201.33    4.41   0
   4   0   0  428.90    6.03   0
   5   2   1   40.43    3.26   0
   5   4   2   19.51    3.47   0
   6   3   1  111.24    3.72   0
   7   0  -3    9.17    3.14   0
   7   3   0    5.40    3.27   0
  -6  -1  -7   -0.92    3.18   0
  -6   1  -6   27.14    2.98   0
  -5  -4  -8    9.28    3.15   0
  -4   4  -2   17.57    3.02   0
  -4   5  -2   36.02    3.17   0
  -4   6  -2   29.23    2.92   0
  -4   7  -2    7.77    3.42   0
  -3   3  -1   81.89    3.43   0
  -3   8  -1   20.58    2.86   0
  -2   3   0  520.79    6.84   0
  -2   9   0   11.53    3.02   0
  -1  -4  -4    6.49    5.86   0
  -1   1   0  487.29    9.34   0
  -1   4   1  713.05    8.90   0
  -1   9   1  257.31    5.33   0
   0   2   1  187.74    8.79   0
   4  -1  -1   46.01    3.14   0
   5  -3  -5   14.71    2.90   0
   5  -2  -3   18.66    2.96   0
   6  -1  -3   37.97    3.26   0
   6   6   2   11.53    3.64   0
   7   1  -2   14.83    3.10   0
   7   2  -1   42.33    3.15   0
   7   5   1  104.04    3.49   0
  -7   1  -8   14.09    2.92   0
  -6  -4 -10   40.70    3.29   0
  -6   4  -5   85.20    4.03   0
  -6   5  -5  250.67    4.98   0
  -5  -1  -5   33.15    3.25   0
  -5   1  -4   23.03    2.84   0
  -4   3  -2  666.72    6.53   0
  -4   8  -2  137.55    4.42   0
  -3   0  -2  250.93    5.40   0
  -3   9  -1   28.57    3.48   0
  -2  -6  -8    6.67    5.76   0
   0   6   2  190.92    5.77   0
   0   7   2  871.70    9.22   0
   0   8   2   40.60    4.29   0
   1  11   2   12.14    3.50   0
   2  -6  -9   61.68    3.19   0
   2  -4  -4  193.33    4.44   0
   3  -5  -7    2.85    2.91   0
   3  -3  -3  190.91    4.21   0
   4  -4  -6  102.33    3.91   0
   5  -1  -2   60.29    3.16   0
   5   0  -1  288.48    5.08   0
   5   1   0   79.65    3.35   0
   6   0  -2  239.51    4.40   0
   6   1  -1    1.13    3.46   0
   6   2   0   23.77    2.98   0
  -7  -1  -9    0.69    2.63   0
  -7   0  -8    3.61    3.35   0
  -6   0  -6  378.12    5.24   0
  -6   3  -5   77.87    3.49   0
  -5   4  -3   68.26    3.78   0
  -5   5  -3   93.94    3.55   0
  -5   6  -3    4.88    3.46   0
  -4   0  -3   42.95    3.08   0
  -3   2  -1  191.81    4.60   0
  -2  10   0   54.10    3.42   0
  -1  10   1   16.33    3.43   0
   1  -6  -8   10.93    3.15   0
   2  -5  -6  255.72    4.57   0
   3  -4  -5   68.45    3.64   0
   4  -3  -4   12.09    2.79   0
   5  -3  -6   49.36    3.57   0
   5   5   2  261.67    5.74   0
   6  -1  -4    6.11    3.50   0
   6   4   1    2.68    3.27   0
   6   7   2    2.71    3.35   0
   7   1  -3   34.99    3.76   0
   7   4   0   23.57    3.52   0
   7   6   1   11.58    3.33   0
  -7   2  -7   32.29    3.23   0
  -6  -3  -8    2.47    3.25   0
  -6  -2  -7   -1.27    3.13   0
  -6   2  -5    9.95    2.78   0
  -5  -5  -9   56.17    4.43   0
  -5   3  -3  189.96    4.00   0
  -5   7  -3    5.53    3.03   0
  -4  -3  -5    0.92    3.45   0
  -4   2  -2  517.79    5.89   0
  -3  -4  -5  984.21   13.24   0
  -3  -3  -4  308.70    6.86   0
  -2   0  -1  452.16    7.53   0
   0   9   2  603.60    7.34   0
   3  -5  -8  179.43    4.06   0
   3  -2  -2    0.46    2.69   0
   3   0   0  123.09    4.16   0
   4  -4  -7    7.61    3.40   0
   4   2   1 1059.09    8.90   0
   4   4   2  543.59    7.41   0
   5  -2  -4   73.14    3.44   0
   5   3   1  344.34    5.47   0
   7   2  -2    4.15    3.03   0
   7   3  -1   78.77    3.63   0
  -7  -2  -9    6.01    2.83   0
  -7   1  -7    3.60    3.02   0
  -6  -1  -6    3.65    3.14   0
  -6   1  -5   40.44    2.99   0
  -5   0  -4    2.27    2.50   0
  -5   2  -3  176.89    4.40   0
  -4  -4  -6    2.50    3.71   0
  -4  -2  -4  278.38    5.40   0
  -3  -2  -3  414.74    7.06   0
  -2   2   0 2238.74   12.63   0
  -1   3   1  588.97    8.20   0
   0  -6  -8   81.01    4.22   0
   0   5   2  464.42    7.95   0
   1  -4  -4  408.33    6.20   0
   3  -1  -1   84.55    3.65   0
   4  -2  -3  131.44    3.71   0
   6  -1  -5   12.66    3.57   0
   6   0  -3   12.91    3.10   0
   6   3   0   16.63    3.30   0
   6   8   2   37.09    3.64   0
   6   9   2   11.56    3.70   0
   6  10   2    3.12    3.77   0
   7   5   0    4.38    3.34   0
   7   7   1   42.23    3.28   0
  -7  -1  -8   16.42    2.77   0
  -6  -4  -9   11.56    3.11   0
  -6   4  -4    4.70    3.09   0
  -6   5  -4    3.56    3.05   0
  -5  -6 -11    2.88    4.08   0
  -5  -3  -6   66.42    4.15   0
  -4   6  -1    2.58    3.08   0
  -3   5   0   97.60    3.73   0
  -3   6   0    6.01    2.88   0
  -3   7   0  241.00    4.69   0
  -2   7   1   17.90    3.24   0
  -1  11   1   35.93    3.13   0
   0  -4  -4 1320.26   12.13   0
   0  10   2   47.06    3.91   0
   1  -6  -9  227.38    4.71   0
   1  -5  -6   93.46    4.32   0
   1  12   2   31.85    3.68   0
   2  -5  -7   96.44    3.76   0
   2  -3  -3  678.30    6.91   0
   2   9   3   64.89    7.58   0
   4  -3  -5    6.30    2.80   0
   4  -1  -2  234.66    4.77   0
   4   1   0   59.02    3.74   0
   5  -2  -5  266.18    4.72   0
   5  -1  -3  122.18    3.75   0
   6   1  -2  109.29    3.62   0
   6   2  -1   44.10    3.70   0
   6   5   1   71.83    3.74   0
   7   8   1    0.47    2.91   0
  -7   0  -7   19.99    3.01   0
  -7   2  -6   26.42    3.45   0
  -6   0  -5  119.51    3.89   0
  -6   3  -4   16.10    3.02   0
  -5  -4  -7   40.64    3.85   0
  -5  -2  -5  147.96    4.20   0
  -4  -1  -3  514.73    6.50   0
  -4   1  -2  124.62    3.74   0
  -4   4  -1   33.63    3.52   0
  -4   5  -1   45.31    3.28   0
  -4   7  -1    1.27    2.84   0
  -4   8  -1   11.79    3.46   0
  -3   1  -1 1541.26    9.88   0
  -3   4   0  274.19    4.65   0
  -3   8   0  184.83    4.06   0
  -2   5   1   28.59    3.07   0
  -2   6   1  613.44    6.46   0
  -2   8   1  500.98    6.06   0
  -1  -6  -8   32.70    4.18   0
   1  -6 -10   22.65    3.06   0
   2  -4  -5    3.63    3.10   0
   2   0   0 3079.58   16.53   0
   3  -4  -6    2.65    2.71   0
   3  -3  -4   17.11    3.05   0
   4   0  -1  237.52    4.45   0
   5   0  -2  452.36    5.40   0
   5   1  -1   14.35    3.30   0
   5   2   0  144.38    3.87   0
   5   6   2    4.02    3.54   0
   7   2  -3   16.09    3.07   0
   7   3  -2   27.19    3.62   0
   7   4  -1    3.98    3.10   0
  -7   1  -6    8.74    3.43   0
  -6   2  -4    2.11    2.85   0
  -5  -1  -4  798.80    7.25   0
  -5   1  -3    7.75    2.72   0
  -5   4  -2   67.16    3.70   0
  -5   5  -2   70.65    3.42   0
  -5   6  -2   21.77    3.02   0
  -5   7  -2    6.07    3.50   0
  -3   9   0   18.64    2.66   0
  -2   9   1   32.48    3.22   0
   0  11   2   21.12    3.64   0
   2  -5  -8    7.71    3.12   0
   2  -2  -2  323.48    5.57   0
   3   2   1  530.15    7.81   0
   3   4   2  748.25   10.09   0
   4  -3  -6   30.19    3.42   0
   5  -2  -6    5.48    2.95   0
   6   0  -4   24.87    3.16   0
   7   6   0    5.63    3.09   0
  -7  -3  -9    6.55    3.02   0
  -7  -2  -8   33.93    3.14   0
  -7  -1  -7    9.37    3.04   0
  -6  -5 -10   31.78    3.69   0
  -6  -3  -7  119.08    4.15   0
  -6  -2  -6   18.42    3.07   0
  -4  -5  -7  412.01    8.84   0
  -4   3  -1 1320.47    8.74   0
  -3  -1  -2  782.50    8.62   0
  -3   3   0  254.07    4.84   0
  -2   4   1  235.69    4.93   0
  -2  10   1   27.56    3.55   0
  -1   7   2   77.04    4.26   0
  -1   8   2   11.56    3.42   0
   0  -6  -9   14.56    3.32   0
   0  -5  -6    5.26    3.49   0
   1  -3  -3    3.07    3.66   0
   2  -1  -1 1247.67    9.97   0
   2  10   3  385.25   10.24   0
   3  -4  -7   72.01    3.49   0
   4  -2  -4   54.32    3.36   0
   4   5   2  320.38    6.34   0
   5  -1  -4   14.94    2.84   0
   5   4   1  432.02    6.09   0
   5   7   2   73.76    4.33   0
   6   1  -3    8.57    3.11   0
   6   4   0   25.24    2.96   0
   6   6   1   16.52    3.32   0
  -7   0  -6   42.39    3.46   0
  -7   3  -5  121.34    3.90   0
  -6  -4  -8  242.87    5.28   0
  -6  -1  -5   38.04    3.35   0
  -6   1  -4   44.46    3.15   0
  -6   4  -3    6.57    3.42   0
  -6   5  -3   19.35    3.00   0
  -5   3  -2   21.32    2.97   0
  -1  -5  -6    2.11    3.94   0
  -1   6   2    4.70    3.37   0
  -1   9   2   69.48    3.88   0
   0   4   2  115.39    5.56   0
   1  -5  -7   12.34    3.26   0
   2  -5  -9   93.23    3.29   0
   3  -2  -3    1.27    2.49   0
   4  -3  -7   10.66    2.85   0
   4   3   1  144.23    4.52   0
   6   0  -5   54.71    3.31   0
   6   2  -2  129.30    3.73   0
   6   3  -1   34.24    3.00   0
   7   3  -3    4.34    3.02   0
   7   4  -2    4.49    3.26   0
   7   5  -1    4.45    2.90   0
   7   7   0   54.17    3.53   0
  -7   2  -5    3.22    2.72   0
  -6   3  -3   10.27    3.32   0
  -5  -5  -8   18.67    3.94   0
  -5   0  -3   52.31    3.17   0
  -5   2  -2   39.89    3.46   0
  -4   0  -2  906.80    7.63   0
  -4   2  -1  152.15    4.04   0
  -2   1   0  299.06    5.93   0
   0  -6 -10  107.86    4.06   0
   2  -4  -6   16.20    3.23   0
   3  -4  -8    7.21    2.56   0
   3  -3  -5  182.40    3.95   0
   4  -3  -8    3.01    3.15   0
   4  -1  -3  603.13    6.12   0
   5  -1  -5    8.57    2.86   0
   5   0  -3   35.36    3.11   0
   5   3   0  164.90    4.03   0
   5   8   2   71.52    4.41   0
   5  11   2    5.06    4.13   0
   6   7   1  144.72    4.31   0
   7   8   0    1.71    2.95   0
  -7  -2  -7    2.93    2.74   0
  -7   1  -5   12.45    3.41   0
  -6   0  -4   -1.93    2.88   0
  -5  -6 -10    3.03    4.66   0
  -4   6   0    9.78    3.35   0
  -4   7   0  294.21    4.99   0
  -2  -3  -3 1178.59   17.91   0
  -1  -6  -9   93.93    4.61   0
  -1   5   2    0.20    3.47   0
  -1  10   2   16.39    2.94   0
   0  -3  -3  774.38   10.70   0
   1  -4  -5    2.70    2.87   0
   1  -2  -2  319.15    6.48   0
   1   8   3   55.58    5.50   0
   1   9   3   10.82    4.64   0
   2  -3  -4  348.04    5.16   0
   2  11   3   25.30    6.21   0
   3  -4  -9   10.12    2.93   0
   3  -1  -2  876.93    7.54   0
   3   1   0  120.94    4.54   0
   4  -2  -5    5.16    2.64   0
   4   2   0  442.89    6.18   0
   5   1  -2  103.31    3.60   0
   5   2  -1   51.64    3.08   0
   5   5   1   80.96    4.29   0
   6   1  -4   51.38    3.32   0
   6   5   0   41.59    3.44   0
   7   6  -1   20.23    3.39   0
  -7  -3  -8    0.49    2.75   0
  -7  -1  -6    8.98    3.10   0
  -6   2  -3  172.00    3.94   0
  -5  -3  -5   11.71    3.63   0
  -5  -2  -4   25.61    3.39   0
  -5   5  -1    3.96    3.23   0
  -5   6  -1  116.50    3.71   0
  -5   7  -1   92.75    4.05   0
  -4   5   0  277.89    4.44   0
  -4   8   0   23.32    3.14   0
  -3   0  -1  208.13    4.92   0
  -3   2   0  221.38    4.51   0
  -3   6   1   55.54    3.55   0
  -3   7   1   10.88    3.27   0
  -3   8   1   53.18    3.44   0
  -2  -2  -2 1756.06   16.67   0
  -2   3   1   89.66    3.88   0
  -1  -3  -3  397.11   14.18   0
  -1   2   1   28.93    3.76   0
  -1  11   2  121.88    4.33   0
   1  -5  -8  114.24    4.01   0
   1  -1  -1  484.04    8.90   0
   1  10   3   59.20    5.34   0
   3   0  -1  250.03    4.82   0
   4   0  -2    3.80    2.81   0
   4   1  -1   16.96    3.23   0
   4   6   2  602.01    8.46   0
   5  -1  -6   46.43    3.21   0
   5   9   2   11.71    3.92   0
   5  10   2   69.50    4.46   0
   6   1  -5  170.32    4.29   0
   6   2  -3  146.30    3.86   0
   6   4  -1   31.43    3.35   0
   6   8   1    1.18    3.25   0
   7   4  -3   51.50    3.24   0
   7   5  -2    5.51    3.08   0
  -7  -4  -9    4.42    2.96   0
  -7   0  -5   21.89    3.25   0
  -7   3  -4   33.97    3.21   0
  -6  -5  -9    3.37    3.18   0
  -6  -3  -6   20.56    3.50   0
  -6   5  -2   -0.98    3.42   0
  -5  -4  -6  193.85    5.33   0
  -5   1  -2   50.55    3.29   0
  -5   4  -1   67.11    3.32   0
  -4  -3  -4   58.02    4.10   0
  -4  -2  -3   51.79    4.03   0
  -4   1  -1  564.27    6.29   0
  -4   4   0    1.68    2.78   0
  -3   5   1    6.33    3.03   0
  -3   9   1   18.95    3.10   0
  -2  -6  -9   63.17    5.30   0
   0  -5  -7   15.27    3.82   0
   1   7   3    2.25    4.49   0
   2  -4  -7   54.85    3.31   0
   2   2   1  103.54    5.97   0
   2   4   2 1718.42   21.64   0
   3  -3  -6  581.72    5.85   0
   3  -2  -4  174.91    4.27   0
   4  -2  -6   27.86    3.02   0
   5  -1  -7   15.40    3.33   0
   5   0  -4  107.60    3.53   0
   6   3  -2   98.44    3.45   0
   6   9   1   45.20    3.66   0
   6  10   1   11.39    3.66   0
   7   7  -1   14.04    3.14   0
  -7   2  -4   49.48    3.29   0
  -6  -2  -5   18.70    2.76   0
  -6   1  -3   97.72    3.59   0
  -6   4  -2   28.54    3.20   0
  -5  -1  -3  175.11    4.17   0
  -5   3  -1   85.21    3.75   0
  -2   7   2   40.34    3.44   0
  -2   8   2  165.12    4.28   0
  -1  -6 -10    0.23    3.56   0
   1  -5  -9    5.23    2.73   0
   2  -2  -3  467.59    6.31   0
   4  -2  -7    1.05    3.20   0
   4  -1  -4   15.93    2.79   0
   4   4   1   21.38    3.76   0
   5   1  -3   43.16    3.60   0
   5   4   0  259.04    4.86   0
   6   2  -4   12.02    3.53   0
   6   6   0  185.38    4.66   0
   7   5  -3    6.90    3.47   0
   7   6  -2    4.85    3.34   0
  -7   1  -4   60.80    3.74   0
  -6  -4  -7   69.69    3.81   0
  -6  -1  -4   34.45    2.92   0
  -6   3  -2    8.11    3.13   0
  -4  -4  -5   38.20    4.18   0
  -4  -1  -2  118.95    4.69   0
  -4   3   0   50.93    3.28   0
  -3   4   1   10.10    2.57   0
  -2   6   2  455.25    5.97   0
  -2   9   2   13.13    3.14   0
  -1   4   2  421.52    6.73   0
   0   8   3   59.87    4.34   0
   0   9   3  130.75    4.87   0
   1  -5 -10    3.61    3.17   0
   1  11   3    9.11    3.94   0
   2  -4  -8   13.57    3.07   0
   2  -3  -5   91.09    3.77   0
   3  -3  -7    0.43    2.69   0
   3   5   2  392.48    8.25   0
   4  -2  -8   49.68    3.59   0
   5   0  -5   24.94    3.11   0
   5   2  -2  289.39    5.07   0
   5   6   1   29.01    3.36   0
   6   3  -3   11.55    3.36   0
   6   5  -1   57.51    3.82   0
  -7  -3  -7    5.21    2.91   0
  -7  -2  -6    7.73    2.68   0
  -7  -1  -5    4.07    3.13   0
  -6   0  -3   31.69    3.33   0
  -5   0  -2  435.17    5.66   0
  -5   2  -1  104.75    3.99   0
  -3   1   0   58.69    3.86   0
  -2  10   2    2.83    3.01   0
  -1  -6 -11    3.54    3.12   0
   0  -4  -5  560.99    7.80   0
   0   7   3  487.39    7.60   0
   0  10   3   22.65    3.88   0
   1  -4  -6  415.21    5.94   0
   1  -3  -4    8.57    3.54   0
   2  -4  -9    2.69    2.90   0
   3  -3  -8   74.80    3.52   0
   3  -1  -3 1376.41    8.96   0
   3   3   1   13.42    4.02   0
   4  -1  -5   44.45    3.64   0
   4   0  -3  290.70    4.93   0
   4   7   2  759.04    9.61   0
   5   0  -6  113.63    4.27   0
   5   3  -1   49.72    3.06   0
   6   2  -5   21.20    3.14   0
   6   4  -2   65.00    3.39   0
   6   7   0   17.96    3.25   0
  -7  -4  -8   64.96    3.61   0
  -7   3  -3   10.91    3.07   0
  -6   2  -2  497.65    5.58   0
  -5   6   0   10.57    3.66   0
  -5   7   0   42.12    3.76   0
  -4   7   1  182.64    4.56   0
  -3   3   1  166.03    4.23   0
  -2   2   1   68.26    3.79   0
  -2   5   2    1.14    3.10   0
   0  -5  -8   72.29    3.65   0
   0  -2  -2 1729.42   18.14   0
   2  -4 -10   55.17    3.27   0
   2  -1  -2  330.15    5.79   0
   3  -3  -9   81.44    3.61   0
   3  -2  -5    3.76    2.73   0
   4   3   0    3.64    3.13   0
   5   0  -7   63.17    3.77   0
   5   1  -4   49.87    3.21   0
  -7   0  -4   -2.95    2.93   0
  -7   2  -3    6.20    3.14   0
  -6  -5  -8   19.99    3.64   0
  -6   5  -1    6.68    3.01   0
  -5  -5  -7  188.49    5.84   0
  -5   5   0   18.81    3.00   0
  -4   0  -1  136.89    3.95   0
  -4   2   0   21.29    3.07   0
  -4   6   1   23.05    3.03   0
  -4   8   1    4.52    2.95   0
  -3  -2  -2  210.21    5.99   0
   0  11   3    8.57    3.71   0
   2   1   0 1793.15   13.90   0
   4  -1  -6  144.89    4.00   0
   4   1  -2  118.16    3.75   0
   4   2  -1   11.40    3.19   0
   5   5   0   78.99    3.78   0
   5   7   1  114.79    4.28   0
   6   3  -4   36.32    3.23   0
   6   6  -1  168.18    4.41   0
   6   8   0    5.94    3.04   0
  -6  -3  -5   62.85    3.50   0
  -6  -2  -4  134.01    4.08   0
  -6   1  -2   36.11    3.20   0
  -6   4  -1   85.27    3.58   0
  -5  -6  -9   22.38    5.03   0
  -5   1  -1  114.87    4.12   0
  -5   4   0    2.14    2.85   0
  -4   5   1  297.88    4.46   0
  -3  -3  -3   56.95    4.44   0
  -3   7   2   37.46    3.56   0
  -3   8   2   26.68    3.14   0
  -2  -6 -10    3.19    3.77   0
  -2   4   2   90.69    3.80   0
  -1  -5  -7  383.08    7.29   0
  -1   8   3   45.33    3.65   0
  -1   9   3   28.69    3.46   0
   0   6   3    0.92    3.85   0
   1  -4  -7  961.88    7.81   0
   1   6   3    4.17    5.04   0
   2  -3  -6    6.12    3.02   0
   2   0  -1  123.18    4.38   0
   3  -2  -6    1.03    3.00   0
   3   0  -2  167.82    4.13   0
   3   2   0  850.96    8.76   0
   4   0  -4    1.84    3.44   0
   5   1  -5   63.64    3.51   0
   5   2  -3   50.46    3.32   0
   6   3  -5   72.83    3.91   0
   6   4  -3   53.29    3.26   0
   6   5  -2   34.90    3.54   0
   6   9   0   42.14    3.70   0
  -7  -5  -9    0.62    3.20   0
  -7  -3  -6   37.28    3.16   0
  -7  -2  -5  211.43    4.45   0
  -7   1  -3   16.25    3.05   0
  -6  -6 -10   15.83    3.89   0
  -6  -4  -6    1.72    3.14   0
  -6  -1  -3  291.68    4.92   0
  -6   3  -1    5.43    3.08   0
  -5  -3  -4  116.09    4.26   0
  -5  -2  -3  185.33    4.15   0
  -5   3   0   13.34    3.29   0
  -4   4   1    2.45    2.86   0
  -3  -1  -1  397.14    6.57   0
  -3   6   2  490.84    5.97   0
  -3   9   2    4.36    2.95   0
  -2   0   0 2755.13   15.91   0
  -1   7   3 1025.94    9.05   0
  -1  10   3    2.81    3.12   0
   0  -5  -9    3.62    3.02   0
   2  -2  -4 1303.52    8.91   0
   3  -1  -4   33.74    3.17   0
   3   1  -1  654.73    6.99   0
   4  -1  -8    1.85    3.09   0
   4  -1  -7   61.35    3.18   0
   4   5   1   43.88    3.62   0
   4   8   2    1.73    3.88   0
   5   3  -2   18.99    2.99   0
   5   4  -1   30.75    2.95   0
   5   8   1   93.88    4.25   0
   6   7  -1   41.87    3.30   0
  -7  -4  -7   12.29    3.19   0
  -7  -1  -4   11.19    2.86   0
  -7   3  -2   21.64    3.10   0
  -5  -4  -5   90.43    4.34   0
  -5  -1  -2   31.12    2.87   0
  -4  -5  -6  194.82    7.13   0
  -4   1   0   80.86    3.74   0
  -3   2   1   32.09    3.41   0
  -3   5   2    5.54    3.14   0
  -2  -6 -11   12.51    3.38   0
  -1   3   2  167.57    5.44   0
   0  -5 -11   66.98    3.32   0
   0  -5 -10    7.32    2.99   0
   0   3   2   21.42    4.54   0
   1  -4  -8   16.34    3.47   0
   2  -3  -7   18.85    3.07   0
   3  -2  -7   73.37    3.16   0
   4  11   2    4.55    4.50   0
   5   1  -7    3.72    3.39   0
   5   1  -6  107.85    3.68   0
   5   2  -4   51.66    3.66   0
   6   4  -4   23.39    3.06   0
  -8  -2  -6    6.97    2.95   0
  -8  -1  -5    0.21    3.16   0
  -7   0  -3    6.82    3.22   0
  -7   2  -2   18.54    3.51   0
  -6   0  -2  181.61    3.83   0
  -6   2  -1   18.32    2.90   0
  -4   3   1   51.04    3.42   0
  -1   6   3   92.78    4.02   0
   1  -3  -5  325.86    5.33   0
   1  -2  -3 3781.25   17.37   0
   3  -2  -9    5.28    3.27   0
   3  -2  -8    2.65    2.72   0
   4   0  -5  187.27    3.88   0
   4   1  -3  360.55    5.16   0
   4   9   2   54.99    5.04   0
   5   6   0   84.92    3.64   0
   5   9   1  173.10    4.89   0
   5  11   1   34.11    4.00   0
   6   4  -5  160.73    4.35   0
   6   5  -3   37.46    3.12   0
   6   6  -2   61.40    3.09   0
   6   8  -1   17.58    3.13   0
  -6   5   0    6.78    2.98   0
  -5   0  -1   43.03    2.99   0
  -5   2   0   33.01    3.07   0
  -5   5   1  185.78    4.38   0
  -5   6   1   15.93    3.07   0
  -5   7   1   11.63    2.88   0
  -4  -3  -3  345.63    6.25   0
  -3   0   0  128.99    4.17   0
  -3   4   2  108.91    3.69   0
  -2   7   3    6.45    3.51   0
  -2   8   3   66.59    3.40   0
  -2   9   3   76.38    3.64   0
  -1  -4  -5    0.79    4.38   0
   0  -4  -6  145.75    4.57   0
   1  -4 -11  139.39    3.66   0
   1  -4 -10  136.76    3.82   0
   1  -4  -9   75.53    3.36   0
   2  -3  -9   91.53    3.37   0
   2  -3  -8    2.22    2.66   0
   3  -1  -5  295.06    4.76   0
   3   6   2   70.09    5.17   0
   4   0  -6  276.22    4.77   0
   4   2  -2  225.15    4.41   0
   4   4   0  265.62    5.10   0
   4  10   2   41.55    4.58   0
   5   2  -5  174.64    4.01   0
   5   3  -3    7.58    2.93   0
   5   5  -1   37.08    3.47   0
   5  10   1   13.99    3.51   0
  -7   1  -2   37.44    3.46   0
  -6  -5  -7    0.47    3.54   0
  -6   1  -1   -0.25    3.35   0
  -6   4   0  115.06    3.75   0
  -4  -1  -1  921.81    7.80   0
  -4   6   2    4.10    3.31   0
  -4   7   2   25.58    3.00   0
  -4   8   2   38.57    3.43   0
  -3  -6 -10   31.60    4.74   0
  -3  -4  -4  184.62    7.04   0
  -2   1   1 1243.63    9.83   0
  -2   3   2  204.14    4.65   0
  -2  10   3   18.33    2.91   0
  -1  -5  -8  692.43    8.12   0
  -1   1   1  420.98    8.52   0
   2  -3 -10   30.23    2.71   0
   2  -2  -5   14.84    2.88   0
   2  -1  -3   60.64    4.09   0
   3   0  -3  272.84    4.66   0
   3   4   1  616.82    8.30   0
   4   0  -7    2.94    3.20   0
   4   3  -1   38.49    2.90   0
   4   6   1    2.11    3.64   0
   5   2  -6   72.67    3.91   0
   5   4  -2    6.13    2.82   0
   6   5  -4   22.13    3.02   0
   6   6  -3    4.53    3.31   0
   6   7  -2   15.92    3.23   0
   6   9  -1    9.07    3.05   0
  -7  -5  -8    4.59    2.85   0
  -7  -3  -5    5.04    3.01   0
  -7  -2  -4   75.32    3.27   0
  -7  -1  -3  109.54    3.85   0
  -7   3  -1    6.22    3.49   0
  -6  -3  -4    4.32    3.26   0
  -6  -2  -3   32.82    3.26   0
  -6   3   0    3.02    3.39   0
  -5   4   1    1.06    2.75   0
  -4   2   1   93.02    3.92   0
  -4   5   2    1.72    3.16   0
  -2   6   3    1.66    3.16   0
  -1   5   3  293.02    5.77   0
   0  -3  -4  637.15    8.53   0
   0   5   3  195.43    6.01   0
   3  -1  -6   25.09    3.30   0
   4   0  -8   46.39    3.08   0
   4   1  -4  246.81    4.45   0
   5   2  -7   70.49    3.32   0
   5   3  -4  222.38    4.57   0
   5   7   0    0.96    2.93   0
   6   5  -5   16.53    3.21   0
  -8  -3  -6    7.93    2.78   0
  -8  -2  -5   16.01    2.63   0
  -8  -1  -4    6.73    3.28   0
  -7  -4  -6    0.18    2.75   0
  -6  -6  -9    1.93    3.41   0
  -6  -4  -5   31.35    3.45   0
  -6  -1  -2   49.88    3.25   0
  -5  -5  -6  349.91    6.54   0
  -5   1   0    1.38    2.93   0
  -4  -4  -4  386.56    6.95   0
  -4   0   0  452.27    5.85   0
  -3   1   1   80.93    3.85   0
  -3   3   2  978.28    7.49   0
  -3   8   3   13.07    3.34   0
  -2  -5  -7   70.35    5.89   0
  -1  -5  -9   37.57    3.96   0
   1  -3  -6   12.96    3.12   0
   3   1  -2  137.99    3.95   0
   6   6  -4   92.20    3.67   0
   6   7  -3   21.31    3.50   0
   6   8  -2   74.54    3.26   0
  -7   0  -2   38.51    3.10   0
  -7   2  -1    2.53    2.86   0
  -6   2   0   22.44    3.41   0
  -5  -3  -3   96.54    3.94   0
  -5  -2  -2  197.02    4.03   0
  -5   3   1   28.33    3.10   0
  -4   4   2    7.84    3.22   0
  -3  -6 -11   32.00    4.11   0
  -3   7   3   14.10    3.14   0
  -3   9   3   18.19    3.06   0
  -2   5   3    2.79    3.04   0
   0  -4  -7    1.99    3.54   0
   1  -1  -2 1500.40   12.17   0
   2  -2  -6   33.25    2.74   0
   3  -1 -10   53.60    3.42   0
   3  -1  -8  120.81    3.85   0
   3  -1  -7  217.07    3.93   0
   3   0  -4    3.20    3.14   0
   3   2  -1  375.29    5.98   0
   3   3   0 1916.82   12.70   0
   4   1  -5   49.35    3.15   0
   4   2  -3  277.88    4.56   0
   5   3  -5  742.66    6.27   0
   5   4  -3   28.53    2.94   0
   5   5  -2   88.16    3.75   0
   5   6  -1  139.86    4.10   0
   5   8   0   99.90    3.81   0
  -6   0  -1   23.33    2.93   0
  -6   5   1   -1.25    3.30   0
  -5  -6  -8   67.79    5.71   0
  -5  -1  -1   14.47    2.78   0
  -3   6   3  877.52    7.25   0
  -1  -5 -11  116.13    3.77   0
  -1  -5 -10   58.61    3.56   0
   2  -2  -7  278.66    4.60   0
   2   0  -2    2.23    2.92   0
   2   3   1 1879.02   16.49   0
   3  -1  -9   80.07    3.31   0
   4   1  -6   65.23    3.20   0
   4   3  -2  103.11    3.54   0
   4   5   0   91.56    3.84   0
   4   7   1   62.91    4.13   0
   5   3  -7  112.04    4.02   0
   5   3  -6    9.35    3.04   0
   5   9   0  261.85    5.09   0
   6   7  -4   -1.00    2.85   0
   6   8  -3    6.75    3.08   0
  -7  -5  -7   46.71    3.29   0
  -7  -3  -4   31.42    3.17   0
  -7  -2  -3    4.10    3.11   0
  -7   1  -1   -0.98    2.97   0
  -6   4   1    1.05    3.42   0
  -5  -4  -4    0.18    3.07   0
  -5   2   1  508.14    5.48   0
  -5   5   2  517.81    5.84   0
  -5   6   2    1.69    2.96   0
  -4   1   1   47.93    3.15   0
  -4   3   2   55.75    3.52   0
  -3   5   3  632.20    6.33   0
  -2   2   2  333.05    5.82   0
   0  -4  -8   10.48    3.19   0
   0   9   4  103.96    4.78   0
   1  -3  -7    0.29    3.05   0
   1  -2  -4 2546.54   13.38   0
   2  -2  -8  113.20    3.67   0
   2  -1  -4  843.31    7.33   0
   4   1  -9    4.05    3.19   0
   4   1  -8   44.17    3.39   0
   4   1  -7   55.00    3.14   0
   4   4  -1  175.19    4.17   0
   5   4  -4   23.51    2.80   0
   5   7  -1   16.58    3.24   0
   5  10   0   20.20    3.38   0
  -8  -3  -5   35.81    3.06   0
  -8  -2  -4   88.64    3.43   0
  -8  -1  -3   46.12    3.37   0
  -7  -1  -2   17.83    3.18   0
  -6  -5  -6    5.82    3.04   0
  -6  -3  -3 2267.98   11.22   0
  -6  -2  -2  221.67    4.96   0
  -6   1   0   18.61    2.82   0
  -5   0   0   20.43    2.97   0
  -4   7   3   74.38    3.61   0
  -3   2   2    1.87    3.04   0
  -2   4   3  114.30    3.77   0
  -1   2   2  236.98    6.19   0
  -1   4   3 1529.01   11.16   0
  -1   8   4   36.33    3.47   0
  -1   9   4    8.55    3.12   0
  -1  10   4   21.54    3.47   0
   0  -4 -11   13.13    3.00   0
   0  -4  -9    9.12    2.97   0
   0   8   4    6.08    3.87   0
   0  10   4  100.67    4.29   0
   1  -3 -11    8.52    2.78   0
   1  -3  -8   95.13    3.48   0
   2  -2 -10   29.75    2.69   0
   2  -2  -9   -1.12    2.47   0
   3   0  -5  100.91    3.34   0
   3   7   2   57.49    5.13   0
   4   2  -4   50.06    3.21   0
   5   4  -5   43.65    3.46   0
   5   5  -3    5.06    2.61   0
   5   6  -2   32.17    3.21   0
  -8  -4  -6   15.05    2.68   0
  -7  -4  -5   17.33    2.82   0
  -6  -6  -8  107.01    4.60   0
  -6  -1  -1   85.70    3.57   0
  -6   3   1   11.32    2.91   0
  -5   4   2  264.22    4.35   0
  -4   6   3   29.72    3.43   0
  -3  -2  -1  536.24    7.31   0
  -3  -1   0  127.35    4.50   0
   0  -4 -10  113.59    3.50   0
   0  11   4   23.33    3.67   0
   1  -3 -10    9.66    2.77   0
   1  -3  -9    1.81    2.86   0
   1   2   1  279.73   12.32   0
   2   1  -1 1830.48   12.28   0
   2   2   0  658.37    8.94   0
   3   0  -6   84.57    3.76   0
   3   1  -3  796.43    6.96   0
   4   2  -5   80.93    3.58   0
   4   8   1   39.80    3.78   0
   5   4  -7   45.27    3.68   0
   5   4  -6   42.28    3.44   0
   5   8  -1  167.02    4.40   0
  -7   0  -1    2.01    2.71   0
  -7   2   0    6.64    2.79   0
  -6  -4  -4   39.30    3.20   0
  -5   1   1    3.88    2.75   0
  -4  -3  -2    9.79    3.73   0
  -4  -2  -1  978.37    8.09   0
  -4  -1   0   58.27    3.51   0
  -4   5   3    3.67    3.15   0
  -3   4   3  114.12    3.40   0
  -2   7   4   39.79    3.63   0
  -2   8   4   93.08    3.56   0
  -2   9   4   12.87    2.92   0
  -1   7   4 1046.87    8.93   0
   0  -3  -5 1751.73   12.00   0
   1   0  -1  443.46    8.53   0
   1  10   4   22.29    4.69   0
   2  -1  -5    9.38    2.82   0
   3   0 -10    3.59    3.11   0
   3   0  -7  249.65    4.36   0
   3   5   1   27.70    3.85   0
   4   2  -6  194.08    4.13   0
   4   3  -3  247.09    4.19   0
   4   6   0  359.51    5.95   0
   5   5  -4    6.34    2.73   0
  -7  -5  -6   17.35    2.98   0
  -6   0   0   16.16    2.76   0
  -6   2   1   21.80    2.97   0
  -5  -5  -5   78.84    4.45   0
  -5  -2  -1   36.85    3.03   0
  -5   3   2   56.37    3.12   0
  -4   2   2  190.48    4.24   0
  -3  -3  -2   24.09    3.90   0
  -3   0   1  250.53    4.63   0
  -2  -1   0 1800.98   13.15   0
  -1  -4  -6  279.75    6.24   0
   0   4   3  259.47    6.67   0
   0   7   4    3.69    3.78   0
   1   5   3  557.71   13.99   0
   1   9   4   39.23    5.45   0
   1  11   4    1.72    4.51   0
   3   0  -9   21.85    2.83   0
   3   0  -8   20.94    2.71   0
   3   2  -2   39.79    3.53   0
   4   2  -8   34.83    3.06   0
   4   2  -7    4.30    2.84   0
   4   4  -2   74.02    3.46   0
   4   5  -1  877.09    7.65   0
   4   9   1    7.01    3.80   0
   5   5  -5  275.01    4.46   0
   5   6  -3    4.98    2.76   0
   5   7  -2   13.94    3.20   0
   5   9  -1   11.14    2.87   0
  -8  -3  -4   16.65    3.12   0
  -8  -2  -3   30.78    2.98   0
  -7  -6  -8   28.29    3.45   0
  -7  -3  -3   62.79    3.40   0
  -7  -2  -2    6.54    3.08   0
  -7   1   0  175.66    3.95   0
  -6   4   2    0.30    3.25   0
  -5  -3  -2  144.02    4.15   0
  -5  -1   0   79.13    3.58   0
  -5   6   3   39.08    3.43   0
  -4  -5  -5    1.64    4.24   0
  -4   0   1  212.90    4.12   0
  -4   4   3  470.10    5.14   0
  -3   7   4   46.67    3.17   0
  -3   8   4   84.43    3.49   0
  -2  -5  -8    3.38    3.91   0
  -2  -2  -1  104.34    5.64   0
  -2   0   1  121.61    4.24   0
  -2   3   3  661.59    6.80   0
  -2   6   4    2.00    2.97   0
  -1   6   4 1059.00    9.43   0
   1  -2  -5    0.74    2.87   0
   2  -1  -6  460.12    5.20   0
   2   0  -3  295.14    5.10   0
   2   5   2  171.10    8.09   0
   3   1  -4   50.25    3.02   0
   4   3  -4   99.48    3.37   0
   5   5  -6  235.26    4.14   0
   5   6  -4   73.38    3.55   0
   5  10  -1    3.83    3.17   0
  -8  -4  -5    4.69    2.78   0
  -8  -1  -2    7.80    2.84   0
  -7  -4  -4   31.22    2.94   0
  -7  -1  -1    3.61    2.69   0
  -6  -5  -5   73.01    3.61   0
  -6   1   1   60.99    3.49   0
  -5   2   2   47.08    3.09   0
  -5   5   3   76.60    3.69   0
  -3   3   3  182.88    3.84   0
  -3   6   4   33.86    3.33   0
  -2  -5 -12    3.67    2.97   0
   0  -2  -3  211.28    6.04   0
   1   8   4 1111.59   14.07   0
   2  -1 -10  259.52    4.35   0
   2  -1  -7  347.28    4.96   0
   3   3  -1  496.76    6.15   0
   3   4   0  161.93    4.67   0
   4   3  -5   23.40    3.30   0
   4  10   1   25.53    3.78   0
   4  11   1   13.67    3.57   0
   5   6  -5    1.17    3.13   0
   5   7  -3    3.65    2.98   0
   5   8  -2   41.70    3.07   0
  -7   2   1   21.13    3.50   0
  -6  -6  -7   78.50    4.53   0
  -6  -3  -2  396.92    5.41   0
  -6  -2  -1   29.22    3.24   0
  -6   3   2  171.05    3.98   0
  -5  -6  -7   15.46    4.86   0
  -5  -4  -3    3.60    3.06   0
  -5   0   1  262.40    4.39   0
  -4  -6 -10    1.82    4.35   0
  -4  -4  -3    0.26    3.46   0
  -4   1   2  223.72    4.51   0
  -4   3   3  136.32    4.05   0
  -3   1   2  823.51    6.98   0
  -2  -5 -11   77.42    3.62   0
  -2  -5  -9    5.97    3.67   0
  -2   5   4 1020.43    8.00   0
  -1   3   3    3.33    4.06   0
   1  -2  -6  656.12    6.42   0
   1  -1  -3  932.74    8.88   0
   2  -1  -9   89.18    3.11   0
   2  -1  -8    4.18    2.50   0
   3   1 -10    8.93    2.81   0
   3   1  -5  194.90    4.06   0
   3   8   2   85.32    5.28   0
   4   3  -8  230.57    4.49   0
   4   3  -6  383.87    5.06   0
   4   4  -3   78.88    3.59   0
   4   7   0    8.12    3.10   0
   5   6  -6    9.90    2.80   0
   5   9  -2    6.90    2.87   0
  -8  -5  -6   10.37    2.74   0
  -7   0   0    2.37    2.81   0
  -6  -1   0   47.51    3.19   0
  -5   4   3   28.93    3.07   0
  -4  -6 -11    2.90    3.82   0
  -4   6   4   77.34    3.53   0
  -4   7   4   17.07    2.71   0
  -3   5   4   38.81    3.32   0
  -2  -5 -10    6.55    3.31   0
  -2   1   2  324.00    5.26   0
  -1  -4 -12    9.87    2.45   0
  -1  -4  -7   22.06    3.57   0
  -1   5   4  202.11    4.97   0
   0  -3  -6   17.02    3.08   0
   0   6   4    4.34    3.60   0
   1  -2 -11   59.59    2.93   0
   1  -2 -10  128.80    3.61   0
   3   1  -9    5.83    2.63   0
   3   1  -8  110.31    3.66   0
   3   1  -7  135.50    3.96   0
   3   1  -6  141.48    3.61   0
   3   2  -3   38.12    3.06   0
   4   3  -7  137.66    3.63   0
   4   5  -2  477.26    5.67   0
   4   6  -1   39.32    3.38   0
   5   7  -5    2.91    3.46   0
   5   7  -4   41.41    2.95   0
   5   8  -3    0.76    2.79   0
   5  10  -2    7.34    2.83   0
  -8  -3  -3   75.10    3.35   0
  -8  -2  -2   15.51    3.20   0
  -7  -5  -5    6.51    2.81   0
  -6  -4  -3   -0.49    2.90   0
  -6   0   1   88.46    3.59   0
  -6   2   2   47.35    3.09   0
  -5   1   2   16.66    3.16   0
  -1  -4 -11    8.23    2.91   0
   0  -3 -11   30.45    2.89   0
   1  -2  -9  124.69    3.68   0
   1  -2  -8  342.99    4.80   0
   1  -2  -7   60.97    3.01   0
   2   0  -4  815.47    7.01   0
   2   1  -2    7.31    3.30   0
   2   8   3  562.86   13.41   0
   3  12   2   11.60    4.03   0
   4   4  -4   94.81    3.44   0
   4   8   0   76.81    3.74   0
   5   8  -4  231.58    4.39   0
   5   9  -3   -0.75    2.80   0
  -8  -4  -4  473.17    5.52   0
  -8  -1  -1    5.06    2.60   0
  -7  -6  -7   97.05    3.81   0
  -7  -3  -2   15.24    3.02   0
  -7  -2  -1   24.15    2.66   0
  -7   1   1    8.58    2.78   0
  -5   3   3  328.30    4.42   0
  -4   5   4   42.93    2.94   0
  -3   2   3    5.49    2.49   0
  -1  -4 -10    1.81    2.73   0
  -1  -4  -8    1.25    3.19   0
   0  -3 -10    2.08    2.58   0
   0  -3  -7   30.57    3.10   0
   2   0 -11   16.82    2.66   0
   3   2  -4   14.40    3.13   0
   3   6   1  173.57    5.04   0
   3   9   2    1.48    4.38   0
   4   4  -8    7.86    2.79   0
   4   4  -5   37.44    2.91   0
  -7  -4  -3   36.14    3.11   0
  -7  -1   0   85.74    3.12   0
  -6   4   3   44.24    3.03   0
  -5  -2   0  136.56    3.57   0
  -4  -2   0  444.67    5.34   0
  -4  -1   1   18.33    2.64   0
  -4   2   3  135.40    3.50   0
  -3   4   4  632.83    5.93   0
  -2   2   3  476.53    6.02   0
  -2   4   4  185.56    4.14   0
  -2   8   5   35.89    3.25   0
  -2   9   5   10.99    2.71   0
  -1  -4  -9   64.51    3.37   0
  -1   9   5  124.58    4.31   0
  -1  10   5    9.55    3.26   0
   0  -3  -9  130.96    3.60   0
   0  -3  -8  443.05    5.44   0
   0   2   2 1662.40   17.48   0
   2   0 -10    4.94    2.60   0
   2   0  -5  517.64    5.28   0
   3   2 -10   20.86    2.75   0
   3   3  -2  119.74    3.59   0
   4   4  -7   46.57    3.02   0
   4   4  -6   67.67    3.09   0
   4   5  -3  305.22    4.59   0
   4   7  -1   -1.22    3.16   0
   4   9   0   50.67    3.57   0
  -8  -5  -5    6.58    2.52   0
  -7   0   1    0.40    3.12   0
  -6  -5  -4    3.96    2.86   0
  -6   1   2   29.12    2.97   0
  -6   3   3  332.19    4.86   0
  -5  -5  -4    2.64    3.20   0
  -5  -3  -1  308.80    4.58   0
  -5  -1   1   18.40    2.79   0
  -5   2   3   19.98    2.65   0
  -5   5   4    9.89    2.76   0
  -4  -3  -1  147.86    4.14   0
  -4   0   2    3.93    3.10   0
  -4   4   4  723.76    6.17   0
  -3  -4  -3    7.85    3.94   0
  -3  -1   1  682.42    6.65   0
  -3   8   5   67.40    3.19   0
  -2   7   5  117.01    3.69   0
  -1   0   1  391.67    8.51   0
  -1   8   5   70.81    3.76   0
   1  -1  -4  930.38    8.18   0
   2   0  -9   85.26    3.06   0
   2   0  -8  103.27    3.33   0
   2   0  -7  101.88    3.62   0
   2   0  -6  206.42    3.75   0
   3   2  -9   58.11    3.11   0
   3   2  -8  236.52    4.19   0
   3   2  -5  762.31    6.29   0
   3   4  -1  291.50    5.21   0
   3   5   0    3.74    3.28   0
   3  10   2   18.64    4.31   0
   3  11   2   50.01    4.28   0
   4   5  -4    3.91    2.92   0
   4   6  -2  166.85    3.65   0
   4  10   0  101.90    3.76   0
   4  11   0   24.24    3.41   0
  -8  -3  -2   10.24    3.00   0
  -8  -2  -1   10.08    2.98   0
  -7  -5  -4    1.68    2.73   0
  -6  -6  -6    1.99    3.51   0
  -6  -3  -1  104.04    3.26   0
  -6  -2   0   19.21    2.74   0
  -6  -1   1    0.06    3.07   0
  -5   0   2  437.17    5.00   0
  -5   4   4  106.28    3.70   0
  -3  -2   0  832.85    7.91   0
  -3   0   2  167.55    3.93   0
  -3   7   5    2.23    2.71   0
  -1   1   2 1245.73   11.71   0
  -1   4   4  354.74    5.93   0
  -1   7   5   14.13    3.05   0
   1  -1 -11    3.51    2.85   0
   1   7   4  165.25    7.67   0
   2   2  -1    0.41    2.91   0
   3   2  -7    3.59    2.74   0
   3   2  -6 1424.95    7.92   0
   4   5  -8   43.83    2.99   0
   4   5  -7   12.91    2.69   0
   4   5  -6  326.70    4.63   0
   4   5  -5  314.36    4.34   0
  -8  -4  -3  144.80    3.69   0
  -7  -6  -6   28.54    2.96   0
  -7   1   2   11.11    3.24   0
  -6  -4  -2   27.46    2.99   0
  -6   2   3   13.50    3.20   0
  -5  -4  -2   15.07    3.18   0
  -4   1   3  623.68    5.97   0
  -4   3   4    4.68    3.00   0
  -3  -5 -12    6.39    2.95   0
  -3   3   4   16.41    2.60   0
  -3   6   5   18.42    2.89   0
  -2  -3  -2   22.36    4.96   0
  -2   6   5   28.45    2.97   0
  -1  -3  -4 3118.18   21.75   0
   0  -2 -12   18.10    2.71   0
   0   5   4  168.62    5.38   0
   0   9   5  107.98    4.92   0
   0  10   5    5.17    3.52   0
   1  -1 -10   27.82    2.89   0
   2   1  -3 1140.11    8.14   0
   2   4   1  678.81    9.78   0
   3   3  -3    6.98    2.59   0
   4   6  -3   59.76    3.16   0
   4   7  -2   73.00    3.39   0
   4   8  -1  133.60    3.75   0
  -7  -4  -2  113.84    3.58   0
  -7  -3  -1   19.45    2.64   0
  -7  -2   0    4.69    2.71   0
  -7  -1   1  117.38    3.58   0
  -6   0   2  217.38    4.09   0
  -5  -6  -6    3.69    4.42   0
  -5   1   3   97.43    3.71   0
  -5   3   4   36.44    3.17   0
  -4   6   5   16.43    3.02   0
  -3   1   3 1263.02    7.96   0
  -2   3   4  375.39    5.01   0
   0  -2  -4  155.52    4.86   0
   1  -1  -9   29.81    2.94   0
   1  -1  -5   24.15    2.88   0
   1   0  -2 1638.38   12.24   0
   2   1 -10   70.48    3.01   0
   2   3   0    3.71    3.45   0
   3   3  -9   36.33    2.88   0
   3   3  -4   30.53    3.14   0
   3   7   1  161.18    4.89   0
   4   6  -7   29.93    2.76   0
   4   6  -4   70.30    2.93   0
   4   9  -1  750.27    6.74   0
  -8  -5  -4    6.42    2.53   0
  -4  -5  -4   27.76    3.94   0
  -4  -4  -2  535.75    6.64   0
  -4   5   5   29.30    3.26   0
  -3  -3  -1   15.39    3.58   0
  -3   5   5  150.64    3.64   0
  -2  -4 -12   21.55    2.72   0
  -2   0   2    1.46    3.24   0
  -2   5   5 1052.19    7.80   0
  -1  -3 -12   57.36    2.86   0
  -1  -1   0  634.45   11.26   0
  -1   2   3 3160.43   16.16   0
  -1   6   5   25.62    3.69   0
   0  -2 -11  334.28    4.44   0
   0   8   5   56.73    4.32   0
   1  -1  -8  469.59    5.18   0
   1  -1  -7   78.56    3.39   0
   1  -1  -6  173.05    3.77   0
   2   1  -9   95.98    3.37   0
   2   1  -4  570.64    5.88   0
   3   3  -8   73.47    3.07   0
   3   3  -7  141.09    3.77   0
   3   3  -5   54.38    3.50   0
   3   4  -2   76.41    3.40   0
   4   6  -6   33.93    2.82   0
   4   6  -5    1.58    2.56   0
   4   7  -3  172.84    3.90   0
   4   8  -2   35.47    3.14   0
   4  10  -1  452.50    5.53   0
   4  11  -1  114.94    3.62   0
  -8  -3  -1   11.42    3.01   0
  -7   0   2   33.92    2.83   0
  -6  -5  -3  100.81    3.61   0
  -6   1   3   31.77    2.94   0
  -6   3   4   24.75    3.21   0
  -5  -2   1   29.82    3.06   0
  -4   2   4   64.01    3.52   0
  -3  -5 -11    1.42    2.90   0
  -2  -4  -5  405.40   10.45   0
  -2  -1   1 1846.09   11.79   0
   0  -2 -10  134.89    3.58   0
   0   3   3  744.79    9.76   0
   2   1  -8   27.49    3.12   0
   3   3  -6  132.26    3.45   0
   3   4  -9   -1.66    3.02   0
   3   6   0  360.25    5.68   0
   4   7  -7   23.68    2.73   0
   4   7  -6    9.38    3.14   0
   4   7  -5  211.10    4.14   0
   4   7  -4    7.75    2.98   0
  -8  -4  -2   23.05    2.52   0
  -7  -6  -5    1.58    2.62   0
  -7  -5  -3    8.67    2.68   0
  -6  -6  -5    4.82    3.12   0
  -6  -3   0   17.99    2.55   0
  -6  -2   1   40.14    2.67   0
  -6  -1   2  104.49    3.50   0
  -5  -5  -3  168.11    4.56   0
  -5  -3   0   51.66    2.90   0
  -5  -1   2   83.93    3.26   0
  -5   2   4   56.14    3.00   0
  -4  -2   1   11.46    2.52   0
  -4  -1   2  121.14    3.45   0
  -4   4   5  102.60    3.66   0
  -3   2   4  172.18    3.69   0
  -3   4   5   68.17    3.37   0
  -2  -4 -11    4.61    2.89   0
  -2   1   3   59.38    3.40   0
  -1  -3 -11  134.81    3.41   0
   0  -2  -5 1525.07   10.55   0
   1   0 -11   25.22    2.75   0
   2   1  -7  409.65    4.64   0
   2   1  -6  158.04    3.55   0
   2   1  -5  193.96    3.83   0
   2   2  -2   84.75    3.93   0
   3   4  -3  271.66    4.31   0
   3   5  -1   57.52    3.00   0
   3   8   1    9.88    3.55   0
   4   8  -3   69.57    3.34   0
   4   9  -2   21.34    3.02   0
   4  10  -2   15.22    2.83   0
  -8  -5  -3    8.17    2.69   0
  -7  -3   0    4.66    2.83   0
  -7  -2   1   41.90    3.20   0
  -6  -4  -1    6.43    2.80   0
  -6   2   4    3.31    3.04   0
  -5   0   3   31.37    2.84   0
  -5   4   5    0.42    3.09   0
  -4  -3   0    5.02    2.76   0
  -4   0   3  290.54    4.59   0
  -3  -5 -10   18.41    3.54   0
  -2   8   6    5.52    2.90   0
   0  -2  -9    8.08    2.74   0
   0  -1 -12   19.55    2.73   0
   0   7   5    2.99    3.85   0
   1   0 -10    8.55    2.77   0
   2   2 -10   17.73    2.67   0
   3   4  -8   30.45    2.86   0
   3   4  -7  460.54    5.03   0
   3  12   1    6.80    3.22   0
   4   8  -6  150.45    3.55   0
   4   8  -5   53.09    2.91   0
   4   8  -4   38.83    2.78   0
   4   9  -3  349.91    4.51   0
   4  10  -3    1.50    2.63   0
  -7  -4  -1    4.94    2.63   0
  -7  -1   2   12.70    2.83   0
  -6   0   3   13.01    2.80   0
  -5  -4  -1  482.68    5.57   0
  -3  -5  -7  178.76    7.25   0
  -3  -1   2  151.31    4.06   0
  -3   7   6   46.78    2.95   0
  -2  -2   0  703.00    8.51   0
  -2   2   4 1276.63    8.25   0
  -2   4   5    1.52    2.87   0
  -1  -3 -10   73.00    3.11   0
  -1   3   4    9.56    3.10   0
  -1   5   5  906.86    8.32   0
   0  -2  -8  313.68    4.60   0
   0  -2  -7  724.34    6.43   0
   0  -2  -6    2.93    2.59   0
   1   0  -3  256.29    5.14   0
   2   2  -9  430.95    4.81   0
   2   9   3   67.63    6.47   0
   2  11   3   25.24    4.93   0
   3   4  -6  665.85    5.49   0
   3   4  -5   51.64    2.84   0
   3   4  -4    7.62    2.59   0
   3   5  -9   49.11    3.01   0
   3   9   1  275.52    5.66   0
   4   9  -5    3.17    2.52   0
   4   9  -4   15.00    2.50   0
  -5   1   4   14.32    2.54   0
  -5   3   5   15.04    3.12   0
  -4   1   4   13.08    2.67   0
  -4   3   5    3.60    2.48   0
  -4   6   6   52.79    3.03   0
  -3  -5  -9    4.48    3.90   0
  -3  -2   1  399.98    5.70   0
  -3   0   3  292.18    4.46   0
  -3   3   5  191.33    3.94   0
  -3   6   6   68.23    3.12   0
  -2  -4 -10   74.20    3.41   0
  -2   7   6   30.49    2.81   0
  -1  -3  -9  258.85    4.52   0
  -1  -3  -5 2080.69   14.16   0
  -1   9   6   99.22    3.84   0
   0  -1 -11   21.55    2.71   0
   1   0  -9  135.17    3.23   0
   2   2  -8  149.07    3.74   0
   2   2  -3  223.84    4.43   0
   2   6   2  990.06   12.71   0
   3   5  -8   22.47    2.87   0
   3   5  -2  373.27    4.69   0
   3   7   0  222.08    4.96   0
   3  10   1   16.17    3.69   0
   3  11   1    6.13    3.18   0
  -8  -6  -4   15.18    2.69   0
  -8  -4  -1    3.65    2.30   0
  -7  -6  -4   24.32    2.51   0
  -7  -5  -2   83.28    3.08   0
  -7   0   3   10.84    2.75   0
  -6  -6  -4  128.16    4.09   0
  -6  -5  -2   22.24    2.74   0
  -6   1   4    4.42    2.63   0
  -5  -6  -5   17.51    3.73   0
  -3  -5  -8   10.59    4.16   0
  -3   1   4   38.02    3.10   0
  -2   6   6   78.67    3.66   0
  -1  -2 -12    3.18    2.36   0
  -1   8   6   -0.17    3.07   0
   0  -1  -2  297.32    7.83   0
   1   0  -8  291.96    4.30   0
   1   1 -11   42.02    2.78   0
   2   2  -7  699.05    5.86   0
   2   3 -10    4.59    2.50   0
   2   3  -1  874.11    8.36   0
   2  10   3  396.81    8.74   0
   3   5  -7   23.89    2.64   0
   3   5  -3   59.05    3.06   0
   3   6  -1    8.70    2.85   0
  -8  -5  -2    4.14    2.49   0
  -7  -7  -7    4.07    2.85   0
  -6  -3   1   35.83    2.52   0
  -6  -2   2  119.82    3.16   0
  -6  -1   3    9.92    3.23   0
  -5  -6 -11    2.10    3.47   0
  -5  -3   1   49.61    3.12   0
  -5  -2   2  275.25    4.12   0
  -5  -1   3    4.91    2.50   0
  -4  -5  -3  615.53    7.64   0
  -4  -4  -1   19.35    2.99   0
  -4   5   6   29.00    2.62   0
  -3  -4  -2  750.22    8.79   0
  -3   5   6    1.13    2.66   0
  -2  -4  -9  331.66    5.04   0
  -1  -3  -8   92.27    3.59   0
  -1  -3  -7  445.69    5.89   0
  -1  -3  -6   26.61    3.71   0
   0   4   4 1302.60   10.94   0
   0   6   5 1702.72   11.94   0
   1   0  -7  231.12    3.95   0
   1   0  -4 1598.46    9.52   0
   1   1  -1 3306.56   18.73   0
   2   2  -6   20.40    2.59   0
   2   2  -5  142.88    3.65   0
   2   2  -4  733.38    6.13   0
   2   3  -9   -0.95    2.86   0
   3   5  -6    0.12    2.56   0
   3   5  -5  116.77    3.54   0
   3   5  -4   17.68    2.89   0
   3   6  -8  167.97    3.35   0
  -7  -4   0   22.23    2.91   0
  -7  -3   1   65.03    2.95   0
  -7  -2   2    2.47    2.51   0
  -6  -4   0   29.24    2.50   0
  -5  -5  -2  246.88    4.68   0
  -5   0   4  102.97    3.46   0
  -5   2   5  246.76    3.92   0
  -4  -2   2  227.55    4.09   0
  -4  -1   3  397.98    4.88   0
  -4   2   5    7.75    2.40   0
  -4   4   6   95.06    3.46   0
  -3  -3   0 2041.72   11.76   0
  -2  -4  -8   40.98    3.82   0
  -2  -4  -6 1087.04   11.41   0
  -2  -3 -12  187.98    3.73   0
  -2   3   5   94.81    3.23   0
  -1   4   5    2.41    3.07   0
  -1   7   6   17.96    3.01   0
   0  -1 -10  108.44    3.02   0
   0   0 -12  205.86    3.51   0
   1   0  -6  488.72    4.93   0
   1   0  -5   23.31    2.74   0
   1   1 -10   63.13    2.87   0
   2   4 -10    3.91    2.51   0
   3   6  -7   95.90    3.03   0
   3   6  -2    1.31    2.82   0
   3   7  -8   81.81    3.30   0
   3   8   0  493.69    6.09   0
  -7  -7  -6    6.68    2.92   0
  -7  -6  -3   85.96    3.24   0
  -7  -1   3   30.97    2.78   0
  -6   0   4   25.51    2.70   0
  -5  -4   0  259.15    4.23   0
  -4  -3   1   38.08    2.93   0
  -4   0   4    3.01    2.76   0
  -3   2   5    2.99    2.40   0
  -3   4   6    3.37    2.85   0
  -2  -4  -7    3.74    3.41   0
  -2   5   6  252.97    4.27   0
  -1  -2 -11   20.78    2.60   0
   0  -1  -9   99.47    3.31   0
   1   2 -11   43.58    2.86   0
   1   6   4  291.38    9.45   0
   2   3  -8  114.08    3.12   0
   2   4   0  279.47    5.57   0
   2   5   1 1976.90   14.39   0
   3   6  -6   15.51    2.55   0
   3   6  -3   52.14    3.11   0
   3   7  -1  267.02    4.63   0
   3   9   0   84.81    3.75   0
   3  11   0   24.97    3.09   0
  -8  -6  -3   13.46    2.39   0
  -7  -5  -1  100.90    3.30   0
  -6  -5  -1   74.11    3.11   0
  -5   1   5    9.58    2.94   0
  -3  -4 -12   83.73    3.06   0
  -2  -1   2    7.51    3.11   0
  -2   0   3  292.75    4.60   0
  -2   1   4  863.14    6.94   0
  -1   1   3  923.89    8.37   0
  -1   6   6  245.86    4.70   0
   0   0 -11  100.48    3.12   0
   1   1  -9  388.63    4.15   0
   2   3  -7  142.06    3.64   0
   2   3  -2  324.41    5.00   0
   2   4  -9   70.26    2.84   0
   3   6  -5  101.03    2.97   0
   3   6  -4   22.93    2.46   0
   3   7  -7   12.71    2.47   0
   3  10   0  106.84    3.89   0
  -6  -7  -7   55.29    4.50   0
  -6  -6  -3  132.46    3.58   0
  -6  -3   2   94.47    3.24   0
  -6  -2   3  142.61    3.63   0
  -6   1   5   12.85    2.60   0
  -5  -6  -4   40.66    3.55   0
  -5   3   6   28.48    2.82   0
  -4   1   5   38.52    2.78   0
  -4   3   6   26.54    2.53   0
  -3  -1   3  890.52    6.75   0
  -2   8   7   33.11    2.82   0
  -1  -2 -10   29.79    3.04   0
  -1  -1 -12   39.98    2.94   0
  -1   0   2 1786.13   12.24   0
  -1   2   4 2285.51   12.36   0
   0  -1  -8  112.77    3.31   0
   0   1 -12    7.72    2.76   0
   1   1  -8    4.77    2.96   0
   1   2 -10   72.48    3.15   0
   2   3  -6   80.50    3.48   0
   3   7  -6  332.18    4.29   0
   3   7  -5  686.57    5.61   0
   3   7  -2  399.89    4.83   0
   3   8  -7    4.76    2.51   0
   3   8  -1  474.42    5.56   0
  -7  -7  -5   14.47    2.68   0
  -7  -4   1    7.86    2.82   0
  -7  -3   2   27.24    2.72   0
  -7  -2   3   19.29    2.33   0
  -6  -4   1   29.88    2.76   0
  -6  -1   4   44.94    3.19   0
  -5  -3   2   16.49    2.90   0
  -5  -2   3   49.16    2.77   0
  -5  -1   4   48.43    3.15   0
  -3  -2   2   43.22    3.21   0
  -3   0   4    2.00    2.49   0
  -3   3   6  586.91    5.29   0
  -3   6   7   50.87    2.89   0
  -2  -3 -11  117.07    3.03   0
  -2   2   5   18.22    2.67   0
  -2   4   6   16.44    2.59   0
  -2   7   7   71.98    3.40   0
   0   9   6   51.80    3.90   0
   0  10   6   14.59    3.34   0
   1   3 -11  161.31    3.34   0
   2   3  -5  225.16    3.75   0
   2   3  -4  112.53    3.52   0
   2   3  -3  262.53    4.31   0
   2   4  -8   61.23    2.79   0
   2   5  -9  130.93    3.54   0
   3   7  -4    9.35    2.39   0
   3   7  -3   52.70    2.81   0
   3   8  -6   42.41    2.69   0
   3   8  -2   18.86    3.08   0
   3   9  -6   27.42    2.87   0
   3   9  -1   64.55    3.29   0
   3  10  -1  206.62    4.20   0
   3  11  -1  116.40    3.41   0
  -7  -6  -2   27.22    2.57   0
  -6  -7  -6    4.06    3.53   0
  -5  -5  -1   90.21    3.44   0
  -5   2   6    4.84    2.38   0
  -4  -5  -2  343.87    5.64   0
  -4  -4   0  288.90    4.53   0
  -4   2   6   19.99    2.74   0
  -3   1   5  302.87    4.16   0
  -3   5   7    1.26    2.56   0
  -2  -3  -1 1992.49   14.95   0
  -1   5   6  100.12    3.90   0
   0  -1  -7  477.75    5.20   0
   0  -1  -3   68.77    4.20   0
   0   0 -10  189.97    3.40   0
   0   5   5  149.27    4.48   0
   0   8   6  148.41    4.57   0
   1   1  -7 2254.47    9.07   0
   1   1  -2 1526.39   10.85   0
   2   4  -7  571.61    5.11   0
   3   8  -5  166.92    3.35   0
   3   8  -4    0.81    2.74   0
   3   8  -3   22.99    2.74   0
   3   9  -5  111.08    3.41   0
   3   9  -2   13.46    3.01   0
   3  11  -2    5.14    2.73   0
  -7  -5   0    0.58    2.03   0
  -6  -6  -2   14.79    2.82   0
  -6  -5   0   43.85    2.89   0
  -6   0   5   49.23    2.80   0
  -5  -6 -10    4.48    3.72   0
  -5  -4   1   21.61    2.78   0
  -5   0   5    7.57    2.53   0
  -4  -5 -11   26.93    3.01   0
  -4  -2   3  281.12    4.14   0
  -4  -1   4  251.65    4.07   0
  -4   4   7    5.69    2.78   0
  -3  -4 -11   24.26    2.63   0
  -2  -2   1    1.08    2.73   0
  -2   6   7   32.12    2.70   0
  -1  -2  -9  425.37    4.80   0
  -1   3   5  286.04    4.87   0
   0  -1  -6  730.65    6.22   0
   0   1 -11    8.60    2.75   0
   1   1  -6 1729.27    8.35   0
   1   2  -9   50.62    2.65   0
   1   3 -10    2.57    2.77   0
   2   4  -1  293.13    5.34   0
   2   5  -8   65.28    2.81   0
   2   6  -9    0.83    2.43   0
   2   7   2  151.26    5.60   0
   3   9  -4    6.66    2.52   0
   3   9  -3   57.16    2.92   0
   3  10  -4    2.06    2.44   0
   3  10  -3  112.30    3.21   0
   3  10  -2   73.20    2.99   0
   3  11  -3   58.31    2.82   0
  -7  -7  -4   38.76    3.06   0
  -5  -6  -3  143.51    4.31   0
  -4  -3   2  106.58    3.22   0
  -4   0   5  187.30    3.60   0
  -3  -4  -1  675.68    7.26   0
  -3  -3   1  505.86    5.82   0
  -3   2   6    1.90    2.63   0
  -3   4   7   68.02    3.09   0
  -2  -3 -10    6.10    2.63   0
  -2  -2 -12   27.13    2.50   0
  -2   3   6    3.97    2.60   0
  -1  -1 -11    8.89    2.43   0
  -1   8   7   59.47    3.40   0
  -1   9   7    3.14    2.71   0
   0  -1  -5 1857.73   10.47   0
   0  -1  -4  282.52    5.34   0
   0   0  -9   42.65    2.94   0
   0   7   6    7.64    3.39   0
   1   1  -5   19.72    2.89   0
   1   1  -3    9.55    2.66   0
   2   4  -6  791.65    5.61   0
   2  12   2   60.14    3.92   0
  -7  -6  -1   16.38    2.80   0
  -7  -4   2    0.13    2.77   0
  -7  -3   3   10.55    2.33   0
  -6  -7  -5    2.14    3.27   0
  -6  -3   3   11.77    2.34   0
  -6  -2   4   11.30    2.51   0
  -5   1   6   35.54    2.63   0
  -4   1   6  139.79    3.48   0
  -4   3   7    5.03    2.77   0
  -2   5   7  103.12    3.37   0
  -1   0 -12   44.78    2.74   0
   0   2   3  213.06    5.67   0
   0   3   4  615.84    7.72   0
   1   1  -4   57.89    2.98   0
   1   2  -8  322.24    4.22   0
   1   2   0   93.94    5.79   0
   2   4  -5    0.78    2.40   0
   2   4  -2 2796.03   12.06   0
   2   5  -7   65.87    2.78   0
   2   6  -8   50.57    2.69   0
  -7  -5   1    7.17    2.63   0
  -6  -4   2   59.54    2.76   0
  -6  -1   5  149.98    3.32   0
  -5  -5   0   79.87    3.15   0
  -5  -3   3    0.92    2.48   0
  -5  -2   4   53.75    2.74   0
  -5  -1   5   65.33    3.22   0
  -3  -1   4   56.18    3.09   0
  -2   0   4  877.24    6.52   0
  -1  -2  -8   54.26    3.14   0
  -1  -1   1 3283.42   17.95   0
  -1   4   6  369.49    5.33   0
  -1   7   7  107.02    3.64   0
   0   1 -10  585.77    4.85   0
   1   3  -9   30.08    2.50   0
   1   4 -10   55.17    2.73   0
   2   4  -4  973.63    6.42   0
   2   4  -3  864.46    6.41   0
   2   5  -6   24.03    2.99   0
   2   5   0   -0.03    3.18   0
   2   6   1 2042.47   13.18   0
   2   7  -8    7.10    2.43   0
  -7  -7  -3    1.09    2.48   0
  -6  -6  -1   17.19    2.85   0
  -6  -5   1   66.44    3.09   0
  -5  -4   2   11.55    2.67   0
  -4  -4   1  198.63    3.69   0
  -3  -4 -10  138.97    3.70   0
  -3  -3 -12   11.31    2.44   0
  -3  -2   3   36.70    2.95   0
  -3   0   5   90.62    2.96   0
  -3   3   7    1.91    2.65   0
  -2  -3  -9  141.43    3.66   0
  -2  -1   3 1204.84    7.68   0
  -2   1   5   10.98    2.24   0
  -1  -1 -10  123.03    3.22   0
   0   0  -8  598.72    5.13   0
   0   2 -11    5.16    2.27   0
   1   2  -7  307.56    3.88   0
   2   6  -7   17.63    2.42   0
  -6  -7  -4    8.17    2.92   0
  -5  -6  -2    2.17    2.88   0
  -5   0   6  101.21    3.10   0
  -4  -5 -10  183.68    4.45   0
  -4  -5  -1   41.10    3.01   0
  -4  -2   4   49.65    2.79   0
  -4  -1   5   44.81    2.61   0
  -4   2   7    1.10    2.35   0
  -3   1   6   27.81    2.49   0
  -2  -2 -11   56.21    2.83   0
  -2   2   6   40.13    2.78   0
  -2   4   7   55.61    2.96   0
  -1  -2  -7  197.35    4.11   0
  -1   0 -11   57.51    2.81   0
  -1   1   4  887.00    7.66   0
  -1   6   7    2.90    2.69   0
   0   4   5  567.08    6.96   0
   0   6   6 1209.71    9.29   0
   1   3  -8  766.68    5.27   0
   1   4  -9   68.43    2.80   0
   1   5 -10   19.10    2.48   0
   2   5  -5  151.48    3.20   0
   2   6  -6  437.48    4.66   0
   2   7  -7  261.18    3.61   0
   2   8   2    2.76    3.66   0
   2  11   2    2.99    3.09   0
  -7  -6   0    6.15    2.35   0
  -7  -4   3   47.93    2.61   0
  -6  -3   4   32.77    2.60   0
  -6  -2   5   19.43    2.88   0
  -5   1   7   12.00    2.78   0
  -4  -4 -12   62.15    2.87   0
  -4  -3   3  249.03    3.79   0
  -4   0   6  266.20    3.93   0
  -3   5   8  177.09    3.34   0
  -2  -1 -12   59.13    2.67   0
  -2   7   8   13.59    2.34   0
  -1   1 -12   70.03    2.64   0
  -1   2   5   -1.68    2.62   0
   0   0  -7  258.69    3.88   0
   0   1  -9  132.40    3.02   0
   0   1   2  302.64    7.78   0
   0   2 -10    1.55    2.44   0
   0   3 -11    6.43    2.22   0
   1   2  -6   77.06    2.77   0
   2   5  -4  145.98    3.10   0
   2   5  -1  679.65    6.49   0
   2   8  -7   36.82    2.64   0
   2  10   2   19.43    3.55   0
  -7  -7  -2    3.61    2.25   0
  -7  -5   2    9.77    2.66   0
  -6  -4   3   49.17    2.63   0
  -5  -5   1   39.36    2.75   0
  -5  -2   5  168.67    3.65   0
  -3  -4   0  176.70    3.99   0
  -3  -3   2  123.92    3.23   0
  -3   2   7   77.61    3.02   0
  -3   4   8    7.48    2.40   0
  -2  -2   2   89.75    3.26   0
  -2   6   8   68.14    2.94   0
  -1  -1  -9  223.95    3.94   0
  -1   0   3  243.61    4.52   0
  -1   5   7   14.36    2.77   0
   1   2  -5   53.58    3.01   0
   1   3  -7 1193.43    7.35   0
   1   5  -9  251.00    3.55   0
   2   5  -3  542.17    5.00   0
   2   5  -2   52.55    2.61   0
   2   6  -5    8.59    2.30   0
   2   7  -6  108.90    2.87   0
   2   8  -6    2.04    2.55   0
   2   9   2   19.40    3.63   0
   2  12   1   27.61    2.84   0
  -6  -7  -3  150.46    3.79   0
  -6  -6   0  199.08    3.92   0
  -6  -5   2   34.09    2.73   0
  -5  -6  -9    4.77    3.75   0
  -5  -3   4  221.51    3.61   0
  -5  -1   6   92.62    3.05   0
  -4   1   7   54.04    2.60   0
  -4   3   8   -0.24    2.28   0
  -3  -4  -9   88.29    3.69   0
  -3  -3 -11   15.56    2.71   0
  -2  -3  -8  421.74    5.39   0
  -2  -3   0    3.06    2.93   0
  -2   3   7   15.36    2.69   0
  -1  -2  -6   39.65    2.90   0
  -1   2 -12  179.31    3.39   0
  -1   3   6    8.06    2.75   0
   0   0  -6  438.63    4.88   0
   0   4 -11  113.39    2.81   0
   1   4  -8   41.15    2.53   0
   1   6  -9  117.45    3.26   0
   1   7   5 1009.60   15.13   0
   2   6  -4  358.83    4.09   0
   2   6   0  133.97    4.17   0
   2   7  -5   68.91    2.85   0
   2   7   1    8.79    3.13   0
   2   9  -6  146.51    3.05   0
  -7  -6   1   17.40    2.45   0
  -5  -6  -1    5.51    2.46   0
  -5  -4   3   16.74    2.27   0
  -5   0   7   74.61    3.00   0
  -4  -5   0   91.17    3.27   0
  -4  -4   2   69.47    2.69   0
  -3  -1   5  211.34    3.71   0
  -3   0   6   94.90    3.28   0
  -2  -2 -10   37.74    2.67   0
  -2   0   5  579.66    5.23   0
  -2   5   8    7.44    2.42   0
  -1  -2  -1  222.22    9.52   0
  -1   0 -10  320.97    4.16   0
  -1   1 -11   62.35    2.88   0
   0   1  -8  901.51    5.68   0
   0   2  -9  140.54    3.17   0
   0   3 -10   75.39    2.80   0
   0   5   6    3.55    3.22   0
   0   9   7    0.96    3.24   0
   1   2  -4   61.49    2.83   0
   1   7  -9   21.44    2.75   0
   2   6  -3  181.27    3.49   0
   2   6  -1   68.48    3.23   0
   2   8  -5   25.37    2.71   0
   2   9  -5   -0.22    2.48   0
   2  10  -5    5.09    2.40   0
   2  11   1  138.65    3.79   0
   2  12   0    7.64    2.44   0
  -7  -8  -6   25.14    3.02   0
  -7  -7  -1   34.17    2.39   0
  -6  -7  -2    2.76    2.55   0
  -6  -3   5   65.92    2.77   0
  -4  -5  -9   39.46    3.60   0
  -4  -2   5   87.07    2.80   0
  -4  -1   6   64.85    2.73   0
  -4   2   8   42.81    2.62   0
  -3  -2 -12    3.87    2.38   0
  -3  -2   4   12.25    2.38   0
  -3   1   7  223.26    3.72   0
  -3   3   8   78.07    2.74   0
  -2  -1 -11  165.37    3.38   0
  -2  -1   4  585.79    5.32   0
  -2   1   6  475.38    4.63   0
  -1  -2  -5  636.97    7.08   0
  -1  -1  -8  116.02    3.45   0
  -1   8   8   44.05    2.74   0
   0   8   7   60.96    3.81   0
   1   2  -3  447.70    5.16   0
   1   2  -2 1531.79   10.01   0
   1   3  -6  151.88    3.42   0
   1   4  -7   -0.59    2.33   0
   1   5  -8  156.17    3.15   0
   1   5   4  790.74   14.74   0
   2   6  -2    8.99    2.51   0
   2   7  -4  168.81    3.26   0
   2  10  -4    9.92    2.42   0
  -7  -8  -5    4.57    2.49   0
  -6  -6   1  161.25    3.52   0
  -6  -4   4   20.71    2.36   0
  -5  -5   2   94.62    3.04   0
  -4  -6  -4    0.62    3.73   0
  -4  -4 -11    2.58    2.45   0
  -4  -3   4  104.60    2.88   0
  -4   0   7    4.37    2.18   0
  -2   0 -12    6.65    2.49   0
  -2   2   7  319.08    4.16   0
  -2   4   8   10.80    2.53   0
  -1  -1   2 1627.25   10.75   0
  -1   4   7  938.22    6.58   0
  -1   7   8   63.57    2.97   0
   0   0  -5  545.98    5.92   0
   0   4 -10  166.73    3.47   0
   1   6  -8   65.57    2.67   0
   2   7  -3   98.49    3.06   0
   2   7   0   94.71    3.51   0
   2   8  -4  710.50    5.10   0
   2   8   1  144.74    4.01   0
   2   9  -4    6.24    2.16   0
   2   9   1   50.48    3.23   0
   2  10   1   18.91    2.93   0
   2  11  -3  119.32    2.94   0
   2  11  -2   43.49    2.81   0
   2  11  -1    9.24    2.53   0
   2  11   0   39.49    2.85   0
  -7  -8  -4   11.62    2.43   0
  -7  -7   0   58.43    2.82   0
  -7  -6   2   -0.54    2.43   0
  -6  -5   3   35.23    2.49   0
  -5  -6   0   74.34    2.91   0
  -5  -3   5  678.71    5.41   0
  -5  -2   6   37.32    2.64   0
  -5  -1   7   13.41    2.64   0
  -3  -4   1  333.03    4.37   0
  -3  -3   3    9.02    2.12   0
  -3   2   8    6.63    2.45   0
  -2  -3  -7    7.61    2.98   0
  -1   1   5   23.40    2.93   0
  -1   2 -11    1.92    2.43   0
  -1   6   8   16.75    2.58   0
   0   1  -7   30.60    2.23   0
   0   3  -9  113.99    3.08   0
   0   7   7  117.08    4.10   0
   1   3  -5    5.81    2.30   0
   1   5  -7   11.65    2.57   0
   1   7  -8    5.95    2.40   0
   1   8  -8   30.43    2.37   0
   2   7  -2  318.83    4.26   0
   2   7  -1   93.80    3.22   0
   2   8  -3    7.79    2.55   0
   2   8   0   10.28    2.92   0
   2   9  -3    4.36    2.48   0
   2  10  -3    8.22    1.99   0
   2  10  -2  241.67    3.92   0
   2  10   0   24.94    2.68   0
  -6  -7  -1  148.49    3.20   0
  -5  -5 -11   48.68    2.91   0
  -5  -4   4   22.91    2.23   0
  -4  -6  -3   31.01    3.45   0
  -4  -5   1  995.26    6.87   0
  -4  -4   3   77.29    2.63   0
  -4   1   8    2.07    2.06   0
  -3  -5  -3  105.74    5.15   0
  -3  -4  -8  196.14    4.57   0
  -3  -3 -10  244.72    3.89   0
  -3   4   9    4.31    2.30   0
  -2  -3   1  943.96    7.86   0
  -2  -2  -9   58.73    2.66   0
  -2  -2   3  225.01    3.86   0
  -2   6   9   66.48    2.82   0
  -1  -2  -4 1257.59   10.93   0
  -1   0  -9   42.44    2.32   0
  -1   1 -10   16.99    2.22   0
  -1   2   6  585.09    5.56   0
   0   0  -4 3213.95   13.52   0
   0   2  -8  229.27    3.46   0
   0   2   4  161.60    4.57   0
   0   3   5 1831.97   10.83   0
   0   5 -10    2.38    2.17   0
   1   4  -6   96.08    3.01   0
   2   8  -2 1673.65    8.05   0
   2   8  -1  152.72    3.59   0
   2   9  -2 1020.25    6.43   0
   2   9  -1  316.32    4.40   0
   2   9   0   55.95    2.89   0
   2  10  -1   81.51    2.81   0
  -7  -8  -3   20.62    2.29   0
  -6  -6   2   70.91    2.89   0
  -6  -4   5  151.27    3.36   0
  -5  -7  -5  120.29    5.66   0
  -5  -7  -4   14.98    3.57   0
  -4  -3 -12   14.63    2.24   0
  -4  -2   6  202.55    3.66   0
  -3  -2   5  809.23    5.95   0
  -3  -1   6  149.39    3.13   0
  -3   0   7  255.64    3.85   0
  -2   1 -12    0.57    2.01   0
  -2   3   8    2.62    2.44   0
  -1  -1  -7  526.12    5.21   0
  -1   0   4 1603.50    9.04   0
  -1   3 -11   50.22    2.74   0
  -1   3   7    3.68    2.78   0
  -1   5   8  124.06    3.32   0
   0   4  -9  112.44    2.98   0
   0   6 -10   71.65    2.65   0
   1   3  -4 1231.11    7.07   0
   1   6  -7  468.70    4.20   0
   1   7  -7   73.22    2.80   0
   1   9  -7    6.97    2.54   0
  -7  -7   1   15.87    2.28   0
  -6  -7   0   23.95    2.55   0
  -6  -5   4   23.97    2.60   0
  -5  -6   1  162.20    3.39   0
  -5  -5   3    6.20    2.01   0
  -4  -6  -2  669.04    6.92   0
  -4  -3   5   21.30    2.30   0
  -4  -1   7   52.00    2.52   0
  -3  -5  -2  418.68    6.66   0
  -3  -2 -11   69.11    2.80   0
  -3  -1 -12   34.98    2.31   0
  -3   1   8  126.55    3.21   0
  -3   3   9   85.02    2.91   0
  -2  -1 -10   22.51    2.41   0
  -2  -1   5  218.96    3.70   0
  -2   0 -11  352.66    3.91   0
  -2   0   6  221.89    3.48   0
  -2   1   7  394.07    4.40   0
  -2   5   9  106.32    2.84   0
   0   0  -3   58.96    4.08   0
   0   1  -6  118.71    2.91   0
   0   4   6  150.91    3.87   0
   0   6   7  433.83    5.49   0
   1   4  -5   42.07    2.35   0
   1   5  -6  144.63    3.03   0
   1   8  -7   29.71    2.29   0
  -7  -8  -2   15.02    2.08   0
  -5  -7  -3   28.55    2.98   0
  -5  -4   5   48.20    2.83   0
  -5  -3   6   15.36    2.32   0
  -5  -2   7   58.36    2.58   0
  -4  -5   2  513.01    4.86   0
  -4  -4   4  103.07    3.07   0
  -4   0   8   46.21    2.44   0
  -3  -4   2   82.10    2.67   0
  -3  -3   4   33.88    2.37   0
  -2   2 -12    8.11    2.41   0
  -1  -2  -3 1396.83   14.59   0
  -1   0  -8 1624.21    7.84   0
  -1   2 -10   18.23    2.09   0
  -1   4 -11   16.68    2.15   0
   0   2  -7  154.39    3.00   0
   0   3  -8  613.70    4.72   0
   0   5  -9   68.75    2.62   0
   1   3  -3  297.26    4.32   0
   1   6  -6 1169.11    6.72   0
  -6  -6   3    5.67    2.26   0
  -5  -7  -2   77.94    3.14   0
  -4  -6  -1   -0.34    2.72   0
  -4  -4 -10   64.56    3.39   0
  -2  -3  -6  557.04    6.69   0
  -2  -2   4  836.16    5.96   0
  -2   2   8  124.92    3.07   0
  -2   4   9    6.11    2.21   0
  -1  -1   3    4.01    2.71   0
  -1   1  -9  414.16    4.19   0
  -1   4   8   18.27    2.58   0
   0   1   3   66.50    3.75   0
   0   6  -9   29.58    2.24   0
   0   7  -9  424.66    4.01   0
   1   3  -2  977.82    7.60   0
   1   4  -4   46.89    2.71   0
   1   5  -5   36.17    2.54   0
   1   6   5  197.62    7.12   0
   1   7  -6  237.09    3.28   0
   1   8  -6  278.59    3.63   0
   1   9  -6   76.30    2.62   0
  -7  -8  -1    1.36    1.93   0
  -6  -7   1   42.50    2.38   0
  -5  -6   2   35.06    2.47   0
  -5  -5   4    6.68    2.10   0
  -4  -5  -8    1.45    3.27   0
  -4  -2   7    5.56    2.54   0
  -3  -5  -1   29.85    2.98   0
  -3  -1   7  142.93    3.35   0
  -3   2   9    8.68    2.18   0
  -2  -3   2  338.14    4.60   0
  -2  -2  -8  294.47    4.20   0
  -2   1 -11   10.14    2.35   0
  -1  -2   0   81.22    4.84   0
  -1  -1  -6    6.88    2.45   0
  -1   1   6  153.00    3.29   0
  -1   3 -10  105.91    2.61   0
  -1   7   9   23.44    2.39   0
   0   0  -2 3305.71   18.23   0
   0   1  -5 1503.90    8.08   0
   0   4  -8  100.43    2.74   0
   0   5   7   13.09    2.86   0
   1  10  -5  200.50    3.23   0
   1  11   4    3.01    3.47   0
  -6  -8  -4   55.12    3.35   0
  -6  -5   5   17.90    2.24   0
  -5  -7  -1   95.74    3.13   0
  -4  -6   0  402.39    4.90   0
  -4  -5   3  348.09    4.13   0
  -4  -3   6  366.15    4.02   0
  -4  -1   8   43.93    2.54   0
  -3  -4   3  300.57    3.82   0
  -3  -3  -9   23.44    2.56   0
  -3  -2   6 1454.54    7.12   0
  -3   0 -12   37.66    2.38   0
  -3   0   8   18.68    2.25   0
  -2  -1  -9  401.90    4.26   0
  -2   0 -10   48.78    2.60   0
  -2   3   9  102.41    2.78   0
  -1   0   5   22.93    2.34   0
  -1   2   7   55.46    2.55   0
  -1   6   9  268.59    4.04   0
   0   2  -6  371.60    4.12   0
   0   3  -7 1366.00    6.63   0
   0   5  -8   24.98    2.21   0
   1   3  -1  384.60    5.58   0
   1   3   0 2143.22   14.45   0
   1   6  -5   13.09    2.17   0
   1   7  -5    2.57    2.37   0
   1   9  -5    5.07    2.31   0
  -7  -8   0   -0.04    1.89   0
  -6  -8  -5   33.82    3.36   0
  -6  -8  -3  250.09    4.37   0
  -6  -6   4  104.05    3.03   0
  -5  -4   6   72.57    2.64   0
  -5  -3   7   97.15    2.83   0
  -4  -4   5   38.63    2.42   0
  -4  -3 -11    5.12    2.04   0
  -4  -2 -12   94.08    2.56   0
  -4   0   9  135.80    3.03   0
  -3  -5   0    5.44    2.34   0
  -3  -4  -7   32.20    3.24   0
  -3  -3   5   57.58    2.62   0
  -3  -1 -11  184.95    3.07   0
  -3   1   9   88.56    2.95   0
  -2  -1   6  163.29    3.13   0
  -2   0   7  114.21    2.85   0
  -2   1   8    9.50    2.31   0
  -1   2  -9  632.86    4.83   0
  -1   3   8   96.24    2.90   0
  -1   4 -10  196.64    3.07   0
   0   2   5 1599.09    9.53   0
   0   3   6   15.41    2.73   0
   0   6  -8  341.61    3.64   0
   0   7  -8   95.76    2.92   0
   0   8  -8  112.97    2.70   0
   0   8   8  112.14    3.78   0
   1   4  -3  814.64    5.97   0
   1   5  -4   63.24    2.37   0
   1   8  -5    5.52    2.05   0
   1  10  -4  128.77    2.88   0
  -6  -8  -2   39.49    2.54   0
  -6  -7   2   16.62    2.06   0
  -5  -7   0    1.58    2.08   0
  -5  -6   3    6.05    2.01   0
  -5  -5 -10   44.93    2.70   0
  -5  -5   5  279.74    3.85   0
  -3  -2 -10  101.86    2.77   0
  -2  -3   3  281.98    4.09   0
  -2  -2   5  147.85    3.22   0
  -2   2 -11   40.92    2.28   0
  -1   0  -7 1930.91    8.17   0
  -1   1  -8  271.83    3.42   0
  -1   5 -10  107.37    2.67   0
  -1   5   9    4.67    2.40   0
  -1   6 -10   28.87    2.41   0
   0   4  -7   51.42    2.47   0
   0   7   8   19.85    3.05   0
   0   9   8   46.81    3.29   0
   1   6  -4   28.35    2.46   0
   1   9  -4  180.57    3.20   0
   1  11  -3   72.36    2.59   0
  -6  -8  -1    2.36    2.21   0
  -6  -6 -10   17.40    2.72   0
  -5  -6  -8   78.26    4.35   0
  -4  -6   1   44.94    2.58   0
  -4  -5   4    6.36    2.26   0
  -4  -3   7  132.40    3.30   0
  -4  -2   8   36.48    2.75   0
  -3  -5   1   63.01    2.72   0
  -3  -1   8  117.31    3.01   0
  -3   1 -12    4.55    1.95   0
  -2   1 -10   93.15    2.74   0
  -2   2   9    2.53    2.21   0
  -2   3 -11  121.77    3.02   0
  -2   4  10   66.24    2.52   0
  -1  -1   4   57.76    2.65   0
  -1   3  -9   46.28    2.36   0
   0   1  -4  351.01    4.43   0
   0   4   7    2.77    2.80   0
   0   6   8   89.15    3.30   0
   0   9  -7   19.64    2.45   0
   1   4  -2  122.06    3.80   0
   1   5  -3    0.25    2.22   0
   1   7  -4   35.81    2.21   0
   1   8  -4  160.71    3.15   0
   1  10  -3    2.58    2.04   0
   1  11  -2   -1.14    2.29   0
   1  12   1   85.27    2.98   0
  -6  -7   3   27.59    2.40   0
  -5  -7   1   15.35    2.29   0
  -5  -4 -11   83.91    2.89   0
  -4  -4   6   64.89    2.82   0
  -4  -1   9    0.57    2.08   0
  -3  -4   4   10.11    2.06   0
  -3  -2   7   -1.55    2.09   0
  -3   0   9   25.53    2.45   0
  -2  -2  -7  223.27    3.95   0
  -2   4 -11    5.51    2.30   0
  -1  -1  -5 1601.41    9.38   0
  -1   1   7   78.11    2.71   0
  -1   4  -9  224.03    3.28   0
  -1   4   9   85.80    2.71   0
   0   1   4  293.76    4.90   0
   0   2  -5  137.15    2.97   0
   0   3  -6    5.70    2.11   0
   0   5  -7  636.28    4.62   0
   0   6  -7  170.95    3.20   0
   0   7  -7    4.17    2.41   0
   0   8  -7  234.99    3.09   0
  -6  -8   0    0.54    1.96   0
  -5  -6   4   79.81    2.50   0
  -5  -4   7   46.61    2.46   0
  -4  -6   2  173.20    3.22   0
  -4  -1 -12  138.30    2.55   0
  -3  -5   2  416.54    4.35   0
  -3  -3   6  135.41    2.90   0
  -3   0 -11    2.10    1.80   0
  -2  -4  -1  747.24    8.45   0
  -2  -3  -5   33.51    3.43   0
  -2  -1  -8  149.02    3.13   0
  -2  -1   7  395.25    4.13   0
  -2   0  -9  694.45    5.05   0
  -2   0   8  106.28    2.65   0
  -2   3  10   29.84    2.36   0
  -1  -2   2 1525.07    9.33   0
  -1   0   6  445.03    4.34   0
  -1   2  -8 1231.13    6.35   0
  -1   2   8  333.48    4.05   0
  -1   5  -9   93.10    2.76   0
   1   6  -3  584.80    4.92   0
   1   7  -3   33.19    2.46   0
   1   8  -3   18.37    2.44   0
   1   9  -3  112.90    2.72   0
   1  10  -2  249.12    3.72   0
   1  11  -1   13.01    2.16   0
   1  11   3    8.41    2.73   0
  -6  -8   1   18.44    2.32   0
  -5  -7   2   23.84    2.30   0
  -5  -5   6  229.25    3.27   0
  -4  -5   5  348.09    3.94   0
  -4  -4  -9  160.40    3.71   0
  -4  -2 -11    2.67    2.24   0
  -3  -3  -8  176.35    3.89   0
  -3  -1 -10   55.71    2.56   0
  -3   1  10   44.94    2.31   0
  -2  -4   0  304.43    4.79   0
  -2  -3   4  110.59    2.80   0
  -2  -2   6   24.39    2.55   0
  -2   1   9   90.47    2.55   0
  -2   2 -10   99.58    2.50   0
  -1   0  -6   22.95    2.46   0
  -1   1  -7   46.18    2.31   0
  -1   6  -9    7.03    2.08   0
  -1   6  10   19.84    2.29   0
  -1   7  -9   39.13    2.31   0
   0   4  -6  254.29    3.38   0
   0   5   8   88.46    2.93   0
   0   9  -6   18.73    2.34   0
   1   4  -1   41.23    3.03   0
   1   5  -2   46.74    2.79   0
   1  10   4   23.99    3.67   0
   1  11   0    5.30    2.22   0
   1  11   1   29.31    2.54   0
   1  11   2   12.80    2.59   0
  -5  -6   5    3.94    2.26   0
  -4  -6   3   65.92    2.65   0
  -4  -3 -10   20.61    2.42   0
  -4  -3   8  210.51    3.38   0
  -4   0 -12    9.98    2.06   0
  -3  -4   5   60.91    2.38   0
  -3  -2  -9   10.14    2.33   0
  -3  -2   8  259.44    3.63   0
  -3  -1   9    1.97    2.34   0
  -3   1 -11    1.79    2.19   0
  -2  -4  -2 1767.51   16.97   0
  -2  -4   1  305.90    4.84   0
  -2   3 -10  105.76    2.79   0
  -1  -1   5   18.05    2.14   0
  -1   3  -8   -1.34    2.02   0
  -1   3   9    0.72    2.19   0
   0   1  -3   80.47    3.37   0
   0   2   6    1.04    2.07   0
   0   3   7   32.07    2.56   0
   0   5  -6    1.79    2.08   0
   0   8  -6    0.25    2.12   0
   1   5   5  312.52    7.06   0
   1   7   6    3.54    4.72   0
   1   9  -2  304.23    3.82   0
   1  10  -1   35.91    2.49   0
  -6  -8   2   79.28    2.49   0
  -5  -7   3    3.94    2.07   0
  -4  -4   7   45.75    2.37   0
  -3  -5   3   63.27    2.18   0
  -3  -3   7  141.37    2.86   0
  -3   0  10   -1.23    2.23   0
  -2   1  -9  221.70    3.40   0
  -2   2  10   32.24    2.23   0
  -2   4 -10   32.71    2.44   0
  -1  -2   3  462.58    4.85   0
  -1   4  -8    6.53    2.41   0
  -1   5  10    5.36    2.04   0
  -1   8  -8   19.88    2.39   0
   0   2  -4  836.22    6.05   0
   0   3  -5 1829.07    7.84   0
   0   6  -6   96.07    2.63   0
   0   7  -6   31.15    2.10   0
   0  10  -5  169.66    3.15   0
   1   4   0  163.00    4.39   0
   1   6  -2  533.64    5.08   0
   1   7  -2  644.56    5.41   0
   1   8  -2   90.07    2.76   0
  -4  -5   6  331.66    3.85   0
  -3   2 -11   65.16    2.59   0
  -2  -4   2 3061.43   11.29   0
  -2  -3   5  229.62    3.29   0
  -2  -1   8   23.07    2.22   0
  -2   0   9   92.81    2.77   0
  -2   5 -10   37.58    2.21   0
  -1   0   7  227.34    3.18   0
  -1   1   8  454.31    4.24   0
  -1   2  -7  240.19    3.35   0
  -1   4  10  137.68    3.10   0
  -1   5  -8  363.61    3.90   0
  -1   6  -8   80.33    2.71   0
  -1   7  -8   19.76    2.14   0
   0   0   2 3322.31   17.75   0
   0   1   5 1908.23    9.61   0
   0   4   8   11.32    2.19   0
   0   7   9   80.51    3.10   0
   0   8   9   14.61    2.70   0
   0   9  -5   16.48    2.24   0
   1   4   4    5.67    4.19   0
   1   5  -1  891.05    7.14   0
   1   9  -1  197.90    3.26   0
   1  10   0   13.04    2.29   0
  -6  -8   3    1.93    2.00   0
  -5  -6   6    9.77    2.26   0
  -4  -6   4   72.42    2.36   0
  -4  -5  -7  468.24    6.94   0
  -4  -1 -11   10.74    2.05   0
  -3  -5   4   19.09    2.18   0
  -3  -4  -6  960.95    9.13   0
  -3  -4   6  690.66    5.01   0
  -3   0 -10  299.03    3.58   0
  -3   3 -11   85.32    2.76   0
  -2  -2   7  664.39    4.84   0
  -2   0  -8   49.27    2.48   0
  -2   1  10  285.70    3.64   0
  -1  -1   6 1522.36    7.20   0
  -1   2   9  143.52    2.78   0
   0   4  -5  301.16    3.51   0
   0   6   9   15.06    2.53   0
   0   8  -5    7.70    2.18   0
   1   4   1  546.36    8.39   0
   1   6  -1  290.50    4.25   0
   1   6   6  922.98   10.57   0
   1   8  -1  225.60    3.86   0
   1  10   1   47.85    2.78   0
   1  10   2  305.36    4.97   0
   1  10   3   65.48    3.51   0
  -5  -8  -2   68.22    2.96   0
  -5  -8  -1   99.44    2.94   0
  -5  -8   0   52.67    2.66   0
  -5  -7   4   45.48    2.25   0
  -5  -5  -9   62.29    3.10   0
  -5  -3 -11   29.82    2.25   0
  -4  -7  -1   68.70    2.95   0
  -4  -7   0    5.85    2.16   0
  -4  -4   8   11.06    2.02   0
  -3  -3   8   73.92    2.75   0
  -3  -2   9   52.78    2.34   0
  -3  -1  10    9.40    2.34   0
  -3   4 -11   56.59    2.28   0
  -2  -4   3  874.00    5.81   0
  -2  -2  -6 1550.62    8.94   0
  -2  -1  -7  196.93    3.54   0
  -2   2  -9  327.07    3.49   0
  -1  -2   4   63.20    2.43   0
  -1  -1  -4  304.12    4.99   0
  -1   1  -6   68.75    2.63   0
  -1   3  10    9.41    2.03   0
  -1   9  -7   44.75    2.23   0
   0   0   3   54.48    3.21   0
   0   2   7  728.42    5.52   0
   0   5  -5  524.43    4.26   0
   0   6  -5  220.17    3.24   0
   0   7  -5  912.83    5.16   0
   0  10  -4  175.17    2.75   0
   0  11  -3    9.60    2.05   0
   1   4   2  393.19   10.09   0
   1   7  -1 1046.75    7.04   0
   1   9   0   20.41    2.43   0
  -5  -8   1  184.25    3.03   0
  -5  -4 -10    0.65    2.07   0
  -4  -7  -2  797.67    7.15   0
  -4  -7   1    0.45    2.03   0
  -4  -6   5    6.46    1.92   0
  -4  -5   7   11.96    2.02   0
  -4  -2 -10  209.72    3.31   0
  -3  -5   5  123.76    2.90   0
  -3  -1  -9  795.21    5.28   0
  -3   1 -10  398.13    3.95   0
  -2  -3   6   76.40    2.54   0
  -2   3  -9   95.42    2.42   0
  -2   7  -9   51.86    2.68   0
  -1   0  -5   66.14    3.09   0
  -1   0   8  290.51    3.74   0
  -1   3  -7   85.56    2.58   0
  -1   8  -7   64.54    2.37   0
   0   1   6  719.63    5.56   0
   0   3  -4  952.16    6.03   0
   0   3   8  476.40    4.62   0
   0   5   9    5.81    2.20   0
   0   9  -4   11.24    2.23   0
   1   5   0   94.58    3.63   0
   1   8   0  569.62    5.55   0
   1   9   1   32.03    2.61   0
  -6  -9  -2   10.97    2.16   0
  -6  -9  -1   46.72    2.36   0
  -6  -9   0   44.69    2.36   0
  -5  -8  -3   38.28    2.97   0
  -5  -8   2   45.36    2.21   0
  -5  -7   5    7.20    2.13   0
  -4  -7   2   73.66    2.59   0
  -4   0 -11   32.46    2.20   0
  -3  -6   0  387.45    4.71   0
  -3  -6   1   10.66    2.34   0
  -3  -4   7  423.98    3.93   0
  -2  -4   4 1044.78    5.80   0
  -2  -2   8  165.79    2.93   0
  -2  -1   9  102.03    2.52   0
  -2   0  10    7.55    1.97   0
  -2   4  -9   24.77    2.12   0
  -2   5  -9  219.38    3.36   0
  -2   6  -9  123.97    2.64   0
  -1  -2   5   62.18    2.32   0
  -1  -1   7 2105.94    8.26   0
  -1   1   9   31.44    2.04   0
  -1   4  -7  129.97    2.68   0
  -1   5  -7 1478.11    6.49   0
  -1   6  -7  173.66    3.12   0
  -1   7  -7  340.06    3.54   0
   0   0   4 3346.06   12.97   0
   0   1  -2    6.55    2.97   0
   1   6   0  300.96    4.78   0
   1   7   0   14.76    2.44   0
   1   9   4   43.96    4.06   0
  -6  -9  -3    4.94    2.25   0
  -6  -9   1   10.36    1.95   0
  -4  -7   3  185.56    3.02   0
  -4  -6   6   41.76    2.37   0
  -4  -4  -8   12.33    2.42   0
  -4  -3  -9  130.55    3.05   0
  -3  -6  -1  184.89    4.06   0
  -3  -6   2    2.14    2.07   0
  -3  -3  -7   12.47    2.53   0
  -3  -3   9   36.44    2.54   0
  -3  -2  -8  223.83    3.56   0
  -3  -2  10   24.24    2.42   0
  -3   2 -10   28.43    2.23   0
  -2  -3   7  140.79    3.05   0
  -2   1  -8  175.92    2.76   0
  -2   1  11   33.34    2.38   0
  -1   2  10  142.62    2.95   0
  -1   4  11  161.55    2.83   0
  -1   9  -6  179.29    3.15   0
   0   2  -3  265.79    3.91   0
   0   4  -4 1224.34    6.57   0
   0   4   9    7.72    1.99   0
   0   8  -4   14.53    1.97   0
   0  10  -3   79.73    2.24   0
   0  11  -2   26.31    2.11   0
   1   5   6    3.25    2.95   0
   1   9   2  277.18    4.78   0
   1   9   3   12.27    3.29   0
  -6  -6  -9    1.84    2.27   0
  -6  -5 -10   38.88    2.57   0
  -5  -8   3    4.99    1.91   0
  -5  -2 -11   33.25    2.10   0
  -4  -7  -3  290.54    5.79   0
  -4  -5   8   35.99    2.23   0
  -4   1 -11   52.83    2.45   0
  -3  -6   3   50.33    2.35   0
  -3  -5   6    2.52    1.93   0
  -3  -4   8   29.67    2.44   0
  -3   3 -10  180.80    3.01   0
  -2  -4   5    0.50    1.84   0
  -1   2  -6   21.06    1.92   0
   0   0   5  549.36    5.38   0
   0   2   8  327.14    3.89   0
   0   5  -4  376.78    3.81   0
   0   6  -4  232.37    3.26   0
   0   7  -4    4.31    1.95   0
   1   4   5    1.01    3.06   0
   1   5   1  265.17    5.44   0
   1   8   1   10.53    2.46   0
  -5  -8   4  252.21    3.37   0
  -4  -7   4    7.38    1.86   0
  -4  -1 -10  356.62    3.79   0
  -4   2 -11   72.31    2.61   0
  -3   0  -9  131.02    2.83   0
  -3   4 -10   69.89    2.29   0
  -3   5 -10    8.61    1.97   0
  -2  -2   9  451.69    3.96   0
  -2  -1  10   67.80    2.40   0
  -2   0  -7   36.32    2.16   0
  -2   2  -8  914.65    5.44   0
  -2   7  -8  177.07    3.10   0
  -1  -2   6   76.74    2.32   0
  -1  -1   8   14.54    2.38   0
  -1   0   9  128.17    2.61   0
  -1   1  10   34.10    2.23   0
  -1   3  11    8.89    2.04   0
  -1   8  -6   12.51    1.90   0
  -1  10  -5   10.38    1.95   0
   0   1   7  503.68    4.31   0
   0   3   9  141.24    2.83   0
   0   6  10  131.22    3.05   0
   0   7  10  100.85    2.91   0
   0   9  -3  322.42    3.44   0
   0  10  -2   20.76    2.22   0
   0  11  -1   13.60    2.23   0
   1   7   1  212.52    4.31   0
  -4  -6   7   29.61    2.05   0
  -4   3 -11    2.95    1.89   0
  -3  -6   4   22.45    1.96   0
  -3  -5   7   27.51    2.27   0
  -2  -4   6  783.57    4.97   0
  -2  -3   8  110.62    2.46   0
  -2   0  11   17.01    1.95   0
  -2   3  -8   60.23    2.25   0
  -2   6  -8    3.60    2.26   0
  -1  -3   2  936.80    6.89   0
  -1  -3   3  277.51    3.88   0
  -1   1  -5   18.28    2.47   0
  -1   3  -6   23.01    2.06   0
  -1   7  -6    1.93    1.71   0
   0   3  -3 4907.68   13.73   0
   0   5  10   11.85    2.12   0
   0   8  -3 1508.90    6.68   0
   1   6   1   19.85    2.80   0
   1   6   7   65.57    3.94   0
   1   7   7  201.80    5.72   0
   1   8   2    0.61    2.71   0
  -6  -9  -4    9.27    2.56   0
  -5  -8  -4   43.45    3.75   0
  -5  -3 -10   12.65    2.11   0
  -5  -1 -11  130.66    2.71   0
  -4  -7   5  217.61    3.08   0
  -3  -6  -2   74.26    3.43   0
  -3  -6   5   97.05    2.60   0
  -3  -4   9    3.89    2.12   0
  -3   1  -9  701.53    4.90   0
  -2  -5   1  724.17    5.75   0
  -2  -5   2   50.53    2.37   0
  -2  -3  -4  119.40    4.82   0
  -2   4  -8  411.65    3.77   0
  -2   5  -8  141.58    2.65   0
  -1  -3   1  405.15    5.34   0
  -1  -3   4 1095.86    6.36   0
  -1  -2   7  284.73    3.44   0
  -1   2  11   70.85    2.52   0
  -1   4  -6   35.94    2.20   0
  -1   5  -6   13.50    1.94   0
  -1   6  -6    1.42    1.96   0
  -1   9  -5  151.85    2.72   0
   0   0   6  426.38    4.21   0
   0   4  10  136.82    3.01   0
   0  11   0   38.58    2.36   0
   1   4   6  292.29    5.20   0
  -4  -7   6   12.66    2.09   0
  -4  -2  -9   64.30    2.57   0
  -4   0 -10  157.25    2.93   0
  -3  -1  -8 1478.86    7.11   0
  -3   6  -9   12.58    2.28   0
  -2  -5   3  593.96    4.53   0
  -2  -5   4  149.06    2.89   0
  -2  -4   7  597.13    4.32   0
  -2  -2  10   16.26    2.22   0
  -2  -1  -6  102.42    2.88   0
  -2  -1  11  160.25    3.04   0
  -2   1  -7  247.05    3.28   0
  -2   8  -7   15.87    1.94   0
  -1  -3   5    8.20    2.20   0
  -1  -1   9  378.78    3.77   0
  -1   0  10    6.94    2.09   0
  -1  10  -4   72.42    2.49   0
   0   1   8  117.50    2.68   0
   0   2   9    5.64    2.06   0
   0   4  -3   93.65    2.89   0
   0   7  -3 2383.35    8.18   0
   0   9  -2  144.85    2.86   0
   0  10  -1   51.13    2.51   0
   1   5   7  418.08    5.77   0
   1   7   2  159.77    4.31   0
   1   8   3   52.97    3.68   0
   1   8   4 1004.62   11.11   0
  -5  -9   0  275.48    3.68   0
  -5  -9   1   11.01    2.10   0
  -5  -9   2    5.21    2.08   0
  -5  -6  -7   16.48    3.28   0
  -5  -4  -9   98.71    3.12   0
  -5   0 -11  174.40    2.96   0
  -4  -8   1  140.84    3.03   0
  -4  -8   2   33.24    2.50   0
  -3  -6   6   15.80    1.90   0
  -3  -5   8   24.78    2.10   0
  -3   2  -9    2.04    1.77   0
  -3   3  -9    3.90    2.06   0
  -3   4  -9  169.20    3.07   0
  -3   5  -9   47.50    2.26   0
  -2  -5   0    2.12    2.45   0
  -2  -3   9    0.18    1.97   0
  -2  -2  -5  238.22    4.41   0
  -1  -2   8  343.76    3.80   0
  -1   0  -4  109.05    3.30   0
  -1   1  11    1.56    2.13   0
  -1   8  -5  171.73    2.80   0
   0   0   7  266.72    3.44   0
   0   2  -2 1508.91    9.45   0
   0   3  10    2.42    1.93   0
   0   5  -3   22.99    1.94   0
   0   6  -3  552.81    4.29   0
   1   5   2  504.12    8.64   0
  -5  -9  -1  190.10    3.58   0
  -5  -9   3    3.82    1.93   0
  -5   1 -11    8.36    2.06   0
  -4  -8   0   86.09    2.71   0
  -4  -8   3   72.89    2.43   0
  -4  -7   7   21.02    2.16   0
  -4   1 -10  133.65    2.70   0
  -4   2 -10   38.81    2.39   0
  -2  -5   5  148.18    2.60   0
  -2  -4   8   60.30    2.46   0
  -2   2  -7    4.89    2.05   0
  -2   7  -7    1.78    1.90   0
  -2   9  -6  116.92    2.77   0
  -1  -3   0 2029.46   13.19   0
  -1  -3   6  151.50    2.82   0
  -1  -1  -3 1133.83   10.05   0
  -1   2  -5 1270.82    6.52   0
  -1   7  -5  212.89    2.94   0
  -1   9  -4    4.23    2.13   0
   0  -1   3   74.89    2.87   0
   0  -1   4  341.74    4.14   0
   0   5  11   78.85    2.49   0
   0   8  -2  723.18    4.96   0
   0  11   1   90.39    2.65   0
   1   3   5 2092.34   12.88   0
   1   6   2  547.17    7.37   0
  -6 -10  -1   11.96    2.09   0
  -6  -4 -10   49.63    2.43   0
  -5  -5  -8   20.36    2.58   0
  -5  -2 -10  276.99    3.41   0
  -4  -8   4   35.14    2.21   0
  -4  -3  -8   59.09    2.59   0
  -4   3 -10   16.72    1.90   0
  -4   4 -10  106.34    2.59   0
  -3  -7   2  431.63    4.02   0
  -3  -7   3   54.88    2.32   0
  -3  -6   7   98.88    2.43   0
  -3  -5   9   43.59    2.24   0
  -3  -2  -7   31.90    2.28   0
  -3   0  -8    1.05    1.97   0
  -2  -5   6   23.49    1.92   0
  -2   3  -7  166.24    3.02   0
  -2   5  -7   48.39    2.37   0
  -2   6  -7   14.35    1.91   0
  -1  -1  10   70.68    2.53   0
  -1   3  -5   13.87    1.85   0
  -1   6  -5   41.54    2.29   0
  -1  10  -3    5.26    2.06   0
  -1  11  -2  362.17    3.83   0
   0  -1   5 1442.29    7.28   0
   0   0   8  633.70    4.62   0
   0   1   9  105.90    2.50   0
   0   2  10  143.40    2.83   0
   0   4  11   15.48    2.24   0
   0   9  -1   23.25    2.36   0
   0  10   0  296.94    3.69   0
   1   4   7   22.79    2.40   0
   1   6   8   37.55    3.17   0
   1   7   3    2.35    3.09   0
  -4  -8  -1   41.67    2.49   0
  -4  -8   5   54.14    2.36   0
  -4  -1  -9   58.56    2.43   0
  -3  -7   1  293.88    3.76   0
  -3  -7   4    7.45    2.04   0
  -3   7  -8   30.41    2.13   0
  -2  -3  10    5.88    1.88   0
  -2   0  -6  856.17    5.76   0
  -2   4  -7    2.10    1.81   0
  -2   8  -6    3.26    2.03   0
  -1  -3   7 1117.49    5.91   0
  -1  -2   9   52.24    2.15   0
  -1   0  11   22.50    2.07   0
  -1   4  -5   86.80    2.39   0
  -1   5  -5   15.92    1.90   0
   0  -1   2    6.49    2.76   0
   0  -1   6  112.16    2.55   0
   0   7  -2  217.89    3.32   0
   0  11   2   19.79    2.26   0
   1   3   6   30.40    2.61   0
   1   5   8  732.31    6.48   0
   1   7   8    4.31    3.00   0
  -6 -10  -2    2.23    2.05   0
  -5  -9  -2    6.27    2.49   0
  -3  -7   0  239.81    3.98   0
  -3  -7   5  648.07    4.81   0
  -3  -6   8  161.68    2.70   0
  -3  -3  -6  182.24    3.91   0
  -3   1  -8  191.58    2.99   0
  -3   6  -8  225.11    3.16   0
  -2  -5   7   69.71    2.26   0
  -2  -4   9   64.21    2.28   0
  -1  -3   8  690.63    4.65   0
  -1   8  -4  122.03    2.57   0
   0  -1   7   33.11    2.10   0
   0   1  10  124.93    2.69   0
   0   3  -2  551.88    5.32   0
   0   3  11   33.40    2.17   0
   0   6  -2   96.94    2.52   0
   1   3   3  402.42   11.01   0
   1   3   7  467.33    5.21   0
   1   4   8    2.20    2.50   0
  -6  -5  -9    2.57    1.99   0
  -5  -1 -10   30.32    2.06   0
  -4  -8   6  149.42    2.71   0
  -4  -4  -7  109.70    3.32   0
  -4   0  -9  158.80    2.83   0
  -3  -7   6  327.17    3.62   0
  -3   2  -8   75.91    2.42   0
  -3   4  -8 1065.99    5.60   0
  -3   5  -8   65.18    2.31   0
  -2  -5  -1 2102.28   12.21   0
  -2  -5   8   56.84    2.34   0
  -2   7  -6    2.10    1.82   0
  -2   9  -5  128.86    2.86   0
  -1  -4   3  857.10    5.73   0
  -1  -4   4   48.45    2.07   0
  -1  -4   5   45.06    2.25   0
  -1  -2  10   88.43    2.49   0
  -1  -1  11   43.42    2.32   0
  -1   1  -4  250.73    3.74   0
  -1   7  -4    8.25    2.11   0
  -1   9  -3  298.14    3.41   0
  -1  11  -1    2.28    2.00   0
   0   0   9   39.02    2.13   0
   0   2  11  368.57    3.63   0
   0   4  -2  834.11    6.25   0
   0   5  -2  254.38    3.65   0
   0   8  -1   78.96    2.46   0
   0  10   1   10.15    2.11   0
   0  11   3    6.95    2.12   0
  -5  -3  -9   45.79    2.38   0
  -5   0 -10  296.34    3.49   0
  -4  -5  -6  208.54    5.02   0
  -4   1  -9  411.67    4.07   0
  -4   5  -9    3.83    1.82   0
  -3  -4  -5 1059.32    9.90   0
  -3   3  -8   48.22    2.16   0
  -2  -6   3  172.50    2.99   0
  -2  -6   4  374.46    3.45   0
  -2  -6   5    8.27    2.04   0
  -2  -4  10    3.98    1.79   0
  -2   1  -6   39.25    2.19   0
  -2   6  -6  619.20    4.53   0
  -2  10  -4    7.17    2.09   0
  -1  -4   2  134.98    3.29   0
  -1  -4   6  103.28    2.51   0
  -1  10  -2   20.09    2.09   0
   0  -1   8  904.52    5.25   0
   0   9   0   47.93    2.48   0
   1   2   5  581.28    6.88   0
   1   3   8   99.12    3.03   0
   1   5   9   41.94    2.65   0
   1   6   9   98.14    3.37   0
  -6  -3 -10   31.14    1.98   0
  -5   1 -10   27.25    2.20   0
  -5   2 -10    2.72    2.09   0
  -5   3 -10   47.50    2.47   0
  -4  -8  -2    3.23    2.37   0
  -4  -2  -8   60.24    2.44   0
  -4   2  -9   33.33    2.19   0
  -4   3  -9  200.71    3.08   0
  -4   4  -9   88.42    2.43   0
  -3  -7   7   17.91    1.88   0
  -3  -1  -7   33.33    2.23   0
  -3   7  -7   12.60    1.92   0
  -2  -6   2    8.33    1.74   0
  -2  -6   6  403.17    3.89   0
  -2  -5   9  131.46    2.72   0
  -2   5  -6  120.14    2.69   0
  -2   8  -5   14.08    2.19   0
  -1  -4   7    0.10    2.04   0
  -1  -3   9   29.23    1.92   0
  -1   6  -4   35.88    1.93   0
   0  -2   5  140.19    2.90   0
   0   0  10  195.56    3.00   0
   0   1  11   24.14    2.06   0
   0   3  12   20.94    1.97   0
   0  11   4   26.76    2.45   0
   1   2   6   41.50    2.45   0
   1   4   9   71.43    2.54   0
   1   6   3    4.49    3.17   0
   1   7   9   37.41    2.93   0
  -6  -7  -7   58.76    3.56   0
  -6  -6  -8  118.08    3.23   0
  -5 -10   1    5.16    1.96   0
  -5 -10   2   10.53    1.77   0
  -4  -9   2   27.00    2.09   0
  -4  -9   3  361.33    3.52   0
  -4  -9   4   16.54    1.94   0
  -3  -7  -1  170.32    3.66   0
  -3  -7   8   83.90    2.51   0
  -2  -1  -5 1918.14    9.28   0
  -2   2  -6 1122.33    5.78   0
  -2   3  -6  230.93    3.20   0
  -2   4  -6  184.15    2.87   0
  -1  -2  11   47.76    2.13   0
  -1   2  -4  354.76    3.98   0
  -1   5  -4  537.54    4.30   0
  -1   8  -3  336.99    3.44   0
   0  -2   4  790.84    5.54   0
   0  -2   6  339.46    3.45   0
   0  -1   9  129.78    2.68   0
   0   2  12   23.07    2.21   0
   0   7  -1   11.45    2.06   0
   1   2   4 1186.58   10.19   0
   1   2   7  179.44    3.29   0
   1   7   4  163.91    5.66   0
  -6 -10  -3   14.02    2.40   0
  -6  -2 -10   33.90    2.12   0
  -5  -2  -9  642.28    4.76   0
  -4  -9   1  809.12    5.17   0
  -4  -9   5    1.56    1.61   0
  -4   6  -8    0.78    2.20   0
  -3  -8   3   19.41    1.98   0
  -3  -8   4    2.20    1.94   0
  -3   0  -7   60.56    2.39   0
  -3   6  -7   11.92    1.91   0
  -3   8  -6  110.16    2.41   0
  -2  -6   1   66.42    2.44   0
  -2  -6   7   14.80    1.84   0
  -2   7  -5   40.91    2.22   0
  -2   9  -4   74.13    2.27   0
  -1  -4   8   45.73    2.05   0
  -1  -3  10    3.27    1.77   0
  -1   3  -4  795.50    5.28   0
  -1   4  -4   10.71    1.81   0
  -1   9  -2   27.74    2.16   0
  -1  10  -1    0.49    1.86   0
  -1  11   0  127.07    2.56   0
   0  -2   3  283.05    3.98   0
   0  -2   7  133.50    2.54   0
   0  10   2   51.08    2.51   0
   1   2   8   53.30    2.54   0
   1   3   9  264.91    3.51   0
   1   5  10   65.66    2.66   0
  -5 -10   0   20.35    2.10   0
  -5  -9  -3   23.58    2.74   0
  -5  -4  -8    8.77    1.99   0
  -4  -1  -8   15.31    2.02   0
  -3  -8   2   16.05    2.04   0
  -3  -8   5  170.33    2.58   0
  -3  -8   6   39.90    2.24   0
  -3   5  -7    7.72    1.86   0
  -2  -6   8   43.84    2.12   0
  -2  10  -3   14.31    1.78   0
  -1  -4   1   42.63    2.63   0
  -1  -4   9   93.02    2.56   0
  -1   7  -3   55.13    2.35   0
   0  -2   8  224.25    3.01   0
   0  -1  10  590.41    4.28   0
   0   0  11   96.32    2.29   0
   0   1  12   17.69    2.04   0
   0   2  -1  101.55    3.92   0
   0   6  -1  128.76    2.80   0
   0   8   0   63.49    2.59   0
   0   9   1   29.55    2.21   0
   1   4  10    1.63    1.93   0
   1   6  10    2.24    2.07   0
  -6  -4  -9   13.16    1.97   0
  -6  -1 -10   84.16    2.44   0
  -5  -1  -9   83.53    2.45   0
  -4  -9   0   56.83    2.48   0
  -4   5  -8    5.78    1.87   0
  -3  -8   7    2.39    1.99   0
  -3   1  -7    0.26    1.61   0
  -3   2  -7   13.81    1.98   0
  -3   3  -7   34.08    2.21   0
  -3   4  -7   18.16    1.91   0
  -3   7  -6   93.71    2.68   0
  -2  -6   9    1.86    2.08   0
  -2   6  -5   20.28    2.23   0
  -2   8  -4  199.40    3.15   0
  -1  -5   4   59.15    2.23   0
  -1  -5   5   35.05    1.91   0
  -1  -5   6  163.02    2.63   0
  -1  -3  11  163.53    2.67   0
  -1   0  -3 1919.59   10.92   0
  -1  11   1   37.72    2.13   0
   0  -2   9  149.10    2.76   0
   0   5  -1  248.87    3.76   0
   0  10   3   23.98    2.59   0
   1   1   5 1524.67    9.49   0
   1   1   6    7.53    2.04   0
   1   1   7  492.15    4.76   0
   1   2   9  402.24    4.09   0
   1   3  10   83.61    2.61   0
   1   7  10  203.16    4.17   0
  -6   0 -10  151.29    2.58   0
  -6   1 -10   11.68    2.04   0
  -5 -10  -1   15.24    2.09   0
  -5   3  -9  371.16    4.30   0
  -5   4  -9    5.82    1.96   0
  -4  -3  -7  738.94    5.82   0
  -4   0  -8  103.70    2.61   0
  -4   4  -8   17.68    1.94   0
  -4   7  -7   -0.95    1.85   0
  -3  -8   1  511.38    4.37   0
  -3  -2  -6  783.51    5.88   0
  -2  -7   4  160.65    2.79   0
  -2  -7   5   64.78    2.34   0
  -2  -7   6  102.68    2.51   0
  -2  -6   0  139.83    3.36   0
  -2   0  -5  129.24    3.14   0
  -1  -5   3    1.37    1.81   0
  -1  -5   7   13.15    1.81   0
  -1  -4  10   63.56    2.19   0
  -1   6  -3  511.00    4.27   0
  -1   8  -2  219.32    3.16   0
   0  -3   6    3.65    1.95   0
   0  -1  11   11.18    2.10   0
   0   0  12  223.74    3.07   0
   1   1   8   79.21    2.71   0
  -5   0  -9   80.61    2.19   0
  -5   1  -9   77.81    2.40   0
  -5   2  -9   13.36    1.87   0
  -4   1  -8   13.23    1.78   0
  -4   2  -8   75.35    2.12   0
  -4   3  -8    6.08    1.64   0
  -3   6  -6  130.51    2.78   0
  -3   8  -5    7.82    2.17   0
  -2  -7   3   94.50    2.44   0
  -2  -7   7  253.80    3.22   0
  -2   5  -5  263.51    3.22   0
  -2   9  -3   21.82    1.86   0
  -2  10  -2    5.65    1.92   0
  -1  -5   8  164.33    2.59   0
  -1   9  -1   11.62    2.04   0
  -1  10   0   31.63    1.99   0
   0  -3   5 1747.09    7.31   0
   0  -3   7 1314.32    6.00   0
   0  -2   2 1710.58    9.73   0
   0  -2  10    3.58    1.66   0
   0   3  -1  851.80    7.10   0
   0   4  -1   84.33    2.74   0
   0   7   0  261.91    3.68   0
   1   1   9  228.02    3.25   0
   1   2  10   27.36    2.09   0
   1   4  11    8.43    1.99   0
   1   5  11  135.92    2.86   0
   1   6  11    3.96    2.29   0
  -6  -3  -9   13.18    1.97   0
  -5  -5  -7  219.48    4.39   0
  -5  -3  -8   25.98    2.10   0
  -4   6  -7   -0.43    1.80   0
  -2  -7   2  325.45    3.63   0
  -2  -7   8    5.74    2.06   0
  -2  -2  -4    7.00    2.32   0
  -2   1  -5   99.95    2.75   0
  -2   4  -5  261.58    3.17   0
  -2   7  -4 1158.49    5.71   0
  -1  -5   9  257.37    2.99   0
  -1   5  -3  604.58    4.64   0
   0  -3   4  964.97    5.80   0
   0  -3   8  550.64    4.01   0
   0  -1  12    7.36    2.11   0
   0   8   1   20.95    2.32   0
   0   9   2  631.63    5.29   0
   1   0   7 1850.63    7.91   0
   1   1   4  290.91    4.98   0
   1   3  11  143.99    2.70   0
  -6  -5  -8   20.68    2.47   0
  -5   5  -8   19.94    2.09   0
  -4 -10   3    3.77    1.72   0
  -4  -9  -1    8.09    1.96   0
  -3  -9   4    7.69    1.80   0
  -3  -9   5  120.73    2.56   0
  -3  -8   0  512.86    4.91   0
  -3  -1  -6   45.55    2.38   0
  -3   5  -6   20.77    1.90   0
  -3   9  -4    5.19    1.85   0
  -2   2  -5  483.67    4.18   0
  -2   3  -5  699.73    4.76   0
  -1  -5   2   48.48    2.15   0
  -1   1  -3  985.04    7.06   0
  -1   4  -3   68.13    2.52   0
  -1   7  -2  427.50    3.96   0
  -1  11   2  126.57    2.78   0
   0  -3   9  108.08    2.35   0
   0  -2  11    2.18    1.82   0
   0  10   4  108.17    3.00   0
   1   0   6   21.59    1.95   0
   1   0   8 1499.93    7.11   0
   1   1  10  108.67    2.59   0
   1   2  11   18.92    2.01   0
  -6  -2  -9    5.64    2.01   0
  -4 -10   2   15.79    1.84   0
  -4  -2  -7    3.31    2.26   0
  -4   5  -7  291.59    3.69   0
  -4   7  -6    5.49    2.12   0
  -3  -9   3   55.80    2.18   0
  -3  -9   6   26.57    1.82   0
  -3   4  -6   37.05    2.26   0
  -3   7  -5   68.29    2.25   0
  -2   6  -4 1531.74    7.18   0
  -2   8  -3  118.70    2.66   0
  -1  -6   5   11.68    2.00   0
  -1  -6   6 1287.93    5.90   0
  -1  -6   7  437.54    3.85   0
  -1  -5  10   14.03    1.92   0
  -1  -4   0  172.62    3.96   0
  -1   2  -3  857.63    6.43   0
  -1   3  -3  149.15    3.01   0
   0  -3   3 4910.35   13.33   0
   0  -3  10   73.49    2.37   0
   0   6   0  124.85    3.10   0
   1   0   5   63.83    2.90   0
   1   0   9   41.53    2.04   0
   1   3  12   65.15    2.41   0
   1   4  12   11.43    1.96   0
  -6   2  -9    7.14    2.05   0
  -5  -2  -8   23.90    2.27   0
  -5   4  -8   25.89    1.90   0
  -4 -10   1  469.64    4.20   0
  -4   4  -7   32.48    2.25   0
  -3   0  -6   15.88    1.88   0
  -2  -7   1   93.65    2.79   0
  -2   9  -2   27.59    2.08   0
  -2  10  -1   17.76    2.04   0
  -1  -6   4   27.86    1.98   0
  -1  -6   8   62.21    2.13   0
  -1   8  -1   17.29    2.09   0
  -1   9   0   32.84    2.31   0
  -1  10   1   18.83    1.93   0
   0  -4   6  267.50    3.10   0
   0  -4   7   55.64    2.13   0
   0  -4   8   95.40    2.44   0
   1   0  10  309.85    3.52   0
   1   1  11    6.66    1.89   0
   1   2  12   -0.29    2.00   0
  -6  -1  -9   12.05    1.93   0
  -6   0  -9    6.70    1.94   0
  -6   1  -9   22.68    2.22   0
  -5   3  -8   24.03    1.90   0
  -4  -1  -7  273.87    3.52   0
  -4   3  -7   35.03    2.35   0
  -4   8  -5   42.66    2.29   0
  -3  -9   2   16.78    1.97   0
  -3   1  -6  304.67    3.42   0
  -3   2  -6    6.32    1.87   0
  -3   3  -6   89.87    2.50   0
  -3   6  -5    1.06    2.12   0
  -3   8  -4  130.02    2.90   0
  -2  -8   4  685.60    4.55   0
  -2  -8   5   24.33    1.80   0
  -2  -8   6    1.18    1.73   0
  -2  -8   7   34.00    1.97   0
  -1  -6   9  116.40    2.40   0
  -1   6  -2 1352.98    6.53   0
   0  -4   5  302.22    3.20   0
   0  -4   9  121.10    2.60   0
   0  -3  11    7.88    1.72   0
   1  -1   6   65.61    2.43   0
   1  -1   7   34.41    1.83   0
   1  -1   8  261.99    3.10   0
   1  -1   9  441.86    3.91   0
  -5   2  -8   17.49    1.83   0
  -4   6  -6   39.04    2.28   0
  -3   9  -3   16.06    1.98   0
  -2   5  -4  477.34    4.02   0
  -1  -6   3  575.67    4.37   0
   1   0  11   64.37    2.04   0
  -7   1   0  181.98    3.22   0
  -6   3   0    5.23    2.16   0
  -6   5  -1   10.20    2.23   0
  -5   1   1   -0.64    2.39   0
  -5   4   0    2.23    2.13   0
  -5   7  -2    7.33    2.13   0
  -4  -4   1  180.73    4.55   0
  -4   2   1   92.98    2.89   0
  -3   2   1   32.77    2.30   0
  -3   5   0  101.96    2.87   0
  -2 -10  -4   75.27    2.53   0
  -2  -8  -2    2.00    2.67   0
  -2   1   1 1372.28    8.49   0
  -1  -9  -4   46.20    2.23   0
  -1  -8  -3   54.75    2.66   0
  -1  -7  -2  173.83    3.55   0
  -1   4   0  278.69    4.61   0
  -1   6  -1    3.58    2.26   0
  -1   9  -4    1.84    2.08   0
   0  -9  -6   57.96    2.19   0
   0   5  -1  230.85    4.70   0
   1  -8  -8   68.70    2.51   0
   1  -3  -2  177.07    3.83   0
   1   5  -2   44.01    4.65   0
   2  -6  -9   92.15    2.73   0
   2  -6  -8   89.68    2.27   0
   2  -5  -6  305.53    3.53   0
   2  -4  -5    0.71    2.12   0
   2  -3  -4  374.33    4.12   0
   2  -1  -3   62.17    2.77   0
   3  -2  -9    3.15    2.50   0
   3  -2  -8    3.09    2.08   0
   3  -2  -7   86.55    2.34   0
   3  -1  -7  212.49    3.39   0
   3   0  -6   90.61    2.66   0
   3   1  -6  140.58    3.22   0
   3   2  -6 1338.40    7.65   0
   3   4  -8   23.98    2.72   0
  -7   2   0    6.31    2.53   0
  -6  -2   1   39.49    2.42   0
  -6  -1   1    2.84    2.19   0
  -5  -4   1   23.30    2.84   0
  -5   6  -1  126.99    2.85   0
  -4   5   0  278.33    3.54   0
  -3   8  -2    9.55    2.30   0
  -2 -11  -6    1.32    1.96   0
  -2  -9  -3   69.06    2.63   0
  -2  -2   1    1.31    2.96   0
  -2   2   1   67.62    2.71   0
  -2   5   0  164.44    3.00   0
  -1 -10  -6  159.13    2.95   0
   0  -9  -7    2.00    2.39   0
   0  -8  -5   61.62    2.58   0
   1  -7  -6   20.69    2.05   0
   2  -5  -7  125.31    2.76   0
   2   0  -3  295.57    4.59   0
   3  -1  -8  130.16    3.08   0
   3   0  -7  242.69    3.56   0
   3   3  -7  136.28    3.35   0
   3   4  -9    1.64    2.18   0
  -7  -6   0    6.36    2.22   0
  -6  -3   1   38.55    2.39   0
  -6   0   1   83.95    2.55   0
  -6   4   0  142.65    3.30   0
  -5  -7   0    1.85    4.47   0
  -5   2   1  508.31    4.49   0
  -4 -11  -4  183.89    3.69   0
  -4   3   1   55.20    2.49   0
  -4   7  -1    2.40    2.47   0
  -4   8  -2  129.55    2.94   0
  -3   3   1  176.09    3.14   0
  -3   7  -1   18.24    2.06   0
  -3   9  -3   21.95    1.98   0
  -2   7  -1   37.15    2.48   0
  -2   8  -2    5.36    1.94   0
  -2   9  -3   20.25    2.27   0
  -1  10  -5    7.30    2.43   0
   0  -5  -2  428.17    4.89   0
   1  -7  -7  117.09    2.92   0
   1  -6  -5   29.29    2.35   0
   2  -5  -8    8.50    2.04   0
   2  -4  -6   17.99    2.52   0
   2  -2  -4 1319.43    7.07   0
   2   1  -3 1225.27    8.74   0
   2   2  -3  211.77    4.64   0
   2   7  -8    5.01    3.37   0
   3  -1 -10   50.02    2.29   0
   3  -1  -9   85.26    2.55   0
   3   0 -10    2.03    2.14   0
   3   0  -8   18.63    2.35   0
   3   1  -7  129.81    3.00   0
   3   2  -7    2.42    2.25   0
   3   3  -9   29.55    2.54   0
   3   3  -8   64.75    2.79   0
  -7   3   0    4.59    2.45   0
  -6   1   1   46.28    2.41   0
  -5   5   0   22.05    2.30   0
  -3 -11  -5   14.89    2.18   0
  -2   3   1   99.25    3.08   0
  -1 -10  -7   98.93    2.72   0
  -1  -9  -5   51.01    2.46   0
   0  -9  -8   68.29    2.51   0
   0  -7  -4    3.73    1.83   0
   0  -6  -3    1.65    1.96   0
   0   2   0 4407.28   23.90   0
   0   7  -2  189.17    4.27   0
   0   8  -3 1325.39    8.49   0
   1  -5  -4  226.58    3.21   0
   1  -4  -3 1367.13    7.44   0
   2  -5  -9  115.85    2.74   0
   2  -3  -5  107.64    2.67   0
   3   0  -9   26.34    2.07   0
   3   1 -10   10.89    2.15   0
   3   1  -9    3.66    2.13   0
   3   1  -8  103.65    2.87   0
   3   2 -10   17.56    2.13   0
   3   2  -9   51.42    2.67   0
   3   2  -8  205.60    3.40   0
  -7  -2   1   28.17    2.32   0
  -7  -1   1  116.81    2.86   0
  -6  -7   0   16.48    3.21   0
  -6  -4   1   26.59    2.20   0
  -6   2   1   22.19    2.09   0
  -5   3   1   29.58    2.25   0
  -5   7  -1   90.08    2.52   0
  -4 -10  -3    7.32    2.88   0
  -4   4   1    0.72    2.32   0
  -4   6   0    9.71    2.02   0
  -3   4   1    6.35    1.97   0
  -3   6   0    6.94    2.01   0
  -2 -10  -5   81.93    2.58   0
  -2  10  -4    8.40    1.99   0
  -1   5   0    2.56    2.36   0
  -1   8  -2  228.39    3.49   0
  -1   9  -3  254.12    3.87   0
   0  -8  -6  172.76    2.87   0
   1  -7  -9   27.47    2.24   0
   1  -7  -8   68.28    2.46   0
   1  -6  -6  282.72    3.72   0
   1  -2  -2  260.61    4.52   0
   2  -4  -7   66.50    2.40   0
  -7  -3   1   64.95    2.49   0
  -7   0   1    0.37    1.90   0
  -6   5   0    8.94    2.05   0
  -5   4   1    0.04    2.33   0
  -5   6   0   10.24    2.19   0
  -4  -9  -2   53.64    3.60   0
  -3  -4   1  310.72    7.09   0
  -2   6   0   50.74    2.18   0
  -1  -8  -4 1052.70    6.24   0
  -1  -5  -1  232.69    4.85   0
  -1   7  -1  646.07    5.43   0
   0  -3  -1 3847.63   16.13   0
   0   9  -4    9.83    2.75   0
   2  -4 -10   72.31    2.47   0
   2  -4  -9    4.84    1.97   0
   2  -4  -8   13.42    2.18   0
   2  -3  -6    6.09    2.00   0
   2  -1  -4  894.16    5.99   0
  -7   1   1    7.35    2.01   0
  -6   3   1    9.42    2.09   0
  -5  -5   1   27.15    2.77   0
  -4   8  -1    9.45    2.22   0
  -3 -10  -4    7.30    2.25   0
  -3   8  -1   18.33    2.12   0
  -3   9  -2    2.16    1.98   0
  -2   4   1  242.80    3.49   0
  -2   9  -2   26.20    2.22   0
  -1  -9  -6   68.93    2.49   0
  -1  10  -4   58.47    2.59   0
   0  -8  -7   66.28    2.40   0
   0  -7  -5    3.39    2.22   0
   0   3   0  809.82    8.84   0
   0   6  -1  113.59    3.47   0
   1  -6  -7    0.55    1.97   0
   1  -5  -5 1068.29    5.97   0
   2  -3  -7   17.50    2.40   0
   2  -2  -5   14.95    1.93   0
   2   4  -4  945.85    9.59   0
  -7  -7   0   37.90    2.90   0
  -7  -4   1    4.59    1.95   0
  -7   2   1   19.93    2.21   0
  -6  -5   1   49.98    2.94   0
  -6   4   1    2.38    2.33   0
  -5  -1   2   90.97    2.76   0
  -5   0   2  458.92    4.35   0
  -5   1   2   46.62    2.39   0
  -4  -1   2  133.32    3.07   0
  -4   0   2    3.93    1.73   0
  -4   1   2  226.56    3.21   0
  -4   5   1  315.19    3.57   0
  -4   7   0  312.65    3.60   0
  -3 -11  -6    1.35    1.99   0
  -3   5   1    5.18    2.08   0
  -3   7   0  232.73    3.08   0
  -2 -10  -6   56.27    2.34   0
  -2  -9  -4   45.62    2.39   0
  -2   8  -1   27.54    2.08   0
  -2  10  -3   16.37    2.36   0
  -1  -7  -3    1.93    2.13   0
  -1  -6  -2  522.16    5.71   0
  -1  -3   0 1958.23   20.38   0
  -1   1   1  454.84    6.25   0
  -1   2   1   29.23    2.59   0
   0  -8  -8  139.15    2.73   0
   1  -6  -9  283.82    3.76   0
   1  -6  -8   17.52    2.16   0
   1  -4  -4  399.91    4.15   0
   1  -3  -3    2.96    2.08   0
   1   7  -3   29.80    4.05   0
   2  -3 -10   28.42    2.43   0
   2  -3  -9   92.44    2.73   0
   2  -3  -8    0.88    2.16   0
   2   0  -4  874.77    6.45   0
   2   6  -6  372.66    6.82   0
  -5 -11  -4   43.22    2.67   0
  -5  -2   2  263.10    3.97   0
  -5   2   2   50.75    2.42   0
  -5   5   1  192.29    3.22   0
  -5   7   0   28.75    2.24   0
  -4  -5   1  899.56   10.25   0
  -4   2   2  191.49    3.07   0
  -3  -9  -3    2.28    2.37   0
  -3   0   2  176.07    3.55   0
  -3   1   2  829.06    5.75   0
  -3   2   2   -1.15    2.15   0
  -2   5   1   32.32    2.18   0
  -2   7   0    6.84    2.22   0
  -1  -9  -7   -0.69    2.12   0
  -1   3   1  618.51    5.91   0
  -1   6   0  281.18    3.87   0
   0  -8  -9   15.27    2.03   0
   0  -6  -4    3.64    1.90   0
   0  10  -5  124.65    3.63   0
   1  -6 -10   28.52    2.24   0
   1  -5  -6  111.02    2.89   0
   1   8  -4  138.88    5.53   0
   2  -2  -6   39.74    2.11   0
   2  -1  -5   11.36    2.05   0
  -7  -5   1    5.35    2.19   0
  -6  -2   2  110.79    3.10   0
  -6  -1   2  103.09    2.82   0
  -6   0   2  205.90    3.20   0
  -6   1   2   29.29    2.42   0
  -6   5   1    4.34    2.38   0
  -5   3   2   72.10    2.68   0
  -4 -11  -5   23.77    2.11   0
  -4  -2   2  220.63    3.76   0
  -4   3   2   55.17    2.33   0
  -4   6   1   21.95    2.10   0
  -3  -7  -1  163.89    5.04   0
  -3  -1   2  133.90    3.33   0
  -3   3   2 1110.56    6.31   0
  -3   6   1   54.84    2.64   0
  -2  -8  -3  566.31    5.28   0
  -2  -6  -1 2011.27   12.39   0
  -1  -8  -5  815.77    5.46   0
  -1   0   1  415.00    6.85   0
  -1   9  -2   22.66    2.45   0
   0  -7  -6    5.22    1.91   0
   0  -5  -3  210.24    3.52   0
   0  -4  -2  131.66    3.33   0
   1  -1  -2 1358.05    9.61   0
   2  -2 -10   33.73    2.55   0
   2  -2  -7  322.79    3.46   0
   2   1  -4  552.03    5.42   0
   2   3  -4  109.99    3.80   0
   2   5  -5  133.41    4.81   0
  -6   2   2   45.34    2.35   0
  -5  -3   2   18.41    2.44   0
  -5   6   1   14.74    2.17   0
  -4   4   2   11.89    2.29   0
  -4   8   0   24.14    2.53   0
  -3  -8  -2   92.55    3.55   0
  -3   8   0  210.01    3.29   0
  -3   9  -1   27.34    2.18   0
  -2 -10  -7   43.24    1.98   0
  -2  -7  -2  157.50    3.57   0
  -1  -9  -9   68.92    2.60   0
  -1  -9  -8   50.15    2.27   0
  -1   4   1  817.04    6.30   0
  -1   8  -1   12.40    2.17   0
  -1  10  -3    3.02    2.19   0
   0  -7  -7  136.11    2.85   0
   0   8  -2  643.29    5.94   0
   0   9  -3  292.36    4.58   0
   1  -5  -8  123.26    2.90   0
   1  -5  -7   15.43    2.05   0
   1  -4  -5    0.65    1.86   0
   2  -2  -9    3.18    1.77   0
   2  -2  -8  130.83    2.62   0
   2  -1  -6  469.61    4.25   0
   2   0  -5  518.23    4.69   0
   2   2  -4  642.20    6.31   0
  -7  -2   2    1.95    2.19   0
  -7  -1   2   13.75    2.14   0
  -7   0   2   26.57    2.36   0
  -7   1   2    9.65    2.25   0
  -6  -3   2   76.89    2.79   0
  -6   3   2  187.36    3.05   0
  -5 -10  -3    1.19    2.51   0
  -5   4   2  267.26    3.45   0
  -3 -10  -5   28.27    2.33   0
  -3   4   2  118.26    2.80   0
  -2 -10  -8   -0.20    2.08   0
  -2  -9  -5    5.20    2.11   0
  -2  -3   1  947.27   13.67   0
  -2   6   1  621.64    4.67   0
  -2   9  -1  244.75    3.39   0
  -2  10  -2    7.38    2.08   0
   0  -7  -8   23.49    2.04   0
   0  -6  -5 1856.18    7.49   0
   0   7  -1   11.14    2.67   0
   1  -5 -10    7.60    1.96   0
   1  -5  -9    2.04    2.05   0
   1  -3  -4    8.89    2.35   0
   1  -2  -3 3130.08   12.21   0
   1   6  -2  520.15    8.37   0
   2  -1 -10  273.87    3.55   0
   2  -1  -7  349.23    3.89   0
   2   6  -9    0.32    2.41   0
   2   6  -7   13.85    3.14   0
  -6  -6   1  122.82    4.14   0
  -6   4   2    2.12    2.26   0
  -5   7   1   14.29    2.47   0
  -4  -3   2   99.35    3.20   0
  -4   5   2    1.51    2.34   0
  -4   7   1  183.60    3.04   0
  -3  -2   2   43.48    2.86   0
  -3   7   1   14.16    2.19   0
  -2   1   2  335.41    4.36   0
  -2   2   2  334.56    4.06   0
  -2   3   2  215.76    3.54   0
  -2   8   0    7.94    2.23   0
  -1  -8  -6    9.29    1.85   0
  -1  -7  -4  178.77    3.15   0
  -1   5   1  621.31    5.36   0
  -1   7   0   41.33    2.42   0
   0  -7 -10  127.69    2.72   0
   0  -7  -9   88.54    2.43   0
   0   5   0 3508.36   13.90   0
   1  -4  -6  421.68    4.07   0
   2  -1  -9   97.50    2.45   0
   2  -1  -8    6.13    1.85   0
   2   0 -11   17.38    1.97   0
   2   0  -6  215.10    3.41   0
   2   1  -5  205.03    3.54   0
   2   6  -8   36.56    2.84   0
  -7  -3   2   23.24    2.10   0
  -5   5   2  499.41    4.29   0
  -4 -11  -6   37.10    2.24   0
  -4 -10  -4   72.33    2.91   0
  -3   5   2    6.19    1.97   0
  -2   0   2    1.42    2.55   0
  -1  -8  -7   18.64    2.29   0
   0  -6  -6 1277.49    6.31   0
   0  10  -4  139.07    3.64   0
   1  -4 -11  190.00    2.99   0
   1  -4 -10  143.27    2.96   0
   1  -4  -7 1022.88    5.82   0
   2   0 -10    9.93    1.92   0
   2   0  -9   85.38    2.64   0
   2   0  -7  109.92    2.78   0
   2   1 -11  142.58    2.66   0
   2   4  -5    2.58    2.64   0
  -7  -6   1   13.77    2.37   0
  -6  -4   2   42.93    2.51   0
  -5  -9  -2    6.76    3.10   0
  -5  -4   2    4.81    2.44   0
  -4   6   2    7.28    2.34   0
  -3 -10  -6   40.23    2.19   0
  -3   9   0   18.48    2.46   0
  -2  -9  -6   60.60    2.39   0
  -2  -8  -4  308.76    3.88   0
  -2   4   2   95.97    2.60   0
  -2   7   1   13.71    1.99   0
  -1  -8  -8  120.29    2.92   0
  -1  -6  -3    3.87    1.93   0
  -1   9  -1   16.32    2.35   0
   0  -5  -4  171.06    2.86   0
   0  -2  -1  190.39    5.03   0
   1  -4  -9   95.12    2.53   0
   1  -4  -8   18.74    2.04   0
   1  -3  -5  300.83    3.86   0
   1   0  -2 1664.25   11.47   0
   2   0  -8  101.96    2.51   0
   2   1 -10   66.18    2.49   0
   2   1  -6  161.52    3.23   0
   2   2 -10   12.31    2.39   0
   2   2  -5  132.49    3.23   0
   2   3  -5  207.96    4.17   0
   2   4 -10    3.47    2.09   0
   2   5  -9  111.06    3.08   0
   2   5  -6   21.26    3.15   0
  -6   1   3   34.11    2.42   0
  -5  -6   1  123.52    5.04   0
  -5   0   3   33.39    2.36   0
  -5   1   3   84.57    2.45   0
  -5   2   3   16.33    1.92   0
  -5   3   3  342.25    3.81   0
  -5   6   2   15.25    2.19   0
  -4   1   3  664.97    4.64   0
  -4   2   3  147.45    2.77   0
  -4   3   3  139.53    3.07   0
  -4   8   1    6.17    2.05   0
  -3  -9  -4   18.07    2.21   0
  -3   6   2  515.78    4.24   0
  -3   8   1   57.40    2.53   0
  -2   5   2    2.28    2.11   0
  -2  10  -1   15.99    2.11   0
  -1  -8 -10   38.75    2.13   0
  -1  -8  -9   51.40    2.21   0
  -1  -7  -5 1057.35    6.03   0
  -1   6   1  156.44    3.06   0
  -1   8   0   26.79    2.27   0
  -1  10  -2   19.02    2.12   0
   0  -6 -10  166.35    3.06   0
   0  -6  -8  101.02    2.68   0
   0  -6  -7  466.93    3.92   0
   0  -4  -3  265.32    3.97   0
   1  -3 -11    9.29    2.33   0
   2   1  -9   91.02    2.65   0
   2   1  -8   23.46    2.26   0
   2   1  -7  385.51    4.06   0
   2   3 -10    3.33    1.96   0
   2   5  -8   53.76    3.17   0
   2   5  -7   59.52    3.21   0
  -7  -4   2    0.78    1.79   0
  -6  -1   3    8.96    2.05   0
  -6   0   3   12.72    1.85   0
  -6   2   3    7.99    1.93   0
  -6   3   3  355.27    4.01   0
  -5  -1   3    4.20    2.16   0
  -4   0   3  278.16    3.55   0
  -4   4   3  529.46    4.60   0
  -3 -10  -7   41.36    2.26   0
  -2  -9  -7   73.08    2.21   0
  -2   9   0   11.94    1.88   0
  -1  -5  -2  460.83    5.73   0
  -1  -4  -1  549.02    7.11   0
   0  -6  -9   18.07    2.01   0
   0  -5  -5  151.36    2.92   0
   0  -3  -2   23.39    2.60   0
   0   6   0  121.96    3.37   0
   0   9  -2  127.98    3.21   0
   1  -3 -10   13.09    2.23   0
   1  -3  -6    7.62    1.94   0
   1  -2  -4 2645.63    9.92   0
   1  -1  -3  759.49    6.87   0
   2   2  -9  396.99    4.09   0
   2   2  -8  150.80    3.33   0
   2   2  -7  660.54    5.44   0
   2   2  -6   16.29    2.27   0
   2   3  -9    1.00    2.27   0
   2   3  -6   67.17    3.19   0
   2   4  -9   54.42    2.56   0
   2   4  -8   52.16    2.85   0
   2   4  -6  714.77    6.56   0
  -7   0   3    9.05    2.05   0
  -6   4   3   48.05    2.58   0
  -5   4   3   30.08    2.19   0
  -4  -9  -3    0.26    2.52   0
  -4  -1   3  382.99    4.27   0
  -4   7   2   32.14    2.06   0
  -3   1   3 1332.58    6.91   0
  -3   2   3    3.96    1.82   0
  -3   3   3  194.79    3.10   0
  -3   7   2   49.09    2.38   0
  -2  -9  -9   83.47    2.69   0
  -2  -9  -8   58.74    2.13   0
  -2  -1   2    6.92    2.75   0
  -2   6   2  497.10    4.30   0
  -2   8   1  554.86    4.50   0
  -1  -7  -6    4.91    2.20   0
   0   8  -1   74.00    2.93   0
   0  10  -3   70.63    2.91   0
   1  -3  -9    2.98    1.81   0
   1  -3  -8   96.41    2.78   0
   1  -3  -7    2.29    1.99   0
   2   3  -8   96.84    2.87   0
   2   3  -7  124.49    3.24   0
   2   4  -7  474.40    5.19   0
  -7  -8   0    0.13    3.23   0
  -7  -1   3   26.74    2.10   0
  -6  -2   3  127.55    2.82   0
  -5  -8  -1   93.60    5.52   0
  -5  -2   3   48.53    2.36   0
  -5   5   3   29.84    2.37   0
  -4 -10  -5   23.73    2.18   0
  -4  -4   2   68.34    3.44   0
  -4   5   3    2.03    1.97   0
  -3 -10  -8    2.18    1.97   0
  -3   4   3  130.12    2.80   0
  -3   9   1   20.86    2.33   0
  -2  -8  -5   -1.08    2.08   0
  -2  -7  -3   94.47    2.84   0
  -1   7   1    2.14    2.08   0
   0  -5 -11   97.82    2.53   0
   0  -5  -6    4.82    2.16   0
   1  -2 -11   77.46    2.48   0
   1  -2  -5   -0.17    2.15   0
   1   8  -3   17.26    3.78   0
  -7  -5   2    4.96    2.00   0
  -7  -2   3   11.45    1.95   0
  -6 -10  -3   13.24    2.61   0
  -6  -5   2   25.75    2.74   0
  -5   6   3   18.85    2.58   0
  -4   6   3   34.57    2.55   0
  -4   8   2   43.27    2.10   0
  -3  -9  -5  646.07    4.99   0
  -3  -8  -3  102.63    3.09   0
  -3  -3   2  120.25    4.00   0
  -3   0   3  272.16    3.58   0
  -3   5   3  698.37    4.75   0
  -2   7   2   45.82    2.43   0
  -2  10   0   62.80    2.38   0
  -1  -7 -10  256.61    3.18   0
  -1  -7  -9   46.82    2.36   0
  -1  -7  -8    4.28    2.03   0
  -1  -7  -7  233.41    3.04   0
  -1  -6  -4  301.38    3.68   0
  -1   3   2  187.94    3.47   0
  -1   4   2  380.24    4.66   0
  -1   9   0   30.10    2.33   0
  -1  10  -1    3.63    1.91   0
   0  -5 -10   13.80    2.01   0
   0  -5  -9    8.04    2.19   0
   0  -5  -7   14.07    2.30   0
   0   7   0  252.23    4.04   0
   1  -2 -10  169.33    2.88   0
   1   7  -2  630.14    8.20   0
  -6  -3   3    7.93    2.17   0
  -5 -10  -4    1.10    2.20   0
  -4  -2   3  261.45    4.09   0
  -3   6   3  997.35    5.68   0
  -3   8   2   23.37    2.16   0
  -2  -8  -6    2.51    2.10   0
  -2   9   1   40.17    2.34   0
  -1   2   2  287.83    4.17   0
  -1   5   2    0.83    2.05   0
  -1  11  -2  326.22    3.78   0
   0  -5  -8   94.04    2.47   0
   0  -4  -4 1309.10    6.83   0
   1  -2  -9  150.69    2.64   0
   1  -2  -8  319.42    3.90   0
   1  -2  -7   55.78    2.47   0
   1  -2  -6  656.89    4.71   0
   1  -1 -11   -0.95    2.01   0
   1  -1  -4  852.01    6.60   0
   1   1  -2 1437.10   12.67   0
  -7  -3   3    5.18    2.00   0
  -6   2   4    1.68    2.26   0
  -5  -3   3    3.34    2.14   0
  -5   1   4   13.33    2.22   0
  -5   2   4   66.35    2.53   0
  -5   3   4   36.56    2.44   0
  -4 -10  -6    3.14    2.13   0
  -4   7   3   90.12    2.39   0
  -3  -9  -6  423.07    4.15   0
  -3  -1   3  825.08    6.16   0
  -2   2   3  496.87    4.53   0
  -2   3   3  728.04    5.08   0
  -2   4   3  115.41    2.66   0
  -1   8   1  340.12    3.96   0
   0  -4 -11   16.34    2.01   0
   0   4   1  839.30    7.09   0
   0   9  -1   24.20    2.49   0
   1  -1 -10   35.15    2.30   0
   1   4  -1   39.93    5.11   0
   1   9  -4  155.47    5.87   0
  -7  -7   1    9.66    2.60   0
  -6   0   4   26.31    2.10   0
  -6   1   4    5.85    1.73   0
  -6   3   4   18.31    2.07   0
  -5  -5   2   71.46    3.48   0
  -5   0   4  104.00    2.69   0
  -5   4   4   58.10    2.45   0
  -4   1   4   14.89    2.19   0
  -4   2   4   61.10    2.20   0
  -4   3   4    8.59    1.99   0
  -4   4   4  792.80    5.13   0
  -3   7   3   14.91    2.27   0
  -3   9   2    0.49    2.27   0
  -2  -8 -10   73.24    2.30   0
  -2  -8  -9    6.97    2.22   0
  -2  -8  -8   58.21    2.40   0
  -2  -8  -7   -0.38    1.78   0
  -2  -6  -2 1069.45    7.83   0
  -2   5   3   -0.00    1.87   0
  -2   8   2  194.71    3.02   0
  -1  -6 -11    3.45    1.95   0
  -1  -6  -5  202.41    2.98   0
  -1   6   2    6.74    1.69   0
   0  -4 -10  150.64    2.96   0
   0  -4  -5  589.41    4.58   0
   0   3   1 3857.84   15.81   0
   0   5   1 2648.71   11.07   0
   0   8   0   59.19    2.89   0
   0  10  -2   18.78    2.53   0
   1   0 -11   22.01    2.06   0
   1   0  -3  269.18    4.33   0
   1   5  -1  914.91   11.23   0
  -6  -1   4   36.03    2.25   0
  -5   5   4    8.95    1.99   0
  -4 -10  -7   40.46    2.09   0
  -4  -8  -2    2.32    2.72   0
  -4   5   4   50.85    2.36   0
  -3  -9  -7    4.66    1.92   0
  -2  -7  -4    5.92    2.08   0
  -2   1   3   65.73    2.63   0
  -2   6   3    1.95    1.93   0
  -2  10   1   29.86    2.22   0
  -1  -6 -10    2.09    1.96   0
  -1  -6  -6  989.23    5.71   0
  -1  -5  -3  552.50    5.24   0
  -1   1   2 1405.44    9.29   0
  -1  10   0   30.62    2.17   0
  -1  11  -1    1.34    1.99   0
   0  -4  -9    7.09    1.90   0
   0  -4  -6  159.27    2.94   0
   0  -3  -3  776.79    5.95   0
   1  -1  -9   32.67    2.07   0
   1  -1  -8  415.03    4.19   0
   1  -1  -5   27.98    2.15   0
   1   1 -11   38.47    2.27   0
  -7  -4   3   30.96    2.33   0
  -6  -4   3   36.66    2.55   0
  -5  -1   4   44.86    2.37   0
  -4 -10  -8   17.01    1.95   0
  -4  -9  -4  255.93    3.83   0
  -4   0   4    7.68    1.80   0
  -4   6   4   84.73    2.67   0
  -3  -9  -9   91.95    2.30   0
  -3  -9  -8   14.03    1.79   0
  -3  -8  -4    2.20    2.19   0
  -3  -7  -2   62.07    2.97   0
  -3   2   4  180.34    3.05   0
  -3   3   4   14.55    1.98   0
  -3   4   4  677.33    4.71   0
  -3   8   3   14.69    2.28   0
  -2   9   2   14.05    2.20   0
  -1  -6  -9  115.48    2.56   0
  -1  -6  -8   40.48    2.14   0
  -1  -6  -7   70.47    2.34   0
  -1   7   2   73.41    2.29   0
  -1   9   1  289.38    3.65   0
   0  -4  -8   11.28    1.92   0
   0  -4  -7    3.29    2.05   0
   0  -3 -11   38.80    2.09   0
   0   6   1  360.75    4.34   0
   0  11  -3    6.31    2.46   0
   1  -1  -7   85.18    2.36   0
   1  -1  -6  176.26    2.88   0
   1   0 -10    5.04    1.82   0
  -6  -7   1   33.72    4.06   0
  -5 -10  -5    1.51    2.19   0
  -4  -3   3  225.33    4.09   0
  -3   1   4   38.17    2.16   0
  -3   5   4   48.20    2.24   0
  -2  -7 -11   98.50    2.78   0
  -2  -7  -5    3.45    2.02   0
  -2  -2   2   87.07    3.86   0
  -2   7   3    6.67    1.88   0
   0  -3 -10    1.12    2.13   0
   0  -2 -12   25.44    2.05   0
   0  -2  -2 1782.15   10.59   0
   0   2   1  185.05    5.05   0
   1   0  -9  128.86    2.87   0
   1   0  -4 1608.81    9.38   0
   1   1 -10   62.85    2.49   0
   1   2 -11   40.79    2.27   0
   1   3 -11  138.86    2.92   0
   1   6  -1  288.89    5.90   0
  -7  -6   2    0.26    2.07   0
  -6  -2   4    7.62    1.95   0
  -4  -1   4  248.50    3.58   0
  -4   7   4   20.88    2.03   0
  -3  -2   3   36.51    2.69   0
  -3   6   4   41.30    2.11   0
  -2  -7 -10   20.19    2.20   0
  -2  -5  -1 2133.04   13.22   0
  -2   0   3  289.74    4.18   0
  -1  -5 -11  175.95    2.79   0
  -1  -5  -4  867.05    6.33   0
  -1   8   2   13.93    2.15   0
   0  -3  -4  666.59    5.16   0
   0   7   1   35.06    2.39   0
   0   9   0   46.43    2.52   0
   0  10  -1   45.87    2.49   0
   1   0  -8  264.98    3.54   0
   1   8  -2   86.49    4.14   0
  -6  -9  -2   11.08    3.14   0
  -5  -9  -3   24.93    2.88   0
  -5  -4   3   13.69    2.14   0
  -5  -2   4   46.09    2.37   0
  -5   2   5  269.83    3.45   0
  -5   3   5   -2.37    1.78   0
  -5   4   5    1.05    1.85   0
  -4  -9  -5  144.95    3.06   0
  -3  -8  -5  180.60    3.06   0
  -3   7   4   60.40    2.27   0
  -3   9   3   22.14    2.09   0
  -2  -7  -9   48.12    2.11   0
  -2  -7  -7  651.27    4.70   0
  -2  -7  -6 1366.46    6.38   0
  -2   8   3   80.59    2.36   0
  -2  10   2    4.25    2.10   0
  -1  -5 -10   80.25    2.44   0
  -1  -4 -12   17.44    2.32   0
  -1  -4  -2  401.34    5.59   0
  -1   4   3 1546.27    7.53   0
  -1   5   3  284.66    3.60   0
  -1  10   1   17.01    2.10   0
  -1  11   0  115.87    2.61   0
   0  -3  -9  160.02    2.76   0
   0  -2 -11  385.47    3.61   0
   0  -1 -12   21.95    2.32   0
   1   0  -7  227.76    3.35   0
   1   0  -6  461.20    4.46   0
   1   0  -5   24.51    2.45   0
   1   1  -9  329.57    3.90   0
   1   1  -3   14.03    2.87   0
   1   2 -10   64.81    2.35   0
   1   2  -2 1496.86   14.57   0
   1   9  -3  107.91    4.69   0
  -6 -10  -4    1.26    2.15   0
  -6  -6   2   42.22    3.20   0
  -6   1   5   10.36    1.84   0
  -5 -10  -6  251.47    3.47   0
  -5   1   5    0.58    1.86   0
  -4   2   5    7.09    2.03   0
  -4   3   5    6.50    1.81   0
  -4   4   5  103.80    2.49   0
  -4   5   5   32.47    2.44   0
  -3   0   4    3.85    1.68   0
  -2  -7  -8  331.11    3.46   0
  -2  -6  -3  162.33    3.29   0
  -2   3   4  382.08    3.80   0
  -2   4   4  206.99    3.06   0
  -2   5   4 1134.83    5.93   0
  -2   6   4    2.48    2.37   0
  -1  -5  -9   44.55    2.07   0
  -1  -5  -5  324.08    3.87   0
  -1   0   2 1705.69   11.41   0
  -1   3   3    1.68    2.04   0
  -1   6   3   75.43    2.50   0
  -1   9   2   77.22    2.65   0
   0  -3  -8  515.57    4.12   0
   0  -3  -7   33.00    2.08   0
   0  -3  -6   16.77    2.19   0
   0  -3  -5 1903.93    7.89   0
   0   8   1   21.11    2.50   0
   0  11  -2   21.74    2.36   0
   1   3 -10    0.64    1.95   0
   1   4 -10   44.32    2.50   0
   1   5 -10   15.00    2.09   0
   1   7  -9   15.79    2.57   0
   1   7  -1 1122.04    9.43   0
   1   8  -8   21.12    2.98   0
  -6  -3   4   24.25    2.08   0
  -6   0   5   36.20    2.03   0
  -5 -10  -7  131.26    2.80   0
  -5   0   5   11.50    2.12   0
  -4  -9  -6    1.15    2.19   0
  -4   1   5   40.61    2.28   0
  -4   6   5   20.42    1.98   0
  -3  -8 -10   48.21    2.13   0
  -3  -8  -9    1.58    2.17   0
  -3  -8  -6  581.56    4.57   0
  -3   8   4  102.39    2.59   0
  -2  -6 -11   16.83    2.30   0
  -2   2   4 1368.64    6.70   0
  -2   9   3   93.05    2.44   0
  -1  -5  -8  844.42    5.06   0
  -1  -5  -7  457.92    4.13   0
  -1  -5  -6    1.76    2.08   0
  -1  -4 -11    7.50    2.32   0
  -1   7   3 1057.92    5.92   0
   0  -2 -10  149.77    2.64   0
   0  -1 -11   25.76    2.31   0
   0   0 -12  206.64    3.24   0
   1   1  -8    4.44    2.04   0
   1   2  -9   53.55    2.44   0
  -6  -1   5  114.38    2.80   0
  -4  -9  -9   17.56    2.09   0
  -4  -9  -8    0.78    1.89   0
  -4  -9  -7    0.39    1.89   0
  -4  -7  -1   64.27    4.28   0
  -4  -2   4   47.29    2.56   0
  -3  -8  -8   96.61    2.40   0
  -3  -8  -7    0.68    1.82   0
  -3   3   5  200.28    3.00   0
  -3   4   5   64.79    2.39   0
  -3   5   5  182.33    2.90   0
  -2   7   4   49.02    2.17   0
  -1  -3 -12   74.41    2.57   0
  -1   2   3 3323.20   11.98   0
   0  -2  -9    6.67    2.42   0
   0   5   2  447.59    4.83   0
   0   6   2  183.50    3.25   0
   0  10   0  276.07    3.70   0
   1   1  -7 1877.66    8.61   0
   1   1  -4   53.33    3.07   0
   1   3  -9   27.56    2.34   0
  -6  -5   3   22.85    2.54   0
  -5  -3   4  177.27    3.50   0
  -5  -1   5   48.49    2.39   0
  -4  -8  -3   49.12    2.73   0
  -4   0   5  190.14    3.14   0
  -3  -7  -3  240.80    4.01   0
  -3  -6  -1  186.80    4.87   0
  -3  -1   4   51.87    2.49   0
  -3   2   5    2.85    1.75   0
  -3   6   5   17.06    2.06   0
  -2  -6 -10    2.75    1.88   0
  -2  -6  -4  178.22    3.21   0
  -2  -5 -12    6.36    2.34   0
  -2  -1   3 1186.17    8.02   0
  -2   1   4  884.45    5.87   0
  -2   8   4  125.73    2.76   0
  -2  10   3   26.38    2.35   0
  -1  -4 -10    2.40    1.97   0
  -1   8   3   53.55    2.09   0
  -1  10   2   18.18    2.05   0
  -1  11   1   42.05    2.17   0
   0  -2  -3  212.69    3.65   0
   0  -1 -10  117.41    2.79   0
   0   1 -12    3.39    2.09   0
   0   4   2  124.34    3.26   0
   0   7   2  941.34    6.02   0
   0   9   1   24.10    2.19   0
   0  11  -1   11.80    2.16   0
   1   1  -6 1465.98    7.84   0
   1   1  -5   18.25    2.30   0
   1   2  -8  317.33    4.01   0
   1   4  -9   70.75    2.60   0
   1   5  -9  202.50    3.56   0
   1   6  -9   94.39    2.92   0
  -6 -10  -5   63.88    2.56   0
  -5   3   6   47.35    2.46   0
  -4  -5   2  456.74    7.98   0
  -3  -7 -11    1.00    2.09   0
  -3   7   5    2.17    1.98   0
  -2  -6  -9   74.05    2.23   0
  -1  -4  -9   73.93    2.55   0
  -1  -4  -3  204.36    3.99   0
   0  -2  -8  344.78    3.50   0
   0   0 -11  102.47    2.44   0
   1   7  -8    3.24    2.56   0
   1   8  -7   21.72    3.33   0
   1   8  -1  244.89    5.11   0
   1   9  -2  290.47    5.56   0
  -6  -4   4   13.12    2.28   0
  -6  -2   5   13.47    2.00   0
  -5  -9  -4   58.36    2.78   0
  -5   2   6    1.56    1.92   0
  -4  -4   3   68.76    3.47   0
  -4   3   6   31.14    2.30   0
  -4   4   6  109.79    2.47   0
  -4   5   6   37.31    2.16   0
  -3  -4   2   83.18    4.57   0
  -3   1   5  308.22    3.44   0
  -3   8   5   85.46    2.47   0
  -2  -6  -8    4.68    1.90   0
  -2  -6  -5  129.81    2.90   0
  -2   5   5 1229.80    6.06   0
  -2   9   4   17.92    1.97   0
  -1  -3 -11  173.98    2.81   0
  -1  -3  -1 2768.29   16.03   0
  -1  -2 -12    0.26    2.15   0
  -1   5   4  204.66    3.28   0
  -1   6   4 1214.14    6.38   0
  -1   9   3   31.11    2.07   0
   0  -2  -7  755.49    4.93   0
   0  -2  -6    0.90    2.09   0
   0  -2  -4  170.76    3.21   0
   0   3   2   22.64    2.56   0
   0   8   2   41.31    2.41   0
   1   2  -7  257.44    3.93   0
   1   3  -8  635.07    5.14   0
  -5  -2   5  115.22    2.98   0
  -5   1   6   33.42    2.03   0
  -4  -1   5   44.29    2.32   0
  -4   2   6   23.85    2.23   0
  -4   6   6   49.72    2.31   0
  -3  -7 -10   53.61    2.26   0
  -3  -7  -4   26.53    2.53   0
  -3  -3   3   10.20    2.88   0
  -2  -6  -7    5.60    1.78   0
  -2  -6  -6   42.90    2.05   0
  -2  -5 -11  111.77    2.51   0
  -2  -4   0  299.14    8.50   0
  -2   3   5  103.97    2.71   0
  -2   4   5    2.72    1.95   0
  -2   6   5   31.62    2.10   0
  -2   7   5  153.14    2.93   0
  -1  -4  -8    1.87    1.94   0
  -1  -4  -4    6.12    2.39   0
  -1   1   3  839.59    6.79   0
  -1   4   4  392.55    4.02   0
  -1   7   4 1181.92    5.95   0
  -1  11   2  134.57    2.74   0
   0  -2  -5 1631.67    7.60   0
   0  -1  -9  104.90    2.52   0
   0   0 -10  189.36    3.09   0
   0   1 -11   11.14    2.14   0
   0  10   1    9.14    2.17   0
   0  11   0   38.21    2.31   0
   1   2  -6   76.98    2.90   0
   1   2  -3  433.37    6.55   0
   1   4  -8   41.68    2.50   0
   1   6  -8   50.34    3.12   0
   1   6   0  328.30    5.57   0
  -5  -9  -5    3.32    2.22   0
  -5  -5   3    3.35    2.80   0
  -5   0   6   80.97    2.63   0
  -4  -8 -10   23.85    2.28   0
  -4  -8  -4   35.70    2.39   0
  -3  -7  -9   50.33    2.17   0
  -3   0   5   95.13    2.65   0
  -3   4   6    6.20    2.14   0
  -3   5   6    1.30    1.98   0
  -3   6   6   87.70    2.70   0
  -2  -5 -10   10.62    2.28   0
  -2  -5  -2  182.09    4.10   0
  -2  -4 -12   31.62    2.06   0
  -2   0   4  848.65    6.16   0
  -2   8   5   48.60    2.42   0
  -1  -4  -7   25.63    2.15   0
  -1  -4  -6  302.70    3.69   0
  -1  -4  -5   -0.60    2.19   0
  -1  -3 -10   90.73    2.38   0
  -1   3   4   11.18    2.07   0
  -1   8   4   43.28    2.38   0
  -1  10   3    3.45    2.04   0
   0  -1  -8  118.03    2.75   0
   0   9   2  656.42    4.89   0
   1   2  -5   56.43    2.87   0
   1   3  -7 1182.48    7.26   0
   1   5  -8  139.67    3.33   0
   1   5   0   99.12    4.17   0
   1   7   0   17.24    2.61   0
   1  10  -3    0.51    3.25   0
  -5  -6   2   30.43    4.19   0
  -4  -8  -9  160.56    2.90   0
  -4  -3   4   93.33    3.13   0
  -4   1   6  137.54    2.72   0
  -3  -7  -8   16.22    1.96   0
  -3  -7  -7  642.62    4.65   0
  -3  -7  -6  184.29    3.11   0
  -3  -7  -5  140.11    2.99   0
  -3   3   6  629.03    4.64   0
  -3   7   6   61.70    2.28   0
  -2   2   5   15.15    1.82   0
  -1  -2 -11   23.92    1.98   0
  -1  -1 -12   45.82    2.42   0
   0   2 -11    4.94    1.99   0
   0   5   3  199.74    3.41   0
   0   6   3    1.20    1.97   0
   1   2  -4   62.34    2.93   0
   1   9  -1  200.00    4.30   0
  -6  -3   5   43.37    2.22   0
  -5  -9  -8    4.23    1.93   0
  -5  -9  -7  206.64    3.24   0
  -5  -9  -6  134.30    2.91   0
  -5  -4   4   16.70    2.51   0
  -4  -8  -8  249.02    3.30   0
  -4  -8  -5    5.45    1.97   0
  -3  -6 -11   49.48    2.09   0
  -3  -2   4   14.88    2.35   0
  -3   2   6    0.01    2.11   0
  -2  -5  -9    7.66    1.86   0
  -2  -4 -11    8.80    2.28   0
  -2   9   5   12.17    1.96   0
  -1  -3  -9  296.97    3.41   0
  -1   9   4    8.48    1.89   0
   0  -1  -7  481.12    4.24   0
   0  -1  -2  302.15    5.76   0
   0   0  -9   40.37    2.18   0
   0   1 -10  569.01    4.41   0
   0   3 -11    5.49    2.01   0
   0   7   3  521.50    4.29   0
   0  11   1   87.67    2.68   0
   1   3  -6  157.22    3.63   0
   1   4  -7    2.79    2.34   0
   1   7  -7   52.78    3.33   0
   1   8   0  601.49    6.13   0
   1  10  -2  230.94    4.99   0
  -6  -9  -3    4.07    2.26   0
  -5  -8  -2   67.23    3.42   0
  -5  -1   6   84.23    2.58   0
  -4  -8  -7  745.21    4.92   0
  -4  -8  -6   14.64    2.16   0
  -4  -2   5   74.47    2.74   0
  -4   0   6  282.91    3.55   0
  -4   4   7    5.49    2.04   0
  -3  -6 -10   45.39    2.36   0
  -2  -5  -8    3.76    2.26   0
  -2  -3 -12  239.12    3.30   0
  -2   5   6  302.53    3.49   0
  -2   6   6  101.51    2.63   0
  -1  -2 -10   31.41    2.29   0
  -1   0 -12   50.08    2.55   0
  -1   2   4 2396.29    9.74   0
   0   2   2 1765.41   10.59   0
   0   4 -11   93.99    2.62   0
   0   4   3  269.69    3.79   0
   0   8   3   64.68    2.51   0
   0  10   2   56.14    2.42   0
   1   5  -7   10.99    2.45   0
   1   6  -7  386.68    5.26   0
   1   8  -6  207.17    5.57   0
  -5  -3   5  501.37    5.39   0
  -4  -7 -11   -0.07    1.81   0
  -4   3   7    3.77    1.84   0
  -3  -5 -12    8.47    2.00   0
  -3  -1   5  199.53    3.58   0
  -3   1   6   24.29    2.21   0
  -2  -5  -3   30.31    2.42   0
  -2   1   5    9.00    1.71   0
  -2   4   6   16.82    2.07   0
  -2   7   6   38.49    2.16   0
  -1  -3  -8  100.76    2.56   0
  -1  -1 -11    8.57    2.19   0
  -1   5   5  977.30    5.91   0
  -1   6   5   30.70    2.22   0
  -1   7   5   15.82    1.85   0
  -1  10   4   27.91    2.02   0
   0  -1  -6  719.48    5.06   0
   0   0  -8  576.76    4.50   0
   0   2 -10    2.05    2.00   0
   0   9   3  148.64    2.94   0
   1   3  -5    9.26    2.76   0
  -5  -7   0    2.13    4.23   0
  -5   1   7    2.27    1.63   0
  -4  -7 -10   40.78    2.39   0
  -4   2   7    1.95    1.78   0
  -3  -6  -9  426.90    3.94   0
  -3  -6  -2   74.06    3.28   0
  -3   4   7   81.13    2.59   0
  -3   5   7    3.10    1.87   0
  -3   6   7   61.70    2.26   0
  -2  -5  -7   77.29    2.25   0
  -2  -4 -10   92.15    2.42   0
  -2  -2   3  223.67    4.55   0
  -2   3   6    4.48    2.16   0
  -2   8   6    8.12    1.95   0
  -1  -3  -7  508.72    4.47   0
  -1  -3  -2   33.75    2.76   0
  -1  -1   2 1637.18   12.24   0
  -1   0   3  248.61    4.41   0
  -1   4   5    1.46    1.87   0
  -1   8   5   86.73    2.28   0
   0  -1  -5 1896.91    8.39   0
   0  -1  -4  279.29    4.09   0
   0  -1  -3   67.05    2.90   0
   0   1  -9  126.49    2.82   0
   0  11   2   19.85    2.29   0
   1   3  -2  909.76   13.46   0
   1   4  -6   90.09    3.24   0
   1   4   0  155.19    5.28   0
   1   6   1   17.75    2.86   0
   1   7   1  232.55    4.09   0
   1   9   0   21.40    2.63   0
   1  10  -1   29.76    3.07   0
  -6  -9  -4   11.91    2.19   0
  -6  -6   3    2.98    2.59   0
  -6  -5   4   14.81    2.36   0
  -4  -7  -2  800.57    7.39   0
  -4  -1   6   58.60    2.45   0
  -3  -5 -11    1.71    1.93   0
  -3   3   7    1.12    2.06   0
  -2  -5  -6  389.25    3.78   0
  -2  -5  -5  703.80    5.05   0
  -2  -5  -4  150.55    3.04   0
  -2  -3 -11  141.06    2.67   0
  -2  -1   4  544.25    5.27   0
  -1  -2  -9  459.73    4.03   0
  -1   1 -12   69.94    2.34   0
  -1   3   5  304.76    3.80   0
  -1   9   5  160.48    2.78   0
   0   3 -10   62.33    2.37   0
   0   3   3  779.27    5.97   0
   0   6   4    7.13    1.93   0
   0   7   4    1.57    1.99   0
   0  10   3   25.49    2.05   0
   1   3  -4 1126.05    9.27   0
   1   8   1   12.01    2.56   0
  -6  -4   5   87.81    3.00   0
  -5  -2   6   32.12    2.18   0
  -5   0   7   49.75    2.25   0
  -4  -7  -9    4.87    2.18   0
  -4   1   7   51.27    2.23   0
  -3  -6  -8  298.83    3.21   0
  -3  -4 -12  108.66    2.50   0
  -3   0   6   91.04    2.62   0
  -2  -4  -9  402.32    3.68   0
  -2  -2 -12   32.91    2.04   0
  -2   2   6   40.38    2.33   0
  -1  -3  -6   27.50    2.00   0
  -1  -1 -10  116.00    2.50   0
  -1   0 -11   62.15    2.30   0
  -1   1   4  843.40    6.36   0
  -1  10   5   16.17    2.24   0
   0   0  -7  270.33    3.37   0
   0   2  -9  136.09    2.90   0
   0   4 -10  152.34    3.06   0
   0   5   4  173.80    3.03   0
   0   8   4    4.97    2.21   0
   1   3  -3  282.62    6.13   0
   1   5  -6  126.60    3.69   0
   1   5   1  247.22    4.83   0
   1   7  -6  189.68    4.95   0
  -6  -9  -5   11.44    2.03   0
  -5  -8  -9    3.58    1.73   0
  -5  -8  -3   39.24    2.71   0
  -4  -6 -11    3.27    1.90   0
  -3  -6  -7   20.33    2.27   0
  -3  -6  -3   76.98    2.94   0
  -3  -5 -10   26.54    2.04   0
  -3   2   7   76.85    2.32   0
  -2   0   5  535.59    4.65   0
  -2   5   7  124.56    2.81   0
  -2   6   7   38.50    2.21   0
  -2   7   7  111.02    2.82   0
  -1  -3  -5 2067.91    9.06   0
  -1  -3  -4 3471.63   12.31   0
  -1  -3  -3  423.93    4.94   0
  -1  -2  -8   55.81    2.48   0
  -1   2 -12  164.00    2.68   0
  -1   6   6  309.63    3.57   0
  -1   7   6   19.68    2.21   0
   0   1  -8  874.87    5.34   0
   0   5 -10    1.85    2.14   0
   0   6 -10   58.87    2.52   0
   0   9   4  127.21    2.86   0
   0  11   3    7.90    2.21   0
   1   4  -5   36.82    2.96   0
   1   6  -6  967.28    8.89   0
   1   9   1   30.78    2.46   0
   1  10   0   12.95    2.58   0
  -6  -9  -7   13.84    1.95   0
  -6  -9  -6    1.79    1.79   0
  -6  -8  -1    0.81    2.89   0
  -5  -8  -8  273.15    3.29   0
  -4  -7  -8    2.16    1.79   0
  -4  -7  -3  295.54    4.47   0
  -4   0   7    3.09    2.01   0
  -4   3   8    0.55    1.84   0
  -3  -6  -6  166.46    3.00   0
  -2  -4  -8   48.01    2.20   0
  -2  -3 -10    8.36    1.94   0
  -2  -3   2  330.63    7.53   0
  -2  -1 -12   64.69    2.59   0
  -2   4   7   62.59    2.30   0
  -2   8   7   42.51    2.20   0
  -1   1 -11   67.47    2.55   0
  -1   2   5    0.08    2.13   0
  -1   5   6  114.31    2.67   0
  -1   8   6    2.47    1.84   0
   0   0  -6  415.90    4.35   0
   0   4   4 1342.94    6.92   0
   0  10   4  121.55    2.63   0
   1   7   2  168.26    3.57   0
   1  11  -2    1.83    2.82   0
  -5  -8  -7  111.96    2.60   0
  -5  -8  -6   50.88    2.49   0
  -5  -8  -4   49.25    2.54   0
  -5  -1   7    4.02    1.90   0
  -4  -7  -7    3.76    1.81   0
  -4  -6 -10   -2.32    2.05   0
  -4  -4   4   92.98    3.41   0
  -4  -3   5   16.84    2.33   0
  -4   2   8   49.41    2.44   0
  -3  -6  -5  267.83    3.45   0
  -3  -6  -4  369.57    4.17   0
  -3  -5  -9    8.13    2.27   0
  -3  -4 -11   32.75    2.15   0
  -3  -2   5  708.14    6.06   0
  -3   1   7  228.58    3.25   0
  -3   4   8    8.38    2.25   0
  -3   5   8  205.20    2.99   0
  -2  -2 -11   61.63    2.18   0
  -2   1   6  463.15    4.13   0
  -1  -1  -9  235.17    3.31   0
  -1   0 -10  325.34    3.64   0
  -1   4   6  384.91    4.00   0
  -1   9   6  137.66    2.65   0
   0   3  -9  107.05    2.71   0
   0   7   5    1.72    2.30   0
   1   6   2  578.49    5.73   0
   1   8   2    1.87    2.24   0
   1  10   1   49.10    2.76   0
   1  11  -1   11.78    2.49   0
  -5  -8  -5   12.24    2.21   0
  -5  -7 -10  151.24    2.88   0
  -5  -4   5   26.48    2.73   0
  -4  -7  -6   56.89    2.41   0
  -4  -7  -5  113.20    2.96   0
  -4  -7  -4   78.10    2.90   0
  -4  -2   6  159.82    3.20   0
  -3  -3 -12   13.54    1.99   0
  -3  -3   4   31.26    2.62   0
  -3   3   8   86.52    2.61   0
  -2  -4  -7    1.90    1.86   0
  -2  -3  -9  159.37    2.99   0
  -2   3   7   17.24    2.01   0
  -1  -2  -7  179.66    3.02   0
  -1   2 -11    1.82    1.96   0
   0   0  -5  522.62    5.28   0
   0   1  -7   30.51    2.13   0
   0   2  -8  209.67    3.30   0
   0   2   3  217.92    3.76   0
   0   4  -9  101.56    2.83   0
   0   6   5 1810.59    7.22   0
   0   8   5   66.33    2.20   0
   0  11   4   33.39    2.19   0
   1   5  -5   27.54    3.21   0
   1   9   2  276.22    4.03   0
   1  11   0    3.56    2.41   0
  -5  -5   4    6.20    2.85   0
  -5  -3   6    6.61    2.06   0
  -4  -6  -9    7.42    2.17   0
  -4  -5 -11   34.78    2.37   0
  -4   1   8    0.22    2.05   0
  -3  -5  -8    9.19    2.34   0
  -3  -1   6  140.73    3.08   0
  -2   0 -12    3.48    2.33   0
  -2   6   8   82.54    2.66   0
  -2   7   8   19.85    2.36   0
  -1   3   6    7.89    1.95   0
  -1   6   7    4.64    2.22   0
  -1   7   7  130.28    2.93   0
   0   1   2  295.98    5.50   0
   0   3   4  643.35    5.21   0
   0   5   5  157.36    2.83   0
   0   9   5  126.60    2.56   0
   1   4  -4   46.34    3.45   0
   1   4   1  539.10    6.99   0
   1   5   2  476.16    5.83   0
   1   8  -5    4.01    3.79   0
  -5  -7  -9  123.96    2.75   0
  -5  -2   7   36.55    2.45   0
  -4  -1   7   44.57    2.25   0
  -3  -4 -10  168.40    2.85   0
  -3   0   7  227.07    3.34   0
  -3   2   8    5.00    2.07   0
  -2  -4  -6 1133.31    5.99   0
  -2  -4  -1  735.26    8.44   0
  -2  -2 -10   41.54    2.18   0
  -2  -1 -11  181.49    2.82   0
  -2   2   7  291.44    3.32   0
  -2   5   8    6.98    1.84   0
  -1  -2  -6   40.89    2.21   0
  -1  -1  -8   87.55    2.60   0
  -1   0  -9   42.08    2.45   0
  -1   0   4 1704.46    9.08   0
  -1   1 -10   15.96    2.28   0
  -1   1   5   25.95    2.51   0
  -1   3 -11   42.80    2.24   0
  -1   5   7   16.23    2.30   0
  -1   8   7   78.49    2.35   0
  -1   9   7    2.59    2.19   0
   0   5  -9   60.57    2.53   0
   0   6  -9   21.98    2.50   0
   0   7  -9  335.47    4.15   0
   0  10   5   10.09    2.05   0
   1   6  -5    9.92    3.48   0
   1   7   3    3.52    2.27   0
   1   8   3   59.54    2.68   0
   1  10   2  309.41    4.01   0
   1  11   1   25.77    2.44   0
  -5  -6 -11    5.55    2.16   0
  -4  -5   3  318.87    6.56   0
  -4  -4 -12   91.17    2.50   0
  -3  -3 -11   21.40    2.09   0
  -3  -2 -12    5.19    1.99   0
  -2  -4  -5  424.82    4.34   0
  -2  -3  -8  451.36    4.24   0
  -2  -1   5  201.04    3.50   0
  -2   0   6  223.12    3.43   0
  -2   1 -12    3.05    2.30   0
  -2   4   8    7.59    1.98   0
   0   0  -4 3283.53   12.54   0
   0   1  -6  116.16    2.91   0
   0   3  -8  581.93    4.81   0
   0   4   5  588.24    4.63   0
   0   7   6    4.82    2.27   0
   0   8   6  178.13    3.11   0
   1   6   3    3.86    2.14   0
   1   7  -5    0.73    3.38   0
   1   9   3   11.09    2.10   0
  -6  -8  -8    2.51    2.02   0
  -6  -5   5   12.46    2.39   0
  -4  -6  -8   55.34    2.21   0
  -4  -5 -10  224.15    3.23   0
  -4   0   8   40.15    2.20   0
  -3  -5  -7  191.01    2.86   0
  -3  -5   0    4.28    3.88   0
  -3  -4   3  290.77    5.83   0
  -3   4   9    9.37    1.93   0
  -2  -2   4  744.95    6.63   0
  -2   3   8    3.46    2.02   0
  -1  -2  -5  672.59    5.47   0
  -1   2   6  613.54    4.56   0
  -1   4 -11   14.47    2.08   0
  -1   4   7  991.28    5.49   0
   0   2  -7  133.61    3.05   0
   0   6   6 1297.55    6.21   0
   0   9   6   63.43    2.63   0
   1  10   3   69.05    2.70   0
   1  11   2   12.53    2.24   0
  -6  -8  -7   11.53    2.04   0
  -6  -8  -2   36.48    3.01   0
  -5  -7  -8   10.55    1.86   0
  -3  -4  -9   97.62    2.50   0
  -3   1   8  116.50    2.62   0
  -3   3   9   90.67    2.73   0
  -2  -4  -4   83.11    2.78   0
  -2  -4  -2 1778.18   10.45   0
  -2  -2  -9   66.32    2.38   0
  -2  -1 -10   25.47    2.37   0
  -2   0 -11  363.72    3.55   0
  -2   1   7  354.08    3.63   0
  -2   2 -12    6.98    2.21   0
  -1  -1  -7  520.87    4.33   0
  -1  -1   3    4.16    2.57   0
  -1   2 -10   13.19    2.03   0
  -1   7   8   78.81    2.65   0
  -1   8   8   57.32    2.56   0
   0   0  -3   54.17    3.19   0
   0   2   4  156.53    3.44   0
   0   4  -8   88.08    2.84   0
   0   5   6    5.08    2.09   0
   0  10   6   17.75    2.33   0
   1   5   3  546.10    5.49   0
   1   8   4 1170.84    6.36   0
   1  12   1   85.25    2.85   0
  -5  -7  -7   64.12    2.53   0
  -5  -6 -10    7.40    2.01   0
  -4  -6  -7  152.89    2.78   0
  -4  -4 -11    3.46    2.01   0
  -4  -3 -12   20.67    2.08   0
  -4  -3   6  289.38    4.37   0
  -4  -2   7    4.62    2.17   0
  -3  -5  -6    9.81    1.74   0
  -3  -3 -10  285.36    3.32   0
  -3  -2   6 1329.51    7.64   0
  -3  -1 -12   43.20    2.13   0
  -2  -4  -3   93.02    3.06   0
  -2  -3  -7    5.54    1.91   0
  -2   5   9  115.77    2.60   0
  -2   6   9   93.02    2.50   0
  -1   0  -8 1861.47    7.57   0
  -1   1  -9  410.00    3.89   0
  -1   3   7    2.77    1.84   0
  -1   5   8  123.15    2.89   0
  -1   6   8   22.34    2.09   0
   0   3   5 1853.74    7.90   0
   1   4  -3  761.41    9.89   0
   1   4   2  393.69    5.56   0
   1   5  -4   65.45    3.87   0
   1   7   4  169.99    2.96   0
   1   9   4   46.33    2.41   0
   1  11   3    8.11    2.24   0
  -6  -8  -6   52.48    2.28   0
  -6  -8  -5   40.81    2.36   0
  -6  -8  -3  253.68    4.18   0
  -4  -5  -9   45.86    2.07   0
  -3  -4  -8  216.17    3.29   0
  -3  -2 -11   80.15    2.47   0
  -3  -1   7  128.60    2.79   0
  -3   2   9    3.18    2.15   0
  -2   2   8  120.38    2.49   0
  -2   4   9    5.37    2.24   0
  -1  -2  -4 1245.68    7.37   0
  -1   3 -10   89.69    2.67   0
   0   0  -2 3158.74   17.07   0
   0   1  -5 1363.03    8.09   0
   0   3  -7 1256.35    7.23   0
   0   4   6  149.95    2.86   0
   0   5  -8   22.09    2.39   0
   0   7   7  128.38    2.59   0
   0   8   7   68.95    2.35   0
   0   9   7    2.36    2.24   0
   1   6   4  284.99    3.52   0
   1  10   4   28.63    2.16   0
  -6  -8  -4   57.82    2.50   0
  -6  -7  -9   30.29    2.30   0
  -6  -6   4   66.30    3.60   0
  -5  -7  -6   79.18    2.60   0
  -5  -7  -1   98.78    4.17   0
  -5  -6  -9    8.85    2.26   0
  -5  -5 -11   63.38    2.30   0
  -5  -4   6   39.30    2.64   0
  -5  -3   7   57.85    2.52   0
  -4  -6  -6  238.80    3.19   0
  -4  -4   5   32.93    2.76   0
  -4  -1   8   29.69    2.20   0
  -3  -5  -5    1.85    1.67   0
  -3  -3   5   50.08    2.86   0
  -3   0   8   16.26    2.21   0
  -2  -2  -8  294.30    3.51   0
  -2   1 -11   11.14    1.87   0
  -1  -1  -6    5.49    2.35   0
  -1   0   5   22.88    2.48   0
  -1   1   6  140.12    2.78   0
  -1   4 -10  158.83    3.15   0
  -1   4   8   19.28    2.17   0
   0   1   3   65.23    2.95   0
   0   2  -6  373.17    4.30   0
   0   6  -8  265.58    3.87   0
   0   6   7  484.35    3.96   0
   0   7  -8   71.92    2.91   0
   0   8  -8   80.32    2.93   0
   1   3   0 1985.40   20.00   0
   1   8   5  898.98    5.73   0
   1   9   5   57.14    2.53   0
   1  11   4    4.22    2.23   0
  -5  -7  -5  129.43    3.07   0
  -4  -6  -5   47.42    2.72   0
  -4  -4 -10   78.24    2.41   0
  -4  -2 -12  118.31    2.90   0
  -3  -5  -4   60.58    2.66   0
  -3  -3  -9   25.07    2.41   0
  -3   0 -12   40.17    2.29   0
  -2  -3  -6  540.52    4.47   0
  -2  -1  -9  406.24    3.90   0
  -2  -1   6  154.02    3.19   0
  -2   0 -10   50.61    2.18   0
  -2   0   7  111.81    2.76   0
  -2   3   9  103.42    2.50   0
  -1  -2  -3 1419.68    8.70   0
  -1   2  -9  694.33    4.92   0
  -1   2   7   55.36    2.31   0
  -1   6   9  331.50    3.76   0
  -1   7   9   25.75    2.20   0
   0   5   7   13.14    2.07   0
   1   4   3  183.05    4.09   0
   1   5   4  835.47    6.19   0
   1   7   5 1061.64    5.97   0
   1  10   5    3.39    2.00   0
  -6  -7  -8   53.21    2.29   0
  -5  -7  -4   15.84    2.29   0
  -5  -7  -2   76.93    3.45   0
  -5  -5 -10   62.99    2.58   0
  -4  -5  -8    3.31    1.88   0
  -4  -3 -11    6.61    2.06   0
  -3  -5  -3  103.29    3.31   0
  -3  -5  -1   29.12    3.47   0
  -3  -4  -7   32.06    2.37   0
  -3  -2 -10  107.86    2.54   0
  -3  -1 -11  206.25    3.00   0
  -3   1   9   67.92    2.30   0
  -2   1   8    6.68    1.88   0
  -2   2 -11   39.11    2.20   0
  -1   0  -7 1997.34    8.05   0
  -1   1  -8  296.82    3.63   0
  -1   3   8   94.49    2.55   0
  -1   5 -10   87.01    2.56   0
  -1   5   9    2.29    2.34   0
  -1   6 -10   20.36    2.22   0
   0   2   5 1521.62    7.50   0
   0   3   6   14.05    2.01   0
   0   4  -7   51.22    2.90   0
   0   8   8  147.12    2.98   0
   0   9   8   66.89    2.57   0
   1   6   5  206.06    3.23   0
   1  11   5   21.21    2.32   0
  -6  -6 -10   23.03    2.03   0
  -5  -7  -3   32.25    2.61   0
  -5  -6  -8   90.68    2.42   0
  -5  -5   5  216.35    4.38   0
  -4  -6  -4    0.68    2.10   0
  -3  -5  -2  417.76    5.57   0
  -3   1 -12   -1.62    2.27   0
  -2  -3   3  267.61    5.60   0
  -2  -2   5  134.69    3.42   0
  -2   2   9    2.97    2.09   0
  -2   4  10   67.90    2.56   0
  -1  -2  -2  375.85    5.93   0
  -1  -1   4   62.04    3.12   0
  -1   3  -9   43.72    2.61   0
   0   1  -4  343.41    4.92   0
   0   4   7    1.13    2.13   0
   0   6   8  106.12    2.74   0
   0   7   8   23.85    2.03   0
   1   3   1 2437.05   16.47   0
   1   8   6    9.98    2.09   0
   1   9   6   74.48    2.58   0
  -7  -8  -6   31.81    2.19   0
  -5  -4 -11  109.01    2.57   0
  -4  -6  -3   30.00    2.83   0
  -4  -4  -9  183.24    3.12   0
  -4  -2   8   20.93    2.38   0
  -4  -1 -12  154.63    3.00   0
  -3  -1   8   91.63    2.68   0
  -2  -3  -5   33.71    2.32   0
  -2  -2  -7  226.80    3.28   0
  -2   1 -10   89.17    2.43   0
  -2   3 -11  105.78    2.66   0
  -1  -1  -5 1585.64    7.87   0
  -1   1   7   81.29    2.51   0
  -1   4   9   86.71    2.34   0
   0   1   4  286.77    4.03   0
   1   4   4    6.57    2.52   0
   1   5   5  318.65    3.91   0
   1   7   6    5.16    2.01   0
   1  10   6  171.25    3.01   0
  -7  -8  -5    3.97    1.99   0
  -6  -7  -7   69.78    2.39   0
  -5  -6  -7   18.93    2.25   0
  -4  -5  -7  499.54    4.10   0
  -4  -3 -10   25.51    2.51   0
  -4  -3   7   91.76    3.02   0
  -4  -2 -11    6.61    2.38   0
  -4  -1   9    2.96    1.92   0
  -3  -4  -6 1006.16    5.77   0
  -3  -3  -8  181.56    3.01   0
  -3  -2   7    2.12    2.07   0
  -3   0 -11    3.99    1.98   0
  -3   0   9   20.50    2.11   0
  -3   2 -12   28.45    2.35   0
  -2  -1  -8  153.63    3.06   0
  -2   0  -9  684.64    4.79   0
  -2   3  10   30.52    2.34   0
  -2   4 -11    3.69    2.05   0
  -1  -2  -1  219.51    6.17   0
  -1   0   6  472.17    4.40   0
  -1   2   8  316.10    3.46   0
  -1   6  10   27.49    2.50   0
   0   2  -5  123.10    3.31   0
   0   3  -6    3.94    2.17   0
   0   5  -7  554.59    5.26   0
   0   5   8   87.85    2.43   0
   1   3   2   31.51    2.96   0
   1   6   6  968.30    5.75   0
   1  11   6   13.49    2.24   0
  -6  -6  -9   -0.57    1.96   0
  -5  -5  -9   74.12    2.26   0
  -3  -2  -9   10.05    2.00   0
  -3  -1 -10   58.08    2.36   0
  -3   1  10   45.98    2.36   0
  -2  -1   7  386.68    4.17   0
  -2   0   8   95.91    2.46   0
  -2   1   9   98.49    2.62   0
  -1   0  -6   21.28    2.43   0
  -1   2  -8 1365.76    6.73   0
  -1   3   9    1.59    1.78   0
  -1   4  -9  208.46    3.34   0
  -1   5  10    6.63    2.22   0
   0   2   6    2.19    1.93   0
   0   3   7   35.55    2.23   0
   0   7   9  100.45    2.54   0
   0   8   9   18.60    2.08   0
   1   8   7   21.81    2.28   0
   1   9   7   -0.81    1.94   0
   1  10   7  118.28    2.83   0
  -5  -4 -10    4.57    2.03   0
  -2   2 -10   92.94    2.53   0
   0   4   8   10.07    2.00   0
   0   6   9   17.04    2.07   0
   1   5   6    4.33    2.00   0
   1   7   7  233.81    3.19   0
;
_shelx_hkl_checksum              46060
_shelx_res_file
;
    mhne3_35.res created by SHELXL-2014/7
TITL mhne3_35 in P-1
CELL 0.71073   6.7673   9.9189  10.4097  82.868  74.093  74.741
ZERR    2.00   0.0013   0.0015   0.0017   0.013   0.013   0.013
LATT  1
SFAC C H N O S
UNIT 22 34 6 6 2
SIZE 0.46 0.32 0.21
REM colorless plate
ACTA 50
L.S. 10
BOND $H
CONF
FMAP 2
PLAN 10
TEMP -100
EQIV $1 -x, -y+2, -z+1
HTAB
HTAB N1A O21X
HTAB N3A S21A_$1
MPLA N1A > C9A
MPLA N1X > C5X
MPLA N1A > C5X
WGHT    0.063500    0.172600
FVAR       1.28636
N1A   3    0.216611    0.618123    0.446199    11.00000    0.03545    0.02260 =
         0.02234    0.00375   -0.00808   -0.00540
H1A   2    0.211554    0.559947    0.507699    11.00000   -1.20000
C2A   1    0.137636    0.754456    0.472477    11.00000    0.02749    0.02487 =
         0.02584    0.00138   -0.00746   -0.00659
S21A  5    0.038863    0.807565    0.628760    11.00000    0.04609    0.02591 =
         0.02220   -0.00027   -0.00590   -0.00665
N3A   3    0.144494    0.845231    0.363936    11.00000    0.03713    0.02225 =
         0.02338    0.00175   -0.00700   -0.00406
H3A   2    0.093481    0.934049    0.379897    11.00000   -1.20000
C4A   1    0.224133    0.810938    0.229710    11.00000    0.03620    0.02799 =
         0.02420    0.00142   -0.00646   -0.00621
O41A  4    0.221110    0.904855    0.142238    11.00000    0.06108    0.02715 =
         0.02608    0.00692   -0.00726   -0.00455
C5A   1    0.302819    0.663346    0.211798    11.00000    0.03567    0.02694 =
         0.02292    0.00016   -0.00668   -0.00465
AFIX  43
H5A   2    0.358106    0.630158    0.124203    11.00000   -1.20000
AFIX   0
C6A   1    0.298267    0.572475    0.318575    11.00000    0.02890    0.02596 =
         0.02540   -0.00067   -0.00775   -0.00530
C7A   1    0.377963    0.417094    0.310687    11.00000    0.04402    0.02472 =
         0.02198    0.00182   -0.00728   -0.00611
AFIX  23
H7A1  2    0.496065    0.383431    0.354523    11.00000   -1.20000
H7A2  2    0.263250    0.370583    0.357900    11.00000   -1.20000
AFIX   0
O8A   4    0.447988    0.383536    0.175854    11.00000    0.05890    0.02274 =
         0.02306   -0.00017   -0.00639   -0.00314
C9A   1    0.526633    0.235710    0.166891    11.00000    0.05158    0.02501 =
         0.02817   -0.00247   -0.00589   -0.00236
AFIX 137
H9A1  2    0.647890    0.204004    0.206557    11.00000   -1.50000
H9A2  2    0.571108    0.212870    0.072721    11.00000   -1.50000
H9A3  2    0.414890    0.188774    0.215243    11.00000   -1.50000
AFIX   0
N1X   3    0.274155    0.192250    0.752947    11.00000    0.04242    0.02929 =
         0.02939    0.00880   -0.01164   -0.00908
C11X  1    0.370298    0.096718    0.646794    11.00000    0.04959    0.02965 =
         0.04827   -0.00185   -0.01425   -0.00706
AFIX 137
H11A  2    0.384110    0.149668    0.560130    11.00000   -1.50000
H11B  2    0.281338    0.031541    0.652296    11.00000   -1.50000
H11C  2    0.510717    0.044086    0.655887    11.00000   -1.50000
AFIX   0
C2X   1    0.225111    0.331222    0.731980    11.00000    0.03607    0.02870 =
         0.02695    0.00391   -0.00932   -0.00775
O21X  4    0.252024    0.391716    0.620242    11.00000    0.06201    0.02758 =
         0.02747    0.00709   -0.00831   -0.00792
C3X   1    0.135358    0.398716    0.863779    11.00000    0.03971    0.04765 =
         0.02954   -0.00756   -0.00677   -0.00896
AFIX  23
H3X1  2   -0.003661    0.464632    0.866331    11.00000   -1.20000
H3X2  2    0.232513    0.450010    0.880255    11.00000   -1.20000
AFIX   0
C4X   1    0.112284    0.276011    0.967012    11.00000    0.05584    0.07455 =
         0.02589    0.00911   -0.01013   -0.01119
AFIX  23
H4X1  2    0.170700    0.283969    1.042393    11.00000   -1.20000
H4X2  2   -0.038621    0.274439    1.002684    11.00000   -1.20000
AFIX   0
C5X   1    0.235590    0.144033    0.893975    11.00000    0.04919    0.05164 =
         0.03559    0.02202   -0.01517   -0.01689
AFIX  23
H5X1  2    0.370439    0.104027    0.919822    11.00000   -1.20000
H5X2  2    0.151631    0.072544    0.913290    11.00000   -1.20000
AFIX   0
HKLF 4
REM  mhne3_35 in P-1
REM R1 =  0.0402 for    2201 Fo > 4sig(Fo)  and  0.0460 for all    2463 data
REM    171 parameters refined using      0 restraints
END
WGHT      0.0635      0.1726
REM Instructions for potential hydrogen bonds
HTAB N1A O21X
HTAB N3A S21A_$1
EQIV $2 -x, -y+1, -z+1
HTAB C7A S21A_$2
EQIV $3 -x+1, -y+1, -z
HTAB C9A O41A_$3
EQIV $4 -x+1, -y+1, -z+1
HTAB C5X O41A_$4
REM Highest difference peak  0.346,  deepest hole -0.238,  1-sigma level  0.048
Q1    1  -0.1317  0.8087  0.6281  11.00000  0.05    0.35
Q2    1   0.2046  0.8099  0.6250  11.00000  0.05    0.32
Q3    1   0.1723  0.3707  0.8000  11.00000  0.05    0.24
Q4    1   0.5550  0.1936  0.3738  11.00000  0.05    0.24
Q5    1   0.5964  0.3758  0.1635  11.00000  0.05    0.21
Q6    1   0.3379  0.1923  0.3731  11.00000  0.05    0.21
Q7    1   0.2030  0.9650  0.2032  11.00000  0.05    0.20
Q8    1   0.1570  0.2094  0.7569  11.00000  0.05    0.19
Q9    1   0.2514  0.5984  0.3807  11.00000  0.05    0.18
Q10   1   0.2133  0.2328  0.7438  11.00000  0.05    0.18
;
_shelx_res_checksum              26392
loop_
_space_group_symop_operation_xyz
'x, y, z'
'-x, -y, -z'
loop_
_atom_site_type_symbol
_atom_site_label
_atom_site_fract_x
_atom_site_fract_y
_atom_site_fract_z
_atom_site_U_iso_or_equiv
_atom_site_adp_type
_atom_site_calc_flag
_atom_site_occupancy
N N1A 0.2166(2) 0.61812(15) 0.44620(15) 0.0274(3) Uani d 1
H H1A 0.212(3) 0.560(2) 0.508(2) 0.033 Uiso d 1
C C2A 0.1376(3) 0.75446(17) 0.47248(17) 0.0261(4) Uani d 1
S S21A 0.03886(8) 0.80756(4) 0.62876(4) 0.03244(17) Uani d 1
N N3A 0.1445(2) 0.84523(15) 0.36394(14) 0.0286(3) Uani d 1
H H3A 0.093(3) 0.934(2) 0.380(2) 0.034 Uiso d 1
C C4A 0.2241(3) 0.81094(18) 0.22971(17) 0.0302(4) Uani d 1
O O41A 0.2211(2) 0.90486(14) 0.14224(13) 0.0408(4) Uani d 1
C C5A 0.3028(3) 0.66335(18) 0.21180(17) 0.0294(4) Uani d 1
H H5A 0.3581 0.6302 0.1242 0.035 Uiso calc 1
C C6A 0.2983(3) 0.57248(18) 0.31858(17) 0.0269(4) Uani d 1
C C7A 0.3780(3) 0.41709(18) 0.31069(16) 0.0312(4) Uani d 1
H H7A1 0.4961 0.3834 0.3545 0.037 Uiso calc 1
H H7A2 0.2632 0.3706 0.3579 0.037 Uiso calc 1
O O8A 0.4480(2) 0.38354(13) 0.17585(12) 0.0371(3) Uani d 1
C C9A 0.5266(3) 0.23571(18) 0.16689(18) 0.0370(4) Uani d 1
H H9A1 0.6479 0.2040 0.2066 0.056 Uiso calc 1
H H9A2 0.5711 0.2129 0.0727 0.056 Uiso calc 1
H H9A3 0.4149 0.1888 0.2152 0.056 Uiso calc 1
N N1X 0.2742(3) 0.19225(16) 0.75295(15) 0.0340(4) Uani d 1
C C11X 0.3703(4) 0.0967(2) 0.6468(2) 0.0426(5) Uani d 1
H H11A 0.3841 0.1497 0.5601 0.064 Uiso calc 1
H H11B 0.2813 0.0315 0.6523 0.064 Uiso calc 1
H H11C 0.5107 0.0441 0.6559 0.064 Uiso calc 1
C C2X 0.2251(3) 0.33122(19) 0.73198(17) 0.0308(4) Uani d 1
O O21X 0.2520(2) 0.39172(13) 0.62024(13) 0.0409(4) Uani d 1
C C3X 0.1354(3) 0.3987(2) 0.86378(19) 0.0392(4) Uani d 1
H H3X1 -0.0037 0.4646 0.8663 0.047 Uiso calc 1
H H3X2 0.2325 0.4500 0.8803 0.047 Uiso calc 1
C C4X 0.1123(4) 0.2760(3) 0.9670(2) 0.0541(6) Uani d 1
H H4X1 0.1707 0.2840 1.0424 0.065 Uiso calc 1
H H4X2 -0.0386 0.2744 1.0027 0.065 Uiso calc 1
C C5X 0.2356(4) 0.1440(2) 0.8940(2) 0.0458(5) Uani d 1
H H5X1 0.3704 0.1040 0.9198 0.055 Uiso calc 1
H H5X2 0.1516 0.0725 0.9133 0.055 Uiso calc 1
loop_
_atom_site_aniso_label
_atom_site_aniso_U_11
_atom_site_aniso_U_22
_atom_site_aniso_U_33
_atom_site_aniso_U_12
_atom_site_aniso_U_13
_atom_site_aniso_U_23
N1A 0.0355(8) 0.0226(7) 0.0223(7) -0.0054(6) -0.0081(6) 0.0038(6)
C2A 0.0275(8) 0.0249(8) 0.0258(8) -0.0066(6) -0.0075(6) 0.0014(6)
S21A 0.0461(3) 0.0259(2) 0.0222(2) -0.00665(19) -0.00590(18) -0.00027(16)
N3A 0.0371(8) 0.0223(7) 0.0234(7) -0.0041(6) -0.0070(6) 0.0017(6)
C4A 0.0362(9) 0.0280(9) 0.0242(8) -0.0062(7) -0.0065(7) 0.0014(7)
O41A 0.0611(9) 0.0272(6) 0.0261(6) -0.0046(6) -0.0073(6) 0.0069(5)
C5A 0.0357(9) 0.0269(9) 0.0229(8) -0.0047(7) -0.0067(7) 0.0002(7)
C6A 0.0289(8) 0.0260(8) 0.0254(8) -0.0053(7) -0.0078(6) -0.0007(6)
C7A 0.0440(10) 0.0247(8) 0.0220(8) -0.0061(7) -0.0073(7) 0.0018(6)
O8A 0.0589(9) 0.0227(6) 0.0231(6) -0.0031(6) -0.0064(5) -0.0002(5)
C9A 0.0516(12) 0.0250(9) 0.0282(9) -0.0024(8) -0.0059(8) -0.0025(7)
N1X 0.0424(9) 0.0293(8) 0.0294(8) -0.0091(6) -0.0116(6) 0.0088(6)
C11X 0.0496(12) 0.0296(10) 0.0483(12) -0.0071(8) -0.0143(9) -0.0018(9)
C2X 0.0361(9) 0.0287(8) 0.0270(9) -0.0078(7) -0.0093(7) 0.0039(7)
O21X 0.0620(9) 0.0276(7) 0.0275(6) -0.0079(6) -0.0083(6) 0.0071(5)
C3X 0.0397(11) 0.0477(11) 0.0295(9) -0.0090(9) -0.0068(8) -0.0076(8)
C4X 0.0558(14) 0.0745(16) 0.0259(10) -0.0112(12) -0.0101(9) 0.0091(10)
C5X 0.0492(12) 0.0516(12) 0.0356(11) -0.0169(10) -0.0152(9) 0.0220(9)
loop_
_atom_type_symbol
_atom_type_description
_atom_type_scat_dispersion_real
_atom_type_scat_dispersion_imag
_atom_type_scat_source
C C 0.0033 0.0016 'International Tables Vol C Tables 4.2.6.8 and 6.1.1.4'
H H 0.0000 0.0000 'International Tables Vol C Tables 4.2.6.8 and 6.1.1.4'
N N 0.0061 0.0033 'International Tables Vol C Tables 4.2.6.8 and 6.1.1.4'
O O 0.0106 0.0060 'International Tables Vol C Tables 4.2.6.8 and 6.1.1.4'
S S 0.1246 0.1234 'International Tables Vol C Tables 4.2.6.8 and 6.1.1.4'
loop_
_geom_angle_atom_site_label_1
_geom_angle_atom_site_label_2
_geom_angle_atom_site_label_3
_geom_angle
C2A N1A C6A 123.10(15)
C2A N1A H1A 118.9(15)
C6A N1A H1A 117.9(15)
N1A C2A N3A 115.42(15)
N1A C2A S21A 122.25(13)
N3A C2A S21A 122.33(13)
C2A N3A C4A 126.47(15)
C2A N3A H3A 116.2(14)
C4A N3A H3A 117.4(14)
O41A C4A N3A 118.98(16)
O41A C4A C5A 127.00(16)
N3A C4A C5A 114.03(15)
C6A C5A C4A 120.04(16)
C6A C5A H5A 120.0
C4A C5A H5A 120.0
C5A C6A N1A 120.94(16)
C5A C6A C7A 124.18(16)
N1A C6A C7A 114.89(15)
O8A C7A C6A 109.38(14)
O8A C7A H7A1 109.8
C6A C7A H7A1 109.8
O8A C7A H7A2 109.8
C6A C7A H7A2 109.8
H7A1 C7A H7A2 108.2
C7A O8A C9A 109.95(13)
O8A C9A H9A1 109.5
O8A C9A H9A2 109.5
H9A1 C9A H9A2 109.5
O8A C9A H9A3 109.5
H9A1 C9A H9A3 109.5
H9A2 C9A H9A3 109.5
C2X N1X C11X 123.51(15)
C2X N1X C5X 114.21(16)
C11X N1X C5X 122.15(16)
N1X C11X H11A 109.5
N1X C11X H11B 109.5
H11A C11X H11B 109.5
N1X C11X H11C 109.5
H11A C11X H11C 109.5
H11B C11X H11C 109.5
O21X C2X N1X 123.80(17)
O21X C2X C3X 126.55(17)
N1X C2X C3X 109.65(15)
C2X C3X C4X 104.24(17)
C2X C3X H3X1 110.9
C4X C3X H3X1 110.9
C2X C3X H3X2 110.9
C4X C3X H3X2 110.9
H3X1 C3X H3X2 108.9
C5X C4X C3X 106.24(16)
C5X C4X H4X1 110.5
C3X C4X H4X1 110.5
C5X C4X H4X2 110.5
C3X C4X H4X2 110.5
H4X1 C4X H4X2 108.7
N1X C5X C4X 103.71(16)
N1X C5X H5X1 111.0
C4X C5X H5X1 111.0
N1X C5X H5X2 111.0
C4X C5X H5X2 111.0
H5X1 C5X H5X2 109.0
loop_
_geom_bond_atom_site_label_1
_geom_bond_atom_site_label_2
_geom_bond_distance
N1A C2A 1.349(2)
N1A C6A 1.375(2)
N1A H1A 0.81(2)
C2A N3A 1.353(2)
C2A S21A 1.6740(17)
N3A C4A 1.403(2)
N3A H3A 0.88(2)
C4A O41A 1.219(2)
C4A C5A 1.437(2)
C5A C6A 1.340(2)
C5A H5A 0.9500
C6A C7A 1.498(2)
C7A O8A 1.405(2)
C7A H7A1 0.9900
C7A H7A2 0.9900
O8A C9A 1.428(2)
C9A H9A1 0.9800
C9A H9A2 0.9800
C9A H9A3 0.9800
N1X C2X 1.335(2)
N1X C11X 1.443(3)
N1X C5X 1.461(2)
C11X H11A 0.9800
C11X H11B 0.9800
C11X H11C 0.9800
C2X O21X 1.231(2)
C2X C3X 1.502(3)
C3X C4X 1.531(3)
C3X H3X1 0.9900
C3X H3X2 0.9900
C4X C5X 1.521(3)
C4X H4X1 0.9900
C4X H4X2 0.9900
C5X H5X1 0.9900
C5X H5X2 0.9900
loop_
_geom_hbond_atom_site_label_D
_geom_hbond_atom_site_label_H
_geom_hbond_atom_site_label_A
_geom_hbond_site_symmetry_A
_geom_hbond_distance_DH
_geom_hbond_distance_HA
_geom_hbond_distance_DA
_geom_hbond_angle_DHA
N1A H1A O21X . 0.81(2) 1.92(2) 2.707(2) 165(2)
N3A H3A S21A 2_576 0.88(2) 2.48(2) 3.3421(17) 167.5(19)
loop_
_geom_torsion_atom_site_label_1
_geom_torsion_atom_site_label_2
_geom_torsion_atom_site_label_3
_geom_torsion_atom_site_label_4
_geom_torsion
C6A N1A C2A N3A -0.3(2)
C6A N1A C2A S21A 179.96(13)
N1A C2A N3A C4A 0.1(3)
S21A C2A N3A C4A 179.90(14)
C2A N3A C4A O41A -179.44(17)
C2A N3A C4A C5A 0.4(3)
O41A C4A C5A C6A 178.98(19)
N3A C4A C5A C6A -0.9(3)
C4A C5A C6A N1A 0.8(3)
C4A C5A C6A C7A -179.44(17)
C2A N1A C6A C5A -0.2(3)
C2A N1A C6A C7A -179.98(16)
C5A C6A C7A O8A -2.4(3)
N1A C6A C7A O8A 177.35(15)
C6A C7A O8A C9A 179.35(15)
C11X N1X C2X O21X 1.8(3)
C5X N1X C2X O21X 177.87(19)
C11X N1X C2X C3X -177.93(18)
C5X N1X C2X C3X -1.9(2)
O21X C2X C3X C4X 173.2(2)
N1X C2X C3X C4X -7.1(2)
C2X C3X C4X C5X 12.8(2)
C2X N1X C5X C4X 10.0(2)
C11X N1X C5X C4X -173.86(19)
C3X C4X C5X N1X -13.7(2)

_cod_database_fobs_code 2020560
