#------------------------------------------------------------------------------
#$Date: 2017-07-25 12:08:08 +0300 (Tue, 25 Jul 2017) $
#$Revision: 199094 $
#$URL: file:///home/coder/svn-repositories/cod/cif/2/02/08/2020809.cif $
#------------------------------------------------------------------------------
#
# This file is available in the Crystallography Open Database (COD),
# http://www.crystallography.net/. The original data for this entry
# were provided by IUCr Journals, http://journals.iucr.org/.
#
# The file may be used within the scientific community so long as
# proper attribution is given to the journal article from which the
# data were obtained.
#
data_2020809
loop_
_publ_author_name
'Mohana, Marimuthu'
'Thomas Muthiah, Packianathan'
'McMillen, Colin D.'
_publ_section_title
;
 Supramolecular architectures in two 1:1 cocrystals of 5-fluorouracil with
 5-bromothiophene-2-carboxylic acid and thiophene-2-carboxylic acid
;
_journal_coeditor_code           OV3090
_journal_issue                   6
_journal_name_full               'Acta Crystallographica Section C'
_journal_page_first              481
_journal_page_last               485
_journal_paper_doi               10.1107/S2053229617007550
_journal_volume                  73
_journal_year                    2017
_chemical_formula_moiety         'C4 H3 F N2 O2, C5 H4 O2 S'
_chemical_formula_sum            'C9 H7 F N2 O4 S'
_chemical_formula_weight         258.23
_chemical_name_common
;
5-Fluorouracil-thiophene-2-carboxylic acid (1/1)
;
_chemical_name_systematic
;
5-Fluoro-1,3-dihydropyrimidine-2,4-dione--thiophene-2-carboxylic acid (1/1)
;
_space_group_crystal_system      triclinic
_space_group_IT_number           2
_space_group_name_Hall           '-P 1'
_space_group_name_H-M_alt        'P -1'
_symmetry_space_group_name_Hall  '-P 1'
_symmetry_space_group_name_H-M   'P -1'
_atom_sites_solution_hydrogens   mixed
_atom_sites_solution_primary     dual
_atom_sites_solution_secondary   difmap
_audit_creation_method           SHELXL-2014/7
_cell_angle_alpha                93.348(2)
_cell_angle_beta                 103.0910(10)
_cell_angle_gamma                115.5660(10)
_cell_formula_units_Z            2
_cell_length_a                   6.8304(3)
_cell_length_b                   7.0075(4)
_cell_length_c                   12.3042(6)
_cell_measurement_reflns_used    9804
_cell_measurement_temperature    100(2)
_cell_measurement_theta_max      28.32
_cell_measurement_theta_min      3.27
_cell_volume                     509.22(4)
_computing_cell_refinement
;
SAINT (Bruker, 2015)
;
_computing_data_collection
;
APEX3 (Bruker, 2015)
;
_computing_data_reduction
;
SAINT (Bruker, 2015)
;
_computing_molecular_graphics
;
PLATON (Spek, 2009), Mercury (Macrae <i>et al.</i>, 2008)
and POVRay (Cason, 2004)
;
_computing_publication_material
;
PLATON (Spek, 2009) and publCIF (Westrip, 2010)
;
_computing_structure_refinement
;
SHELXL2014 (Sheldrick, 2015b)
;
_computing_structure_solution
;
SHELXT2014 (Sheldrick, 2015a)
;
_diffrn_ambient_temperature      100(2)
_diffrn_measured_fraction_theta_full 0.989
_diffrn_measured_fraction_theta_max 0.991
_diffrn_measurement_device_type  'Bruker D8 Venture Photon 100'
_diffrn_measurement_method       '\f and \w scans'
_diffrn_radiation_type           MoK\a
_diffrn_radiation_wavelength     0.71073
_diffrn_reflns_av_R_equivalents  0.0232
_diffrn_reflns_limit_h_max       9
_diffrn_reflns_limit_h_min       -7
_diffrn_reflns_limit_k_max       9
_diffrn_reflns_limit_k_min       -9
_diffrn_reflns_limit_l_max       16
_diffrn_reflns_limit_l_min       -16
_diffrn_reflns_number            11445
_diffrn_reflns_theta_full        25.242
_diffrn_reflns_theta_max         28.344
_diffrn_reflns_theta_min         3.275
_exptl_absorpt_coefficient_mu    0.338
_exptl_absorpt_correction_T_max  1.0000
_exptl_absorpt_correction_T_min  0.9134
_exptl_absorpt_correction_type   multi-scan
_exptl_absorpt_process_details
;
(SADABS; Krause <i>et al.</i>, 2015)
;
_exptl_crystal_colour            colourless
_exptl_crystal_density_diffrn    1.684
_exptl_crystal_description       column
_exptl_crystal_F_000             264
_exptl_crystal_size_max          0.378
_exptl_crystal_size_mid          0.109
_exptl_crystal_size_min          0.107
_refine_diff_density_max         0.365
_refine_diff_density_min         -0.320
_refine_ls_extinction_method     none
_refine_ls_goodness_of_fit_ref   1.055
_refine_ls_hydrogen_treatment    mixed
_refine_ls_matrix_type           full
_refine_ls_number_parameters     187
_refine_ls_number_reflns         2525
_refine_ls_number_restraints     10
_refine_ls_restrained_S_all      1.054
_refine_ls_R_factor_all          0.0305
_refine_ls_R_factor_gt           0.0281
_refine_ls_shift/su_max          0.001
_refine_ls_shift/su_mean         0.000
_refine_ls_structure_factor_coef Fsqd
_refine_ls_weighting_details
'w=1/[\s^2^(Fo^2^)+(0.0386P)^2^+0.1738P] where P=(Fo^2^+2Fc^2^)/3'
_refine_ls_weighting_scheme      calc
_refine_ls_wR_factor_gt          0.0736
_refine_ls_wR_factor_ref         0.0753
_reflns_number_gt                2357
_reflns_number_total             2525
_reflns_threshold_expression     'I > 2\s(I)'
_cod_data_source_file            ov3090sup1.cif
_cod_data_source_block           II
_cod_database_code               2020809
_shelx_space_group_comment
;
The symmetry employed for this shelxl refinement is uniquely defined
by the following loop, which should always be used as a source of
symmetry information in preference to the above space-group names.
They are only intended as comments.
;
_shelx_estimated_absorpt_t_min   0.883
_shelx_estimated_absorpt_t_max   0.965
_shelx_hkl_file
;
  -1   0   0  408.36   12.30
  -1   0   0  412.16   12.40
   1   0   0  420.76   12.40
  -2   0   0  751.32   22.90
  -2   0   0  761.52   22.50
   2   0   0  759.72   22.70
   2   0   0  751.22   22.50
  -3   0   0 1939.71   57.59
  -3   0   0 1926.01   57.09
   3   0   0 1899.01   56.99
   3   0   0 1994.00   57.39
  -4   0   0  685.83   21.60
   4   0   0  700.63   19.90
   4   0   0  677.63   20.70
   4   0   0  615.34   21.00
  -5   0   0   90.09    5.60
   5   0   0   92.79    3.80
   5   0   0   96.39    4.50
   5   0   0   95.29    5.10
  -6   0   0  164.68    8.70
   6   0   0  167.18    7.90
   6   0   0  170.18    7.20
   6   0   0  176.48    6.40
   6   0   0  175.98    6.30
  -7   0   0    5.50    4.20
   7   0   0   20.10    4.10
   7   0   0   10.20    2.50
   7   0   0   11.60    3.00
   8  -1   0  262.07   10.50
   8  -1   0  275.07   12.30
   7  -1   0    0.10    2.50
   7  -1   0   -1.10    2.00
   7  -1   0   -0.70    3.10
   6  -1   0    9.60    2.80
   6  -1   0   16.50    2.40
   6  -1   0    8.10    2.20
   5  -1   0  852.21   26.50
   5  -1   0  824.52   25.50
  -5   1   0  836.62   27.10
   4  -1   0  661.63   20.80
   4  -1   0  656.93   20.00
  -4   1   0  650.53   21.10
   3  -1   0  360.86   11.20
   3  -1   0  365.06   11.90
  -3   1   0  362.86   12.10
   2  -1   0   58.89    2.70
   1  -1   0   36.80    1.60
   1  -1   0   31.00    1.30
   1  -1   0   31.70    1.20
  -1   1   0   31.70    1.20
  -1   1   0   32.30    1.20
   0  -1   0   13.20    0.70
   0  -1   0   11.70    0.70
   0  -1   0   11.70    0.80
   0  -1   0   12.00    0.80
   0   1   0   12.30    0.80
   0   1   0   13.20    0.80
   0   1   0   14.00    0.80
   0   1   0   12.00    0.70
  -2  -1   0  849.12   25.50
  -2  -1   0  836.22   25.50
   2   1   0  850.51   25.20
   2   1   0  835.72   24.90
   2   1   0  828.82   25.40
   2   1   0  863.51   25.10
  -3  -1   0 1465.05   43.80
  -3  -1   0 1456.15   43.60
   3   1   0 1463.55   43.00
   3   1   0 1472.55   43.10
   3   1   0 1477.65   43.40
   3   1   0 1408.16   43.40
  -4  -1   0  915.31   27.50
  -4  -1   0  882.81   27.90
   4   1   0  867.11   27.20
   4   1   0  876.51   26.70
   4   1   0  868.61   27.10
   4   1   0  886.11   26.60
  -5  -1   0   70.19    4.80
  -5  -1   0   87.89    5.70
   5   1   0   74.39    4.00
   5   1   0   78.49    4.60
   5   1   0   77.29    3.90
   5   1   0   72.79    4.00
  -6  -1   0  229.28   11.20
   6   1   0  251.67    9.80
   6   1   0  245.18    9.10
   6   1   0  246.68    9.10
   6   1   0  236.28    8.80
  -7  -1   0    6.50    5.20
   7   1   0   11.80    2.90
   7   1   0   20.80    5.30
   7   1   0   16.40    4.90
   8  -2   0  124.19    8.40
   8  -2   0  106.79    5.90
   7  -2   0   33.10    5.00
   7  -2   0   22.10    3.00
   7  -2   0   27.90    5.90
   6  -2   0  948.81   30.40
   6  -2   0  939.91   28.80
   6  -2   0  960.20   30.60
   5  -2   0   12.40    2.80
   5  -2   0   15.00    3.10
   5  -2   0   14.90    1.70
   4  -2   0  187.28    7.40
   4  -2   0  179.88    7.30
   4  -2   0  184.38    6.20
   3  -2   0  447.46   14.60
   3  -2   0  457.85   13.60
   3  -2   0  442.66   14.70
   3  -2   0  456.15   13.60
   2  -2   0  188.78    6.20
   2  -2   0  190.58    6.20
   2  -2   0  193.98    6.10
   2  -2   0  197.28    6.90
  -2   2   0  191.88    6.10
  -2   2   0  188.58    6.10
   1  -2   0   56.09    2.40
   1  -2   0   55.39    2.50
   1  -2   0   57.39    2.30
   1  -2   0   55.99    2.40
  -1   2   0   54.19    2.40
  -1   2   0   55.99    2.60
  -1   2   0   57.79    2.40
  -1   2   0   55.59    2.30
   0  -2   0 1726.03   50.69
   0  -2   0 1713.83   50.79
   0  -2   0 1684.93   50.49
   0  -2   0 1710.93   50.69
   0   2   0 1741.33   50.59
   0   2   0 1769.92   50.69
  -1  -2   0  504.45   15.40
  -1  -2   0  459.45   14.70
  -1  -2   0  491.85   15.20
  -1  -2   0  483.55   15.10
   1   2   0  512.85   15.30
   1   2   0  515.75   15.40
   1   2   0  474.05   14.80
   1   2   0  500.75   15.40
  -2  -2   0 4573.84  135.19
  -2  -2   0 4600.64  135.39
  -2  -2   0 4703.63  135.79
  -2  -2   0 4710.83  136.09
   2   2   0 4545.35  135.09
   2   2   0 4659.63  135.99
   2   2   0 4675.03  135.79
   2   2   0 4755.32  135.69
  -3  -2   0    4.90    1.60
  -3  -2   0    3.40    1.50
   3   2   0    4.20    1.20
   3   2   0    5.60    1.30
   3   2   0    4.70    1.30
   3   2   0    5.20    1.40
  -4  -2   0   10.40    2.70
  -4  -2   0    8.50    2.40
   4   2   0   10.60    2.60
   4   2   0   11.10    2.60
   4   2   0   10.70    1.90
   4   2   0    9.20    1.80
  -5  -2   0  228.28   10.20
  -5  -2   0  226.08    9.80
   5   2   0  215.88    7.80
   5   2   0  233.58    8.90
   5   2   0  230.58    8.80
   5   2   0  203.08    9.00
  -6  -2   0    3.80    4.10
   6   2   0   -3.90    2.40
   6   2   0   -0.40    3.30
   6   2   0    1.90    3.00
   6   2   0    0.30    3.00
   8  -3   0  440.26   17.50
   8  -3   0  440.26   14.30
   7  -3   0  886.31   29.20
   7  -3   0  894.61   26.50
   7  -3   0  833.02   28.90
   6  -3   0 2279.17   68.89
   6  -3   0 2300.77   66.39
   6  -3   0 2258.87   68.59
   6  -3   0 2213.88   66.49
   5  -3   0  597.84   19.90
   5  -3   0  599.74   18.20
   5  -3   0  597.74   20.10
   5  -3   0  590.34   18.20
   4  -3   0   76.89    4.50
   4  -3   0   84.89    4.70
   4  -3   0   81.89    3.40
   4  -3   0   89.19    3.50
   4  -3   0   81.59    3.40
   3  -3   0 2589.44   76.59
   3  -3   0 2537.35   76.89
   3  -3   0 2640.44   76.89
   3  -3   0 2669.93   77.89
  -3   3   0 2648.44   76.59
  -3   3   0 2656.43   76.49
   2  -3   0   25.10    1.80
   2  -3   0   23.30    1.80
   2  -3   0   24.40    2.10
   2  -3   0   23.80    1.60
  -2   3   0   25.90    1.70
  -2   3   0   24.10    2.10
  -2   3   0   23.20    1.70
  -2   3   0   22.50    1.60
   1  -3   0 2396.26   71.59
   1  -3   0 2466.15   71.89
   1  -3   0 2329.47   71.79
   1  -3   0 2500.25   71.89
  -1   3   0 2558.84   71.89
  -1   3   0 2463.55   71.99
  -1   3   0 2339.87   71.79
  -1   3   0 2475.05   71.59
   0  -3   0  176.58    6.40
   0  -3   0  182.78    6.40
   0  -3   0  167.58    6.30
   0  -3   0  170.28    6.00
   0   3   0  168.78    6.20
   0   3   0  171.68    6.30
   0   3   0  174.88    6.40
   0   3   0  179.18    6.50
  -1  -3   0   79.79    4.00
  -1  -3   0   80.09    3.70
  -1  -3   0   71.19    3.20
  -1  -3   0   82.29    3.80
   1   3   0   85.39    3.90
   1   3   0   76.99    3.40
   1   3   0   83.99    3.90
   1   3   0   79.99    3.90
  -2  -3   0   94.99    4.20
  -2  -3   0   96.39    4.20
  -2  -3   0  101.89    4.50
  -2  -3   0   96.39    4.90
   2   3   0   98.59    4.60
   2   3   0   94.99    3.90
   2   3   0  102.99    4.80
   2   3   0  100.79    4.70
  -3  -3   0 2180.28   64.99
  -3  -3   0 2195.58   65.29
  -3  -3   0 2182.68   63.79
  -3  -3   0 2159.18   63.69
   3   3   0 2142.79   64.99
   3   3   0 2225.08   64.89
   3   3   0 2103.39   63.69
   3   3   0 2180.78   64.79
  -4  -3   0   85.99    5.90
   4   3   0   94.49    5.30
   4   3   0   80.79    4.10
   4   3   0   86.89    5.60
   4   3   0   93.79    5.50
  -5  -3   0  580.34   21.80
  -5  -3   0  631.24   22.10
   5   3   0  620.74   21.10
   5   3   0  632.94   21.30
   5   3   0  668.73   21.00
   5   3   0  590.64   19.20
  -6  -3   0  236.08   13.10
   6   3   0  224.78   10.60
   6   3   0  226.58   11.30
   8  -4   0   48.40    7.20
   7  -4   0   70.69    4.10
   7  -4   0   64.09    6.20
   7  -4   0   70.29    3.60
   7  -4   0   70.69    3.90
   7  -4   0   71.19    7.40
   7  -4   0   78.09    4.20
   6  -4   0  147.69    8.10
   6  -4   0  158.18    6.10
   6  -4   0  145.69    6.00
   6  -4   0  153.08    5.70
   6  -4   0  146.79    8.00
   5  -4   0 3064.19   92.99
   5  -4   0 3019.00   91.29
   5  -4   0 3191.68   91.29
   5  -4   0 3135.99   92.89
   5  -4   0 3125.39   90.79
   4  -4   0  377.86   12.10
   4  -4   0  393.96   12.70
   4  -4   0  389.06   12.70
  -4   4   0  379.36   11.90
  -4   4   0  377.56   11.80
   3  -4   0  670.43   21.80
   3  -4   0  707.63   21.20
   3  -4   0  679.13   20.60
   3  -4   0  652.03   21.10
  -3   4   0  678.63   20.90
  -3   4   0  662.33   20.80
   2  -4   0 2234.38   65.99
   2  -4   0 2245.78   66.69
   2  -4   0 2401.46   66.49
   2  -4   0 2185.68   66.39
  -2   4   0 2210.08   66.09
  -2   4   0 2135.69   66.19
  -2   4   0 2254.67   66.29
  -2   4   0 2238.88   66.79
   1  -4   0   10.70    1.90
   1  -4   0   11.00    1.90
   1  -4   0   14.40    2.10
   1  -4   0   13.10    2.00
  -1   4   0    8.90    1.80
  -1   4   0    9.50    1.90
  -1   4   0   13.20    2.10
  -1   4   0    9.30    1.80
   0  -4   0 2287.67   68.59
   0  -4   0 2322.97   68.69
   0  -4   0 2272.57   67.99
   0  -4   0 2308.57   68.69
   0   4   0 2319.37   68.39
   0   4   0 2215.88   68.59
   0   4   0 2287.87   68.79
   0   4   0 2484.55   68.89
  -1  -4   0  200.78    7.00
  -1  -4   0  207.18    8.20
  -1  -4   0  212.68    7.80
  -1  -4   0  201.58    7.90
   1   4   0  206.48    7.50
   1   4   0  202.38    8.10
   1   4   0  214.78    8.20
   1   4   0  206.18    8.00
  -2  -4   0  457.65   14.60
  -2  -4   0  423.96   14.60
  -2  -4   0  445.76   14.40
  -2  -4   0  436.66   15.40
   2   4   0  414.86   15.00
   2   4   0  448.96   15.10
   2   4   0  443.96   15.20
   2   4   0  430.06   14.10
  -3  -4   0   10.50    1.90
  -3  -4   0    6.10    2.70
  -3  -4   0   10.60    2.60
   3   4   0   10.90    2.40
   3   4   0   15.90    3.50
   3   4   0   11.50    2.70
   3   4   0   15.70    2.60
  -4  -4   0    0.20    3.50
   4   4   0    4.30    3.20
   4   4   0    3.20    2.80
   4   4   0    3.10    1.70
   4   4   0    5.10    2.50
  -5  -4   0   33.50    7.70
   5   4   0   22.80    6.00
   5   4   0   23.30    4.70
   8  -5   0  738.43   26.00
   8  -5   0  749.53   27.20
   8  -5   0  777.52   24.20
   7  -5   0  101.39    4.40
   7  -5   0  102.19    4.50
   7  -5   0  101.89    7.60
   7  -5   0   98.89    5.60
   7  -5   0   92.69    5.40
   6  -5   0   11.80    2.40
   6  -5   0   11.10    2.40
   6  -5   0   11.40    3.20
   5  -5   0  995.20   32.60
   5  -5   0  993.30   31.10
   5  -5   0 1030.60   31.10
   5  -5   0 1000.80   30.30
   4  -5   0   12.10    3.20
   4  -5   0   15.90    2.20
   4  -5   0   10.30    2.60
   4  -5   0    9.10    2.60
  -4   5   0   14.10    2.10
  -4   5   0   11.70    2.10
   3  -5   0  345.97   11.20
   3  -5   0  339.37   12.30
   3  -5   0  318.77   11.70
   3  -5   0  327.17   11.80
  -3   5   0  322.17   11.40
  -3   5   0  342.57   11.40
  -3   5   0  322.57   11.30
   2  -5   0  235.78    8.90
   2  -5   0  229.18    8.90
   2  -5   0  233.48    9.00
   2  -5   0  217.48    8.50
  -2   5   0  224.68    8.70
  -2   5   0  234.08    8.50
  -2   5   0  224.08    8.70
  -2   5   0  248.78    9.20
   1  -5   0   78.29    4.60
   1  -5   0   78.69    4.60
   1  -5   0   81.79    4.30
   1  -5   0   76.49    4.40
  -1   5   0   78.69    4.30
  -1   5   0   83.99    4.60
  -1   5   0   87.59    4.80
  -1   5   0   77.89    4.50
   0  -5   0   71.79    4.60
   0  -5   0   73.09    4.70
   0  -5   0   71.89    4.60
   0  -5   0   69.29    3.80
   0   5   0   74.29    4.50
   0   5   0   76.39    4.30
   0   5   0   74.79    4.40
   0   5   0   78.59    4.80
  -1  -5   0  215.48    8.60
  -1  -5   0  207.58    7.70
  -1  -5   0  231.38    8.90
   1   5   0  226.88    9.30
   1   5   0  226.48    9.20
   1   5   0  204.28    8.80
   1   5   0  215.58    8.30
  -2  -5   0   24.20    3.80
  -2  -5   0   16.50    3.60
  -2  -5   0   14.20    3.70
   2   5   0   18.80    3.80
   2   5   0   15.00    3.30
   2   5   0   19.00    3.10
   2   5   0   22.50    3.90
  -3  -5   0  146.99    8.20
  -3  -5   0  149.29    6.90
  -3  -5   0  147.19    6.60
   3   5   0  122.99    8.70
   3   5   0  154.78    8.20
   3   5   0  143.39    8.20
   3   5   0  144.29    6.30
  -4  -5   0   32.50    7.70
   4   5   0   37.20    6.80
   4   5   0   48.90    6.70
   8  -6   0  723.33   28.60
   8  -6   0  797.72   28.40
   8  -6   0  789.12   25.20
   7  -6   0   -0.70    3.20
   7  -6   0    0.30    3.00
   7  -6   0    0.70    2.00
   7  -6   0    0.00    2.50
   6  -6   0  168.18    8.00
   6  -6   0  169.08    7.90
   6  -6   0  179.28    6.90
   6  -6   0  170.18    9.60
   5  -6   0    1.30    1.80
   5  -6   0    1.00    2.00
   5  -6   0   -2.00    2.10
  -5   6   0   -0.80    1.40
  -5   6   0   -1.10    1.50
   4  -6   0 1350.96   42.40
   4  -6   0 1404.06   43.30
   4  -6   0 1367.76   41.60
   4  -6   0 1330.77   42.40
  -4   6   0 1388.36   41.90
  -4   6   0 1407.66   41.80
   3  -6   0 1468.45   45.00
   3  -6   0 1455.15   45.20
   3  -6   0 1394.66   44.80
   3  -6   0 1466.45   44.30
  -3   6   0 1478.15   44.60
  -3   6   0 1480.15   44.60
  -3   6   0 1464.45   44.40
   2  -6   0   42.00    3.90
   2  -6   0   35.70    4.10
   2  -6   0   33.80    4.00
  -2   6   0   37.60    3.70
  -2   6   0   28.50    4.00
  -2   6   0   28.80    3.90
  -2   6   0   44.40    3.60
   1  -6   0   27.80    4.30
   1  -6   0   30.60    4.20
   1  -6   0   35.00    3.50
   1  -6   0   27.30    4.00
  -1   6   0   34.10    4.00
  -1   6   0   32.10    3.70
  -1   6   0   25.50    3.40
   0  -6   0  383.06   13.10
   0  -6   0  374.76   14.40
   0  -6   0  402.66   14.30
   0  -6   0  398.86   14.70
   0   6   0  378.86   14.40
   0   6   0  401.06   14.10
   0   6   0  402.76   14.30
  -1  -6   0   15.90    4.30
  -1  -6   0   11.70    3.10
   1   6   0   14.10    4.00
   1   6   0   19.00    5.40
   1   6   0   10.20    2.70
   1   6   0    8.50    2.30
  -2  -6   0  123.09    7.50
  -2  -6   0  119.29    7.20
   2   6   0  128.59    7.90
   2   6   0  126.29    6.60
   2   6   0  133.69    7.80
  -3  -6   0   19.10    5.10
  -3  -6   0   33.90    7.40
   3   6   0   17.40    4.40
   3   6   0    8.70    4.00
   8  -7   0  375.96   17.90
   8  -7   0  390.26   15.20
   7  -7   0   26.60    7.70
   7  -7   0   24.80    5.80
   7  -7   0   34.20    5.70
   7  -7   0   22.30    4.80
   6  -7   0 1949.10   57.59
   6  -7   0 1906.31   56.19
   6  -7   0 1778.12   57.29
   6  -7   0 1856.31   58.89
   5  -7   0   44.10    4.50
   5  -7   0   37.90    6.10
   5  -7   0   29.50    4.90
   5  -7   0   30.90    5.60
  -5   7   0   32.20    4.20
  -5   7   0   37.30    3.90
   4  -7   0  139.89    7.60
   4  -7   0  139.49    6.90
   4  -7   0  121.99    7.60
   4  -7   0  142.99    8.30
  -4   7   0  126.69    6.70
  -4   7   0  134.19    7.00
   3  -7   0   63.89    5.70
   3  -7   0   73.69    5.40
   3  -7   0   50.99    6.50
   3  -7   0   70.59    5.90
  -3   7   0   66.09    5.10
  -3   7   0   78.49    5.20
   2  -7   0  579.44   19.20
   2  -7   0  554.34   18.70
   2  -7   0  528.45   18.80
  -2   7   0  558.14   18.80
  -2   7   0  562.04   19.10
  -2   7   0  460.25   18.80
   1  -7   0   39.20    6.00
   1  -7   0   46.40    5.50
   1  -7   0   45.40    4.50
   1  -7   0   42.40    6.20
  -1   7   0   29.40    5.20
  -1   7   0   45.40    4.80
  -1   7   0   36.80    4.70
   0  -7   0   66.59    4.80
   0  -7   0   66.99    6.20
   0  -7   0   53.09    6.60
   0   7   0   57.69    5.90
   0   7   0   65.79    5.90
   0   7   0   67.19    6.00
  -1  -7   0   20.70    4.20
  -1  -7   0   19.40    4.00
   1   7   0   22.40    4.40
   1   7   0   26.90    6.00
   1   7   0   16.40    4.00
  -2  -7   0   56.09    7.90
  -2  -7   0   59.29    7.20
   2   7   0   35.40    7.60
   2   7   0   46.30    7.10
   7  -8   0  256.97   12.30
   7  -8   0  238.88   14.30
   6  -8   0  381.36   15.70
   6  -8   0  395.16   14.60
   6  -8   0  409.76   17.30
  -6   8   0  371.76   13.70
  -6   8   0  392.86   13.70
   5  -8   0  966.20   32.30
   5  -8   0 1048.40   34.40
   5  -8   0 1046.60   33.60
  -5   8   0 1002.30   32.30
   4  -8   0   41.50    6.60
   4  -8   0   42.10    6.60
   4  -8   0   48.70    7.00
  -4   8   0   44.00    6.30
  -4   8   0   43.70    5.30
   3  -8   0  415.66   16.50
   3  -8   0  390.46   16.20
   3  -8   0  443.76   16.50
  -3   8   0  437.56   16.20
  -3   8   0  437.26   16.00
   2  -8   0   40.90    6.70
   2  -8   0   39.00    5.90
  -2   8   0   42.90    5.60
  -2   8   0   37.30    5.70
   1  -8   0   -0.80    2.80
   1  -8   0    9.90    4.10
  -1   8   0    5.10    3.40
  -1   8   0    1.60    3.60
   0  -8   0    0.60    4.20
   0  -8   0    0.40    3.00
   0   8   0    5.20    3.80
   0   8   0    0.80    3.90
   6  -9   0   51.99   10.50
   6  -9   0   65.89    9.00
   5  -9   0  236.58   12.70
   5  -9   0  227.88   13.20
  -5   9   0  231.08   10.90
   4  -9   0   11.10    4.60
   4  -9   0   23.30    5.30
  -4   9   0   14.50    4.10
   3  -9   0   41.40    7.90
   3  -9   0   56.19    8.80
  -3   9   0   32.60    7.40
  -3   9   0   56.89    7.20
   2  -9   0   22.50    7.00
   2  -9   0   17.00    5.40
  -2   9   0   15.10    4.60
  -2   9   0   37.60    7.20
  -2   9  -1  200.38   11.40
  -2   9  -1  188.68   11.00
   2  -9   1  208.48   12.10
   2  -9   1  195.18   10.50
  -3   9  -1   29.50    6.70
  -3   9  -1   36.20    6.80
   3  -9   1   38.10    7.90
   3  -9   1   33.10    8.70
  -4   9  -1   23.90    6.20
   4  -9   1   15.70    4.90
   4  -9   1    7.50    4.80
  -5   9  -1   22.50    4.20
   5  -9   1   20.20    5.40
   5  -9   1   13.70    5.80
   5  -9   1   17.80    5.40
   0   8  -1   67.19    7.50
   0   8  -1   54.19    7.20
   0  -8   1   65.19    8.10
   0  -8   1   54.69    5.70
  -1   8  -1   -1.80    3.10
  -1   8  -1    3.60    3.10
   1  -8   1   -6.50    3.70
   1  -8   1   -3.30    2.60
  -2   8  -1   20.50    5.00
  -2   8  -1   18.40    5.00
   2  -8   1   17.30    3.70
   2  -8   1   35.10    6.70
  -3   8  -1  357.66   13.50
  -3   8  -1  351.06   13.90
   3  -8   1  324.87   14.30
   3  -8   1  318.17   14.00
   3  -8   1  358.46   14.20
  -4   8  -1  394.86   15.30
  -4   8  -1  426.86   15.20
   4  -8   1  385.56   15.00
   4  -8   1  410.86   16.40
   4  -8   1  372.56   15.80
  -5   8  -1   20.70    5.00
   5  -8   1   26.40    5.90
   5  -8   1   24.00    6.10
   5  -8   1   21.10    4.80
  -6   8  -1   77.59    5.30
  -6   8  -1   68.39    7.20
   6  -8   1   89.29    9.50
   6  -8   1   72.19    7.70
   6  -8   1   72.99    6.70
   7  -8   1   30.70    9.30
   7  -8   1   22.90    5.30
   2   7  -1    3.40    4.10
   2   7  -1   11.30    4.20
  -2  -7   1   12.80    4.50
  -2  -7   1   10.70    4.00
  -2  -7   1    3.50    4.80
   1   7  -1  274.77   12.20
   1   7  -1  299.07   12.70
  -1  -7   1  267.47   10.00
  -1  -7   1  253.27   12.20
  -1  -7   1  283.07   11.90
   0   7  -1   56.69    5.50
   0   7  -1   56.49    5.80
   0  -7   1   49.70    6.50
   0  -7   1   49.70    5.90
   0  -7   1   47.50    4.20
  -1   7  -1    1.50    2.70
  -1   7  -1    2.90    2.30
  -1   7  -1    1.60    2.40
   1  -7   1    2.70    2.20
   1  -7   1   -6.50    3.30
   1  -7   1    1.00    2.80
   1  -7   1    0.50    3.00
  -2   7  -1  203.58    8.80
  -2   7  -1  185.68    9.00
   2  -7   1  204.78    9.50
   2  -7   1  204.28    9.30
   2  -7   1  210.28    9.20
  -3   7  -1   14.80    3.60
  -3   7  -1   20.90    3.50
   3  -7   1   12.70    3.10
   3  -7   1   17.90    4.80
   3  -7   1   12.80    3.30
   3  -7   1   22.90    4.30
  -4   7  -1  184.88    8.30
  -4   7  -1  181.88    8.30
   4  -7   1  179.98    8.90
   4  -7   1  188.38    9.60
   4  -7   1  182.38    9.20
   4  -7   1  197.98    8.20
  -5   7  -1  266.57   10.30
  -5   7  -1  268.47   10.30
   5  -7   1  281.97   11.80
   5  -7   1  286.77   11.50
   5  -7   1  264.17   10.10
   5  -7   1  249.38   12.20
   6  -7   1    1.90    3.50
   6  -7   1    3.90    2.40
   6  -7   1    3.70    3.70
   6  -7   1    2.00    3.10
   7  -7   1  104.69    8.20
   7  -7   1   95.59    9.40
   7  -7   1  102.99    7.40
   8  -7   1  623.04   22.00
   3   6  -1   -1.00    3.40
   3   6  -1   10.20    4.00
  -3  -6   1    0.80    2.80
  -3  -6   1    4.20    4.30
   2   6  -1  112.39    7.30
   2   6  -1  101.89    7.00
  -2  -6   1  106.89    6.60
  -2  -6   1   94.69    7.00
  -2  -6   1  103.59    6.70
   1   6  -1   88.59    6.80
   1   6  -1   93.39    6.10
   1   6  -1   95.19    6.10
  -1  -6   1   92.59    6.00
  -1  -6   1   88.99    4.60
   0   6  -1 1236.68   38.00
   0   6  -1 1284.97   39.00
   0   6  -1 1244.88   38.50
   0  -6   1 1235.28   38.80
   0  -6   1 1195.28   37.30
   0  -6   1 1200.48   38.50
  -1   6  -1   23.00    3.30
  -1   6  -1   25.10    3.40
   1  -6   1   21.40    4.00
   1  -6   1   17.60    3.70
   1  -6   1   25.00    3.40
   1  -6   1   22.90    3.90
  -2   6  -1 1084.69   35.00
  -2   6  -1 1123.59   34.60
  -2   6  -1 1077.19   34.90
   2  -6   1 1139.09   35.20
   2  -6   1 1149.58   35.10
   2  -6   1 1141.99   34.70
  -3   6  -1  258.07    9.90
  -3   6  -1  248.58    9.90
  -3   6  -1  254.07    9.60
   3  -6   1  257.67    9.60
   3  -6   1  269.77   10.50
   3  -6   1  265.87   10.70
   3  -6   1  265.57   10.50
  -4   6  -1   13.30    3.00
  -4   6  -1   17.40    2.90
   4  -6   1   20.50    2.70
   4  -6   1   13.40    3.50
   4  -6   1   15.60    3.80
   4  -6   1   21.70    4.20
  -5   6  -1 2641.54   77.29
  -5   6  -1 2621.14   77.09
   5  -6   1 2593.04   78.39
   5  -6   1 2593.24   78.39
   5  -6   1 2645.54   77.19
   5  -6   1 2617.04   79.79
   6  -6   1  179.38   10.10
   6  -6   1  195.08    7.10
   6  -6   1  191.48    8.50
   6  -6   1  204.48    8.80
   7  -6   1   57.29    6.00
   7  -6   1   68.29    5.60
   7  -6   1   61.29    7.40
   8  -6   1   16.40    4.90
   8  -6   1   16.50    3.80
   4   5  -1   14.10    3.80
   4   5  -1   14.50    4.20
  -4  -5   1   16.50    4.90
   3   5  -1  714.63   23.40
   3   5  -1  613.94   23.20
   3   5  -1  672.23   23.20
  -3  -5   1  681.33   21.80
  -3  -5   1  706.63   21.70
  -3  -5   1  715.33   23.00
   2   5  -1   69.39    4.00
   2   5  -1   75.39    5.40
   2   5  -1   73.99    5.70
   2   5  -1   70.39    5.20
  -2  -5   1   76.89    4.90
  -2  -5   1   72.49    5.10
  -2  -5   1   77.29    4.80
   1   5  -1   94.29    4.80
   1   5  -1   97.39    5.60
   1   5  -1  106.39    5.60
   1   5  -1  105.69    6.00
  -1  -5   1   78.79    4.20
  -1  -5   1   95.29    5.40
  -1  -5   1   93.79    5.50
   0   5  -1  109.09    5.10
   0   5  -1  117.49    5.60
   0   5  -1  108.49    5.40
   0   5  -1  114.59    5.70
   0  -5   1  107.49    5.70
   0  -5   1  102.29    5.40
   0  -5   1  105.69    5.50
   0  -5   1  102.39    4.70
  -1   5  -1  491.55   17.20
  -1   5  -1  520.15   17.30
  -1   5  -1  531.85   17.00
  -1   5  -1  534.85   17.20
   1  -5   1  492.75   17.20
   1  -5   1  521.05   17.10
   1  -5   1  521.25   17.00
   1  -5   1  546.95   17.50
  -2   5  -1   -0.40    1.10
  -2   5  -1    0.80    1.40
  -2   5  -1   -0.10    1.20
   2  -5   1    2.40    1.30
   2  -5   1    3.60    1.60
   2  -5   1   -2.70    1.30
   2  -5   1    0.70    1.30
  -3   5  -1  966.30   29.70
  -3   5  -1  975.90   29.50
  -3   5  -1  948.31   29.70
   3  -5   1  948.71   30.60
   3  -5   1  976.60   30.10
   3  -5   1  957.90   29.30
   3  -5   1  976.60   30.10
  -4   5  -1   -1.10    1.00
  -4   5  -1    0.10    1.10
   4  -5   1   -0.20    1.50
   4  -5   1    0.60    1.50
   4  -5   1    0.40    1.10
   4  -5   1    0.60    1.50
   5  -5   1  343.97   12.20
   5  -5   1  353.96   11.20
   5  -5   1  343.07   12.20
   6  -5   1 1378.36   41.20
   6  -5   1 1356.16   40.00
   6  -5   1 1331.57   41.20
   6  -5   1 1347.47   43.30
   7  -5   1  730.93   23.30
   7  -5   1  714.73   25.80
   7  -5   1  745.53   23.40
   8  -5   1  281.97   14.10
   8  -5   1  291.37   11.10
   5   4  -1   84.79    7.40
   5   4  -1   75.59    6.90
   5   4  -1   81.29    8.20
  -5  -4   1   90.09    8.20
   4   4  -1   39.70    4.90
   4   4  -1   43.20    5.10
   4   4  -1   40.50    5.70
  -4  -4   1   33.20    5.60
   3   4  -1    9.10    2.40
   3   4  -1   11.30    3.30
   3   4  -1    8.00    2.50
  -3  -4   1   10.70    2.50
  -3  -4   1   13.90    2.90
  -3  -4   1    9.90    2.60
   2   4  -1  458.05   15.60
   2   4  -1  447.86   15.60
   2   4  -1  457.45   14.30
   2   4  -1  459.95   15.60
  -2  -4   1  443.86   15.80
  -2  -4   1  467.85   15.00
  -2  -4   1  460.95   15.00
   1   4  -1  292.47   10.40
   1   4  -1  275.67   10.10
   1   4  -1  283.07   10.30
   1   4  -1  284.07    9.50
  -1  -4   1  302.37   10.10
  -1  -4   1  279.27   10.40
  -1  -4   1  269.37    9.00
  -1  -4   1  271.77    9.90
   0   4  -1 1167.28   35.30
   0   4  -1 1126.39   35.50
   0   4  -1 1162.98   35.10
   0  -4   1 1234.78   35.50
   0  -4   1 1127.59   34.70
   0  -4   1 1168.98   35.40
   0  -4   1 1136.89   35.40
  -1   4  -1    9.40    1.70
  -1   4  -1    8.50    1.80
  -1   4  -1    7.70    1.70
  -1   4  -1   12.30    2.00
   1  -4   1   11.70    2.00
   1  -4   1   11.90    2.00
   1  -4   1   10.80    1.90
   1  -4   1    8.40    1.80
  -2   4  -1    6.80    1.60
  -2   4  -1    7.50    1.40
  -2   4  -1    7.60    1.80
   2  -4   1    9.00    2.10
   2  -4   1    7.10    1.50
   2  -4   1    7.30    1.90
   2  -4   1    5.80    1.40
  -3   4  -1  182.48    6.50
  -3   4  -1  175.18    6.30
   3  -4   1  180.48    6.10
   3  -4   1  169.28    6.70
   3  -4   1  173.28    7.30
   3  -4   1  165.28    6.60
  -4   4  -1  557.74   17.00
  -4   4  -1  567.24   17.00
   4  -4   1  567.24   19.00
   4  -4   1  566.34   17.00
   4  -4   1  542.65   17.70
   4  -4   1  550.14   17.80
   5  -4   1   67.19    5.00
   5  -4   1   61.39    3.70
   5  -4   1   64.29    5.00
   5  -4   1   59.29    3.60
   5  -4   1   68.99    2.80
   6  -4   1  392.16   15.80
   6  -4   1  430.46   13.80
   6  -4   1  435.46   13.80
   7  -4   1   37.20    5.70
   7  -4   1   30.00    3.40
   7  -4   1   30.00    3.40
   8  -4   1   28.90    7.30
   8  -4   1   31.00    4.20
   6   3  -1  192.18    9.50
   6   3  -1  187.98   10.20
  -6  -3   1  192.48   11.60
   5   3  -1   80.29    6.30
   5   3  -1   91.69    6.10
   5   3  -1   88.19    5.80
  -5  -3   1   85.09    6.90
  -5  -3   1   89.29    7.60
   4   3  -1  290.77   10.90
   4   3  -1  292.47   11.20
   4   3  -1  292.67   10.90
  -4  -3   1  296.07   11.40
   3   3  -1 1151.18   35.90
   3   3  -1 1180.58   36.30
   3   3  -1 1199.98   36.00
   3   3  -1 1156.88   34.60
  -3  -3   1 1178.78   35.90
  -3  -3   1 1186.08   34.80
  -3  -3   1 1157.18   34.80
  -3  -3   1 1165.78   36.40
   2   3  -1  381.76   12.70
   2   3  -1  369.96   11.70
   2   3  -1  375.96   12.80
   2   3  -1  385.16   12.70
  -2  -3   1  372.56   12.30
  -2  -3   1  384.76   12.20
  -2  -3   1  371.66   12.10
   0   3  -1   -0.40    0.70
   0   3  -1   -0.40    0.70
   0   3  -1   -0.70    0.60
   0   3  -1   -0.10    0.70
   0  -3   1    0.80    0.80
   0  -3   1    0.60    0.80
   0  -3   1   -0.10    0.60
   0  -3   1   -0.40    0.70
  -1   3  -1  725.53   21.90
  -1   3  -1  711.83   22.10
  -1   3  -1  763.62   22.20
   1  -3   1  715.73   21.90
   1  -3   1  725.33   22.20
   1  -3   1  691.43   22.10
  -2   3  -1   27.80    1.80
  -2   3  -1   29.60    1.80
  -2   3  -1   25.80    1.60
   2  -3   1   25.90    1.90
   2  -3   1   28.50    1.60
   2  -3   1   28.50    1.90
   2  -3   1   25.70    2.20
  -3   3  -1  452.45   13.70
  -3   3  -1  441.06   13.70
   3  -3   1  447.76   15.00
   3  -3   1  446.66   13.50
   3  -3   1  441.66   14.10
   3  -3   1  456.05   14.10
   4  -3   1  459.25   15.50
   4  -3   1  439.26   14.20
   4  -3   1  468.85   14.30
   4  -3   1  455.55   13.80
   4  -3   1  459.85   15.70
   5  -3   1 1334.07   39.30
   5  -3   1 1323.77   41.40
   5  -3   1 1358.46   39.80
   5  -3   1 1322.27   41.60
   5  -3   1 1349.77   39.70
   6  -3   1    1.50    2.10
   6  -3   1    2.20    1.20
   6  -3   1    3.60    2.60
   6  -3   1    2.00    1.20
   7  -3   1   23.50    6.10
   7  -3   1   35.30    3.00
   7  -3   1   34.20    5.40
   8  -3   1  423.86   17.40
   6   2  -1   96.09    6.40
   6   2  -1   91.29    6.50
   6   2  -1  108.39    6.00
   6   2  -1   89.69    4.40
  -6  -2   1   88.89    7.80
   5   2  -1   55.69    4.50
   5   2  -1   55.49    4.40
   5   2  -1   66.49    4.20
   5   2  -1   56.99    3.00
  -5  -2   1   52.09    5.50
  -5  -2   1   62.29    5.50
   4   2  -1  312.07   10.50
   4   2  -1  288.57    9.50
   4   2  -1  307.57   10.50
   4   2  -1  302.87   11.00
  -4  -2   1  307.27   11.40
  -4  -2   1  307.37   11.30
   3   2  -1  642.64   19.80
   3   2  -1  667.43   21.10
   3   2  -1  661.33   20.70
   3   2  -1  681.03   20.70
  -3  -2   1  675.23   21.30
  -3  -2   1  677.03   21.00
   2   2  -1  127.59    5.00
   2   2  -1  132.19    5.20
   2   2  -1  131.59    4.30
   2   2  -1  131.19    5.00
  -2  -2   1  134.59    4.70
  -2  -2   1  127.49    4.60
  -2  -2   1  131.89    5.30
  -2  -2   1  140.49    5.00
   1   2  -1  176.28    5.60
   1   2  -1  184.48    6.20
   1   2  -1  176.68    6.20
   1   2  -1  177.48    6.20
  -1  -2   1  171.88    6.00
  -1  -2   1  174.18    6.30
  -1  -2   1  181.48    6.00
  -1   2  -1  289.17    8.90
  -1   2  -1  295.37    9.10
  -1   2  -1  271.67    9.10
   1  -2   1  297.57    9.20
   1  -2   1  290.87    8.90
   1  -2   1  287.87    9.30
   1  -2   1  281.47    9.10
  -2   2  -1  981.30   28.90
  -2   2  -1  976.50   28.90
   2  -2   1  978.40   28.70
   2  -2   1  976.20   29.10
   2  -2   1  983.90   29.00
   3  -2   1 2110.79   62.39
   3  -2   1 2179.18   63.49
   3  -2   1 2123.69   62.49
   4  -2   1  673.13   21.10
   4  -2   1  654.33   19.60
   4  -2   1  661.63   19.70
   4  -2   1  641.84   19.70
   5  -2   1   81.69    3.20
   5  -2   1   78.29    4.90
   5  -2   1   77.89    3.20
   6  -2   1  125.59    7.20
   6  -2   1  133.29    5.00
   7  -2   1   14.20    2.60
   7  -2   1   16.20    5.00
   8  -2   1  259.47   12.50
   7   1  -1   35.00    4.50
   7   1  -1   40.70    4.90
   7   1  -1   36.90    5.50
  -7  -1   1   37.60    7.40
   6   1  -1   34.20    3.40
   6   1  -1   32.90    3.20
   6   1  -1   33.20    3.80
   6   1  -1   28.10    4.10
   6   1  -1   28.90    3.50
  -6  -1   1   28.50    5.30
   5   1  -1  224.78    7.90
   5   1  -1  228.98    8.80
   5   1  -1  221.18    7.70
   5   1  -1  228.68    8.00
  -5  -1   1  228.18    9.50
   4   1  -1  513.45   17.00
   4   1  -1  532.65   16.80
   4   1  -1  530.05   16.40
   4   1  -1  532.05   16.30
  -4  -1   1  534.45   17.50
   3   1  -1   88.99    3.70
   3   1  -1   83.39    3.80
   3   1  -1   80.99    3.30
   3   1  -1   86.89    3.40
  -3  -1   1   87.09    4.00
  -3  -1   1   86.29    4.00
   2   1  -1   13.50    1.10
   2   1  -1   16.00    1.40
   2   1  -1   14.90    1.10
  -2  -1   1   15.30    1.50
  -2  -1   1   14.50    1.40
   1   1  -1  769.72   22.00
   1   1  -1  711.13   21.90
   1   1  -1  749.42   22.20
  -1  -1   1  734.23   21.80
  -1  -1   1  742.23   21.90
  -1  -1   1  729.13   21.90
  -1  -1   1  752.82   22.20
   0   1  -1  108.49    3.80
   0   1  -1  120.29    3.70
   0  -1   1  110.89    3.70
   0  -1   1  115.99    3.80
  -2   1  -1 1059.99   31.00
   2  -1   1  871.81   30.10
   2  -1   1 1095.39   30.20
   2  -1   1 1066.99   30.90
   2  -1   1 1053.49   30.00
  -3   1  -1  753.72   23.80
   3  -1   1  772.32   23.70
   3  -1   1  778.02   22.60
   3  -1   1  763.92   22.70
  -4   1  -1 1651.93   47.40
   4  -1   1 1403.96   46.60
   4  -1   1 1605.74   45.80
  -5   1  -1    7.80    2.50
   5  -1   1    6.90    2.20
   5  -1   1    9.10    1.70
  -6   1  -1  192.48    9.30
   6  -1   1  185.88    6.40
   6  -1   1  167.28    8.40
   6  -1   1  183.78    7.00
   7  -1   1   -1.10    2.60
   7  -1   1   -0.40    1.90
   8  -1   1   21.80    6.80
   8   0  -1  169.08    8.90
   7   0  -1  135.69    7.00
   7   0  -1  143.99    7.30
   6   0  -1  963.40   29.00
   6   0  -1  953.30   29.30
   6   0  -1  970.70   29.10
  -6   0   1  803.52   29.80
   5   0  -1    7.70    2.10
   5   0  -1    6.40    1.90
   5   0  -1    2.80    1.30
  -5   0   1    7.20    2.20
   4   0  -1    7.50    1.60
   4   0  -1    9.70    2.00
  -4   0   1    8.80    2.20
   3   0  -1  578.74   17.70
   3   0  -1  581.94   17.90
  -3   0   1  566.74   18.00
   2   0  -1  906.01   27.00
   2   0  -1  924.61   27.10
  -2   0   1  897.21   27.10
   1   0  -1  208.08    6.40
  -1   0   1  205.08    6.40
  -1   0   1  209.18    6.30
  -1   0  -1  394.56   11.60
  -1   0  -1  388.76   11.90
  -1   0  -1  391.36   11.60
  -1   0  -1  391.96   11.60
   1   0   1  392.26   11.90
   1   0   1  405.56   11.60
   1   0   1  385.06   11.60
   1   0   1  381.76   11.70
  -3   0  -1   67.89    3.60
  -3   0  -1   65.29    3.00
   3   0   1   69.49    2.70
   3   0   1   67.59    3.40
   3   0   1   67.69    2.60
   3   0   1   69.39    2.90
  -4   0  -1  323.87   10.70
  -4   0  -1  324.37   11.70
   4   0   1  322.77   10.60
   4   0   1  323.57   11.10
   4   0   1  316.27   10.20
   4   0   1  320.27   10.10
  -5   0  -1  421.46   15.30
   5   0   1  415.06   13.20
   5   0   1  430.86   13.90
   5   0   1  427.76   14.50
   5   0   1  410.66   13.30
  -6   0  -1   47.60    5.90
   6   0   1   45.50    5.40
   6   0   1   51.09    3.50
   6   0   1   50.39    3.90
   6   0   1   56.79    3.60
  -7   0  -1   76.59    8.10
   7   0   1   80.59    5.50
   7   0   1   71.39    5.10
   7   0   1   86.29    6.70
   8  -1  -1  335.87   14.30
   8  -1  -1  385.16   13.50
   7  -1  -1  603.04   19.50
   7  -1  -1  611.34   20.40
   7  -1  -1  579.54   20.60
   6  -1  -1 2222.18   66.39
   6  -1  -1 2207.38   67.19
   6  -1  -1 2278.87   67.29
   5  -1  -1  402.36   13.20
   5  -1  -1  408.76   13.90
   5  -1  -1  405.36   13.90
   4  -1  -1  300.87   10.50
   4  -1  -1  302.87   10.40
   4  -1  -1  300.77    9.90
   3  -1  -1 3561.14  105.09
   3  -1  -1 3574.64  104.59
   3  -1  -1 3634.64  105.09
   2  -1  -1   83.99    3.30
   0  -1  -1  361.06   11.20
   0  -1  -1  358.36   11.00
   0  -1  -1  364.66   11.10
   0  -1  -1  367.26   11.20
   0   1   1  387.76   11.20
   0   1   1  363.76   11.20
   0   1   1  373.36   11.10
   0   1   1  371.76   11.20
  -1  -1  -1  106.39    3.70
  -1  -1  -1  109.19    3.90
  -1  -1  -1  108.19    3.80
  -1  -1  -1  112.59    3.90
   1   1   1  111.39    3.80
   1   1   1  110.39    3.90
   1   1   1  114.59    3.90
   1   1   1  102.99    3.70
  -2  -1  -1  156.48    5.10
  -2  -1  -1  159.28    5.00
  -2  -1  -1  154.48    5.70
  -2  -1  -1  164.28    5.70
   2   1   1  151.98    5.30
   2   1   1  155.28    5.30
   2   1   1  158.38    5.40
   2   1   1  154.28    5.50
  -3  -1  -1 4248.27  125.99
  -3  -1  -1 4299.17  125.59
   3   1   1 4228.98  125.49
   3   1   1 4316.37  125.09
   3   1   1 4450.25  125.19
   3   1   1 4235.68  125.29
  -4  -1  -1  189.48    7.40
  -4  -1  -1  199.18    8.20
   4   1   1  188.48    6.80
   4   1   1  192.98    6.90
   4   1   1  190.38    6.80
   4   1   1  181.78    7.10
  -5  -1  -1 1204.58   36.20
  -5  -1  -1 1056.39   36.80
   5   1   1 1164.58   35.80
   5   1   1 1214.98   35.40
   5   1   1 1173.68   35.20
   5   1   1 1185.88   35.40
  -6  -1  -1  388.96   15.80
   6   1   1  379.36   13.30
   6   1   1  390.16   13.50
   6   1   1  394.86   13.90
   6   1   1  395.86   13.50
  -7  -1  -1   38.80    8.80
   7   1   1   38.50    5.90
   7   1   1   45.70    5.40
   7   1   1   45.30    6.30
   8  -2  -1   95.89    7.50
   8  -2  -1   90.59    5.60
   7  -2  -1   33.50    5.70
   7  -2  -1   33.40    4.80
   7  -2  -1   30.50    3.30
   6  -2  -1   17.70    3.90
   6  -2  -1   23.40    3.60
   6  -2  -1   17.30    2.50
   5  -2  -1 2241.98   65.99
   5  -2  -1 2202.88   65.99
   5  -2  -1 2151.48   64.79
   4  -2  -1 1671.53   49.99
   4  -2  -1 1646.54   49.90
   3  -2  -1 1143.79   34.90
   3  -2  -1 1151.18   33.80
   3  -2  -1 1162.18   33.80
   2  -2  -1 3079.19   89.29
   2  -2  -1 3040.50   89.89
   2  -2  -1 3074.09   89.39
  -2   2   1 3073.19   89.99
   1  -2  -1   73.29    2.90
   1  -2  -1   71.39    2.80
   1  -2  -1   70.49    3.00
   1  -2  -1   74.19    2.90
  -1   2   1   70.49    2.90
  -1   2   1   69.09    2.90
  -1   2   1   70.99    2.90
  -1   2   1   73.19    3.10
   0  -2  -1 3528.35  108.69
   0  -2  -1 3956.90  108.89
   0  -2  -1 3716.03  108.59
   0   2   1 3728.63  108.69
  -1  -2  -1  454.35   14.20
  -1  -2  -1  472.95   14.80
  -1  -2  -1  466.65   14.50
  -1  -2  -1  461.75   14.60
   1   2   1  489.15   14.70
   1   2   1  460.65   14.30
   1   2   1  482.55   14.70
   1   2   1  461.25   14.70
  -2  -2  -1 1247.98   35.40
  -2  -2  -1 1165.08   35.10
  -2  -2  -1 1191.48   35.70
  -2  -2  -1 1211.68   35.90
   2   2   1 1155.58   35.60
   2   2   1 1225.48   35.60
   2   2   1 1130.69   35.10
   2   2   1 1159.38   35.70
  -3  -2  -1   21.20    2.80
  -3  -2  -1   13.00    2.50
   3   2   1   19.70    2.30
   3   2   1   20.90    2.20
   3   2   1   20.90    1.90
   3   2   1   17.80    2.40
  -4  -2  -1  205.98    8.50
  -4  -2  -1  207.08    8.80
   4   2   1  207.78    8.10
   4   2   1  196.98    7.20
   4   2   1  205.88    7.90
   4   2   1  201.48    7.90
  -5  -2  -1    3.70    3.10
  -5  -2  -1    0.50    2.90
   5   2   1    1.90    2.20
   5   2   1   -0.70    2.20
   5   2   1   -2.30    1.90
   5   2   1    1.40    1.70
  -6  -2  -1   51.19    7.10
  -6  -2  -1   52.79    7.80
   6   2   1   65.99    6.00
   6   2   1   61.19    7.20
   6   2   1   66.09    5.80
   8  -3  -1  571.54   20.90
   8  -3  -1  567.04   18.40
   7  -3  -1   67.79    3.90
   7  -3  -1   67.79    6.50
   7  -3  -1   52.19    5.50
   6  -3  -1  153.38    7.60
   6  -3  -1  148.69    5.90
   6  -3  -1  148.79    7.70
   5  -3  -1 2125.99   62.29
   5  -3  -1 2160.28   64.09
   5  -3  -1 2099.69   62.29
   5  -3  -1 2111.29   64.09
   4  -3  -1  277.67   10.10
   4  -3  -1  270.67    8.90
   4  -3  -1  267.17    8.80
   3  -3  -1 1484.35   43.00
   3  -3  -1 1428.36   43.00
   3  -3  -1 1452.75   43.90
   3  -3  -1 1433.06   43.00
  -3   3   1 1485.85   44.00
  -3   3   1 1437.26   42.70
  -3   3   1 1440.86   42.70
   2  -3  -1  112.89    4.50
   2  -3  -1  116.89    4.40
   2  -3  -1  121.89    4.60
   2  -3  -1  113.19    4.80
  -2   3   1  111.19    4.90
  -2   3   1  114.99    4.40
  -2   3   1  112.19    4.40
   1  -3  -1  820.12   24.90
   1  -3  -1  827.12   25.00
   1  -3  -1  798.02   24.90
   1  -3  -1  814.52   24.80
  -1   3   1  836.92   25.00
  -1   3   1  808.62   24.90
  -1   3   1  803.12   24.80
  -1   3   1  840.32   25.10
   0  -3  -1   40.60    2.60
   0  -3  -1   41.20    2.20
   0  -3  -1   46.70    2.70
   0  -3  -1   39.50    2.50
   0   3   1   41.50    2.40
   0   3   1   42.80    2.50
   0   3   1   42.70    2.60
   0   3   1   41.30    2.60
  -1  -3  -1   19.00    2.00
  -1  -3  -1   21.00    2.10
  -1  -3  -1   19.60    2.20
  -1  -3  -1   16.80    1.60
   1   3   1   19.80    2.10
   1   3   1   19.70    2.20
   1   3   1   19.90    1.90
   1   3   1   21.70    2.10
  -2  -3  -1   34.80    2.90
  -2  -3  -1   32.30    2.60
  -2  -3  -1   35.00    3.20
  -2  -3  -1   32.30    2.50
   2   3   1   36.50    2.90
   2   3   1   38.40    2.90
   2   3   1   36.50    2.50
   2   3   1   26.10    2.90
  -3  -3  -1  170.38    7.70
  -3  -3  -1  179.58    6.40
  -3  -3  -1  173.08    6.20
  -3  -3  -1  174.78    7.60
   3   3   1  183.38    7.50
   3   3   1  165.88    7.20
   3   3   1  162.78    6.40
   3   3   1  179.68    7.40
  -4  -3  -1  149.49    7.80
   4   3   1  145.79    7.00
   4   3   1  147.09    7.30
   4   3   1  143.79    7.10
   4   3   1  140.09    5.90
  -5  -3  -1  351.66   14.00
  -5  -3  -1  287.17   13.50
   5   3   1  317.47   13.10
   5   3   1  320.07   12.40
   5   3   1  312.27   12.60
   5   3   1  311.27   11.10
  -6  -3  -1   15.50    6.20
   6   3   1   13.60    4.70
   6   3   1   23.70    6.70
   8  -4  -1  951.50   32.30
   8  -4  -1  956.80   29.20
   7  -4  -1  131.69    5.50
   7  -4  -1  122.99    8.30
   7  -4  -1  127.59    5.50
   7  -4  -1  129.79    7.90
   7  -4  -1  132.09    5.60
   6  -4  -1  360.66   14.20
   6  -4  -1  370.16   12.20
   6  -4  -1  374.16   12.30
   6  -4  -1  374.56   12.20
   6  -4  -1  373.56   14.30
   5  -4  -1  110.39    4.80
   5  -4  -1  107.29    6.20
   5  -4  -1  104.39    4.70
   5  -4  -1  111.59    4.70
   4  -4  -1 2996.70   89.89
   4  -4  -1 3085.99   88.79
   4  -4  -1 3059.89   88.79
   4  -4  -1 2969.40   88.49
  -4   4   1 3004.60   87.99
  -4   4   1 2991.60   87.99
   3  -4  -1 4338.67  124.89
   3  -4  -1 4210.78  124.49
   3  -4  -1 4438.76  124.89
  -3   4   1 4112.09  124.49
  -3   4   1 4299.47  124.49
  -3   4   1 4175.98  125.59
   2  -4  -1  308.67   10.30
   2  -4  -1  332.67   10.80
   2  -4  -1  295.57   10.70
   2  -4  -1  281.07   10.50
  -2   4   1  317.67   10.50
  -2   4   1  303.97   10.90
  -2   4   1  297.87   10.40
  -2   4   1  314.07   10.40
   1  -4  -1  179.48    7.10
   1  -4  -1  187.68    7.10
   1  -4  -1  182.28    6.90
   1  -4  -1  180.08    6.90
  -1   4   1  190.38    7.10
  -1   4   1  183.98    7.10
  -1   4   1  189.58    7.00
  -1   4   1  173.68    7.00
   0  -4  -1 1217.28   37.50
   0  -4  -1 1208.58   37.40
   0  -4  -1 1222.88   36.90
   0   4   1 1258.67   37.70
   0   4   1 1265.77   37.70
   0   4   1 1230.68   37.30
   0   4   1 1221.88   37.50
  -1  -4  -1  148.09    6.40
  -1  -4  -1  150.08    5.70
  -1  -4  -1  145.09    6.20
  -1  -4  -1  149.88    6.70
   1   4   1  157.38    6.70
   1   4   1  160.08    6.70
   1   4   1  151.38    6.50
   1   4   1  158.58    6.10
  -2  -4  -1  423.26   14.40
  -2  -4  -1  419.16   14.00
  -2  -4  -1  411.46   15.00
  -2  -4  -1  416.66   14.20
   2   4   1  429.76   14.80
   2   4   1  414.56   14.70
   2   4   1  436.26   14.80
   2   4   1  427.26   13.90
  -3  -4  -1   75.39    4.10
  -3  -4  -1   69.09    5.60
  -3  -4  -1   79.39    4.50
   3   4   1   76.59    5.70
   3   4   1   79.19    5.30
   3   4   1   75.49    4.40
   3   4   1   72.19    5.20
  -4  -4  -1  125.09    8.20
   4   4   1  123.09    6.10
   4   4   1  123.99    8.50
   4   4   1  124.59    7.50
   4   4   1  128.19    7.40
  -5  -4  -1  659.63   24.70
   5   4   1  682.43   23.70
   5   4   1  687.23   24.00
   8  -5  -1  481.55   16.30
   8  -5  -1  490.15   19.40
   8  -5  -1  486.75   16.40
   8  -5  -1  485.95   15.80
   7  -5  -1    2.40    1.90
   7  -5  -1   -2.20    2.70
   7  -5  -1    3.70    4.10
   7  -5  -1    1.50    2.10
   7  -5  -1    3.60    2.10
   6  -5  -1 3669.23  110.99
   6  -5  -1 3679.13  108.59
   6  -5  -1 3659.13  109.09
   6  -5  -1 3815.62  109.09
   5  -5  -1   14.90    2.50
   5  -5  -1   11.90    2.70
   5  -5  -1    8.80    2.00
   5  -5  -1    8.90    2.40
   4  -5  -1  492.65   16.60
   4  -5  -1  518.65   16.20
   4  -5  -1  485.95   16.60
   4  -5  -1  510.95   17.50
  -4   5   1  507.95   16.00
  -4   5   1  500.35   16.00
   3  -5  -1   11.10    2.30
   3  -5  -1    9.90    2.60
   3  -5  -1   11.80    2.90
   3  -5  -1   13.80    2.60
  -3   5   1    9.90    2.20
  -3   5   1    7.90    2.00
  -3   5   1   12.80    2.30
   2  -5  -1 1077.89   34.50
   2  -5  -1 1135.39   34.50
   2  -5  -1 1108.49   34.10
   2  -5  -1 1142.69   34.50
  -2   5   1 1101.79   34.40
  -2   5   1 1103.19   34.40
  -2   5   1 1122.69   34.20
  -2   5   1 1128.39   34.80
   1  -5  -1  429.96   14.70
   1  -5  -1  422.96   14.80
   1  -5  -1  434.96   14.30
   1  -5  -1  429.16   14.60
  -1   5   1  439.86   14.80
  -1   5   1  420.56   14.50
  -1   5   1  410.66   14.70
  -1   5   1  443.56   14.80
   0  -5  -1   63.29    3.60
   0  -5  -1   64.19    4.50
   0  -5  -1   58.59    4.50
   0  -5  -1   62.79    4.30
   0   5   1   69.99    4.30
   0   5   1   64.79    4.60
   0   5   1   65.29    4.30
   0   5   1   61.29    4.20
  -1  -5  -1    1.20    1.90
  -1  -5  -1   -2.60    1.80
  -1  -5  -1   -2.10    1.30
   1   5   1    5.50    1.90
   1   5   1   -0.20    1.70
   1   5   1    1.90    2.10
   1   5   1    3.00    1.80
  -2  -5  -1  180.68    7.70
  -2  -5  -1  182.38    8.20
  -2  -5  -1  169.78    9.10
  -2  -5  -1  184.58    8.00
   2   5   1  182.98    7.50
   2   5   1  171.18    8.80
   2   5   1  175.68    8.30
   2   5   1  171.58    8.40
  -3  -5  -1  222.38    8.80
  -3  -5  -1  233.38   10.60
  -3  -5  -1  228.98    9.30
   3   5   1  220.28    9.00
   3   5   1  215.68   10.20
   3   5   1  225.88   10.40
  -4  -5  -1  177.28   11.20
   4   5   1  167.88    9.90
   4   5   1  173.98   10.10
   8  -6  -1    2.00    4.30
   8  -6  -1    5.90    3.10
   8  -6  -1   -1.70    3.70
   7  -6  -1  192.88    8.90
   7  -6  -1  198.28    8.70
   7  -6  -1  195.98   10.90
   6  -6  -1 1070.49   34.20
   6  -6  -1 1133.79   33.50
   6  -6  -1 1105.99   36.00
   6  -6  -1 1064.09   34.20
   5  -6  -1 1438.46   44.90
   5  -6  -1 1445.56   43.70
   5  -6  -1 1396.26   43.70
   5  -6  -1 1408.26   42.90
  -5   6   1 1401.56   42.50
  -5   6   1 1417.86   42.50
   4  -6  -1   55.09    5.30
   4  -6  -1   58.79    4.10
   4  -6  -1   54.59    4.50
   4  -6  -1   58.19    4.80
  -4   6   1   60.99    3.90
  -4   6   1   64.49    4.10
   3  -6  -1  878.41   28.70
   3  -6  -1  905.41   29.00
   3  -6  -1  898.31   28.90
   3  -6  -1  898.21   28.20
  -3   6   1  928.11   28.50
  -3   6   1  875.41   28.40
  -3   6   1  903.21   28.40
  -3   6   1  888.91   29.20
   2  -6  -1  449.66   15.70
   2  -6  -1  445.86   15.90
   2  -6  -1  448.56   15.70
  -2   6   1  465.65   16.00
  -2   6   1  455.65   16.30
  -2   6   1  459.35   15.70
  -2   6   1  454.65   15.90
   1  -6  -1   19.40    4.10
   1  -6  -1   18.00    4.10
   1  -6  -1   15.40    3.80
   1  -6  -1   14.80    3.20
  -1   6   1   14.80    3.30
  -1   6   1   16.70    3.30
  -1   6   1   16.80    3.80
   0  -6  -1   81.99    5.50
   0  -6  -1   83.39    4.60
   0   6   1   73.39    5.50
   0   6   1   83.79    5.50
   0   6   1   85.39    5.50
  -1  -6  -1   75.99    4.70
  -1  -6  -1   84.99    5.90
   1   6   1   55.99    6.40
   1   6   1   83.49    6.10
   1   6   1   77.79    5.60
   1   6   1   73.99    5.80
  -2  -6  -1   79.09    6.30
  -2  -6  -1   88.89    6.90
   2   6   1   80.39    6.20
   2   6   1   71.49    6.70
   2   6   1   80.99    6.70
  -3  -6  -1    3.50    5.20
  -3  -6  -1    2.30    3.00
   3   6   1    1.90    3.90
   3   6   1   -1.60    4.00
   8  -7  -1    4.60    5.10
   8  -7  -1    9.80    4.00
   7  -7  -1   12.10    4.30
   7  -7  -1   11.70    4.30
   7  -7  -1   16.00    3.60
   7  -7  -1    8.90    3.30
   6  -7  -1   38.40    6.10
   6  -7  -1   32.30    6.80
   6  -7  -1   33.00    5.20
   6  -7  -1   30.40    4.60
  -6   7   1   32.30    3.30
   5  -7  -1  473.65   17.90
   5  -7  -1  458.15   16.80
   5  -7  -1  451.45   17.00
   5  -7  -1  468.85   16.10
  -5   7   1  469.85   15.90
  -5   7   1  467.75   15.80
   4  -7  -1  314.47   13.10
   4  -7  -1  334.37   12.70
   4  -7  -1  325.37   12.00
   4  -7  -1  288.97   12.60
  -4   7   1  301.47   11.90
  -4   7   1  318.27   11.90
   3  -7  -1  199.58    9.20
   3  -7  -1  195.58    8.90
   3  -7  -1  201.78    9.40
   3  -7  -1  182.28   12.70
  -3   7   1  198.08    8.80
  -3   7   1  191.68    9.60
  -3   7   1  187.48    8.60
   2  -7  -1   -0.80    2.30
   2  -7  -1    6.10    2.80
   2  -7  -1    1.90    2.90
  -2   7   1    2.50    2.80
  -2   7   1    1.70    2.10
  -2   7   1    3.20    2.30
  -2   7   1   -0.40    2.50
   1  -7  -1  240.68    9.60
   1  -7  -1  211.88   10.90
   1  -7  -1  250.27   10.70
  -1   7   1  228.38   10.30
  -1   7   1  236.88   10.80
  -1   7   1  238.38   10.60
   0  -7  -1   29.90    5.50
   0  -7  -1   32.70    4.30
   0   7   1   21.50    5.10
   0   7   1   38.40    5.40
   0   7   1   28.20    5.90
  -1  -7  -1   56.79    6.80
  -1  -7  -1   64.59    5.40
   1   7   1   59.19    7.10
   1   7   1   64.19    6.90
   1   7   1   58.39   10.20
   7  -8  -1   13.20    5.30
   7  -8  -1   10.10    4.40
   6  -8  -1   -3.00    4.00
   6  -8  -1   -3.60    4.20
   6  -8  -1    1.50    3.70
  -6   8   1   -4.00    2.30
  -6   8   1    0.70    2.80
   5  -8  -1   -0.50    4.00
   5  -8  -1    1.10    3.40
   5  -8  -1   -3.50    3.70
  -5   8   1    2.10    2.70
  -5   8   1   -3.90    3.60
   4  -8  -1   -0.70    3.20
   4  -8  -1   -7.30    3.80
   4  -8  -1    1.00    3.40
  -4   8   1   -5.50    3.10
  -4   8   1    1.00    2.70
   3  -8  -1  685.73   23.50
   3  -8  -1  655.93   23.70
  -3   8   1  699.23   23.50
  -3   8   1  666.23   23.40
   2  -8  -1  301.37   12.30
   2  -8  -1  317.37   13.40
  -2   8   1  266.47   13.80
  -2   8   1  313.67   13.20
  -2   8   1  304.37   12.90
   1  -8  -1  267.87   11.00
   1  -8  -1  286.37   12.60
  -1   8   1  265.37   12.60
  -1   8   1  280.37   12.50
  -1   8   1  242.88   12.90
   0  -8  -1  117.69    7.50
   0  -8  -1  128.29    9.70
   0   8   1  133.79    9.50
   0   8   1  112.29    9.40
   6  -9  -1   15.20    5.00
   5  -9  -1   95.79   10.20
   5  -9  -1   82.19    9.20
  -5   9   1   92.19    7.50
   4  -9  -1    7.00    4.70
   4  -9  -1   -4.40    4.30
  -4   9   1   -0.20    3.70
   3  -9  -1   19.60    5.40
   3  -9  -1   44.00    7.80
  -3   9   1   29.40    7.10
  -3   9   1   35.70    7.30
  -2   9  -2  125.19    9.10
  -2   9  -2   98.19    8.70
   2  -9   2  121.89    8.90
   2  -9   2  121.09   10.70
  -3   9  -2    1.80    3.70
  -3   9  -2    2.10    3.90
   3  -9   2    8.50    4.90
   3  -9   2   -5.30    4.20
  -4   9  -2  220.78   11.30
   4  -9   2  242.48   13.10
   4  -9   2  215.58   12.60
  -5   9  -2   48.00    6.50
   5  -9   2   38.70    8.90
   5  -9   2   36.40   10.00
   0   8  -2  443.96   17.90
   0   8  -2  458.95   17.70
   0  -8   2  442.16   15.40
   0  -8   2  450.85   17.80
  -1   8  -2    9.40    3.50
  -1   8  -2    3.70    3.30
   1  -8   2    7.10    4.10
   1  -8   2    6.60    3.00
  -2   8  -2  411.46   15.30
  -2   8  -2  387.86   15.70
   2  -8   2  408.26   16.30
   2  -8   2  421.86   15.60
  -3   8  -2   60.89    5.50
  -3   8  -2   59.69    5.90
   3  -8   2   60.89    7.00
   3  -8   2   75.79    7.40
   3  -8   2   58.59    7.20
  -4   8  -2    4.30    3.30
  -4   8  -2   -4.40    2.60
  -4   8  -2    0.00    2.80
   4  -8   2   -2.10    3.50
   4  -8   2   -2.70    3.20
   4  -8   2    0.60    3.60
  -5   8  -2 1498.65   45.60
   5  -8   2 1424.56   46.70
   5  -8   2 1480.75   45.20
   5  -8   2 1478.65   47.60
  -6   8  -2   94.69    5.90
   6  -8   2  107.29    8.50
   6  -8   2   88.79    9.70
   7  -8   2   26.80    7.70
   7  -8   2   11.10    5.40
   2   7  -2   63.29    7.60
   2   7  -2   62.69    7.70
  -2  -7   2   56.19    7.80
  -2  -7   2   67.29    7.20
  -2  -7   2   79.69    7.50
   1   7  -2  143.79    8.60
   1   7  -2  145.19    8.80
  -1  -7   2  133.29    8.40
  -1  -7   2  135.99    9.10
  -1  -7   2  116.19    6.10
   0   7  -2   47.60    5.20
   0   7  -2   52.79    5.60
   0  -7   2   49.20    5.80
   0  -7   2   45.30    4.20
   0  -7   2   43.50    6.30
  -1   7  -2   50.19    5.10
   1  -7   2   53.89    5.70
   1  -7   2   53.29    6.00
   1  -7   2   45.40    4.80
   1  -7   2   49.40    6.40
  -2   7  -2    2.20    2.20
  -2   7  -2    3.40    2.70
  -2   7  -2    2.80    2.00
   2  -7   2    0.50    2.50
   2  -7   2   -1.40    2.50
   2  -7   2    2.10    2.80
  -3   7  -2  191.38    8.50
  -3   7  -2  186.48    8.00
   3  -7   2  184.88    9.00
   3  -7   2  170.68    9.10
   3  -7   2  195.48    8.40
   3  -7   2  182.78    9.20
  -4   7  -2   30.30    4.00
  -4   7  -2   32.40    4.50
   4  -7   2   34.10    4.20
   4  -7   2   30.00    5.40
   4  -7   2   31.10    5.00
   4  -7   2   36.80    5.40
  -5   7  -2   78.99    5.20
  -5   7  -2   81.89    5.30
   5  -7   2   85.59    6.90
   5  -7   2   75.69    6.20
   5  -7   2   72.39    7.40
   5  -7   2   84.79    5.10
   6  -7   2  478.15   15.30
   6  -7   2  493.25   17.40
   6  -7   2  492.95   19.20
   6  -7   2  429.96   17.30
   7  -7   2  292.47   13.80
   7  -7   2  353.06   13.70
   7  -7   2  354.36   16.20
   3   6  -2   19.80    4.30
   3   6  -2    9.40    3.90
  -3  -6   2   18.70    4.70
  -3  -6   2   21.30    4.90
   2   6  -2   -1.80    2.70
   2   6  -2   -1.90    2.60
  -2  -6   2   -1.80    2.80
  -2  -6   2    9.80    3.00
  -2  -6   2   -2.70    3.00
   1   6  -2  155.98    7.80
   1   6  -2  137.69    8.00
   1   6  -2  152.38    7.50
  -1  -6   2  135.89    8.20
  -1  -6   2  149.69    5.70
  -1  -6   2  126.09    7.20
  -1  -6   2  135.19    7.50
   0   6  -2  659.43   21.00
   0   6  -2  645.24   21.40
   0  -6   2  635.14   19.90
   0  -6   2  594.84   21.00
   0  -6   2  570.94   20.90
   0  -6   2  649.14   21.40
  -1   6  -2    5.90    1.90
  -1   6  -2    5.50    2.10
   1  -6   2    4.30    2.20
   1  -6   2    0.60    2.20
   1  -6   2    4.30    1.80
   1  -6   2    3.20    2.30
  -2   6  -2  132.79    6.00
  -2   6  -2  127.49    6.50
  -2   6  -2  135.59    6.60
   2  -6   2  132.49    6.80
   2  -6   2  130.69    6.70
   2  -6   2  133.19    6.30
  -3   6  -2   57.79    4.30
  -3   6  -2   57.69    4.20
  -3   6  -2   57.49    3.70
   3  -6   2   61.39    3.90
   3  -6   2   60.49    5.00
   3  -6   2   51.09    4.60
   3  -6   2   54.99    4.70
  -4   6  -2  567.94   18.30
  -4   6  -2  541.45   18.40
   4  -6   2  551.64   19.00
   4  -6   2  585.94   18.00
   4  -6   2  548.75   19.00
   4  -6   2  578.64   20.10
  -5   6  -2   83.99    4.50
  -5   6  -2   81.39    4.40
   5  -6   2   76.49    5.50
   5  -6   2   93.19    4.20
   5  -6   2   72.49    5.50
   5  -6   2   93.49    6.80
   6  -6   2   76.09    5.50
   6  -6   2   67.09    5.50
   6  -6   2   54.49    7.40
   6  -6   2   73.59    6.90
   7  -6   2  153.58    8.30
   7  -6   2  162.28   10.40
   7  -6   2  152.48    8.00
   8  -6   2    0.40    3.50
   8  -6   2    3.20    4.80
   4   5  -2   97.19    7.70
   4   5  -2   91.09    7.40
  -4  -5   2  107.09    8.00
   3   5  -2  595.04   19.70
   3   5  -2  566.64   19.70
   3   5  -2  536.45   19.70
  -3  -5   2  572.04   18.10
  -3  -5   2  572.84   18.00
  -3  -5   2  488.75   18.70
   2   5  -2  134.99    6.80
   2   5  -2  117.99    7.10
   2   5  -2  134.49    6.90
  -2  -5   2  132.69    6.40
  -2  -5   2  132.39    6.40
  -2  -5   2  132.09    6.20
   1   5  -2 5773.72  178.78
   1   5  -2 5968.10  178.68
   1   5  -2 6251.87  178.98
  -1  -5   2 6284.17  178.48
  -1  -5   2 6138.09  178.98
  -1  -5   2 6210.38  178.48
  -1  -5   2 6045.20  177.08
   0   5  -2    8.00    1.90
   0   5  -2    9.20    2.10
   0   5  -2   11.30    2.40
   0  -5   2    7.20    2.10
   0  -5   2   11.10    3.10
   0  -5   2    9.40    2.00
   0  -5   2    6.60    1.50
  -1   5  -2  597.54   19.90
  -1   5  -2  626.74   19.50
  -1   5  -2  632.64   20.10
   1  -5   2  609.04   19.60
   1  -5   2  616.74   20.00
   1  -5   2  593.44   19.60
   1  -5   2  593.04   19.90
  -2   5  -2    2.00    1.10
  -2   5  -2    2.00    1.30
  -2   5  -2    1.10    1.30
   2  -5   2    0.20    1.40
   2  -5   2    0.90    1.30
   2  -5   2    2.90    1.50
   2  -5   2    2.30    1.50
  -3   5  -2  248.28    9.10
  -3   5  -2  247.78    8.60
  -3   5  -2  242.28    9.00
   3  -5   2  242.28    9.30
   3  -5   2  242.78    9.40
   3  -5   2  253.97    8.60
   3  -5   2  254.27   10.00
  -4   5  -2  133.49    5.40
  -4   5  -2  137.79    5.50
   4  -5   2  127.79    6.00
   4  -5   2  130.19    6.10
   4  -5   2  136.39    5.10
   4  -5   2  130.79    7.10
   5  -5   2 1042.80   33.60
   5  -5   2 1031.70   32.30
   5  -5   2  989.30   33.80
   5  -5   2 1118.89   32.50
   5  -5   2 1032.90   30.90
   6  -5   2    1.60    2.00
   6  -5   2    3.40    2.10
   6  -5   2   -2.10    2.50
   7  -5   2   90.79    5.80
   7  -5   2   91.79    5.70
   7  -5   2   89.49    8.00
   8  -5   2  473.35   16.10
   8  -5   2  438.86   19.20
   5   4  -2   10.60    3.40
   5   4  -2   10.00    3.90
   5   4  -2    8.30    4.20
  -5  -4   2   16.00    4.70
   4   4  -2   67.09    5.80
   4   4  -2   64.69    5.60
   4   4  -2   67.29    5.40
  -4  -4   2   63.99    5.80
   3   4  -2  170.78    7.70
   3   4  -2  171.58    7.80
   3   4  -2  173.38    7.90
  -3  -4   2  179.98    6.70
  -3  -4   2  177.18    6.60
  -3  -4   2  182.58    7.70
   2   4  -2   -0.60    1.60
   2   4  -2   -0.90    1.30
   2   4  -2   -0.40    1.40
  -2  -4   2   -1.20    1.30
  -2  -4   2   -0.40    1.90
  -2  -4   2    0.20    1.40
   1   4  -2   43.40    3.30
   1   4  -2   42.00    3.20
   1   4  -2   45.80    3.40
  -1  -4   2   43.70    3.20
  -1  -4   2   43.80    3.20
  -1  -4   2   43.20    2.20
  -1  -4   2   45.60    3.50
  -1   4  -2   72.59    3.50
  -1   4  -2   68.49    3.70
  -1   4  -2   73.19    3.80
   1  -4   2   77.49    3.60
   1  -4   2   80.29    3.90
   1  -4   2   71.49    3.90
   1  -4   2   70.99    3.80
  -2   4  -2  383.06   12.10
  -2   4  -2  384.96   12.60
  -2   4  -2  373.06   12.40
   2  -4   2  360.66   13.00
   2  -4   2  373.66   12.60
   2  -4   2  385.86   12.10
   2  -4   2  378.56   12.70
  -3   4  -2  845.62   26.10
  -3   4  -2  848.92   25.80
  -3   4  -2  852.91   26.20
   3  -4   2  831.72   26.50
   3  -4   2  860.31   27.40
   3  -4   2  909.21   26.60
   3  -4   2  858.01   25.70
  -4   4  -2  155.78    5.70
  -4   4  -2  157.98    5.60
   4  -4   2  162.58    6.40
   4  -4   2  163.58    5.30
   4  -4   2  156.88    6.30
   4  -4   2  158.08    7.40
   4  -4   2  163.78    7.40
   5  -4   2   47.20    3.20
   5  -4   2   44.20    3.20
   5  -4   2   42.40    4.60
   5  -4   2   43.40    4.70
   6  -4   2   32.30    3.20
   6  -4   2   33.70    3.20
   6  -4   2   31.60    5.00
   7  -4   2   32.80    6.00
   7  -4   2   36.40    3.90
   7  -4   2   25.20    3.70
   8  -4   2  212.08    8.80
   8  -4   2  206.98   12.20
   6   3  -2   47.10    9.20
   6   3  -2   51.29    6.80
   6   3  -2   50.39    6.10
  -6  -3   2   45.60    7.90
   5   3  -2   14.30    3.10
   5   3  -2   16.20    4.00
   5   3  -2   13.50    3.20
  -5  -3   2   23.20    6.20
  -5  -3   2   17.90    5.00
   4   3  -2  391.76   14.00
   4   3  -2  388.46   13.60
   4   3  -2  373.66   13.50
  -4  -3   2  395.26   13.90
   3   3  -2   11.80    2.00
   3   3  -2    5.30    1.70
   3   3  -2    7.20    1.90
  -3  -3   2    1.10    1.70
  -3  -3   2    2.90    2.00
   2   3  -2    1.30    1.20
   2   3  -2    1.50    1.20
   2   3  -2    2.20    1.10
  -2  -3   2   -0.30    1.00
  -2  -3   2    2.90    1.10
  -2  -3   2    0.50    1.40
  -2  -3   2    0.40    0.90
   1   3  -2 1199.58   36.90
   1   3  -2 1195.38   36.90
   1   3  -2 1281.57   37.00
  -1  -3   2 1202.38   36.70
  -1  -3   2 1183.68   35.90
  -1  -3   2 1276.97   36.80
   0   3  -2  138.29    5.20
   0   3  -2  133.09    5.30
   0   3  -2  141.39    5.40
   0  -3   2  134.59    5.30
   0  -3   2  135.79    5.30
   0  -3   2  136.29    5.00
   0  -3   2  142.39    5.30
  -1   3  -2 1633.94   50.39
  -1   3  -2 1698.33   50.39
  -1   3  -2 1694.53   49.99
   1  -3   2 1743.13   50.59
   1  -3   2 1672.43   50.39
   1  -3   2 1747.93   50.09
  -2   3  -2  522.95   15.50
  -2   3  -2  534.95   16.10
  -2   3  -2  504.45   15.90
   2  -3   2  518.55   15.50
   2  -3   2  499.25   16.10
   2  -3   2  506.85   16.10
   2  -3   2  511.35   16.60
  -3   3  -2   23.30    1.70
  -3   3  -2   26.20    1.70
   3  -3   2   26.10    2.00
   3  -3   2   27.20    2.60
   3  -3   2   33.20    2.10
   4  -3   2 1572.24   47.50
   4  -3   2 1647.94   47.60
   4  -3   2 1590.54   48.70
   5  -3   2   55.99    3.10
   5  -3   2   59.59    3.20
   5  -3   2   60.39    4.80
   6  -3   2   51.79    3.30
   6  -3   2   55.19    3.30
   7  -3   2   28.50    3.30
   7  -3   2   27.20    3.30
   7  -3   2   32.30    5.60
   8  -3   2    2.80    3.90
   7   2  -2  184.88   10.00
  -7  -2   2  160.08   11.00
   6   2  -2  564.64   18.30
   6   2  -2  522.35   18.30
   6   2  -2  554.54   19.20
  -6  -2   2  554.24   20.00
   5   2  -2   41.30    3.60
   5   2  -2   39.20    4.10
   5   2  -2   37.90    3.70
  -5  -2   2   50.39    4.90
  -5  -2   2   39.40    5.00
   4   2  -2  158.78    6.80
   4   2  -2  164.88    6.40
   4   2  -2  160.18    6.30
  -4  -2   2  161.18    7.30
  -4  -2   2  155.78    6.90
   3   2  -2  452.95   14.60
   3   2  -2  447.86   14.60
   3   2  -2  455.15   15.10
  -3  -2   2  464.65   15.30
  -3  -2   2  463.85   14.80
   2   2  -2  929.51   28.30
   2   2  -2  970.60   28.30
   2   2  -2  907.31   28.60
  -2  -2   2  941.01   28.10
  -2  -2   2  928.91   27.90
  -2  -2   2  935.41   28.70
  -2  -2   2  950.90   27.90
   1   2  -2  327.27   10.60
   1   2  -2  326.67   10.60
   1   2  -2  318.17   10.50
  -1  -2   2  324.47   10.70
  -1  -2   2  346.97   10.40
  -1  -2   2  325.87   10.40
   0   2  -2   32.10    1.70
   0   2  -2   22.30    1.80
   0   2  -2   26.00    1.80
   0  -2   2   20.50    1.80
   0  -2   2   27.40    1.80
   0  -2   2   26.60    1.70
  -1   2  -2   12.10    1.20
  -1   2  -2   13.50    1.20
   1  -2   2   13.00    1.20
   1  -2   2   15.70    1.00
   1  -2   2   12.90    1.20
   3  -2   2   68.89    3.60
   3  -2   2   66.79    2.80
   3  -2   2   68.39    2.90
   4  -2   2  882.81   26.20
   4  -2   2  884.41   27.50
   4  -2   2  861.51   26.20
   5  -2   2  570.34   17.70
   5  -2   2  573.84   19.30
   5  -2   2  583.54   17.70
   6  -2   2  227.58    7.90
   6  -2   2  223.88    7.50
   6  -2   2  230.58   10.10
   6  -2   2  231.08    7.90
   7  -2   2  214.18    7.80
   7  -2   2  205.58    7.70
   8  -2   2    2.80    4.10
   7   1  -2  225.68    8.70
   7   1  -2  216.18    9.80
   7   1  -2  207.08    9.90
  -7  -1   2  219.68   11.50
   6   1  -2 1373.26   41.40
   6   1  -2 1340.27   40.80
   6   1  -2 1324.97   42.50
   6   1  -2 1403.66   41.40
   6   1  -2 1380.66   41.40
  -6  -1   2 1453.65   43.60
   5   1  -2   85.19    3.90
   5   1  -2   92.19    4.00
   5   1  -2   85.99    4.00
   5   1  -2   86.09    4.80
   5   1  -2   83.09    4.60
  -5  -1   2   86.29    5.40
   4   1  -2  353.26   11.10
   4   1  -2  341.97   11.50
   4   1  -2  350.46   11.10
   4   1  -2  354.96   12.00
   4   1  -2  355.26   11.10
  -4  -1   2  340.77   12.10
   3   1  -2 1981.40   60.19
   3   1  -2 2028.50   59.49
   3   1  -2 2004.40   59.49
   3   1  -2 2026.90   59.69
   3   1  -2 2104.89   59.29
  -3  -1   2 2070.59   60.29
  -3  -1   2 1999.60   60.09
   2   1  -2   94.59    3.30
   2   1  -2   84.99    3.60
   2   1  -2   90.39    3.20
  -2  -1   2   82.79    3.30
  -2  -1   2   83.39    3.60
   0   1  -2  138.99    4.60
   0   1  -2  143.59    4.60
   0   1  -2  140.99    4.70
   0  -1   2  137.89    4.60
   0  -1   2  137.69    4.70
   0  -1   2  147.19    4.60
  -1   1  -2  145.09    4.70
  -1   1  -2  138.89    4.60
  -1   1  -2  134.09    4.80
   1  -1   2  137.29    4.80
   1  -1   2  146.19    4.70
   1  -1   2  150.58    4.70
  -2   1  -2  139.39    4.40
  -2   1  -2  135.29    5.20
  -2   1  -2  138.09    4.40
   2  -1   2  134.29    5.10
   2  -1   2  137.59    4.60
   2  -1   2  136.79    4.60
  -3   1  -2 4599.84  135.89
   3  -1   2 4712.13  135.59
   3  -1   2 4596.94  134.69
  -4   1  -2  161.28    7.00
   4  -1   2  160.48    5.60
   4  -1   2  158.18    5.40
   4  -1   2  160.48    6.70
   4  -1   2  166.88    5.60
  -5   1  -2 1270.57   39.80
   5  -1   2 1246.28   37.70
   5  -1   2 1306.37   37.60
   5  -1   2 1273.17   39.10
   5  -1   2 1236.98   37.60
  -6   1  -2  438.86   16.70
   6  -1   2  430.16   13.90
   6  -1   2  441.16   13.90
   6  -1   2  435.86   14.00
   6  -1   2  425.26   15.70
  -7   1  -2   98.79    8.60
   7  -1   2   94.39    5.00
   7  -1   2   99.79    5.30
   7  -1   2   98.99    5.40
   8   0  -2  100.19    7.50
   7   0  -2    5.10    3.70
   7   0  -2    1.90    2.20
   7   0  -2    2.50    2.50
   6   0  -2   17.00    3.10
   6   0  -2   21.60    3.80
   6   0  -2   17.20    3.10
  -6   0   2   18.90    4.30
   5   0  -2  746.93   23.20
   5   0  -2  731.53   23.50
   5   0  -2  753.52   23.50
  -5   0   2  752.92   24.20
   4   0  -2 2258.97   66.59
   4   0  -2 2217.38   66.79
   4   0  -2 2291.57   66.79
  -4   0   2 2270.27   67.19
   3   0  -2  763.92   22.90
   3   0  -2  765.22   23.10
   3   0  -2  767.72   23.20
  -3   0   2  747.93   23.30
   2   0  -2 1354.16   40.20
   2   0  -2 1360.16   40.50
   2   0  -2 1385.76   40.30
  -2   0   2 1385.86   40.40
   1   0  -2  619.44   18.20
   1   0  -2  620.04   18.20
   1   0  -2  634.94   18.20
  -1   0   2  590.34   18.20
  -1   0   2  623.14   18.20
  -1   0   2  623.84   18.20
  -1   0  -2  758.22   22.10
  -1   0  -2  714.23   22.20
  -1   0  -2  731.33   21.90
  -1   0  -2  754.82   22.00
   1   0   2  752.42   21.90
   1   0   2  756.12   22.20
   1   0   2  717.43   22.10
   1   0   2  768.92   22.00
  -2   0  -2 1898.51   54.89
  -2   0  -2 1841.52   54.69
  -2   0  -2 1917.01   54.79
  -2   0  -2 1869.31   55.49
   2   0   2 1912.61   54.89
   2   0   2 1829.82   54.79
   2   0   2 1835.62   54.99
   2   0   2 1912.01   55.29
  -3   0  -2    0.10    1.10
  -3   0  -2    0.80    0.70
   3   0   2    1.20    0.70
   3   0   2   -0.60    0.90
   3   0   2    0.70    0.70
   3   0   2   -0.10    0.60
  -4   0  -2 1308.57   40.20
  -4   0  -2 1297.67   38.90
   4   0   2 1313.57   38.50
   4   0   2 1281.87   38.70
   4   0   2 1325.37   39.50
   4   0   2 1267.87   38.70
  -5   0  -2   91.09    5.90
  -5   0  -2   82.29    4.40
   5   0   2   81.39    4.20
   5   0   2   83.59    4.10
   5   0   2   84.49    5.30
   5   0   2   85.49    4.10
  -6   0  -2    4.50    3.30
   6   0   2    3.30    1.90
   6   0   2    1.30    2.90
   6   0   2    5.50    2.00
   6   0   2    2.90    1.90
  -7   0  -2  190.88   11.60
   7   0   2  187.28    8.20
   7   0   2  188.78    9.70
   8  -1  -2  225.48    9.90
   8  -1  -2  236.68   10.60
   7  -1  -2   32.90    4.50
   7  -1  -2   34.90    5.50
   7  -1  -2   33.60    3.80
   6  -1  -2  404.06   13.90
   6  -1  -2  391.96   14.10
   6  -1  -2  395.36   13.50
   5  -1  -2 2356.76   69.69
   5  -1  -2 2348.67   69.59
   5  -1  -2 2308.27   69.19
   4  -1  -2 1258.27   38.10
   4  -1  -2 1290.87   38.30
   4  -1  -2 1246.68   37.90
   3  -1  -2 2198.58   64.79
   3  -1  -2 2202.08   64.89
   2  -1  -2   31.80    1.30
   2  -1  -2   31.10    1.80
   2  -1  -2   32.10    1.30
  -2   1   2   33.50    1.90
   1  -1  -2 2498.65   72.19
  -1   1   2 2455.35   72.29
   0  -1  -2   28.80    1.50
   0  -1  -2   30.50    1.40
   0  -1  -2   30.30    1.50
   0  -1  -2   29.20    1.50
   0   1   2   27.90    1.50
   0   1   2   28.90    1.40
   0   1   2   31.10    1.50
   0   1   2   29.80    1.50
  -1  -1  -2  223.28    7.00
  -1  -1  -2  213.98    7.10
  -1  -1  -2  218.68    7.10
  -1  -1  -2  216.48    7.10
   1   1   2  207.18    7.10
   1   1   2  220.98    7.00
   1   1   2  211.68    7.00
   1   1   2  219.28    7.10
  -2  -1  -2   28.10    1.60
  -2  -1  -2   25.70    1.80
  -2  -1  -2   25.50    1.50
  -2  -1  -2   24.70    2.00
   2   1   2   24.70    1.80
   2   1   2   24.20    1.80
   2   1   2   24.20    1.80
   2   1   2   24.50    1.80
  -3  -1  -2  210.58    8.10
  -3  -1  -2  211.58    7.60
   3   1   2  207.78    7.30
   3   1   2  217.08    7.50
   3   1   2  205.48    7.40
   3   1   2  218.08    7.40
  -4  -1  -2  419.46   14.70
  -4  -1  -2  419.06   13.90
   4   1   2  428.86   13.50
   4   1   2  401.56   13.40
   4   1   2  400.66   13.60
   4   1   2  414.26   13.60
  -5  -1  -2  920.01   29.70
  -5  -1  -2  910.91   28.40
   5   1   2  893.81   27.90
   5   1   2  867.21   27.70
   5   1   2  888.41   28.00
   5   1   2  917.81   27.80
  -6  -1  -2  161.28    9.90
   6   1   2  168.08    7.90
   6   1   2  161.48    7.60
   6   1   2  166.38    7.60
   6   1   2  155.38    7.40
  -7  -1  -2  255.17   14.30
   7   1   2  234.58   10.50
   8  -2  -2  738.63   25.40
   8  -2  -2  765.52   24.20
   7  -2  -2  396.06   15.10
   7  -2  -2  404.46   13.80
   7  -2  -2  404.36   14.90
   6  -2  -2  594.74   19.30
   6  -2  -2  623.84   20.30
   6  -2  -2  600.64   20.30
   5  -2  -2  377.46   12.30
   5  -2  -2  374.66   13.10
   5  -2  -2  370.16   13.10
   4  -2  -2 3556.44  105.69
   4  -2  -2 3624.54  105.69
   2  -2  -2 1734.43   50.19
   2  -2  -2 1724.03   50.59
   2  -2  -2 1697.83   50.19
  -2   2   2 1732.53   50.69
  -2   2   2 1675.73   49.99
  -2   2   2 1682.53   49.99
   1  -2  -2  578.54   17.60
   1  -2  -2  592.44   17.60
   1  -2  -2  573.44   17.60
   1  -2  -2  563.14   17.60
  -1   2   2  572.04   17.60
  -1   2   2  587.44   17.60
  -1   2   2  577.04   17.70
  -1   2   2  563.54   17.60
   0  -2  -2 2305.77   66.79
   0  -2  -2 2250.77   66.79
   0  -2  -2 2250.67   66.59
   0  -2  -2 2231.58   66.89
   0   2   2 2311.77   66.69
   0   2   2 2243.88   66.79
   0   2   2 2300.27   66.89
   0   2   2 2312.07   66.89
  -1  -2  -2  568.84   17.90
  -1  -2  -2  593.44   18.10
  -1  -2  -2  557.94   17.60
  -1  -2  -2  573.74   17.70
   1   2   2  600.24   18.10
   1   2   2  585.34   18.00
   1   2   2  558.44   17.60
   1   2   2  595.94   18.00
  -2  -2  -2  670.73   19.90
  -2  -2  -2  652.03   20.20
  -2  -2  -2  649.43   20.30
  -2  -2  -2  647.74   19.70
   2   2   2  641.24   20.10
   2   2   2  606.54   19.60
   2   2   2  643.74   20.10
   2   2   2  646.14   20.20
  -3  -2  -2  242.58    7.80
  -3  -2  -2  231.88    7.70
  -3  -2  -2  244.88    9.30
  -3  -2  -2  235.28    8.90
   3   2   2  236.98    8.70
   3   2   2  224.68    8.10
   3   2   2  234.68    8.70
   3   2   2  250.77    8.70
  -4  -2  -2  340.37   13.50
  -4  -2  -2  373.36   13.20
   4   2   2  382.96   12.80
   4   2   2  365.56   12.10
   4   2   2  376.86   12.80
   4   2   2  356.96   12.80
  -5  -2  -2 1563.04   48.20
   5   2   2 1564.14   46.60
   5   2   2 1596.04   46.60
   5   2   2 1478.65   45.70
   5   2   2 1425.26   46.50
  -6  -2  -2   30.60    7.10
  -6  -2  -2   20.20    5.70
   6   2   2   22.50    5.20
   6   2   2   15.80    3.70
   6   2   2   14.30    4.40
   8  -3  -2  345.17   12.30
   8  -3  -2  342.77   14.30
   7  -3  -2   30.30    5.70
   7  -3  -2   36.40    3.40
   7  -3  -2   37.20    4.90
   6  -3  -2 4689.23  138.59
   6  -3  -2 4734.43  139.99
   6  -3  -2 4791.22  139.99
   5  -3  -2   12.40    1.60
   5  -3  -2   12.90    3.00
   5  -3  -2   13.60    1.60
   5  -3  -2   11.00    2.80
   4  -3  -2  912.91   28.60
   4  -3  -2  912.31   27.30
   4  -3  -2  906.61   27.30
   3  -3  -2  159.78    5.90
   3  -3  -2  166.48    6.60
   3  -3  -2  169.98    6.00
   3  -3  -2  168.18    6.10
  -3   3   2  166.88    5.60
  -3   3   2  163.68    5.60
   2  -3  -2 1759.92   50.99
   2  -3  -2 1677.83   50.99
   2  -3  -2 1672.73   51.09
  -2   3   2 1751.52   50.99
  -2   3   2 1751.12   50.99
   1  -3  -2 2573.04   76.09
   1  -3  -2 2615.84   76.09
   1  -3  -2 2665.03   76.19
   1  -3  -2 2586.14   76.29
  -1   3   2 2616.64   76.39
  -1   3   2 2568.64   76.19
  -1   3   2 2548.65   76.19
  -1   3   2 2538.05   76.19
   0  -3  -2    1.90    0.80
   0  -3  -2    0.90    0.90
   0  -3  -2    2.30    1.00
   0   3   2    1.30    0.90
   0   3   2    0.90    0.90
   0   3   2    3.00    0.90
   0   3   2    2.10    0.90
  -1  -3  -2  221.18    7.90
  -1  -3  -2  217.28    7.60
  -1  -3  -2  228.18    8.20
   1   3   2  219.08    7.80
   1   3   2  228.88    8.20
   1   3   2  232.18    8.30
   1   3   2  223.98    8.20
  -2  -3  -2  344.07   11.30
  -2  -3  -2  330.47   11.60
  -2  -3  -2  327.57   11.80
  -2  -3  -2  328.07   11.00
   2   3   2  340.47   11.70
   2   3   2  312.67   11.00
   2   3   2  345.07   11.70
   2   3   2  340.87   11.70
  -3  -3  -2  161.58    7.40
  -3  -3  -2  153.18    6.00
  -3  -3  -2  153.38    7.30
  -3  -3  -2  152.58    5.80
   3   3   2  150.58    6.20
   3   3   2  157.78    6.90
   3   3   2  149.59    6.90
   3   3   2  154.48    6.90
  -4  -3  -2  379.76   14.40
   4   3   2  385.56   13.70
   4   3   2  379.36   13.50
   4   3   2  381.96   13.60
   4   3   2  317.27   12.30
  -5  -3  -2  165.18   10.10
   5   3   2  163.98    9.90
   5   3   2  156.78    7.80
   5   3   2  161.98    8.50
   5   3   2  167.68    8.50
   9  -4  -2    7.50    4.60
   8  -4  -2   33.70    4.20
   8  -4  -2   31.80    6.40
   7  -4  -2   39.70    3.60
   7  -4  -2   37.20    5.30
   7  -4  -2   44.50    6.00
   7  -4  -2   44.30    3.20
   6  -4  -2 2053.69   62.99
   6  -4  -2 2065.89   63.09
   6  -4  -2 2078.09   60.99
   6  -4  -2 2049.09   60.99
   5  -4  -2 1326.97   40.80
   5  -4  -2 1298.47   39.20
   5  -4  -2 1310.47   39.30
   5  -4  -2 1289.27   39.20
   4  -4  -2   87.79    4.10
   4  -4  -2   84.99    5.00
   4  -4  -2   83.29    4.10
   4  -4  -2   83.19    4.00
  -4   4   2   85.49    3.40
  -4   4   2   80.69    4.90
   3  -4  -2 1390.76   39.60
   3  -4  -2 1339.77   39.40
   3  -4  -2 1285.57   39.50
   3  -4  -2 1297.27   40.00
  -3   4   2 1303.27   39.20
  -3   4   2 1314.67   39.20
  -3   4   2 1226.18   40.10
   2  -4  -2 2392.56   70.59
   2  -4  -2 2324.87   70.39
   2  -4  -2 2341.87   70.59
   2  -4  -2 2430.86   70.29
  -2   4   2 2409.46   70.99
  -2   4   2 2290.97   70.39
  -2   4   2 2316.47   70.39
  -2   4   2 2519.55   70.49
   1  -4  -2  285.27   10.00
   1  -4  -2  297.17   10.00
   1  -4  -2  282.37    9.80
  -1   4   2  285.37   10.10
  -1   4   2  263.57   10.00
  -1   4   2  283.37   10.00
  -1   4   2  291.57   10.20
   0  -4  -2  527.95   16.70
   0  -4  -2  549.74   17.50
   0  -4  -2  542.55   17.50
   0  -4  -2  509.25   17.20
   0   4   2  541.55   17.40
   0   4   2  528.45   17.20
   0   4   2  539.05   17.50
   0   4   2  521.25   17.50
  -1  -4  -2  397.46   13.60
  -1  -4  -2  395.66   13.10
  -1  -4  -2  405.26   13.90
   1   4   2  415.56   14.10
   1   4   2  405.66   13.60
   1   4   2  423.96   14.20
   1   4   2  409.56   14.20
  -2  -4  -2  654.63   20.90
  -2  -4  -2  615.94   21.20
  -2  -4  -2  656.63   20.30
  -2  -4  -2  628.34   20.60
   2   4   2  633.64   20.30
   2   4   2  667.73   21.30
   2   4   2  628.54   21.00
   2   4   2  619.14   21.10
  -3  -4  -2   26.50    3.60
  -3  -4  -2   17.30    4.60
  -3  -4  -2   31.00    4.90
  -3  -4  -2   32.30    3.20
   3   4   2   35.30    4.40
   3   4   2   30.30    4.30
   3   4   2   26.20    3.80
   3   4   2   28.40    5.30
  -4  -4  -2   22.50    6.50
   4   4   2    7.60    3.40
   4   4   2   19.50    5.20
   4   4   2   13.20    2.80
   4   4   2   16.50    4.40
  -5  -4  -2  110.99   10.70
   5   4   2  121.69    9.10
   5   4   2  131.59    9.10
   9  -5  -2  257.27   14.00
   8  -5  -2   74.19    5.70
   8  -5  -2   67.59    5.40
   8  -5  -2   74.89    5.10
   8  -5  -2   74.29    7.90
   8  -5  -2   72.19    5.20
   7  -5  -2   18.00    3.60
   7  -5  -2    8.90    4.30
   7  -5  -2   12.50    2.60
   7  -5  -2   12.40    3.30
   7  -5  -2   12.00    2.40
   6  -5  -2    2.60    1.80
   6  -5  -2   11.50    3.00
   6  -5  -2    6.60    2.10
   6  -5  -2   -0.20    2.40
   5  -5  -2  570.34   18.60
   5  -5  -2  569.04   19.90
   5  -5  -2  580.24   18.70
   5  -5  -2  571.34   18.40
   4  -5  -2 1368.86   45.10
   4  -5  -2 1498.85   45.50
   4  -5  -2 1545.55   45.70
   4  -5  -2 1523.05   46.40
  -4   5   2 1513.45   46.60
  -4   5   2 1541.05   45.00
  -4   5   2 1525.55   45.00
   3  -5  -2  488.35   16.20
   3  -5  -2  518.75   16.70
   3  -5  -2  480.35   16.40
   3  -5  -2  489.15   16.90
  -3   5   2  509.45   16.30
  -3   5   2  481.15   16.20
  -3   5   2  496.25   17.20
   2  -5  -2  294.97   10.70
   2  -5  -2  292.67   10.90
   2  -5  -2  300.87   10.80
   2  -5  -2  281.47   11.00
  -2   5   2  308.67   10.80
  -2   5   2  290.07   11.20
  -2   5   2  312.27   10.90
  -2   5   2  299.17   10.80
   1  -5  -2  617.74   20.00
   1  -5  -2  608.94   19.90
   1  -5  -2  601.34   19.50
   1  -5  -2  643.14   20.30
  -1   5   2  605.84   19.90
  -1   5   2  600.94   20.10
  -1   5   2  578.54   19.90
  -1   5   2  615.24   20.10
   0  -5  -2  122.19    6.30
   0  -5  -2  115.19    8.30
   0  -5  -2  120.09    6.00
   0  -5  -2  122.19    5.40
   0   5   2  120.89    6.20
   0   5   2  130.79    6.10
   0   5   2  127.39    6.40
   0   5   2  130.89    6.20
  -1  -5  -2  190.08    7.90
  -1  -5  -2  183.78    8.10
  -1  -5  -2  174.58    7.10
   1   5   2  177.28    8.10
   1   5   2  185.38    8.60
   1   5   2  188.28    7.90
   1   5   2  177.38    8.20
  -2  -5  -2  444.96   17.10
  -2  -5  -2  477.35   16.20
  -2  -5  -2  470.25   15.80
  -2  -5  -2  471.25   16.40
   2   5   2  458.55   16.50
   2   5   2  421.26   16.80
   2   5   2  464.05   15.90
   2   5   2  471.35   16.80
  -3  -5  -2  184.48    7.90
  -3  -5  -2  193.88   10.20
  -3  -5  -2  194.48    8.60
   3   5   2  198.58    9.70
   3   5   2  191.08    8.80
   3   5   2  173.68    9.50
  -4  -5  -2   73.29    9.50
   4   5   2   60.89    8.00
   4   5   2   72.49    7.90
   8  -6  -2   -0.10    2.80
   8  -6  -2   -2.90    3.90
   8  -6  -2    1.50    3.60
   7  -6  -2   51.39    4.90
   7  -6  -2   46.60    5.60
   7  -6  -2   50.69    4.70
   7  -6  -2   54.39    7.10
   6  -6  -2   13.80    3.50
   6  -6  -2   21.00    3.90
   6  -6  -2   27.60    3.90
   6  -6  -2   25.20    4.50
   5  -6  -2   13.60    3.10
   5  -6  -2   16.20    3.40
   5  -6  -2   19.20    3.50
   5  -6  -2   19.30    4.10
  -5   6   2   18.10    2.70
  -5   6   2   16.80    2.80
   4  -6  -2  141.49    7.20
   4  -6  -2  151.68    7.70
   4  -6  -2  140.59    7.00
   4  -6  -2  154.38    6.70
  -4   6   2  140.09    7.80
  -4   6   2  145.59    6.40
  -4   6   2  146.89    6.50
   3  -6  -2 1511.75   45.50
   3  -6  -2 1475.85   46.00
   3  -6  -2 1493.85   46.00
   3  -6  -2 1521.05   45.80
  -3   6   2 1440.66   45.50
  -3   6   2 1477.95   46.50
  -3   6   2 1507.35   45.60
   2  -6  -2  755.42   27.00
   2  -6  -2  880.61   27.00
   2  -6  -2  865.91   27.10
  -2   6   2  863.21   27.70
  -2   6   2  843.92   27.10
  -2   6   2  816.82   27.20
  -2   6   2  886.51   27.30
   1  -6  -2 1021.90   32.90
   1  -6  -2 1048.10   32.20
  -1   6   2 1036.30   33.10
  -1   6   2 1036.40   33.00
  -1   6   2 1051.09   33.20
   0  -6  -2  166.18    8.10
   0  -6  -2  167.08    7.20
   0   6   2  182.18    8.30
   0   6   2  177.78    8.40
   0   6   2  166.88    8.30
  -1  -6  -2    2.20    2.10
  -1  -6  -2   -2.30    2.60
   1   6   2    3.70    2.70
   1   6   2    2.00    2.70
   1   6   2   -2.10    2.50
  -2  -6  -2   82.19    7.30
  -2  -6  -2   79.79    6.50
   2   6   2   77.59    7.10
   2   6   2   84.39    7.30
   2   6   2   85.99    7.10
  -3  -6  -2   77.69    9.40
   3   6   2   63.69    8.20
   3   6   2   86.39    8.60
   8  -7  -2   19.70    6.60
   8  -7  -2   14.30    4.10
   8  -7  -2    6.00    5.10
   7  -7  -2    4.40    3.90
   7  -7  -2    6.20    3.20
   7  -7  -2   -3.70    3.40
   7  -7  -2   -2.50    3.90
   6  -7  -2   -1.20    3.40
   6  -7  -2    0.40    3.20
   6  -7  -2    1.80    2.90
   6  -7  -2   -1.80    2.70
   5  -7  -2  349.07   14.30
   5  -7  -2  355.06   12.90
   5  -7  -2  342.97   13.30
   5  -7  -2  328.07   13.70
  -5   7   2  331.97   12.20
  -5   7   2  338.77   12.40
   4  -7  -2   37.50    5.60
   4  -7  -2   45.30    5.00
   4  -7  -2   41.10    5.80
   4  -7  -2   43.20    5.00
  -4   7   2   47.50    4.40
  -4   7   2   41.00    6.00
  -4   7   2   47.10    4.90
   3  -7  -2  191.18   12.00
   3  -7  -2  211.98    9.90
   3  -7  -2  234.38   10.00
   3  -7  -2  224.08   10.00
  -3   7   2  217.58    9.60
  -3   7   2  238.58   10.80
   2  -7  -2   19.50    4.80
   2  -7  -2   26.20    5.50
   2  -7  -2   25.40    4.50
  -2   7   2   31.00    4.60
  -2   7   2   21.40    5.50
  -2   7   2   29.20    4.40
  -2   7   2   36.10    5.80
   1  -7  -2   48.50    5.60
   1  -7  -2   49.20    4.70
  -1   7   2   55.79    5.60
  -1   7   2   57.49    6.60
  -1   7   2   55.09    5.70
   0  -7  -2   25.80    5.80
   0  -7  -2   37.90    5.00
   0   7   2   43.50    6.80
   0   7   2   51.29    6.10
   0   7   2   27.30    5.50
  -1  -7  -2   22.10    6.40
  -1  -7  -2   21.00    5.40
   1   7   2    9.80    4.00
   1   7   2   10.00    4.20
   7  -8  -2   54.19    9.50
   7  -8  -2   65.39    7.60
   6  -8  -2    1.80    3.60
   6  -8  -2   -1.70    4.10
   6  -8  -2    5.10    4.30
  -6   8   2    2.50    3.00
  -6   8   2    0.90    2.40
   5  -8  -2   36.10    6.20
   5  -8  -2   31.00    6.60
   5  -8  -2   39.10    7.30
  -5   8   2   35.60    5.00
   4  -8  -2  382.06   15.10
   4  -8  -2  367.96   15.00
  -4   8   2  335.17   14.40
  -4   8   2  377.96   14.30
   3  -8  -2   79.89    7.20
   3  -8  -2   73.29    7.00
  -3   8   2   81.19    6.70
   2  -8  -2   78.59    6.80
   2  -8  -2   83.69    7.60
  -2   8   2   98.79    8.90
  -2   8   2   79.09    7.20
  -2   8   2   81.29    7.20
   1  -8  -2   -5.50    3.80
   1  -8  -2    0.90    3.00
  -1   8   2   -3.40    3.50
  -1   8   2   15.50    5.00
  -1   8   2    1.70    3.70
   0  -8  -2    8.20    3.40
   0  -8  -2    8.50    4.70
   5  -9  -2    5.70    4.80
   5  -9  -2    0.50    4.80
  -5   9   2    9.60    3.90
   4  -9  -2  127.99   10.30
   4  -9  -2  133.79   10.10
  -4   9   2  135.09    9.00
   3  -9  -2  108.49    9.10
  -3   9   2  107.29    8.90
  -2   9  -3   10.70    4.20
  -2   9  -3    0.30    3.80
   2  -9   3    4.90    4.20
   2  -9   3   -5.20    5.00
  -3   9  -3   14.80    4.40
  -3   9  -3   14.50    4.20
   3  -9   3    9.30    4.80
   3  -9   3   15.80    5.30
  -4   9  -3   71.49    7.40
  -4   9  -3   52.39    7.00
   4  -9   3   66.59    9.80
   4  -9   3   60.39    9.30
  -5   9  -3    3.60    3.60
   5  -9   3   -1.00    5.40
   5  -9   3    4.50    5.00
   0   8  -3  322.87   13.80
   0   8  -3  329.07   14.40
   0  -8   3  321.47   14.60
   0  -8   3  296.67   11.60
  -1   8  -3    2.10    3.10
  -1   8  -3    2.40    3.20
   1  -8   3    5.90    4.10
   1  -8   3    4.10    3.00
  -2   8  -3  153.78    8.50
  -2   8  -3  141.09    7.80
   2  -8   3  145.09    8.80
   2  -8   3  134.99    9.40
  -3   8  -3   18.90    5.00
  -3   8  -3   19.00    4.50
   3  -8   3   27.00    6.50
   3  -8   3   13.70    4.00
   3  -8   3   19.70    4.50
  -4   8  -3  329.17   12.80
  -4   8  -3  328.57   13.70
  -4   8  -3  353.66   13.50
   4  -8   3  328.67   14.40
   4  -8   3  343.37   13.30
   4  -8   3  343.47   14.90
  -5   8  -3   66.69    6.00
   5  -8   3   61.89    8.50
   5  -8   3   50.89    7.20
   5  -8   3   62.19    6.10
  -6   8  -3    2.10    2.50
   6  -8   3    4.00    4.10
   6  -8   3   -1.70    4.20
   7  -8   3  218.38   12.00
   2   7  -3   40.40    6.90
   2   7  -3   38.50    7.00
  -2  -7   3   29.30    6.30
  -2  -7   3   40.50    6.80
  -2  -7   3   31.20    7.40
   1   7  -3 2308.07   70.09
   1   7  -3 2230.68   70.49
  -1  -7   3 2291.57   67.39
  -1  -7   3 2203.58   69.59
  -1  -7   3 2424.66   69.79
   0   7  -3   -0.80    2.70
   0   7  -3    2.90    2.70
   0  -7   3    2.40    3.10
   0  -7   3    3.50    3.60
   0  -7   3    0.40    2.00
  -1   7  -3  272.57   11.30
  -1   7  -3  266.97   10.60
   1  -7   3  264.27   11.40
   1  -7   3  245.18   11.20
   1  -7   3  268.87   10.40
   1  -7   3  227.08   11.20
  -2   7  -3   11.70    2.80
  -2   7  -3   16.10    4.70
  -2   7  -3   11.60    3.30
   2  -7   3   19.30    4.70
   2  -7   3   15.20    4.60
   2  -7   3    7.50    2.90
  -3   7  -3   63.39    5.10
  -3   7  -3   60.69    4.50
   3  -7   3   66.09    5.80
   3  -7   3   64.69    5.10
   3  -7   3   62.99    6.10
   3  -7   3   45.40    5.80
  -4   7  -3   22.80    4.30
  -4   7  -3   25.50    3.90
  -4   7  -3   26.90    3.60
   4  -7   3   25.90    5.30
   4  -7   3   17.30    4.70
   4  -7   3   19.00    5.60
   4  -7   3   24.90    3.90
  -5   7  -3  482.85   16.00
  -5   7  -3  478.95   15.90
   5  -7   3  478.45   17.20
   5  -7   3  456.55   15.20
   5  -7   3  440.86   17.00
   5  -7   3  447.76   18.30
   6  -7   3    4.10    3.20
   6  -7   3   -0.70    3.70
   6  -7   3    3.20    3.70
   7  -7   3   74.49    7.50
   7  -7   3   69.09    9.20
   3   6  -3   66.79    7.40
   3   6  -3   77.19    7.10
  -3  -6   3   75.29    7.00
  -3  -6   3   62.79    9.40
  -3  -6   3   75.09    5.90
   2   6  -3   53.09    5.90
   2   6  -3   60.69    6.00
  -2  -6   3   66.79    5.40
  -2  -6   3   64.39    6.00
  -2  -6   3   58.99    5.60
   1   6  -3   -1.10    2.60
   1   6  -3   -1.10    2.10
   1   6  -3    3.10    2.40
  -1  -6   3   -1.30    2.50
  -1  -6   3    1.10    1.40
  -1  -6   3   -0.60    3.50
  -1  -6   3    0.10    2.40
   0   6  -3 5458.45  161.48
   0   6  -3 5431.36  160.88
   0  -6   3 4846.52  160.88
   0  -6   3 5620.44  161.28
   0  -6   3 5756.52  161.18
   0  -6   3 5734.83  159.98
  -1   6  -3    5.30    1.90
  -1   6  -3    5.90    2.00
   1  -6   3    8.30    2.60
   1  -6   3    3.80    1.80
   1  -6   3    2.40    2.10
   1  -6   3    2.60    2.00
  -2   6  -3   67.89    4.10
  -2   6  -3   56.89    4.70
  -2   6  -3   59.69    4.60
   2  -6   3   58.59    4.90
   2  -6   3   64.59    5.00
   2  -6   3   70.29    4.60
  -3   6  -3  247.48    8.90
  -3   6  -3  248.98    9.50
  -3   6  -3  243.08    9.50
   3  -6   3  248.68   10.40
   3  -6   3  233.28    9.80
   3  -6   3  251.47   10.00
   3  -6   3  221.78    8.80
  -4   6  -3    1.40    1.70
  -4   6  -3    0.40    1.60
   4  -6   3   -1.00    2.00
   4  -6   3   -0.70    2.00
   4  -6   3   -0.30    2.10
   4  -6   3    2.40    1.70
  -5   6  -3   11.20    2.80
  -5   6  -3   12.00    2.80
   5  -6   3   11.10    2.70
   5  -6   3   11.20    3.20
   5  -6   3   10.10    2.80
   5  -6   3   10.00    2.30
   6  -6   3   -3.20    2.80
   6  -6   3    3.80    2.70
   6  -6   3    5.00    2.60
   7  -6   3   32.00    6.40
   7  -6   3   34.80    7.70
   7  -6   3   36.50    5.50
   8  -6   3   80.29   10.80
   8  -6   3   88.99    7.70
   4   5  -3  248.38   11.50
   4   5  -3  249.78   11.60
  -4  -5   3  260.27   11.50
   3   5  -3    7.70    2.90
   3   5  -3    3.80    2.60
   3   5  -3    5.70    3.40
  -3  -5   3    4.60    2.30
  -3  -5   3    6.40    3.00
  -3  -5   3    0.10    2.10
   2   5  -3    5.00    2.50
   2   5  -3    4.70    2.10
   2   5  -3    4.70    2.10
  -2  -5   3    3.00    2.20
  -2  -5   3    2.70    2.10
  -2  -5   3    5.10    2.00
   1   5  -3  941.71   30.60
   1   5  -3  962.50   30.60
   1   5  -3  984.60   30.40
  -1  -5   3  958.60   30.10
  -1  -5   3  939.81   28.60
  -1  -5   3  980.90   30.20
  -1  -5   3  951.20   30.60
   0   5  -3  104.89    5.20
   0   5  -3  108.09    5.50
   0   5  -3   96.39    5.40
   0  -5   3  102.09    5.50
   0  -5   3  106.49    4.80
   0  -5   3  109.19    5.50
   0  -5   3  106.19    5.60
  -2   5  -3  115.59    5.40
  -2   5  -3  113.59    5.50
  -2   5  -3  115.49    4.90
   2  -5   3  115.49    5.60
   2  -5   3  114.29    5.60
   2  -5   3  114.19    5.80
   2  -5   3  123.89    5.10
  -3   5  -3   71.69    4.10
  -3   5  -3   73.69    4.00
  -3   5  -3   72.19    3.50
   3  -5   3   76.09    5.10
   3  -5   3   69.19    4.30
   3  -5   3   75.69    3.60
   3  -5   3   74.89    4.50
  -4   5  -3 1110.39   32.60
  -4   5  -3 1088.59   32.30
   4  -5   3 1038.10   33.10
   4  -5   3 1076.89   33.80
   4  -5   3 1041.70   31.70
   4  -5   3 1050.99   34.20
   4  -5   3 1041.80   32.90
   5  -5   3  168.58    9.00
   5  -5   3  169.38    8.60
   5  -5   3  174.58    7.50
   5  -5   3  172.58    7.40
   6  -5   3    1.00    3.00
   6  -5   3    0.60    2.20
   6  -5   3   -2.10    2.00
   6  -5   3   -0.20    3.80
   7  -5   3   82.09    5.70
   7  -5   3   63.49    8.00
   7  -5   3   81.39    5.90
   8  -5   3   -2.60    4.60
   8  -5   3    1.30    3.40
   5   4  -3   42.30    6.30
   5   4  -3   44.60    5.90
   5   4  -3   43.40    7.30
  -5  -4   3   44.50    6.50
   4   4  -3  179.08    8.50
   4   4  -3  149.69    7.80
   4   4  -3  167.18    8.40
  -4  -4   3  171.88    8.20
   3   4  -3  294.37   11.20
   3   4  -3  273.67   11.10
   3   4  -3  304.67   11.10
  -3  -4   3  291.67   10.60
  -3  -4   3  283.67    9.80
  -3  -4   3  290.47    9.90
   2   4  -3  548.85   17.60
   2   4  -3  512.65   17.50
   2   4  -3  527.35   17.50
  -2  -4   3  512.15   16.80
  -2  -4   3  510.15   17.70
  -2  -4   3  515.95   16.50
  -2  -4   3  525.75   16.90
   1   4  -3   84.09    4.30
   1   4  -3   82.79    4.40
   1   4  -3   80.29    4.50
  -1  -4   3   76.69    3.20
  -1  -4   3   80.09    4.30
  -1  -4   3   86.79    4.30
  -1  -4   3   81.89    4.60
   0   4  -3   19.60    2.80
   0   4  -3   16.80    2.90
   0  -4   3   19.10    2.80
   0  -4   3   13.20    3.10
  -1   4  -3   34.20    2.60
  -1   4  -3   34.20    2.30
  -1   4  -3   31.90    2.60
   1  -4   3   32.80    2.70
   1  -4   3   30.80    2.40
   1  -4   3   33.70    2.70
   1  -4   3   38.20    2.80
  -2   4  -3 9773.82  280.77
   2  -4   3 9999.00  280.97
   2  -4   3 9255.47  280.97
   2  -4   3 9602.74  281.37
  -3   4  -3    7.80    1.30
  -3   4  -3    6.40    1.70
  -3   4  -3   12.30    1.80
   3  -4   3    8.90    2.60
   3  -4   3    9.30    2.00
   3  -4   3   11.50    1.40
   3  -4   3    8.00    1.60
  -4   4  -3  886.81   26.10
  -4   4  -3  854.81   26.20
   4  -4   3  866.61   27.70
   4  -4   3  848.62   26.80
   4  -4   3  876.71   26.80
   5  -4   3  605.74   20.40
   5  -4   3  539.55   18.80
   5  -4   3  632.04   19.10
   6  -4   3  305.27   10.50
   6  -4   3  281.97   10.50
   6  -4   3  297.77   12.70
   7  -4   3  332.67   11.70
   7  -4   3  309.77   14.30
   7  -4   3  324.87   11.70
   8  -4   3   -0.70    2.90
   8  -4   3   -4.20    4.30
   6   3  -3  610.04   20.20
   6   3  -3  560.54   20.50
   6   3  -3  571.04   21.00
  -6  -3   3  590.14   21.40
   5   3  -3    1.30    2.10
   5   3  -3   -2.50    2.60
   5   3  -3   -0.70    2.50
  -5  -3   3    4.20    3.10
  -5  -3   3   -3.00    3.60
   4   3  -3  163.98    7.10
   4   3  -3  158.68    7.10
   4   3  -3  159.68    7.50
  -4  -3   3  162.28    7.20
   3   3  -3  616.54   20.10
   3   3  -3  626.04   19.80
   3   3  -3  606.44   19.80
  -3  -3   3  638.64   20.50
  -3  -3   3  605.34   18.70
  -3  -3   3  613.14   19.40
  -3  -3   3  600.74   18.70
   2   3  -3   43.70    3.00
   2   3  -3   42.40    2.90
   2   3  -3   45.20    3.10
  -2  -3   3   43.60    2.60
  -2  -3   3   41.40    2.70
  -2  -3   3   45.80    3.40
  -2  -3   3   42.80    2.50
   1   3  -3 2023.20   60.89
   1   3  -3 1987.10   60.79
   1   3  -3 2072.49   60.89
  -1  -3   3 1999.00   60.69
  -1  -3   3 2107.59   60.99
  -1  -3   3 2007.70   59.79
  -1  -3   3 2156.08   60.69
   0   3  -3    5.20    1.20
   0   3  -3    6.30    1.40
   0   3  -3    7.00    1.30
   0  -3   3    5.20    1.50
   0  -3   3    5.70    1.50
   0  -3   3    7.80    1.40
   0  -3   3    7.40    1.50
  -1   3  -3  179.68    6.00
  -1   3  -3  164.58    6.30
  -1   3  -3  174.38    6.30
   1  -3   3  168.08    6.00
   1  -3   3  180.88    6.50
  -2   3  -3   59.59    3.00
  -2   3  -3   63.89    3.00
  -2   3  -3   62.19    2.50
   2  -3   3   65.89    3.20
   2  -3   3   65.49    2.50
   2  -3   3   64.79    3.20
  -3   3  -3 1886.61   56.89
  -3   3  -3 1967.80   56.79
   3  -3   3 1890.91   57.09
   3  -3   3 1984.50   57.79
   3  -3   3 1919.21   57.09
   4  -3   3   27.10    2.20
   4  -3   3   20.40    2.10
   4  -3   3   25.10    3.20
   5  -3   3  662.63   20.30
   5  -3   3  654.83   20.20
   5  -3   3  630.04   21.60
   6  -3   3  320.67   11.00
   6  -3   3  320.57   11.00
   7  -3   3   80.99    4.90
   7  -3   3   78.59    4.90
   8  -3   3  177.68   11.70
   7   2  -3   39.60    6.90
  -7  -2   3   38.30    8.00
   6   2  -3   66.09    5.50
   6   2  -3   79.79    6.10
   6   2  -3   76.49    5.20
  -6  -2   3   79.49    6.80
   5   2  -3   82.59    4.70
   5   2  -3   86.29    5.30
   5   2  -3   79.59    4.70
  -5  -2   3   94.89    5.70
   4   2  -3 1494.55   45.00
   4   2  -3 1481.15   45.00
   4   2  -3 1492.45   45.70
  -4  -2   3 1512.15   46.00
  -4  -2   3 1524.45   45.40
   3   2  -3  146.79    5.60
   3   2  -3  136.89    5.40
   3   2  -3  138.29    6.00
  -3  -2   3  142.19    5.50
  -3  -2   3  138.49    6.10
   2   2  -3   82.89    3.60
   2   2  -3   82.59    3.90
   2   2  -3   81.49    3.60
  -2  -2   3   79.79    3.20
  -2  -2   3   79.79    4.00
  -2  -2   3   83.09    3.20
  -2  -2   3   77.79    3.30
   1   2  -3  484.45   14.80
   1   2  -3  461.45   14.70
   1   2  -3  471.15   14.90
  -1  -2   3  476.75   14.10
  -1  -2   3  473.85   14.90
  -1  -2   3  471.85   14.60
  -1  -2   3  463.05   14.70
   0   2  -3  361.96   11.40
   0   2  -3  360.86   11.60
   0  -2   3  364.06   11.40
   0  -2   3  378.86   11.50
   0  -2   3  353.16   11.60
  -1   2  -3  421.96   12.70
  -1   2  -3  416.06   13.10
  -1   2  -3  428.86   13.20
   1  -2   3  406.76   13.10
   1  -2   3  419.36   13.10
   1  -2   3  424.36   13.10
   1  -2   3  420.36   12.70
  -2   2  -3  988.30   29.60
  -2   2  -3  998.30   29.70
   2  -2   3  996.50   29.70
   2  -2   3 1005.60   29.80
   2  -2   3  985.30   30.10
  -3   2  -3   73.19    2.90
  -3   2  -3   71.59    2.80
   3  -2   3   72.89    3.20
   3  -2   3   75.29    3.90
   3  -2   3   73.19    3.20
  -4   2  -3 2824.92   85.39
   4  -2   3 2926.81   84.99
   4  -2   3 2867.81   83.79
   4  -2   3 2829.22   83.79
  -5   2  -3  403.26   14.60
   5  -2   3  379.46   12.50
   5  -2   3  368.36   15.20
   5  -2   3  388.56   12.40
   6  -2   3   63.59    3.80
   6  -2   3   71.09    3.90
   7  -2   3   82.59    4.90
   7  -2   3   77.49    5.00
   8  -2   3   21.10    5.30
   7   1  -3   21.40    4.00
   7   1  -3   21.70    5.20
   6   1  -3  464.45   15.20
   6   1  -3  461.65   16.40
   6   1  -3  468.05   15.20
  -6  -1   3  488.45   17.10
   5   1  -3 1344.57   40.30
   5   1  -3 1364.06   40.70
   5   1  -3 1379.66   40.70
   5   1  -3 1359.66   41.90
   5   1  -3 1372.16   41.10
  -5  -1   3 1376.06   42.00
   4   1  -3 1465.15   43.80
   4   1  -3 1484.05   43.60
   4   1  -3 1448.46   44.60
   4   1  -3 1492.65   43.60
  -4  -1   3 1484.45   44.50
   3   1  -3 1181.88   34.60
   3   1  -3 1147.69   34.60
   3   1  -3 1182.68   34.70
   3   1  -3 1164.18   35.40
  -3  -1   3 1170.18   35.00
   2   1  -3  430.56   12.60
   2   1  -3  392.36   13.00
   2   1  -3  407.36   12.50
  -2  -1   3  408.26   12.20
  -2  -1   3  397.56   12.40
  -2  -1   3  398.86   12.10
   1   1  -3 2058.09   60.19
   1   1  -3 2037.60   60.39
   1   1  -3 2120.49   60.19
  -1  -1   3 2066.49   59.69
  -1  -1   3 2005.20   60.09
  -1  -1   3 2055.09   60.19
   0   1  -3  215.28    7.10
   0   1  -3  216.88    7.00
   0   1  -3  223.68    7.10
   0  -1   3  236.68    7.10
   0  -1   3  223.38    6.80
   0  -1   3  210.28    7.10
  -1   1  -3 1088.19   32.30
  -1   1  -3 1068.89   32.40
  -1   1  -3 1085.69   32.30
   1  -1   3 1052.09   32.30
   1  -1   3 1091.39   32.30
   1  -1   3 1161.58   32.30
  -2   1  -3    6.60    0.90
  -2   1  -3    7.80    1.30
  -2   1  -3    7.10    1.00
   2  -1   3    7.20    1.40
   2  -1   3    6.70    1.00
   2  -1   3    6.50    1.00
  -3   1  -3  182.78    5.90
  -3   1  -3  181.88    7.30
   3  -1   3  180.98    5.90
   3  -1   3  196.38    6.40
   3  -1   3  187.78    6.40
   3  -1   3  194.18    7.10
  -4   1  -3  834.12   27.10
   4  -1   3  852.31   25.70
   4  -1   3  870.31   26.60
   4  -1   3  834.72   25.20
   4  -1   3  846.92   25.60
  -5   1  -3 1425.76   44.40
   5  -1   3 1369.76   41.90
   5  -1   3 1399.36   45.30
   5  -1   3 1446.16   42.30
   5  -1   3 1435.26   42.20
  -6   1  -3  535.15   19.60
   6  -1   3  505.35   16.40
   6  -1   3  501.75   18.30
   6  -1   3  533.95   16.90
   6  -1   3  541.15   16.80
  -7   1  -3  358.46   16.40
   7  -1   3  364.46   12.40
   7  -1   3  378.16   13.00
   7  -1   3  373.66   13.30
   8   0  -3  376.26   14.70
   7   0  -3  506.35   17.60
   7   0  -3  507.85   16.70
   7   0  -3  507.75   17.70
   6   0  -3  651.03   20.80
   6   0  -3  663.23   21.40
   6   0  -3  662.93   21.50
   5   0  -3  411.56   14.20
   5   0  -3  422.46   13.60
   5   0  -3  427.36   14.00
   4   0  -3 1762.72   52.89
   4   0  -3 1803.02   52.59
   4   0  -3 1744.63   52.19
   1   0  -3  686.43   19.90
   1   0  -3  680.93   20.00
   1   0  -3  687.13   20.00
  -1   0   3  656.13   19.90
  -1   0   3  704.43   19.90
  -1   0   3  616.44   19.90
   0   0  -3 1730.13   50.19
   0   0  -3 1704.43   50.39
   0   0  -3 1686.13   50.39
   0   0   3 1699.83   50.39
   0   0   3 1752.92   50.29
   0   0   3 1752.52   50.39
  -1   0  -3  845.12   25.20
  -1   0  -3  829.82   25.00
  -1   0  -3  844.32   25.10
  -1   0  -3  840.52   25.40
   1   0   3  834.32   25.30
   1   0   3  870.41   25.20
   1   0   3  857.31   25.20
  -2   0  -3  464.35   13.90
  -2   0  -3  453.05   14.60
  -2   0  -3  469.45   13.90
  -2   0  -3  449.06   13.90
   2   0   3  447.36   14.10
   2   0   3  456.25   14.00
   2   0   3  439.26   13.80
   2   0   3  461.75   14.30
  -3   0  -3  568.54   18.40
  -3   0  -3  573.54   17.40
   3   0   3  563.24   17.50
   3   0   3  550.54   17.30
   3   0   3  576.14   17.40
  -4   0  -3  593.84   20.10
  -4   0  -3  590.34   18.70
   4   0   3  605.74   18.60
   4   0   3  601.84   18.60
   4   0   3  607.54   19.40
   4   0   3  600.34   18.80
  -5   0  -3 2520.85   76.19
  -5   0  -3 2532.65   74.29
   5   0   3 2507.55   74.19
   5   0   3 2612.34   74.09
   5   0   3 2451.35   74.89
   5   0   3 2440.06   73.99
  -6   0  -3   10.40    3.90
   6   0   3   16.90    4.00
   6   0   3   14.60    3.30
  -7   0  -3   41.90    8.60
   7   0   3   33.40    7.30
   7   0   3   48.90    4.90
   7   0   3   55.49    5.70
   8  -1  -3  109.89    6.80
   8  -1  -3  115.59    7.00
   7  -1  -3  117.49    6.10
   7  -1  -3  109.19    6.10
   7  -1  -3  105.49    7.00
   6  -1  -3 3770.72  111.79
   6  -1  -3 3735.93  111.79
   6  -1  -3 3875.51  112.09
   5  -1  -3  151.78    6.20
   5  -1  -3  146.79    6.10
   4  -1  -3  603.54   19.20
   4  -1  -3  623.14   19.40
   3  -1  -3 1020.70   30.10
   3  -1  -3  969.00   30.00
  -3   1   3 1006.50   30.20
   2  -1  -3 1265.07   36.60
   2  -1  -3 1187.48   36.50
   2  -1  -3 1243.08   36.90
  -2   1   3 1292.17   36.40
  -2   1   3 1231.48   36.40
  -2   1   3 1249.97   37.00
   0  -1  -3  641.84   19.60
   0  -1  -3  644.24   19.50
   0  -1  -3  659.43   19.60
   0  -1  -3  647.84   19.40
   0   1   3  666.53   19.60
   0   1   3  616.14   19.60
   0   1   3  654.53   19.50
  -1  -1  -3 1937.81   57.69
  -1  -1  -3 1938.01   57.49
  -1  -1  -3 1958.80   57.69
  -1  -1  -3 1918.01   57.49
   1   1   3 2003.90   57.59
   1   1   3 1945.81   57.59
   1   1   3 1991.40   57.69
   1   1   3 1981.10   57.49
  -2  -1  -3  230.38    7.50
  -2  -1  -3  231.58    7.70
  -2  -1  -3  229.88    7.80
  -2  -1  -3  227.88    8.20
   2   1   3  238.58    8.00
   2   1   3  219.68    7.70
   2   1   3  227.98    7.80
   2   1   3  228.58    7.80
  -3  -1  -3    6.30    1.50
  -3  -1  -3    6.40    1.10
  -3  -1  -3    5.90    1.30
  -3  -1  -3    4.00    1.60
   3   1   3    5.50    1.30
   3   1   3    8.20    1.80
   3   1   3    5.30    1.30
   3   1   3    4.70    1.30
  -4  -1  -3  544.15   19.10
  -4  -1  -3  536.05   18.00
   4   1   3  562.64   17.90
   4   1   3  553.64   17.80
   4   1   3  574.34   18.00
   4   1   3  574.94   17.80
  -5  -1  -3  145.79    6.90
  -5  -1  -3  136.89    8.20
   5   1   3  145.49    6.70
   5   1   3  138.19    6.40
   5   1   3  142.19    6.60
   5   1   3  140.29    6.60
  -6  -1  -3  807.72   28.40
  -6  -1  -3  803.22   26.30
   6   1   3  810.72   26.20
   6   1   3  821.82   25.90
   6   1   3  783.02   25.90
   6   1   3  824.52   26.00
   8  -2  -3   59.69    5.10
   8  -2  -3   57.29    5.90
   7  -2  -3    6.60    2.30
   7  -2  -3    6.80    2.30
   7  -2  -3    8.50    3.00
   6  -2  -3 2245.98   67.49
   6  -2  -3 2297.27   68.29
   6  -2  -3 2257.27   68.09
   5  -2  -3  614.04   20.20
   5  -2  -3  629.64   20.20
   4  -2  -3   82.89    4.20
   4  -2  -3   85.19    3.10
  -4   2   3   87.09    4.30
   3  -2  -3  759.72   22.20
   3  -2  -3  742.83   22.30
   3  -2  -3  728.43   23.00
  -3   2   3  740.33   23.10
   1  -2  -3 1275.17   37.60
   1  -2  -3 1258.07   37.70
   1  -2  -3 1252.27   37.60
   1  -2  -3 1272.97   37.70
  -1   2   3 1264.77   37.70
  -1   2   3 1276.87   37.60
  -1   2   3 1258.87   37.80
   0  -2  -3 1508.65   43.70
   0  -2  -3 1422.16   43.70
   0  -2  -3 1487.65   43.40
   0  -2  -3 1388.66   43.50
   0   2   3 1543.15   43.70
   0   2   3 1411.16   43.60
   0   2   3 1491.05   43.80
   0   2   3 1496.05   43.60
  -1  -2  -3 1396.66   41.00
  -1  -2  -3 1356.26   41.00
  -1  -2  -3 1383.26   41.30
  -1  -2  -3 1381.76   41.20
   1   2   3 1372.96   41.20
   1   2   3 1379.06   40.90
   1   2   3 1420.26   41.30
   1   2   3 1335.67   41.30
  -2  -2  -3 2457.05   71.59
  -2  -2  -3 2434.76   70.99
  -2  -2  -3 2340.77   71.29
  -2  -2  -3 2407.76   71.69
   2   2   3 2380.56   71.09
   2   2   3 2386.86   71.49
   2   2   3 2441.76   71.49
   2   2   3 2494.75   71.69
  -3  -2  -3  358.66   11.60
  -3  -2  -3  370.86   11.80
  -3  -2  -3  375.96   12.80
  -3  -2  -3  369.26   13.20
   3   2   3  366.26   12.50
   3   2   3  363.06   12.60
   3   2   3  372.06   12.60
   3   2   3  358.76   12.10
  -4  -2  -3   92.39    5.50
  -4  -2  -3   87.89    6.10
   4   2   3   89.39    4.90
   4   2   3   91.99    5.10
   4   2   3   91.59    5.50
   4   2   3   84.99    5.00
  -5  -2  -3  108.79    8.20
   5   2   3  116.79    7.40
   5   2   3  114.59    6.30
   5   2   3  122.09    6.60
   5   2   3  122.39    6.60
  -6  -2  -3   90.29    8.20
  -6  -2  -3   73.19    9.70
   6   2   3   79.09    7.20
   6   2   3   80.09    6.90
   9  -3  -3  202.68   11.40
   8  -3  -3  127.29    7.90
   8  -3  -3  123.19    6.60
   7  -3  -3    0.20    1.80
   7  -3  -3    3.90    2.20
   7  -3  -3    1.80    3.40
   6  -3  -3   -1.80    2.40
   6  -3  -3   -0.80    1.70
   5  -3  -3  325.77   11.90
   5  -3  -3  323.17   10.40
   5  -3  -3  326.77   10.40
   4  -3  -3 3657.63  108.09
   4  -3  -3 3711.43  108.09
   4  -3  -3 3738.43  109.19
  -4   3   3 3700.93  109.39
   3  -3  -3  903.01   27.70
   3  -3  -3  872.41   27.00
   3  -3  -3  901.01   27.00
   3  -3  -3  905.11   27.30
  -3   3   3  894.01   26.70
  -3   3   3  874.41   26.70
   2  -3  -3 1903.81   60.19
   2  -3  -3 2099.39   60.39
   2  -3  -3 2102.49   60.49
   2  -3  -3 2018.30   60.49
  -2   3   3 2035.20   60.79
  -2   3   3 1996.90   60.19
  -2   3   3 2124.59   60.29
   1  -3  -3  975.50   29.10
   1  -3  -3  895.31   29.00
   1  -3  -3  968.00   29.30
   1  -3  -3  978.70   29.00
  -1   3   3  966.60   29.30
  -1   3   3  946.91   29.20
  -1   3   3  948.81   29.20
  -1   3   3  974.40   29.20
   0  -3  -3  197.98    7.10
   0  -3  -3  206.18    7.40
   0  -3  -3  205.78    7.50
   0  -3  -3  192.08    7.50
   0   3   3  220.48    7.70
   0   3   3  212.18    7.60
   0   3   3  201.38    7.60
   0   3   3  199.98    7.40
  -1  -3  -3  196.28    7.50
  -1  -3  -3  198.08    7.40
  -1  -3  -3  187.08    6.90
  -1  -3  -3  181.88    7.10
   1   3   3  201.88    7.60
   1   3   3  198.48    7.50
   1   3   3  191.38    7.50
   1   3   3  188.08    7.10
  -2  -3  -3  815.62   25.80
  -2  -3  -3  791.62   25.30
  -2  -3  -3  822.02   25.00
  -2  -3  -3  826.92   25.70
   2   3   3  823.12   25.10
   2   3   3  817.32   25.70
   2   3   3  798.02   25.70
   2   3   3  803.42   25.60
  -3  -3  -3  366.66   13.50
  -3  -3  -3  365.76   13.40
  -3  -3  -3  360.56   11.90
  -3  -3  -3  357.56   12.20
   3   3   3  356.96   13.00
   3   3   3  345.77   12.30
   3   3   3  365.16   13.00
   3   3   3  384.36   13.20
  -4  -3  -3  245.18   11.10
   4   3   3  227.18    9.30
   4   3   3  243.88   10.60
   4   3   3  252.17   10.10
   4   3   3  241.78   10.10
  -5  -3  -3   43.50    7.90
   5   3   3   34.60    5.80
   5   3   3   31.40    5.40
   5   3   3   42.40    5.90
   9  -4  -3  114.49    9.70
   8  -4  -3   18.50    4.00
   8  -4  -3   25.10    4.20
   7  -4  -3   71.89    6.80
   7  -4  -3   63.79    3.70
   7  -4  -3   59.29    5.70
   7  -4  -3   61.19    3.90
   6  -4  -3  156.28    8.10
   6  -4  -3  158.38    6.10
   6  -4  -3  152.28    6.10
   6  -4  -3  155.68    7.80
   5  -4  -3  180.98    6.80
   5  -4  -3  175.28    8.10
   5  -4  -3  183.98    6.80
   4  -4  -3 1270.47   37.40
   4  -4  -3 1220.48   38.10
   4  -4  -3 1207.98   37.20
   4  -4  -3 1208.38   37.20
  -4   4   3 1249.47   38.50
  -4   4   3 1210.08   36.60
  -4   4   3 1247.38   36.60
   3  -4  -3 2346.37   67.69
   3  -4  -3 2338.17   67.59
   3  -4  -3 2175.48   67.49
   3  -4  -3 2321.27   68.09
  -3   4   3 2259.67   68.39
  -3   4   3 2205.78   67.29
  -3   4   3 2298.47   67.29
   2  -4  -3 2312.27   65.49
   2  -4  -3 2301.77   65.69
   2  -4  -3 1991.50   65.49
   2  -4  -3 2192.98   65.49
  -2   4   3 2180.08   65.39
  -2   4   3 2147.69   65.39
  -2   4   3 2295.17   66.09
   1  -4  -3 2618.54   81.89
   1  -4  -3 2890.31   81.79
   1  -4  -3 2836.62   82.29
   1  -4  -3 2813.52   81.99
  -1   4   3 2733.23   82.09
  -1   4   3 2764.62   82.09
  -1   4   3 2806.82   82.29
  -1   4   3 2713.23   82.09
   0  -4  -3  100.99    4.80
   0  -4  -3   97.39    5.10
   0  -4  -3   95.79    4.40
   0  -4  -3  106.99    5.10
   0   4   3   97.39    5.10
   0   4   3  100.99    5.00
   0   4   3   98.09    4.90
   0   4   3   95.49    5.00
  -1  -4  -3   69.89    4.70
  -1  -4  -3   78.59    4.70
  -1  -4  -3   74.59    4.00
  -1  -4  -3   67.29    4.20
   1   4   3   74.89    4.90
   1   4   3   68.29    4.50
   1   4   3   73.49    4.60
  -2  -4  -3   60.19    5.20
  -2  -4  -3   68.19    4.90
  -2  -4  -3   57.29    4.00
  -2  -4  -3   62.79    4.50
   2   4   3   66.49    5.30
   2   4   3   61.79    4.30
   2   4   3   65.39    4.80
   2   4   3   56.49    4.50
  -3  -4  -3   85.49    4.70
  -3  -4  -3   94.69    5.30
  -3  -4  -3   86.09    6.60
  -3  -4  -3   82.19    7.00
   3   4   3   86.69    7.10
   3   4   3   75.59    5.40
   3   4   3   85.39    6.00
   3   4   3   89.39    6.00
  -4  -4  -3  103.69    8.50
   4   4   3   89.09    6.80
   4   4   3   84.89    7.10
   4   4   3   99.29    7.40
   9  -5  -3   -2.10    4.60
   8  -5  -3    5.50    2.70
   8  -5  -3   -0.60    3.30
   8  -5  -3    6.30    3.60
   8  -5  -3    1.70    2.40
   7  -5  -3   31.70    3.80
   7  -5  -3   42.50    5.80
   7  -5  -3   30.60    4.10
   7  -5  -3   40.60    4.50
   7  -5  -3   31.00    6.80
   6  -5  -3   12.40    2.50
   6  -5  -3   10.30    2.20
   6  -5  -3   10.10    2.20
   6  -5  -3   10.10    2.80
   5  -5  -3  750.82   24.50
   5  -5  -3  786.62   24.50
   5  -5  -3  773.12   25.70
   5  -5  -3  792.02   24.60
  -5   5   3  769.52   25.90
   4  -5  -3  314.47   11.10
   4  -5  -3  307.47   11.90
   4  -5  -3  308.87   11.20
   4  -5  -3  331.37   11.40
  -4   5   3  321.07   10.80
  -4   5   3  299.57   10.60
  -4   5   3  308.87   12.30
   3  -5  -3  955.60   30.60
   3  -5  -3  961.10   30.40
   3  -5  -3  979.40   30.70
   3  -5  -3 1003.40   30.30
  -3   5   3  949.01   30.20
  -3   5   3 1020.60   30.40
  -3   5   3  962.60   31.20
   2  -5  -3   28.90    3.20
   2  -5  -3   26.50    3.10
   2  -5  -3   31.90    3.40
   2  -5  -3   25.80    3.00
  -2   5   3   28.00    3.20
  -2   5   3   27.30    3.50
  -2   5   3   30.10    3.00
  -2   5   3   28.90    3.20
   1  -5  -3   66.79    4.50
   1  -5  -3   68.09    4.10
   1  -5  -3   65.29    4.20
   1  -5  -3   74.39    4.80
  -1   5   3   63.69    4.30
  -1   5   3   67.19    4.40
  -1   5   3   68.19    4.60
  -1   5   3   65.69    4.60
   0  -5  -3  347.87   13.00
   0  -5  -3  350.36   12.00
   0  -5  -3  346.67   12.60
   0   5   3  337.27   12.90
   0   5   3  365.86   13.00
   0   5   3  356.96   12.80
  -1  -5  -3    0.60    2.00
  -1  -5  -3   -1.60    2.20
  -1  -5  -3    2.80    1.80
   1   5   3    1.50    2.10
   1   5   3    2.30    2.10
   1   5   3    0.20    2.00
   1   5   3    1.10    2.40
  -2  -5  -3   30.90    7.00
  -2  -5  -3   51.89    5.40
  -2  -5  -3   50.99    4.70
  -2  -5  -3   48.10    5.50
   2   5   3   31.80    6.40
   2   5   3   50.29    5.30
   2   5   3   46.00    5.20
   2   5   3   49.90    5.50
  -3  -5  -3   -2.20    3.10
  -3  -5  -3    4.20    4.50
  -3  -5  -3   -0.50    2.30
   3   5   3    1.40    3.30
   3   5   3    3.10    3.40
   3   5   3    0.60    3.40
   8  -6  -3  425.96   15.60
   8  -6  -3  419.06   14.90
   8  -6  -3  403.36   17.60
   8  -6  -3  412.66   15.50
   7  -6  -3  202.88    9.00
   7  -6  -3  209.38   11.00
   7  -6  -3  207.48    9.50
   7  -6  -3  216.88    9.20
   6  -6  -3   16.30    3.90
   6  -6  -3   10.90    2.80
   6  -6  -3   12.80    3.10
   6  -6  -3   16.50    5.00
   5  -6  -3  153.08    7.10
   5  -6  -3  151.48    7.20
   5  -6  -3  146.09    8.10
   5  -6  -3  143.29    7.50
  -5   6   3  152.38    6.30
   4  -6  -3  684.13   21.90
   4  -6  -3  682.73   22.10
   4  -6  -3  653.43   22.30
   4  -6  -3  677.63   22.60
  -4   6   3  660.53   23.20
  -4   6   3  663.23   21.70
  -4   6   3  662.23   21.50
   3  -6  -3  329.77   12.30
   3  -6  -3  325.47   12.50
   3  -6  -3  295.37   11.90
   3  -6  -3  319.17   11.90
  -3   6   3  333.17   11.90
  -3   6   3  322.37   12.80
  -3   6   3  307.77   11.90
   2  -6  -3  140.99    7.10
   2  -6  -3  146.69    6.80
   2  -6  -3  135.79    6.90
  -2   6   3  148.39    7.60
  -2   6   3  116.79    6.70
  -2   6   3  133.29    7.00
  -2   6   3  123.89    6.60
   1  -6  -3   11.10    3.30
   1  -6  -3   13.20    3.60
  -1   6   3    9.30    2.70
  -1   6   3    9.20    2.50
  -1   6   3   13.30    2.90
   0  -6  -3  115.99    6.00
   0  -6  -3  119.69    6.50
   0   6   3  100.39    6.50
   0   6   3  111.19    7.00
   0   6   3   77.19   10.00
   0   6   3   96.59    6.50
  -1  -6  -3 1656.53   50.49
  -1  -6  -3 1568.54   50.89
  -1  -6  -3 1724.33   49.99
   1   6   3 1683.63   51.59
   1   6   3 1605.14   50.79
   1   6   3 1634.84   51.29
  -2  -6  -3  255.47   10.80
  -2  -6  -3  243.48   11.70
  -2  -6  -3  271.97   12.20
   2   6   3  245.28   12.10
   2   6   3  245.38   12.70
   2   6   3  253.97   12.10
   8  -7  -3   12.50    3.80
   8  -7  -3    6.10    5.00
   8  -7  -3    9.10    6.00
   7  -7  -3  225.78   10.60
   7  -7  -3  228.38   11.30
   7  -7  -3  240.08   12.60
   7  -7  -3  240.58   10.50
   6  -7  -3   18.70    4.30
   6  -7  -3   14.20    3.80
   6  -7  -3   23.30    5.30
   6  -7  -3   17.70    4.70
  -6   7   3   21.70    3.40
   5  -7  -3    8.40    3.10
   5  -7  -3    1.70    2.90
   5  -7  -3    8.90    3.20
   5  -7  -3    8.40    3.70
  -5   7   3    6.30    2.50
  -5   7   3   -1.20    3.90
  -5   7   3    3.80    2.20
   4  -7  -3  228.58   10.00
   4  -7  -3  211.88   10.20
   4  -7  -3  215.98    9.50
   4  -7  -3  200.48    9.40
  -4   7   3  180.88    8.60
  -4   7   3  177.68    9.00
  -4   7   3  210.68   10.70
   3  -7  -3  118.99    8.20
   3  -7  -3  131.29    7.60
   3  -7  -3  135.29    7.60
   3  -7  -3  137.69    8.10
  -3   7   3  135.69    8.70
  -3   7   3  153.08    7.40
   2  -7  -3  211.68   10.60
   2  -7  -3  229.18   10.30
   2  -7  -3  237.68    9.90
  -2   7   3  233.18   11.20
  -2   7   3  229.98   11.00
  -2   7   3  233.28   10.40
  -2   7   3  238.48   10.40
   1  -7  -3   92.09    6.10
   1  -7  -3   91.29    6.80
  -1   7   3   91.79    7.80
  -1   7   3   96.19    6.90
  -1   7   3   91.19    6.80
   0  -7  -3   35.80    5.40
   0  -7  -3   33.50    6.10
   0   7   3   41.40    6.10
   0   7   3   40.00    7.70
   0   7   3   31.60    6.10
  -1  -7  -3   30.20    7.00
  -1  -7  -3   36.10    7.00
   1   7   3   28.10    7.00
   1   7   3   36.40    7.30
   7  -8  -3   49.80    7.50
   7  -8  -3   60.69    9.40
   7  -8  -3   49.50   10.00
   6  -8  -3   98.99    9.10
   6  -8  -3   83.19    8.00
   6  -8  -3   82.59    7.90
  -6   8   3   77.29    7.10
   5  -8  -3  143.99    9.40
   5  -8  -3  135.29    8.80
  -5   8   3  131.69    7.60
   4  -8  -3   31.40    6.20
   4  -8  -3   31.70    6.70
  -4   8   3   27.50    5.20
   3  -8  -3    4.90    3.40
   3  -8  -3    6.20    3.80
  -3   8   3    5.40    3.20
   2  -8  -3   42.90    6.00
   2  -8  -3   48.90    6.90
  -2   8   3   52.09    6.80
  -2   8   3   41.80    6.50
   1  -8  -3    7.80    3.40
   1  -8  -3   10.60    4.30
  -1   8   3    5.60    4.10
  -1   8   3    3.30    3.70
   5  -9  -3  595.14   22.90
  -5   9   3  597.94   21.30
   4  -9  -3   97.59    9.70
  -4   9   3   85.49    8.00
  -2   9  -4    4.90    4.00
  -2   9  -4    4.30    4.30
   2  -9   4   -1.70    5.00
   2  -9   4    3.80    4.30
  -3   9  -4   -1.70    3.90
  -3   9  -4    5.20    3.90
   3  -9   4   -5.30    4.80
   3  -9   4    0.70    5.00
  -4   9  -4    8.50    3.90
  -4   9  -4    6.90    4.10
   4  -9   4   12.10    5.30
   4  -9   4    7.80    5.10
   0   8  -4 1148.49   37.70
   0   8  -4 1149.19   38.40
   0  -8   4 1163.48   35.40
   0  -8   4 1167.58   38.00
  -1   8  -4    2.10    3.50
  -1   8  -4    0.60    2.90
   1  -8   4    4.00    3.10
   1  -8   4   -5.00    3.90
  -2   8  -4   -2.70    2.90
  -2   8  -4    4.50    2.90
   2  -8   4   -2.00    4.00
   2  -8   4   -2.90    4.60
   2  -8   4   -2.00    3.50
  -3   8  -4  107.79    6.70
  -3   8  -4  110.19    7.60
   3  -8   4  104.09    8.20
   3  -8   4  111.69    8.60
   3  -8   4  118.19    8.00
  -4   8  -4   64.99    5.50
  -4   8  -4   63.49    6.00
  -4   8  -4   58.49    6.90
   4  -8   4   53.39    7.30
   4  -8   4   63.19    7.90
   4  -8   4   62.79    6.60
  -5   8  -4    0.70    2.90
   5  -8   4   -3.20    3.90
   5  -8   4   -5.80    3.70
  -6   8  -4   25.00    4.80
   6  -8   4   17.40    5.30
   6  -8   4   15.40    4.80
   2   7  -4    8.90    4.20
   2   7  -4    3.70    4.00
  -2  -7   4    2.60    3.90
  -2  -7   4    6.20    3.90
  -2  -7   4   -0.70    4.20
   1   7  -4  549.35   19.90
   1   7  -4  537.45   19.20
  -1  -7   4  436.86   18.60
  -1  -7   4  526.95   16.30
  -1  -7   4  564.34   19.30
   0   7  -4   64.29    6.10
   0   7  -4   68.09    5.60
   0  -7   4   55.89    6.80
   0  -7   4   59.69    4.60
   0  -7   4   67.99    6.60
  -1   7  -4   84.39    6.20
   1  -7   4   64.99    6.80
   1  -7   4   86.39    5.90
   1  -7   4   84.59    6.70
   1  -7   4   80.39    6.70
  -2   7  -4   30.70    3.80
  -2   7  -4   30.10    4.40
  -2   7  -4   34.20    5.10
   2  -7   4   20.50    4.80
   2  -7   4   41.30    5.30
   2  -7   4   30.80    5.20
  -3   7  -4  106.79    6.50
  -3   7  -4  119.49    5.90
   3  -7   4  112.99    7.30
   3  -7   4  125.29    7.90
   3  -7   4  104.09    7.30
   3  -7   4  124.69    6.50
  -4   7  -4  552.84   20.30
  -4   7  -4  619.74   19.70
   4  -7   4  580.54   21.10
   4  -7   4  624.04   19.70
   4  -7   4  645.04   21.50
   4  -7   4  632.64   22.30
  -5   7  -4  163.48    7.50
  -5   7  -4  161.38    7.50
   5  -7   4  161.68    8.80
   5  -7   4  158.48    6.50
   5  -7   4  135.39    8.70
   5  -7   4  171.88   10.10
  -6   7  -4   30.00    3.80
   6  -7   4   32.30    6.00
   6  -7   4   30.80    7.60
   7  -7   4   85.49   10.30
   7  -7   4   84.49    8.10
   3   6  -4  101.69    8.00
   3   6  -4  102.19    7.90
  -3  -6   4  106.59    6.60
  -3  -6   4  115.59    7.70
  -3  -6   4   84.89    7.30
   2   6  -4  202.58    9.50
   2   6  -4  192.58    9.60
  -2  -6   4  190.28    9.00
  -2  -6   4  199.78    8.50
  -2  -6   4  192.18    9.10
   1   6  -4   19.80    4.20
   1   6  -4   21.10    4.10
   1   6  -4   16.30    3.50
  -1  -6   4   18.10    2.40
  -1  -6   4   21.10    5.60
  -1  -6   4   17.40    4.60
   0   6  -4   17.10    3.10
   0  -6   4   11.70    3.20
   0  -6   4   17.20    3.60
  -1   6  -4   34.20    3.90
  -1   6  -4   28.20    6.00
  -1   6  -4   34.00    3.40
   1  -6   4   35.10    4.40
   1  -6   4   42.70    4.10
   1  -6   4   40.90    4.30
   1  -6   4   40.10    4.50
  -2   6  -4 3159.58   93.39
  -2   6  -4 2989.90   93.39
  -2   6  -4 3098.19   92.69
   2  -6   4 3268.57   93.79
   2  -6   4 3169.28   92.79
  -3   6  -4    5.80    2.00
  -3   6  -4    7.10    1.70
  -3   6  -4    3.00    1.90
   3  -6   4    4.80    2.40
   3  -6   4    7.10    2.40
   3  -6   4    8.50    2.10
   3  -6   4    5.00    2.20
  -4   6  -4  457.95   14.60
  -4   6  -4  422.06   14.70
   4  -6   4  423.16   15.20
   4  -6   4  371.36   15.10
   4  -6   4  434.86   13.70
   4  -6   4  435.66   16.50
  -5   6  -4  501.05   15.90
  -5   6  -4  487.65   16.00
   5  -6   4  491.45   17.10
   5  -6   4  476.45   18.70
   5  -6   4  470.05   17.10
   6  -6   4  142.59    8.10
   6  -6   4  154.28    8.00
   6  -6   4  148.89   10.00
   7  -6   4  263.17   12.00
   7  -6   4  282.37   11.80
   7  -6   4  266.77   14.40
   4   5  -4   30.40    5.80
   4   5  -4   35.10    6.10
  -4  -5   4   29.80    6.00
   3   5  -4  100.89    7.30
   3   5  -4  103.09    6.80
   3   5  -4   99.29    6.70
  -3  -5   4  108.59    6.20
  -3  -5   4  110.59    5.80
  -3  -5   4  106.79    5.70
   2   5  -4   40.10    4.40
   2   5  -4   50.79    4.90
   2   5  -4   53.29    4.50
  -2  -5   4   49.70    4.50
  -2  -5   4   49.20    3.70
  -2  -5   4   48.50    4.30
   1   5  -4  619.24   20.00
   1   5  -4  559.74   20.00
   1   5  -4  632.04   20.30
  -1  -5   4  583.24   19.60
  -1  -5   4  599.64   19.90
  -1  -5   4  584.94   18.20
  -1  -5   4  604.74   20.20
   0   5  -4    3.40    1.60
   0   5  -4    0.10    1.60
   0   5  -4    0.80    1.40
   0  -5   4   -0.80    1.70
   0  -5   4    0.50    1.70
   0  -5   4    1.50    1.40
   0  -5   4    4.00    2.00
  -1   5  -4  169.28    7.30
  -1   5  -4  171.48    7.30
  -1   5  -4  177.38    6.80
   1  -5   4  169.38    7.00
   1  -5   4  170.58    7.20
   1  -5   4  175.78    7.30
   1  -5   4  160.68    7.30
  -2   5  -4   46.90    3.50
  -2   5  -4   51.19    3.00
  -2   5  -4   47.50    3.60
   2  -5   4   46.40    3.20
   2  -5   4   50.19    3.80
   2  -5   4   47.70    4.10
   2  -5   4   52.89    3.90
  -3   5  -4  213.98    8.20
  -3   5  -4  224.28    8.10
  -3   5  -4  200.18    7.20
   3  -5   4  211.08    8.40
   3  -5   4  211.38    8.60
   3  -5   4  203.98    7.30
   3  -5   4  207.38    9.20
  -4   5  -4   18.90    2.50
  -4   5  -4   13.90    2.50
   4  -5   4   12.70    2.40
   4  -5   4   19.90    3.20
   4  -5   4   14.30    4.00
   4  -5   4   10.90    2.70
  -5   5  -4  113.39    4.70
  -5   5  -4  113.79    4.70
   5  -5   4  112.99    6.00
   5  -5   4  112.19    6.00
   5  -5   4  112.59    7.50
   6  -5   4  139.69    9.00
   6  -5   4  123.79    8.80
   6  -5   4  140.09    7.00
   6  -5   4  144.89    7.00
   7  -5   4   25.10    5.70
   7  -5   4   29.20    7.20
   7  -5   4   30.90    4.90
   8  -5   4   94.39   10.60
   8  -5   4   93.79    7.40
   5   4  -4    1.90    3.00
   5   4  -4   -1.80    3.50
   5   4  -4    0.00    3.90
  -5  -4   4    0.40    3.90
   4   4  -4  645.44   22.00
   4   4  -4  678.33   22.50
   4   4  -4  630.44   22.00
  -4  -4   4  671.43   21.60
   3   4  -4   -2.60    1.90
   3   4  -4   -1.10    1.60
   3   4  -4   -0.10    1.90
  -3  -4   4   -1.50    1.50
  -3  -4   4   -0.80    1.40
  -3  -4   4    1.00    1.90
   2   4  -4   24.60    3.00
   2   4  -4   19.70    2.90
   2   4  -4   20.40    3.20
  -2  -4   4   21.40    2.40
  -2  -4   4   17.40    2.90
  -2  -4   4   16.70    3.70
  -2  -4   4   23.90    2.70
   1   4  -4  319.47   11.20
   1   4  -4  292.17   11.20
   1   4  -4  328.47   11.40
  -1  -4   4  337.07   11.00
  -1  -4   4  311.27   11.10
  -1  -4   4  302.97    9.90
  -1  -4   4  317.57   11.40
   0   4  -4    0.80    1.00
   0   4  -4   -1.10    1.10
   0   4  -4   -1.50    1.00
   0  -4   4   -0.40    1.30
   0  -4   4   -1.70    1.30
   0  -4   4    1.20    1.00
   0  -4   4   -0.90    1.20
  -1   4  -4   58.09    3.40
  -1   4  -4   53.09    3.40
  -1   4  -4   59.39    3.00
   1  -4   4   52.79    3.50
   1  -4   4   56.69    3.20
   1  -4   4   53.29    3.40
   1  -4   4   57.99    3.50
  -2   4  -4   85.89    4.40
  -2   4  -4   93.49    4.50
  -2   4  -4   95.99    3.80
   2  -4   4   87.79    4.70
   2  -4   4   98.29    3.90
   2  -4   4   99.49    4.70
  -3   4  -4  258.67    9.20
  -3   4  -4  258.17    8.30
  -3   4  -4  268.17    9.10
   3  -4   4  266.87   10.00
   3  -4   4  261.47    8.30
   3  -4   4  264.97    9.50
   3  -4   4  264.87    9.50
  -4   4  -4 2898.61   83.59
  -4   4  -4 2829.12   83.69
   4  -4   4 2874.81   85.09
   4  -4   4 2817.32   84.29
   4  -4   4 2826.12   84.19
   5  -4   4  610.44   21.00
   5  -4   4  619.54   19.80
   5  -4   4  614.04   19.90
   6  -4   4  240.88    9.30
   6  -4   4  234.08    9.20
   7  -4   4    7.30    2.60
   7  -4   4    3.90    2.90
   7  -4   4    4.40    4.00
   8  -4   4   29.10    8.80
   6   3  -4  313.27   12.50
   6   3  -4  298.67   12.90
   6   3  -4  320.97   13.50
  -6  -3   4  316.47   13.50
   5   3  -4  477.95   16.90
   5   3  -4  477.95   17.60
   5   3  -4  501.95   16.90
  -5  -3   4  507.05   17.30
   4   3  -4  946.61   29.50
   4   3  -4  936.51   30.10
   4   3  -4  933.11   29.50
  -4  -3   4  948.31   29.30
   3   3  -4  309.47   11.30
   3   3  -4  305.97   10.90
   3   3  -4  315.67   11.00
  -3  -3   4  300.37    9.90
  -3  -3   4  308.57   11.60
  -3  -3   4  299.77   10.40
  -3  -3   4  304.87   10.00
   2   3  -4  411.16   13.80
   2   3  -4  423.16   13.90
   2   3  -4  412.16   14.00
  -2  -3   4  417.36   13.50
  -2  -3   4  410.16   13.30
  -2  -3   4  419.06   13.00
  -2  -3   4  414.16   14.20
   1   3  -4  704.43   23.10
   1   3  -4  771.22   23.20
   1   3  -4  742.63   23.10
  -1  -3   4  734.53   23.20
  -1  -3   4  731.23   23.00
  -1  -3   4  733.43   22.20
  -1  -3   4  777.42   22.90
   0   3  -4  168.18    6.10
   0   3  -4  165.48    6.30
   0   3  -4  168.68    6.30
   0  -3   4  169.58    6.20
   0  -3   4  168.48    6.20
   0  -3   4  153.48    6.30
  -1   3  -4  933.11   28.40
  -1   3  -4  980.50   28.60
  -1   3  -4  913.31   27.90
   1  -3   4  905.61   28.50
   1  -3   4  935.01   28.00
  -2   3  -4   60.69    3.00
  -2   3  -4   62.49    2.40
  -2   3  -4   60.99    3.10
   2  -3   4   59.89    3.20
   2  -3   4   60.99    3.40
   2  -3   4   61.29    3.20
  -3   3  -4   45.60    2.60
  -3   3  -4   44.90    2.60
   3  -3   4   42.70    3.30
   3  -3   4   46.10    2.90
   3  -3   4   51.89    2.90
  -4   3  -4 1103.99   33.10
  -4   3  -4 1104.89   33.00
   4  -3   4 1129.89   33.80
   4  -3   4 1139.09   34.80
   4  -3   4 1104.89   33.90
   5  -3   4 1125.29   36.20
   5  -3   4 1136.99   35.00
   5  -3   4 1196.38   35.00
   6  -3   4  779.72   24.20
   6  -3   4  768.22   24.30
   7  -3   4  315.07   11.70
   7  -3   4  325.67   11.70
   8  -3   4  176.68   12.20
   7   2  -4  385.16   15.70
   6   2  -4  568.34   18.90
   6   2  -4  578.74   18.80
   6   2  -4  577.44   20.00
  -6  -2   4  553.74   19.90
   5   2  -4  184.18    8.20
   5   2  -4  163.08    7.30
   5   2  -4  186.48    7.30
  -5  -2   4  184.88    8.00
   4   2  -4  359.76   12.30
   4   2  -4  381.26   13.20
   4   2  -4  366.36   12.40
  -4  -2   4  371.76   12.60
   3   2  -4 2103.89   60.29
   3   2  -4 2023.90   60.19
   3   2  -4 1987.30   60.79
  -3  -2   4 2021.90   59.99
  -3  -2   4 2033.70   60.99
   2   2  -4 2062.79   60.39
   2   2  -4 2049.29   60.29
   2   2  -4 2032.90   60.69
  -2  -2   4 2056.39   59.89
  -2  -2   4 2001.30   59.69
  -2  -2   4 2055.39   60.09
   1   2  -4  207.48    7.20
   1   2  -4  204.88    7.20
   1   2  -4  207.38    7.10
  -1  -2   4  205.68    7.30
  -1  -2   4  203.08    6.90
  -1  -2   4  197.08    7.10
   0   2  -4  120.09    4.60
   0   2  -4  124.49    4.70
   0   2  -4  124.19    4.50
   0  -2   4  118.29    4.60
   0  -2   4  119.79    4.70
  -1   2  -4  346.87   10.80
  -1   2  -4  339.37   10.30
  -1   2  -4  326.97   10.70
   1  -2   4  330.47   10.90
   1  -2   4  334.87   10.60
   1  -2   4  325.07   10.70
  -2   2  -4   86.19    3.60
  -2   2  -4   93.99    3.70
   2  -2   4   88.69    3.80
   2  -2   4   84.29    4.00
   2  -2   4   92.09    3.80
  -3   2  -4  673.83   20.90
  -3   2  -4  695.53   22.20
   3  -2   4  695.63   21.80
   3  -2   4  692.23   21.20
   3  -2   4  695.13   21.30
  -4   2  -4  560.94   19.10
   4  -2   4  564.44   17.70
   4  -2   4  572.54   17.70
   4  -2   4  560.14   18.60
  -5   2  -4 2350.96   77.69
   5  -2   4 2733.83   75.89
   5  -2   4 2624.74   75.89
   6  -2   4   73.89    4.60
   6  -2   4   76.39    4.50
   7  -2   4   37.20    4.60
   7  -2   4   38.80    5.20
   7   1  -4  131.89    7.90
   7   1  -4  130.19    6.30
   6   1  -4 1837.32   55.79
   6   1  -4 1910.11   55.89
   6   1  -4 1891.41   57.29
   5   1  -4  309.77   11.00
   5   1  -4  299.37    9.80
   5   1  -4  288.37    9.70
   5   1  -4  265.77    9.90
  -5  -1   4  287.17   10.80
   4   1  -4   79.19    3.40
   4   1  -4   75.59    3.50
   4   1  -4   72.49    4.20
   4   1  -4   80.09    3.50
  -4  -1   4   74.49    3.90
   3   1  -4 1233.08   35.60
   3   1  -4 1202.08   35.40
   3   1  -4 1178.98   36.40
   3   1  -4 1211.18   35.70
  -3  -1   4 1175.18   35.70
   2   1  -4  124.29    4.60
   2   1  -4  127.69    4.50
   2   1  -4  120.59    4.90
  -2  -1   4  126.59    4.20
  -2  -1   4  121.39    4.00
  -2  -1   4  119.49    4.30
   0   1  -4 1899.31   53.59
   0   1  -4 1796.92   53.19
   0   1  -4 1825.02   53.59
   0  -1   4 1721.43   53.59
   0  -1   4 1855.11   53.09
   0  -1   4 1834.02   53.49
   1  -1   4 4128.69  121.99
   1  -1   4 4181.48  122.19
   1  -1   4 4263.27  122.09
  -2   1  -4    1.20    0.70
  -2   1  -4    1.20    1.10
  -2   1  -4    0.50    0.40
  -2   1  -4    0.90    0.60
   2  -1   4    1.70    1.00
   2  -1   4   -0.10    0.60
   2  -1   4    0.80    0.70
  -3   1  -4  109.59    5.30
  -3   1  -4  113.89    3.80
  -3   1  -4  115.29    4.10
  -3   1  -4  112.79    4.10
   3  -1   4  121.39    4.50
   3  -1   4  104.79    4.90
   3  -1   4  113.89    4.50
  -4   1  -4  508.85   15.60
  -4   1  -4  516.75   17.70
   4  -1   4  516.85   17.10
   4  -1   4  535.55   16.20
   4  -1   4  488.45   15.60
   4  -1   4  515.85   16.30
  -5   1  -4   70.19    5.70
   5  -1   4   68.59    4.10
   5  -1   4   69.09    3.20
   5  -1   4   69.99    4.00
  -6   1  -4  710.23   25.30
   6  -1   4  716.33   22.60
   6  -1   4  733.93   22.70
   6  -1   4  699.63   21.90
  -7   1  -4   53.89    8.70
   7  -1   4   43.80    5.20
   8   0  -4   48.60    6.50
   7   0  -4   60.09    5.70
   7   0  -4   59.09    4.10
   7   0  -4   63.69    5.40
   6   0  -4 1440.46   44.00
   6   0  -4 1401.26   42.80
   6   0  -4 1453.75   43.50
   5   0  -4   73.59    4.30
   5   0  -4   75.09    4.10
   5   0  -4   69.89    3.40
   4   0  -4   35.40    1.80
   4   0  -4   34.60    2.10
   4   0  -4   37.70    1.90
   4   0  -4   33.80    2.40
   4   0  -4   37.20    2.80
   3   0  -4    0.40    0.80
   3   0  -4    1.60    0.70
   3   0  -4    4.00    0.90
   3   0  -4    0.40    0.60
   3   0  -4    1.40    0.90
  -3   0   4    1.10    0.70
   1   0  -4 1722.93   50.39
   1   0  -4 1771.02   50.49
   1   0  -4 1668.73   50.59
  -1   0   4 1800.82   50.39
  -1   0   4 1686.13   50.49
  -1   0   4 1680.93   50.49
   0   0  -4 1709.83   49.90
   0   0  -4 1676.23   50.29
   0   0  -4 1715.13   50.19
   0   0   4 1771.02   50.19
   0   0   4 1593.84   50.19
   0   0   4 1778.22   50.09
  -1   0  -4 2885.51   82.49
  -1   0  -4 2806.42   82.29
  -1   0  -4 2788.72   82.49
  -1   0  -4 2759.72   82.09
   1   0   4 2718.13   82.49
   1   0   4 2776.62   82.29
   1   0   4 2894.51   82.49
   1   0   4 2902.51   82.29
  -2   0  -4 4451.15  132.79
  -2   0  -4 4474.75  132.09
  -2   0  -4 4688.53  132.29
   2   0   4 4625.94  132.29
   2   0   4 4526.05  132.39
   2   0   4 4354.96  131.99
   2   0   4 4641.64  132.39
  -3   0  -4 1214.18   37.70
  -3   0  -4 1211.18   36.20
  -3   0  -4 1229.38   36.50
  -3   0  -4 1227.18   36.30
   3   0   4 1207.88   36.40
   3   0   4 1267.87   36.70
   3   0   4 1217.68   37.10
  -4   0  -4  132.49    5.30
  -4   0  -4  136.49    6.90
   4   0   4  133.19    5.20
   4   0   4  133.29    6.10
   4   0   4  136.99    5.60
  -5   0  -4   68.59    4.10
  -5   0  -4   71.09    5.90
   5   0   4   67.49    4.30
   5   0   4   61.49    3.80
   5   0   4   68.39    4.40
  -6   0  -4  207.58   11.40
   6   0   4  208.18    9.10
   6   0   4  202.38    9.80
   6   0   4  213.58    8.30
   6   0   4  217.18    8.90
  -7   0  -4  215.98   13.50
   7   0   4  239.38   10.50
   8  -1  -4   96.79    6.30
   8  -1  -4   97.49    6.80
   7  -1  -4   42.00    4.20
   7  -1  -4   46.10    4.50
   7  -1  -4   30.10    5.20
   6  -1  -4   11.50    2.30
   6  -1  -4   15.10    3.30
   5  -1  -4   55.19    3.40
   5  -1  -4   54.99    3.70
   5  -1  -4   57.39    3.70
   4  -1  -4 4335.87  126.09
   4  -1  -4 4299.17  126.29
  -4   1   4 4312.07  126.29
   3  -1  -4  757.62   22.40
   3  -1  -4  750.42   22.90
   3  -1  -4  747.03   22.40
  -3   1   4  758.62   23.20
   1  -1  -4  893.91   27.30
   1  -1  -4  928.01   27.30
  -1   1   4  968.70   27.50
  -1   1   4  931.41   27.40
  -1   1   4  858.71   27.40
   0  -1  -4   48.40    2.40
   0  -1  -4   50.39    2.40
   0  -1  -4   50.59    2.40
   0  -1  -4   50.09    2.50
   0   1   4   52.29    2.40
   0   1   4   54.49    2.50
   0   1   4   46.60    2.40
  -1  -1  -4   29.60    1.90
  -1  -1  -4   26.40    1.80
  -1  -1  -4   33.50    2.10
  -1  -1  -4   25.20    1.90
   1   1   4   22.40    1.90
   1   1   4   26.80    1.90
   1   1   4   22.50    1.80
   1   1   4   24.50    1.90
  -2  -1  -4  887.01   27.80
  -2  -1  -4  882.61   27.10
  -2  -1  -4  898.51   27.30
  -2  -1  -4  928.91   27.40
   2   1   4  915.01   27.40
   2   1   4  937.71   27.50
   2   1   4  872.11   27.60
   2   1   4  888.71   27.30
  -3  -1  -4  354.06   11.20
  -3  -1  -4  334.77   10.90
  -3  -1  -4  338.37   11.60
  -3  -1  -4  342.57   12.40
   3   1   4  361.36   11.90
   3   1   4  356.86   11.70
   3   1   4  334.37   11.50
   3   1   4  350.06   11.70
  -4  -1  -4  438.36   15.60
  -4  -1  -4  434.56   14.30
   4   1   4  417.46   14.10
   4   1   4  421.76   14.20
   4   1   4  428.36   14.30
   4   1   4  413.26   14.40
  -5  -1  -4    3.30    3.50
  -5  -1  -4    6.10    2.60
   5   1   4    4.20    2.10
   5   1   4   -0.60    2.00
   5   1   4    3.70    2.70
   5   1   4    2.80    2.50
  -6  -1  -4    5.50    3.50
  -6  -1  -4    7.80    5.00
   6   1   4    5.40    4.00
   6   1   4   11.30    3.20
   6   1   4   10.20    3.80
   8  -2  -4  103.89    6.60
   8  -2  -4  108.69    6.90
   7  -2  -4   35.70    4.00
   7  -2  -4   37.80    4.30
   7  -2  -4   41.20    5.30
   6  -2  -4  425.46   14.80
   6  -2  -4  415.16   14.50
   6  -2  -4  434.66   15.10
   5  -2  -4  532.15   19.70
   5  -2  -4  691.93   20.00
   4  -2  -4 3119.09   90.19
   4  -2  -4 2980.40   90.09
   4  -2  -4 3124.19   91.19
  -4   2   4 3146.59   91.49
   3  -2  -4 2019.20   57.49
   3  -2  -4 1945.31   57.39
   3  -2  -4 1920.81   57.89
  -3   2   4 1978.00   58.29
  -3   2   4 1976.60   57.09
  -3   2   4 1887.41   57.09
   2  -2  -4 4606.04  128.99
   2  -2  -4 4461.65  128.99
  -2   2   4 4460.15  129.29
  -2   2   4 4154.28  128.69
   1  -2  -4 4530.25  131.49
   1  -2  -4 4272.97  131.49
   1  -2  -4 4579.94  131.69
   1  -2  -4 4388.16  131.69
  -1   2   4 4618.54  131.59
  -1   2   4 4596.24  131.59
  -1   2   4 4585.94  131.69
   0  -2  -4    1.50    0.80
   0  -2  -4    1.80    0.80
   0  -2  -4    2.50    1.00
   0  -2  -4    2.90    1.00
   0   2   4    1.60    0.80
   0   2   4    1.80    0.90
   0   2   4    1.40    0.90
   0   2   4    2.30    0.90
  -1  -2  -4  835.52   25.90
  -1  -2  -4  883.21   26.10
  -1  -2  -4  827.62   25.70
  -1  -2  -4  837.32   25.80
   1   2   4  840.52   26.10
   1   2   4  819.22   25.90
   1   2   4  870.91   26.00
   1   2   4  836.72   25.70
  -2  -2  -4   -1.20    1.10
  -2  -2  -4    2.60    1.00
  -2  -2  -4    0.90    1.40
  -2  -2  -4    2.10    1.30
   2   2   4   -0.50    1.10
   2   2   4    2.50    1.30
   2   2   4    0.50    1.20
   2   2   4    1.50    1.10
  -3  -2  -4   46.00    3.10
  -3  -2  -4   46.80    3.70
  -3  -2  -4   42.30    2.70
  -3  -2  -4   43.20    4.20
   3   2   4   42.00    3.50
   3   2   4   45.60    3.50
   3   2   4   43.60    3.90
   3   2   4   46.20    3.50
  -4  -2  -4   28.20    4.30
  -4  -2  -4   28.50    5.00
   4   2   4   39.20    4.80
   4   2   4   39.00    4.10
   4   2   4   36.70    4.10
   4   2   4   35.10    3.80
  -5  -2  -4   25.30    5.20
   5   2   4   35.10    4.70
   5   2   4   31.50    6.50
   5   2   4   23.60    5.00
   5   2   4   24.50    5.30
  -6  -2  -4   55.59    9.70
   6   2   4   38.70    7.20
   6   2   4   54.99    7.00
   9  -3  -4   26.20    5.70
   9  -3  -4   30.20    7.10
   8  -3  -4   59.49    6.20
   8  -3  -4   60.89    5.30
   7  -3  -4   87.89    5.40
   7  -3  -4   92.19    6.00
   7  -3  -4   77.89    6.40
   6  -3  -4   74.69    3.40
   6  -3  -4   79.49    3.50
   6  -3  -4   76.39    5.50
   6  -3  -4   73.09    5.00
   5  -3  -4 1062.29   32.70
   5  -3  -4 1040.20   31.40
   5  -3  -4 1036.00   31.30
  -5   3   4 1043.30   32.90
   4  -3  -4  835.12   25.10
   4  -3  -4  869.91   26.00
   4  -3  -4  825.42   25.00
  -4   3   4  756.02   26.00
   3  -3  -4 2321.27   70.89
   3  -3  -4 2365.26   71.39
   3  -3  -4 2545.35   71.19
  -3   3   4 2392.06   70.79
  -3   3   4 2418.36   70.69
   2  -3  -4  649.43   20.20
   2  -3  -4  642.74   20.00
   2  -3  -4  668.43   20.30
   2  -3  -4  635.34   20.20
  -2   3   4  626.24   20.50
  -2   3   4  666.73   20.10
  -2   3   4  619.34   20.00
   1  -3  -4  102.09    4.50
   1  -3  -4   92.09    4.20
   1  -3  -4  108.49    4.70
   1  -3  -4  106.19    4.50
  -1   3   4   99.29    4.50
  -1   3   4  101.99    4.50
  -1   3   4  101.39    4.60
   0  -3  -4 1938.81   57.49
   0  -3  -4 2013.20   58.09
   0  -3  -4 1931.81   57.79
   0  -3  -4 2030.30   57.99
   0   3   4 1951.40   57.89
   0   3   4 1872.21   57.89
   0   3   4 1922.01   58.09
   0   3   4 1885.01   57.89
  -1  -3  -4   67.69    3.70
  -1  -3  -4   66.79    4.00
  -1  -3  -4   64.09    3.60
  -1  -3  -4   64.79    3.90
   1   3   4   70.79    4.00
   1   3   4   65.59    4.10
   1   3   4   60.89    3.90
   1   3   4   66.39    3.80
  -2  -3  -4  396.86   13.80
  -2  -3  -4  399.26   13.40
  -2  -3  -4  392.76   13.00
  -2  -3  -4  388.66   13.70
   2   3   4  394.06   13.80
   2   3   4  391.26   13.70
   2   3   4  374.66   13.20
   2   3   4  391.66   13.60
  -3  -3  -4   14.10    2.70
  -3  -3  -4   21.20    4.50
  -3  -3  -4   14.40    3.10
  -3  -3  -4   15.60    3.50
   3   3   4   15.50    4.40
   3   3   4   14.80    3.60
   3   3   4   17.00    3.60
   3   3   4   20.30    3.50
  -4  -3  -4   49.60    6.80
  -4  -3  -4   66.49    6.80
   4   3   4   65.29    5.60
   4   3   4   54.89    5.30
   4   3   4   46.90    5.30
   4   3   4   51.19    6.50
  -5  -3  -4    3.30    5.30
   5   3   4    2.90    3.80
   5   3   4    1.10    3.70
   9  -4  -4   85.49    8.70
   9  -4  -4   89.89    7.00
   8  -4  -4  642.24   22.90
   8  -4  -4  653.03   21.60
   7  -4  -4  284.07   11.80
   7  -4  -4  278.47    9.80
   7  -4  -4  270.27   12.20
   7  -4  -4  285.57    9.70
   6  -4  -4   72.89    5.30
   6  -4  -4   70.69    4.00
   6  -4  -4   69.79    3.90
   5  -4  -4  261.87    9.20
   5  -4  -4  246.38    9.00
   5  -4  -4  265.27   10.30
  -5   4   4  252.97   10.50
   4  -4  -4  804.32   25.20
   4  -4  -4  844.02   25.40
   4  -4  -4  796.82   25.50
   4  -4  -4  818.72   26.00
  -4   4   4  801.12   24.70
  -4   4   4  832.42   24.80
  -4   4   4  804.22   26.40
   3  -4  -4  587.34   18.40
   3  -4  -4  563.94   18.20
   3  -4  -4  578.54   18.60
  -3   4   4  567.14   18.10
  -3   4   4  549.05   18.00
   2  -4  -4   74.19    4.10
   2  -4  -4   73.59    4.00
   2  -4  -4   69.19    3.80
   2  -4  -4   72.69    4.20
  -2   4   4   73.19    3.80
  -2   4   4   72.09    4.40
  -2   4   4   64.49    3.80
   1  -4  -4    0.90    1.40
   1  -4  -4    1.30    1.20
   1  -4  -4    1.30    1.30
   1  -4  -4    1.40    1.10
  -1   4   4   -0.50    1.10
  -1   4   4   -1.10    1.20
  -1   4   4    2.40    1.30
  -1   4   4    1.00    1.40
   0  -4  -4  472.45   15.70
   0  -4  -4  479.35   16.20
   0  -4  -4  478.05   16.40
   0  -4  -4  490.85   16.10
   0   4   4  509.35   16.50
   0   4   4  476.55   16.20
   0   4   4  484.95   16.30
   0   4   4  480.45   16.40
  -1  -4  -4 3979.50  118.89
  -1  -4  -4 4123.09  118.49
  -1  -4  -4 3958.00  118.19
  -1  -4  -4 4169.58  118.99
   1   4   4 4064.79  119.09
   1   4   4 3845.62  118.89
   1   4   4 3939.71  118.49
   1   4   4 4131.39  119.09
  -2  -4  -4  676.53   21.20
  -2  -4  -4  667.43   22.00
  -2  -4  -4  651.63   21.60
   2   4   4  641.64   21.90
   2   4   4  661.53   22.10
   2   4   4  655.03   22.10
   2   4   4  651.43   21.50
  -3  -4  -4   19.90    3.60
  -3  -4  -4   22.80    4.40
  -3  -4  -4   17.00    4.40
  -3  -4  -4   30.90    4.50
   3   4   4   18.10    4.30
   3   4   4   24.70    4.90
   3   4   4   26.80    4.70
   3   4   4   18.90    5.00
  -4  -4  -4   -1.00    5.10
   4   4   4   -1.20    3.60
   4   4   4   -1.50    3.50
   9  -5  -4  154.48    9.30
   9  -5  -4  168.28   11.10
   8  -5  -4    8.80    2.60
   8  -5  -4    8.80    3.70
   8  -5  -4    4.60    4.10
   8  -5  -4    5.70    3.00
   7  -5  -4  239.28   12.00
   7  -5  -4  246.08   11.20
   7  -5  -4  250.37   10.20
   7  -5  -4  234.78    9.40
   7  -5  -4  235.38    9.10
   6  -5  -4    1.20    1.80
   6  -5  -4   -0.50    2.00
   6  -5  -4   -2.70    2.10
   6  -5  -4   -2.30    2.20
   5  -5  -4    0.10    1.80
   5  -5  -4    2.70    2.00
   5  -5  -4   -0.80    1.70
   5  -5  -4    0.00    1.80
  -5   5   4   -0.40    1.10
  -5   5   4   -2.00    2.10
  -5   5   4   -0.20    1.10
   4  -5  -4  142.89    6.30
   4  -5  -4  141.69    6.40
   4  -5  -4  135.69    6.80
   4  -5  -4  135.09    6.40
  -4   5   4  135.19    5.90
  -4   5   4  135.29    7.30
   3  -5  -4   98.19    5.20
   3  -5  -4   96.29    5.10
   3  -5  -4  100.09    5.50
   3  -5  -4   95.39    5.40
  -3   5   4   94.59    4.80
  -3   5   4   88.59    5.70
  -3   5   4   94.89    5.00
   2  -5  -4  319.77   11.90
   2  -5  -4  319.47   11.50
   2  -5  -4  312.07   11.30
   2  -5  -4  325.57   11.50
  -2   5   4  304.87   11.40
  -2   5   4  312.57   12.00
  -2   5   4  308.17   11.50
   1  -5  -4  101.59    5.50
   1  -5  -4  102.99    5.90
   1  -5  -4   98.49    5.10
  -1   5   4  106.19    5.90
  -1   5   4   99.49    5.50
  -1   5   4   97.89    5.50
  -1   5   4  101.89    5.90
   0  -5  -4  345.57   12.00
   0  -5  -4  326.17   12.90
   0  -5  -4  332.97   12.40
   0   5   4  355.26   12.80
   0   5   4  345.57   12.80
   0   5   4  340.17   12.80
  -1  -5  -4   58.99    4.60
  -1  -5  -4   48.20    4.60
  -1  -5  -4   55.79    5.40
  -1  -5  -4   49.60    5.80
   1   5   4   62.69    6.10
   1   5   4   68.99    5.40
   1   5   4   59.59    5.20
   1   5   4   55.29    5.20
  -2  -5  -4   17.90    4.50
  -2  -5  -4   22.40    5.40
  -2  -5  -4   18.80    5.30
   2   5   4   12.50    3.50
   2   5   4   28.50    5.30
   2   5   4   14.60    3.40
  -3  -5  -4  715.53   22.90
  -3  -5  -4  708.83   25.30
   3   5   4  680.93   24.70
   3   5   4  734.23   25.00
   8  -6  -4    8.00    4.10
   8  -6  -4   16.20    3.30
   8  -6  -4   19.50    4.40
   8  -6  -4   20.30    4.70
   7  -6  -4  282.77   11.50
   7  -6  -4  264.27   11.40
   7  -6  -4  284.87   13.10
   7  -6  -4  291.37   11.00
   6  -6  -4  489.65   16.90
   6  -6  -4  483.75   18.00
   6  -6  -4  473.45   16.70
   6  -6  -4  466.75   16.60
   5  -6  -4  752.52   24.80
   5  -6  -4  713.73   24.30
   5  -6  -4  766.82   24.40
   5  -6  -4  750.22   25.30
  -5   6   4  750.42   23.50
  -5   6   4  774.12   23.60
   4  -6  -4   21.10    3.70
   4  -6  -4   35.30    4.30
   4  -6  -4   31.30    4.40
   4  -6  -4   26.30    4.30
  -4   6   4   29.40    3.40
  -4   6   4   23.20    3.70
  -4   6   4   26.40    4.90
   3  -6  -4   35.70    4.70
   3  -6  -4   29.30    4.20
   3  -6  -4   34.10    4.20
   3  -6  -4   34.20    4.20
  -3   6   4   38.00    4.40
  -3   6   4   35.90    5.00
  -3   6   4   39.40    3.80
   2  -6  -4   32.90    4.60
   2  -6  -4   31.60    4.00
   2  -6  -4   36.30    4.20
  -2   6   4   41.00    5.20
  -2   6   4   30.90    4.00
   1  -6  -4   21.10    3.80
   1  -6  -4   26.90    4.30
  -1   6   4   21.00    4.00
  -1   6   4   22.40    4.90
  -1   6   4   28.60    4.30
   0  -6  -4   70.79    6.80
   0  -6  -4   71.69    5.80
   0  -6  -4   65.99    5.20
   0   6   4   67.19    6.50
   0   6   4   75.49    5.90
   0   6   4   75.19    5.90
  -1  -6  -4   74.59    7.30
  -1  -6  -4   76.39    6.00
  -1  -6  -4   75.79    6.40
   1   6   4   63.89    7.50
   1   6   4   69.99    6.80
   1   6   4   71.79    6.70
  -2  -6  -4    2.70    4.80
  -2  -6  -4   -1.10    3.30
  -2  -6  -4   -4.70    4.40
   2   6   4    5.30    4.00
   2   6   4    2.90    4.00
   8  -7  -4  460.05   19.40
   8  -7  -4  466.75   17.10
   8  -7  -4  455.15   21.50
   7  -7  -4   69.49    8.00
   7  -7  -4   64.49    8.10
   7  -7  -4   67.69    7.30
   7  -7  -4   78.69    6.50
   6  -7  -4  575.24   20.20
   6  -7  -4  591.74   20.30
   6  -7  -4  532.55   20.80
   6  -7  -4  583.04   21.40
  -6   7   4  594.54   18.70
  -6   7   4  614.24   18.60
   5  -7  -4 1485.45   46.50
   5  -7  -4 1515.25   46.10
   5  -7  -4 1406.16   45.60
   5  -7  -4 1469.25   46.60
  -5   7   4 1456.45   45.00
  -5   7   4 1506.95   45.20
   4  -7  -4  327.57   12.60
   4  -7  -4  272.77   12.80
   4  -7  -4  305.57   12.50
   4  -7  -4  312.57   12.70
  -4   7   4  311.17   11.90
  -4   7   4  289.67   13.60
   3  -7  -4   61.89    5.60
   3  -7  -4   59.09    6.50
   3  -7  -4   52.89    5.50
  -3   7   4   65.49    5.40
  -3   7   4   53.89    6.40
  -3   7   4   65.49    7.20
   2  -7  -4  223.28   10.40
   2  -7  -4  234.68    9.90
  -2   7   4  230.58   10.40
  -2   7   4  229.18   11.60
   1  -7  -4   64.89    5.70
   1  -7  -4   67.39    6.40
  -1   7   4   63.09    6.30
  -1   7   4   71.29    6.60
  -1   7   4   60.39    8.00
   0  -7  -4  229.88   10.20
   0  -7  -4  231.48   11.10
   0   7   4  251.17   11.80
   0   7   4  229.88   11.60
   0   7   4  232.48   12.80
  -1  -7  -4   10.00    4.90
  -1  -7  -4   -0.10    4.00
   1   7   4   -0.20    3.70
   1   7   4    3.10    4.10
   7  -8  -4  108.69   10.00
   7  -8  -4  116.59    8.90
   6  -8  -4    4.40    4.40
   6  -8  -4    8.00    4.00
  -6   8   4    9.10    2.80
   5  -8  -4  316.97   14.20
   5  -8  -4  304.57   13.50
  -5   8   4  319.07   12.40
  -5   8   4  299.47   12.90
   4  -8  -4  296.17   12.90
   4  -8  -4  278.37   12.70
  -4   8   4  270.67   11.90
   3  -8  -4    6.70    3.40
   3  -8  -4    1.10    3.50
  -3   8   4    2.50    3.20
   2  -8  -4   70.99    7.10
   2  -8  -4   52.99    7.70
  -2   8   4   68.29    7.30
   1  -8  -4   10.00    3.90
   1  -8  -4   10.90    4.60
  -1   8   4    4.90    4.10
  -1   8   4    6.70    4.00
  -3   9  -5   75.19    8.10
  -3   9  -5   59.99    7.00
   3  -9   5   59.29   10.10
  -4   9  -5  283.47   12.00
  -4   9  -5  263.07   12.90
   4  -9   5  275.87   15.10
   0   8  -5    1.40    3.80
   0   8  -5    0.40    3.80
   0  -8   5   -3.60    4.70
  -1   8  -5    5.60    3.60
  -1   8  -5    9.60    3.40
   1  -8   5    8.00    3.50
   1  -8   5   -4.40    4.20
  -2   8  -5  759.32   25.20
  -2   8  -5  771.72   26.30
   2  -8   5  772.72   26.00
   2  -8   5  787.32   26.80
   2  -8   5  702.93   25.80
  -3   8  -5   42.20    5.00
  -3   8  -5   31.90    5.90
   3  -8   5   40.40    7.10
   3  -8   5   38.20    7.30
   3  -8   5   42.70    7.00
  -4   8  -5  117.39    7.70
  -4   8  -5  115.19    6.70
   4  -8   5  116.49    7.80
   4  -8   5  129.39    9.90
   4  -8   5  119.19    9.20
  -5   8  -5  226.38   10.70
  -5   8  -5  224.48   10.20
   5  -8   5  232.08   12.10
   5  -8   5  231.28   13.50
   6  -8   5   29.00    8.00
   6  -8   5   47.60    9.80
   2   7  -5   50.69    7.20
   2   7  -5   51.69    7.40
  -2  -7   5   39.60    6.30
  -2  -7   5   44.20    7.50
  -2  -7   5   53.19    7.40
   1   7  -5  171.28    8.90
   1   7  -5  145.49    9.30
  -1  -7   5  144.09    9.60
   0   7  -5   20.30    4.50
   0   7  -5   19.20    4.80
   0  -7   5   27.90    4.00
   0  -7   5    2.10    5.00
   0  -7   5   14.90    3.90
  -1   7  -5  158.48    8.40
  -1   7  -5  156.98    7.60
   1  -7   5  151.48    8.60
   1  -7   5  155.48    8.80
   1  -7   5  155.98    8.00
  -2   7  -5   68.49    6.30
  -2   7  -5   66.19    4.80
  -2   7  -5   65.99    5.50
   2  -7   5   59.79    5.80
   2  -7   5   65.09    6.30
   2  -7   5   74.59    6.40
  -3   7  -5   -0.10    3.30
  -3   7  -5    3.70    2.00
  -3   7  -5    1.90    2.20
   3  -7   5   -1.90    2.90
   3  -7   5   -1.10    2.80
   3  -7   5    0.40    2.50
   3  -7   5    2.20    3.00
  -4   7  -5   75.69    5.80
  -4   7  -5   80.59    4.70
   4  -7   5   74.19    5.10
   4  -7   5   80.09    8.90
   4  -7   5   78.99    6.70
   4  -7   5   79.69    7.50
  -5   7  -5   -2.50    2.20
  -5   7  -5   -4.00    2.50
   5  -7   5   -6.70    3.30
   5  -7   5   -2.10    3.00
   6  -7   5   25.00    5.50
   6  -7   5   26.10    6.40
   7  -7   5    6.30    5.00
   7  -7   5    7.10    4.70
   3   6  -5   15.10    3.90
   3   6  -5   17.90    4.10
  -3  -6   5   11.50    5.20
  -3  -6   5   28.70    5.70
  -3  -6   5   11.50    3.40
   2   6  -5   48.90    5.70
   2   6  -5   49.60    5.50
  -2  -6   5   45.00    5.70
  -2  -6   5   45.10    4.50
   1   6  -5  180.48    9.40
   1   6  -5  183.48    9.10
   1   6  -5  206.28    8.90
  -1  -6   5  187.48    6.70
  -1  -6   5  208.78    9.30
  -1  -6   5  193.18   10.00
   0   6  -5    9.90    2.70
   0   6  -5   11.00    2.40
   0  -6   5   10.90    3.30
   0  -6   5    8.20    3.00
   0  -6   5    4.00    2.80
  -1   6  -5    3.20    2.00
  -1   6  -5    1.90    1.80
   1  -6   5    0.50    2.30
   1  -6   5   -0.80    1.90
   1  -6   5    0.00    2.20
   1  -6   5    1.60    2.80
  -2   6  -5    4.70    1.70
  -2   6  -5    4.00    2.10
  -2   6  -5    1.20    2.30
   2  -6   5    2.40    2.30
   2  -6   5    2.50    2.20
   2  -6   5    6.80    2.30
  -3   6  -5  383.96   13.30
  -3   6  -5  355.76   13.30
  -3   6  -5  352.36   12.20
   3  -6   5  366.86   14.30
   3  -6   5  356.96   13.70
   3  -6   5  380.06   13.70
   3  -6   5  356.16   12.40
  -4   6  -5 1612.34   48.80
  -4   6  -5 1609.14   49.10
   4  -6   5 1564.74   47.70
   4  -6   5 1613.14   50.09
   4  -6   5 1653.33   49.60
   4  -6   5 1613.44   49.80
   4  -6   5 1615.24   50.79
  -5   6  -5  563.94   17.40
  -5   6  -5  529.05   17.50
   5  -6   5  509.75   18.50
   5  -6   5  514.85   19.60
   5  -6   5  513.45   20.20
   5  -6   5  548.25   18.80
   6  -6   5  235.58   12.80
   6  -6   5  226.98   11.00
   6  -6   5  260.17   10.90
   7  -6   5   27.40    6.40
   7  -6   5   13.80    4.90
   4   5  -5  372.16   15.10
   4   5  -5  385.46   15.50
  -4  -5   5  381.76   14.10
   3   5  -5   43.10    5.10
   3   5  -5   33.10    4.80
   3   5  -5   43.00    6.00
  -3  -5   5   48.50    4.50
  -3  -5   5   37.80    4.10
  -3  -5   5   43.00    4.50
   2   5  -5  185.98    8.70
   2   5  -5  201.28    8.60
   2   5  -5  190.48    8.50
  -2  -5   5  180.98    9.20
  -2  -5   5  191.58    8.10
  -2  -5   5  178.78    7.10
  -2  -5   5  186.38    7.90
   1   5  -5  158.88    7.60
   1   5  -5  170.88    7.80
   1   5  -5  169.48    7.40
  -1  -5   5  166.28    5.90
  -1  -5   5  162.78    7.60
  -1  -5   5  160.88    8.00
  -1  -5   5  172.68    7.40
   0   5  -5   66.39    4.70
   0   5  -5   66.19    4.20
   0   5  -5   78.39    4.70
   0  -5   5   68.99    4.70
   0  -5   5   71.79    4.20
   0  -5   5   69.79    4.60
   0  -5   5   71.99    4.90
  -1   5  -5  478.35   16.00
  -1   5  -5  451.55   15.30
  -1   5  -5  493.95   16.20
   1  -5   5  459.45   16.10
   1  -5   5  472.35   15.90
   1  -5   5  461.35   15.90
   1  -5   5  453.85   15.50
  -2   5  -5   63.19    3.40
  -2   5  -5   66.69    4.30
  -2   5  -5   63.59    4.20
   2  -5   5   62.19    4.40
   2  -5   5   63.79    3.70
   2  -5   5   76.29    4.60
   2  -5   5   67.79    4.80
  -3   5  -5    1.40    1.40
  -3   5  -5    0.90    1.50
  -3   5  -5    1.00    1.10
   3  -5   5   -0.10    1.70
   3  -5   5   -0.10    2.20
   3  -5   5    3.70    1.90
   3  -5   5    2.90    1.90
   3  -5   5   -0.50    1.20
  -4   5  -5  879.11   27.90
  -4   5  -5  867.81   28.10
   4  -5   5  899.51   29.20
   4  -5   5  945.21   28.70
   4  -5   5  926.61   28.80
  -5   5  -5  387.46   12.90
  -5   5  -5  401.66   12.80
   5  -5   5  389.46   14.10
   5  -5   5  395.46   14.10
   6  -5   5  581.24   21.40
   6  -5   5  595.44   19.10
   6  -5   5  492.55   18.80
   7  -5   5  139.69    7.90
   7  -5   5  112.59    8.40
   7  -5   5  152.58   10.80
   5   4  -5   39.70    6.30
   5   4  -5   29.00    6.70
   5   4  -5   36.40    5.50
  -5  -4   5   44.30    6.10
   4   4  -5   14.40    4.00
   4   4  -5   22.50    4.50
   4   4  -5   13.60    3.30
  -4  -4   5   23.00    4.10
   3   4  -5  360.96   13.40
   3   4  -5  365.56   13.50
   3   4  -5  379.46   13.80
  -3  -4   5  374.76   12.50
  -3  -4   5  383.66   12.60
  -3  -4   5  371.76   12.30
   2   4  -5  868.51   27.10
   2   4  -5  877.51   27.10
   2   4  -5  824.22   27.10
  -2  -4   5  820.02   25.70
  -2  -4   5  855.71   26.40
  -2  -4   5  885.41   26.70
  -2  -4   5  826.22   27.30
   1   4  -5   12.60    2.70
   1   4  -5    8.00    2.20
   1   4  -5    9.50    2.30
  -1  -4   5    8.20    2.30
  -1  -4   5    7.60    1.80
  -1  -4   5    8.70    1.70
  -1  -4   5   13.20    2.90
   0   4  -5   49.00    3.00
   0   4  -5   49.20    3.40
   0   4  -5   45.20    3.30
   0  -4   5   44.30    3.50
   0  -4   5   42.20    3.30
   0  -4   5   49.50    3.20
   0  -4   5   52.69    3.40
  -1   4  -5   15.20    1.80
  -1   4  -5   11.20    2.10
  -1   4  -5   19.00    2.50
   1  -4   5   14.30    2.50
   1  -4   5   14.00    2.10
   1  -4   5   18.20    2.40
  -2   4  -5    1.90    1.10
  -2   4  -5    1.30    1.20
  -2   4  -5    3.40    1.00
   2  -4   5    2.00    1.30
   2  -4   5    3.10    1.60
   2  -4   5   -0.10    1.30
   2  -4   5    1.60    1.00
  -3   4  -5  328.57   11.00
  -3   4  -5  309.67   11.10
   3  -4   5  324.07   11.70
   3  -4   5  324.07   11.50
   3  -4   5  332.27   11.40
  -4   4  -5  250.77    8.80
  -4   4  -5  253.77    9.00
   4  -4   5  266.47    9.50
   4  -4   5  252.27   10.20
   4  -4   5  246.78    9.60
   5  -4   5 1743.23   53.09
   5  -4   5 1773.62   52.99
   6  -4   5  255.87   10.20
   6  -4   5  261.67   10.10
   7  -4   5    3.20    2.90
   7  -4   5    1.90    3.50
   6   3  -5  640.14   22.40
   6   3  -5  695.93   23.40
   6   3  -5  685.13   22.30
  -6  -3   5  608.84   22.40
   5   3  -5  292.57   11.10
   5   3  -5  282.17   11.20
   5   3  -5  270.57   11.70
  -5  -3   5  288.37   11.10
   4   3  -5   12.80    3.00
   4   3  -5   16.10    3.50
   4   3  -5   14.60    3.50
  -4  -3   5   19.90    3.30
   3   3  -5  767.82   23.00
   3   3  -5  705.73   23.20
   3   3  -5  724.43   22.80
  -3  -3   5  707.23   23.40
  -3  -3   5  722.33   21.90
  -3  -3   5  694.93   21.80
  -3  -3   5  694.53   22.00
   2   3  -5   22.70    2.60
   2   3  -5   26.30    2.70
   2   3  -5   22.80    2.40
  -2  -3   5   22.80    2.20
  -2  -3   5   22.90    2.40
  -2  -3   5   21.30    1.80
  -2  -3   5   24.50    3.00
   1   3  -5 2516.85   73.69
   1   3  -5 2477.65   73.59
   1   3  -5 2364.36   73.59
  -1  -3   5 2481.75   73.59
  -1  -3   5 2541.25   73.39
  -1  -3   5 2534.55   73.69
   0   3  -5 1530.55   47.20
   0   3  -5 1552.24   46.90
   0   3  -5 1635.04   47.30
   0  -3   5 1575.24   47.00
   0  -3   5 1546.75   47.30
   0  -3   5 1612.04   47.10
  -1   3  -5 2967.50   87.69
  -1   3  -5 3020.20   88.29
  -1   3  -5 2963.00   88.19
   1  -3   5 3057.99   88.39
   1  -3   5 2968.30   88.19
   1  -3   5 3010.30   87.89
  -2   3  -5  217.78    7.90
  -2   3  -5  222.38    7.10
  -2   3  -5  214.48    8.00
   2  -3   5  233.98    8.10
   2  -3   5  230.48    8.20
   2  -3   5  219.58    8.10
  -3   3  -5  300.37   10.40
  -3   3  -5  310.47   10.30
   3  -3   5  319.27   10.70
   3  -3   5  294.67   10.90
   3  -3   5  310.77   10.50
  -4   3  -5  197.08    6.90
  -4   3  -5  194.58    6.90
   4  -3   5  203.88    7.70
   4  -3   5  201.38    7.60
   4  -3   5  195.68    8.30
   5  -3   5   10.50    3.00
   5  -3   5    3.10    2.60
   5  -3   5    6.30    1.80
   6  -3   5  364.46   12.80
   6  -3   5  356.66   12.80
   7  -3   5   92.69    6.20
   7  -3   5   86.39    6.90
   7   2  -5   38.90    6.90
   7   2  -5   59.09    8.30
   6   2  -5  573.74   18.60
   6   2  -5  564.84   18.70
   6   2  -5  541.95   19.70
   5   2  -5   -0.70    2.00
   5   2  -5    1.10    1.80
   5   2  -5   -0.50    1.60
  -5  -2   5    2.80    2.20
   4   2  -5    5.50    1.50
   4   2  -5   11.90    2.80
   4   2  -5    8.90    2.50
  -4  -2   5    6.90    1.80
   3   2  -5  307.07   11.10
   3   2  -5  318.17   10.60
   3   2  -5  316.37   10.50
  -3  -2   5  304.37   10.00
  -3  -2   5  297.97    9.70
  -3  -2   5  316.27    9.80
   2   2  -5 2877.61   79.99
   2   2  -5 2685.13   80.19
   2   2  -5 2595.54   79.79
  -2  -2   5 2736.63   79.39
  -2  -2   5 2668.43   79.59
   1   2  -5  781.82   24.30
   1   2  -5  807.72   24.20
   1   2  -5  803.92   24.30
  -1  -2   5  795.32   24.00
  -1  -2   5  762.22   24.20
   0   2  -5  564.94   17.60
   0   2  -5  565.14   17.40
   0   2  -5  591.54   17.60
   0  -2   5  560.34   17.60
   0  -2   5  528.15   17.40
  -1   2  -5 2333.87   68.39
  -1   2  -5 2342.27   68.99
  -1   2  -5 2319.97   68.89
   1  -2   5 2341.77   68.89
   1  -2   5 2346.27   68.59
   1  -2   5 2348.76   68.99
  -2   2  -5 3591.74  107.89
  -2   2  -5 3576.74  107.39
  -2   2  -5 3727.43  107.39
   2  -2   5 3674.43  107.59
   2  -2   5 3808.22  107.49
   2  -2   5 3645.04  107.59
  -3   2  -5 1722.93   50.59
  -3   2  -5 1692.03   51.79
  -3   2  -5 1647.54   50.59
   3  -2   5 1659.53   50.99
   3  -2   5 1771.32   50.89
   3  -2   5 1771.42   51.39
  -4   2  -5   64.99    4.90
   4  -2   5   76.09    4.80
   4  -2   5   77.89    4.00
   4  -2   5   73.69    4.00
  -5   2  -5   29.20    4.50
   5  -2   5   15.30    2.90
   5  -2   5   15.10    3.00
  -6   2  -5  289.97   13.40
   6  -2   5  301.77   11.00
   6  -2   5  300.47   11.00
   7  -2   5  534.15   17.50
   7  -2   5  466.05   20.80
   7   1  -5  122.69    6.10
   7   1  -5  123.39    7.80
   6   1  -5   64.19    5.20
   6   1  -5   65.69    4.30
   6   1  -5   69.39    4.00
   5   1  -5    2.50    1.20
   5   1  -5    3.00    1.50
   5   1  -5    2.50    1.40
   5   1  -5    5.00    2.00
   4   1  -5 2324.37   68.49
   4   1  -5 2356.36   69.59
   4   1  -5 2280.27   68.39
   4   1  -5 2350.76   68.19
   3   1  -5  171.28    6.00
   3   1  -5  166.18    5.30
   3   1  -5  173.18    6.80
   3   1  -5  170.08    6.10
   2   1  -5 3719.43  111.09
   2   1  -5 3999.70  111.29
   2   1  -5 3727.73  111.59
  -2  -1   5 3754.22  110.99
  -2  -1   5 3787.22  110.79
  -2  -1   5 3856.81  110.69
   1   1  -5  306.57    9.60
   1   1  -5  284.67    9.60
  -1  -1   5  285.87    9.40
  -1  -1   5  293.87    9.60
  -1  -1   5  301.27    9.20
   0   1  -5   52.29    2.30
   0   1  -5   58.49    2.70
   0   1  -5   50.59    2.60
   0  -1   5   53.99    2.10
   0  -1   5   52.19    2.60
   0  -1   5   56.49    2.60
  -1   1  -5   80.39    3.60
  -1   1  -5   80.09    3.60
  -1   1  -5   86.89    3.60
   1  -1   5   84.79    3.40
   1  -1   5   82.69    3.60
   1  -1   5   88.59    3.60
  -2   1  -5  424.36   14.20
  -2   1  -5  420.06   13.70
  -2   1  -5  429.46   13.60
  -2   1  -5  419.36   13.00
   2  -1   5  454.05   13.80
   2  -1   5  439.06   13.90
   2  -1   5  434.26   13.90
  -3   1  -5  139.29    6.30
  -3   1  -5  138.29    5.30
  -3   1  -5  140.69    5.20
  -3   1  -5  143.39    4.70
   3  -1   5  145.79    5.60
   3  -1   5  138.29    5.90
   3  -1   5  140.19    5.60
  -4   1  -5  345.87   13.00
  -4   1  -5  341.47   10.60
   4  -1   5  339.27   12.20
   4  -1   5  343.27   11.60
   4  -1   5  334.17   11.50
  -5   1  -5   52.79    5.50
   5  -1   5   53.99    4.00
   5  -1   5   46.00    3.90
  -6   1  -5    9.70    3.90
   6  -1   5    7.40    2.90
   6  -1   5   12.10    2.70
  -7   1  -5    9.60    6.30
   7  -1   5    8.20    3.60
   8   0  -5  129.49    8.40
   7   0  -5   16.30    4.20
   7   0  -5   14.20    3.40
   7   0  -5   14.90    2.80
   6   0  -5  635.44   20.70
   6   0  -5  590.04   18.90
   6   0  -5  617.24   19.80
   5   0  -5 1089.39   33.20
   5   0  -5 1080.49   32.70
   5   0  -5 1102.79   34.10
   5   0  -5 1114.69   32.60
   5   0  -5 1087.29   32.50
   4   0  -5 3257.27   95.79
   4   0  -5 3236.18   94.49
   4   0  -5 3211.78   94.59
   4   0  -5 3280.67   94.89
   4   0  -5 3228.58   94.59
   3   0  -5  471.85   14.50
   3   0  -5  470.75   14.50
   3   0  -5  465.45   14.40
   3   0  -5  488.65   14.60
  -3   0   5  464.25   14.70
   2   0  -5 3523.35  102.89
   2   0  -5 3529.45  102.69
  -2   0   5 3463.35  102.79
  -2   0   5 3600.04  102.89
   1   0  -5 2581.44   74.19
   1   0  -5 2484.45   74.29
   1   0  -5 2535.45   74.09
  -1   0   5 2577.04   74.09
  -1   0   5 2507.95   74.19
  -1   0   5 2512.55   74.09
   0   0  -5  114.49    4.40
   0   0  -5  115.39    4.00
   0   0  -5  107.69    4.20
   0   0   5  111.19    4.30
   0   0   5  111.89    4.40
   0   0   5  115.19    4.20
  -1   0  -5 2716.63   77.39
  -1   0  -5 2595.94   77.19
  -1   0  -5 2632.14   76.99
  -1   0  -5 2626.04   77.39
   1   0   5 2693.23   77.29
   1   0   5 2549.54   77.39
   1   0   5 2614.44   77.29
  -2   0  -5   64.29    2.90
  -2   0  -5   67.19    3.10
  -2   0  -5   69.89    3.80
  -2   0  -5   64.79    3.30
   2   0   5   71.59    3.40
   2   0   5   68.39    3.40
   2   0   5   67.09    3.40
  -3   0  -5    0.40    1.50
  -3   0  -5    3.90    1.10
  -3   0  -5    2.50    1.00
  -3   0  -5    1.50    0.90
   3   0   5    2.30    1.30
   3   0   5   -0.20    1.10
   3   0   5    1.60    1.20
   3   0   5    1.50    1.10
  -4   0  -5    4.50    2.30
  -4   0  -5    1.30    1.30
   4   0   5    1.50    1.40
   4   0   5    1.30    1.50
   4   0   5    3.20    1.60
  -5   0  -5  206.98    8.00
  -5   0  -5  198.98   10.20
   5   0   5  214.28    9.20
   5   0   5  200.58    7.80
   5   0   5  222.58    8.70
   5   0   5  214.48    8.60
  -6   0  -5  176.18   10.90
   6   0   5  159.28    7.10
   6   0   5  166.08    8.80
   6   0   5  169.88    9.30
   6   0   5  139.29    7.80
   8  -1  -5   87.49    8.00
   8  -1  -5   78.09    6.60
   8  -1  -5   90.29    5.80
   7  -1  -5   87.79    5.00
   7  -1  -5   80.19    5.70
   7  -1  -5   83.59    6.10
   6  -1  -5  123.79    6.00
   6  -1  -5  117.09    5.50
   6  -1  -5  122.39    6.20
   5  -1  -5  940.11   29.30
   5  -1  -5  931.11   28.60
   5  -1  -5  922.31   27.80
   5  -1  -5  947.61   29.00
   4  -1  -5 1024.70   30.60
   4  -1  -5 1033.70   31.20
   4  -1  -5 1046.70   31.40
   4  -1  -5 1032.00   30.70
  -4   1   5 1031.50   31.60
   3  -1  -5 3061.49   90.39
   3  -1  -5 3072.79   90.29
   3  -1  -5 3146.09   90.59
  -3   1   5 3102.49   90.99
   2  -1  -5 1675.53   50.89
   2  -1  -5 1821.12   51.19
   2  -1  -5 1727.43   50.99
  -2   1   5 1763.72   51.29
  -2   1   5 1762.22   50.89
  -2   1   5 1630.24   50.89
   1  -1  -5   66.59    3.00
   1  -1  -5   70.29    3.00
  -1   1   5   75.89    3.20
  -1   1   5   73.69    3.20
  -1   1   5   63.39    3.10
   0  -1  -5 5493.15  162.18
   0   1   5 5525.45  162.28
   0   1   5 5687.33  162.08
  -1  -1  -5  269.07    9.80
  -1  -1  -5  286.87    9.60
  -1  -1  -5  290.07    9.80
  -1  -1  -5  293.27    9.60
   1   1   5  291.47    9.70
   1   1   5  294.27    9.80
   1   1   5  292.67    9.80
  -2  -1  -5 1152.98   35.40
  -2  -1  -5 1161.38   35.90
  -2  -1  -5 1174.48   35.30
  -2  -1  -5 1192.38   35.20
   2   1   5 1195.78   35.50
   2   1   5 1149.29   35.30
  -3  -1  -5   77.49    4.00
  -3  -1  -5   74.99    3.50
  -3  -1  -5   73.29    4.80
  -3  -1  -5   71.09    3.70
   3   1   5   78.69    4.30
   3   1   5   78.19    4.40
   3   1   5   75.99    4.30
   3   1   5   74.39    3.90
  -4  -1  -5   95.69    6.50
  -4  -1  -5   91.19    5.10
   4   1   5   94.79    5.00
   4   1   5   96.59    5.60
   4   1   5   94.89    5.50
  -5  -1  -5    3.30    3.90
  -5  -1  -5    3.40    2.60
   5   1   5    2.90    2.40
   5   1   5    6.70    3.20
   5   1   5    6.40    3.00
  -6  -1  -5  211.38   12.90
   6   1   5  215.68    9.70
   6   1   5  243.18   10.50
   6   1   5  202.18   11.50
   8  -2  -5  585.64   19.70
   8  -2  -5  589.44   20.00
   8  -2  -5  552.64   20.60
   7  -2  -5  141.29    7.00
   7  -2  -5  139.39    7.70
   7  -2  -5  158.38    7.40
   6  -2  -5  155.08    7.20
   6  -2  -5  157.88    6.90
   5  -2  -5  244.78    9.20
   5  -2  -5  232.98    8.80
   5  -2  -5  238.58    7.90
   5  -2  -5  236.58    7.80
  -5   2   5  238.08    9.20
   4  -2  -5  565.14   17.30
   4  -2  -5  559.94   17.40
   4  -2  -5  563.74   18.00
  -4   2   5  565.14   18.40
   3  -2  -5  462.75   14.40
   3  -2  -5  434.26   14.10
   3  -2  -5  458.25   14.00
  -3   2   5  441.46   14.70
  -3   2   5  447.56   13.80
  -3   2   5  423.76   13.70
   2  -2  -5    0.10    0.70
   2  -2  -5   -0.70    0.70
   2  -2  -5   -1.00    0.70
  -2   2   5    1.20    0.70
  -2   2   5    2.40    1.00
   1  -2  -5  291.17   10.10
   1  -2  -5  312.07   10.40
   1  -2  -5  302.27   10.40
   1  -2  -5  313.67   10.10
  -1   2   5  302.27   10.20
  -1   2   5  305.87   10.30
  -1   2   5  317.87   10.40
   0  -2  -5 1565.54   45.30
   0  -2  -5 1483.85   44.90
   0  -2  -5 1503.05   45.00
   0  -2  -5 1515.25   44.90
   0   2   5 1402.66   45.10
   0   2   5 1563.24   45.00
   0   2   5 1507.35   45.10
  -1  -2  -5 6990.20  197.88
  -1  -2  -5 6706.43  197.68
  -1  -2  -5 6584.74  197.48
  -1  -2  -5 6632.14  197.58
   1   2   5 6572.74  197.68
   1   2   5 6794.22  197.98
   1   2   5 6839.72  197.58
   1   2   5 7139.09  197.88
  -2  -2  -5 1113.89   35.30
  -2  -2  -5 1181.18   35.40
  -2  -2  -5 1140.69   34.90
  -2  -2  -5 1145.09   35.70
   2   2   5 1142.09   35.10
   2   2   5 1199.88   35.70
   2   2   5 1144.79   35.40
   2   2   5 1190.88   35.50
  -3  -2  -5    3.70    1.40
  -3  -2  -5   12.00    3.10
  -3  -2  -5    9.60    2.70
  -3  -2  -5    6.30    1.80
   3   2   5   14.20    3.20
   3   2   5    6.20    2.10
   3   2   5    5.50    2.00
   3   2   5    3.30    2.20
  -4  -2  -5    7.00    3.20
  -4  -2  -5    2.90    2.70
   4   2   5    3.80    2.50
   4   2   5   10.50    2.90
   4   2   5    3.40    2.50
   4   2   5    3.00    2.30
  -5  -2  -5    7.90    4.90
   5   2   5   13.60    3.40
   5   2   5   13.30    3.80
   5   2   5   25.50    5.30
   5   2   5    9.30    4.30
   9  -3  -5   70.59    7.80
   9  -3  -5   86.39    7.50
   8  -3  -5  112.79    6.90
   8  -3  -5  113.89    7.20
   8  -3  -5   98.79    8.50
   7  -3  -5  119.79    6.70
   7  -3  -5  115.59    7.40
   6  -3  -5  134.69    5.30
   6  -3  -5  146.19    6.90
   6  -3  -5  141.79    5.50
   6  -3  -5  136.49    7.20
   5  -3  -5   19.20    2.10
   5  -3  -5   15.70    2.80
   5  -3  -5   20.50    2.30
  -5   3   5   15.10    3.30
   4  -3  -5    1.00    1.20
   4  -3  -5    3.30    1.10
   4  -3  -5    8.60    1.80
  -4   3   5    3.30    0.90
  -4   3   5    2.90    1.50
  -4   3   5    3.30    0.80
   3  -3  -5   47.90    3.20
   3  -3  -5   46.00    2.80
   3  -3  -5   48.90    3.00
  -3   3   5   49.30    2.80
  -3   3   5   55.09    3.60
  -3   3   5   49.70    2.70
   2  -3  -5  229.98    8.10
   2  -3  -5  214.08    8.10
   2  -3  -5  215.78    7.90
   2  -3  -5  233.08    8.30
  -2   3   5  214.48    7.90
  -2   3   5  221.38    8.40
   1  -3  -5   88.29    4.10
   1  -3  -5   67.39    4.00
   1  -3  -5   69.19    4.10
   1  -3  -5   86.49    3.90
  -1   3   5   82.79    4.10
  -1   3   5   89.19    4.20
  -1   3   5   93.79    4.30
   0  -3  -5 1919.21   57.89
   0  -3  -5 1979.00   57.79
   0  -3  -5 1957.50   58.09
   0  -3  -5 1913.21   58.19
   0   3   5 1923.41   57.99
   0   3   5 1979.90   58.29
   0   3   5 1943.61   58.19
   0   3   5 1929.41   58.19
  -1  -3  -5   98.79    5.00
  -1  -3  -5   93.69    4.90
  -1  -3  -5   91.29    4.70
  -1  -3  -5   93.19    4.60
   1   3   5   96.59    4.90
   1   3   5   89.29    4.80
   1   3   5   95.19    5.10
   1   3   5   83.69    4.80
  -2  -3  -5   60.99    4.90
  -2  -3  -5   69.39    4.60
  -2  -3  -5   73.59    4.80
  -2  -3  -5   61.79    4.00
   2   3   5   73.69    4.60
   2   3   5   71.59    4.70
   2   3   5   66.99    5.00
   2   3   5   61.99    4.40
  -3  -3  -5 1078.99   33.20
  -3  -3  -5 1138.99   33.70
  -3  -3  -5 1116.79   35.10
   3   3   5 1113.29   34.40
   3   3   5 1052.69   34.50
   3   3   5 1077.89   33.90
   3   3   5 1058.19   34.50
  -4  -3  -5   78.69    7.90
  -4  -3  -5   83.69    7.50
   4   3   5   72.19    7.90
   4   3   5   75.29    6.70
   4   3   5  100.09    6.70
   4   3   5   78.89    6.90
  -5  -3  -5   49.40    9.20
   5   3   5   36.90    7.50
   5   3   5   52.49    7.70
   9  -4  -5  328.57   13.20
   9  -4  -5  298.97   14.10
   8  -4  -5    0.40    2.30
   8  -4  -5    2.80    1.80
   8  -4  -5   -2.50    2.90
   8  -4  -5    3.10    3.10
   7  -4  -5  644.34   23.10
   7  -4  -5  668.63   21.00
   7  -4  -5  679.73   22.80
   7  -4  -5  668.63   20.80
   6  -4  -5 1241.68   37.50
   6  -4  -5 1277.27   39.10
   6  -4  -5 1244.58   37.60
  -6   4   5 1199.58   39.40
   5  -4  -5 1916.91   57.09
   5  -4  -5 1886.71   57.89
   5  -4  -5 1916.51   56.89
  -5   4   5 1922.61   58.59
   4  -4  -5   35.40    3.00
   4  -4  -5   36.80    3.10
   4  -4  -5   33.60    3.40
   4  -4  -5   38.60    3.40
  -4   4   5   39.90    2.80
  -4   4   5   39.30    2.50
  -4   4   5   34.60    3.90
   3  -4  -5  407.06   13.60
   3  -4  -5  393.16   13.50
   3  -4  -5  389.56   13.50
   3  -4  -5  392.76   13.30
  -3   4   5  397.46   14.10
  -3   4   5  382.46   13.20
   2  -4  -5   47.70    3.60
   2  -4  -5   45.70    3.40
   2  -4  -5   41.70    3.20
   2  -4  -5   48.50    3.60
  -2   4   5   47.10    3.70
  -2   4   5   42.70    3.20
  -2   4   5   48.30    3.40
   1  -4  -5  301.37   11.10
   1  -4  -5  299.27   11.30
   1  -4  -5  297.47   10.60
   1  -4  -5  289.77   10.90
  -1   4   5  319.87   11.40
  -1   4   5  326.97   11.20
  -1   4   5  321.47   11.30
   0  -4  -5  301.87   10.70
   0  -4  -5  304.47   11.00
   0  -4  -5  296.87   11.20
   0  -4  -5  312.17   11.50
   0   4   5  305.37   11.20
   0   4   5  307.77   11.40
   0   4   5  299.67   11.40
   0   4   5  304.57   11.30
  -1  -4  -5  205.58    9.10
  -1  -4  -5  202.48    8.30
  -1  -4  -5  220.88    8.90
  -1  -4  -5  210.28    8.40
   1   4   5  207.88    8.70
   1   4   5  205.68    9.10
   1   4   5  203.88    8.80
   1   4   5  213.08    9.00
  -2  -4  -5   55.49    4.50
  -2  -4  -5   57.99    5.10
  -2  -4  -5   60.59    5.40
   2   4   5   60.29    5.30
   2   4   5   63.69    5.40
   2   4   5   56.39    5.00
   2   4   5   58.99    6.20
  -3  -4  -5 2741.13   81.79
  -3  -4  -5 2708.13   80.19
  -3  -4  -5 2721.93   79.69
   3   4   5 2734.13   81.29
   3   4   5 2635.24   81.29
   3   4   5 2590.24   80.49
  -4  -4  -5  102.09    9.80
   4   4   5   92.99    8.40
   4   4   5   78.39    8.20
   9  -5  -5  199.28   11.90
   8  -5  -5  532.35   20.10
   8  -5  -5  542.45   18.20
   8  -5  -5  541.25   17.80
   7  -5  -5  108.99    6.20
   7  -5  -5  115.89    5.80
   7  -5  -5  100.79    7.40
   7  -5  -5  118.99    7.40
   6  -5  -5  994.40   32.00
   6  -5  -5 1036.30   32.50
   6  -5  -5 1028.00   33.20
   6  -5  -5 1052.19   31.90
   5  -5  -5 2555.64   75.49
   5  -5  -5 2612.34   75.59
   5  -5  -5 2592.14   76.19
   5  -5  -5 2447.96   75.19
  -5   5   5 2443.46   76.79
  -5   5   5 2545.15   74.29
  -5   5   5 2482.15   74.19
   4  -5  -5  541.55   18.70
   4  -5  -5  536.55   18.50
   4  -5  -5  548.55   18.40
   4  -5  -5  551.64   18.20
  -4   5   5  548.95   17.70
  -4   5   5  569.64   18.00
   3  -5  -5  151.98    6.90
   3  -5  -5  160.08    6.70
   3  -5  -5  147.99    6.80
   3  -5  -5  148.39    7.10
  -3   5   5  138.39    6.60
  -3   5   5  137.19    6.30
  -3   5   5  135.69    7.40
   2  -5  -5  494.05   16.90
   2  -5  -5  497.35   16.60
   2  -5  -5  473.75   16.70
  -2   5   5  488.75   16.80
  -2   5   5  503.25   17.50
  -2   5   5  510.25   17.00
   1  -5  -5  156.38    6.60
   1  -5  -5  152.98    7.50
   1  -5  -5  164.38    7.10
  -1   5   5  164.18    7.60
  -1   5   5  121.49    6.90
  -1   5   5  127.19    6.80
   0  -5  -5  605.64   19.20
   0  -5  -5  586.04   19.50
   0   5   5  577.04   20.00
   0   5   5  571.74   19.90
   0   5   5  571.44   19.90
  -1  -5  -5   -0.60    3.20
  -1  -5  -5   -0.90    2.20
  -1  -5  -5    3.20    2.30
  -1  -5  -5    4.60    2.60
   1   5   5   -4.80    3.00
   1   5   5    0.70    2.70
   1   5   5    1.40    2.60
   1   5   5    5.10    2.50
  -2  -5  -5    8.80    2.90
  -2  -5  -5   15.30    4.10
   2   5   5    3.70    3.40
   2   5   5    9.50    3.80
   2   5   5    7.10    3.50
  -3  -5  -5   10.50    3.20
  -3  -5  -5   18.80    5.90
   3   5   5   17.90    4.80
   3   5   5   20.30    4.80
   8  -6  -5   66.39    7.40
   8  -6  -5   89.39    8.50
   8  -6  -5   86.69    6.20
   8  -6  -5   66.09    8.30
   7  -6  -5   62.59    7.00
   7  -6  -5   67.19    6.90
   7  -6  -5   61.49    6.40
   7  -6  -5   61.39    5.30
   6  -6  -5   10.80    3.10
   6  -6  -5    8.30    2.60
   6  -6  -5   12.40    3.50
   6  -6  -5    8.30    3.10
  -6   6   5    2.20    2.90
   5  -6  -5  415.16   15.00
   5  -6  -5  389.06   15.30
   5  -6  -5  420.46   15.30
   5  -6  -5  431.46   15.90
  -5   6   5  429.06   14.40
  -5   6   5  444.66   14.30
   4  -6  -5  177.78    8.70
   4  -6  -5  188.38    8.40
   4  -6  -5  186.08    8.90
   4  -6  -5  176.48    8.50
  -4   6   5  189.38    8.20
  -4   6   5  180.98    9.60
  -4   6   5  194.38    7.90
   3  -6  -5   56.29    4.80
   3  -6  -5   62.49    5.00
   3  -6  -5   56.79    5.20
   3  -6  -5   53.49    5.50
  -3   6   5   56.99    5.20
  -3   6   5   62.29    6.00
  -3   6   5   51.09    4.40
   2  -6  -5  115.39    9.70
   2  -6  -5  105.39    6.30
   2  -6  -5  109.59    6.10
  -2   6   5  101.99    7.30
  -2   6   5  104.29    6.20
   1  -6  -5    4.90    3.40
   1  -6  -5   -0.10    2.10
   1  -6  -5   -0.10    2.40
  -1   6   5    0.20    2.20
  -1   6   5   -4.90    2.60
  -1   6   5   -0.50    2.50
  -1   6   5   -0.30    2.60
   0  -6  -5   12.70    4.10
   0  -6  -5   25.50    4.70
   0  -6  -5   25.10    4.90
   0   6   5   19.00    4.10
   0   6   5   22.00    5.20
   0   6   5   29.60    5.10
  -1  -6  -5   12.10    4.20
  -1  -6  -5   10.00    3.40
   1   6   5    6.70    3.70
   1   6   5   12.80    4.60
   1   6   5    9.30    3.50
  -2  -6  -5   80.09    8.80
  -2  -6  -5   65.09    6.90
   2   6   5   62.39    8.10
   2   6   5   64.99    8.20
   8  -7  -5  130.39   10.70
   8  -7  -5  131.19    8.60
   7  -7  -5   58.79    6.20
   7  -7  -5   61.49    8.10
   7  -7  -5   43.50    7.50
   6  -7  -5   11.00    3.60
   6  -7  -5    3.30    3.80
   6  -7  -5    8.40    4.10
   6  -7  -5   20.20    5.00
  -6   7   5   11.40    2.60
  -6   7   5   10.50    2.20
   5  -7  -5    9.50    4.00
   5  -7  -5    4.40    2.90
   5  -7  -5    5.50    3.30
  -5   7   5    5.40    2.80
   4  -7  -5    8.70    3.60
   4  -7  -5   10.90    3.10
   4  -7  -5   17.40    5.40
  -4   7   5    8.70    2.60
   3  -7  -5  620.84   20.50
   3  -7  -5  577.74   20.60
  -3   7   5  626.64   20.60
  -3   7   5  518.55   20.60
   2  -7  -5   24.10    4.90
   2  -7  -5   18.50    5.40
  -2   7   5   21.60    4.80
  -2   7   5   14.60    4.30
   1  -7  -5   72.59    6.30
   1  -7  -5   75.09    7.00
  -1   7   5   77.89    7.00
  -1   7   5   84.39    7.50
   0  -7  -5  265.77   12.60
   0  -7  -5  291.17   12.00
   0   7   5  271.77   13.20
   0   7   5  283.77   13.20
   6  -8  -5   53.79    8.60
   6  -8  -5   56.59    7.60
  -6   8   5   66.79    5.60
   5  -8  -5   55.39    7.80
   5  -8  -5   48.70    7.00
  -5   8   5   62.99    7.20
   4  -8  -5   30.80    6.40
   4  -8  -5   28.30    6.80
  -4   8   5   23.50    4.10
   3  -8  -5  134.99    8.70
   3  -8  -5  119.59    8.90
  -3   8   5  137.79    8.70
   2  -8  -5  625.54   23.60
   2  -8  -5  681.03   22.90
  -2   8   5  682.43   24.00
   0   8  -6    0.80    4.00
   0   8  -6    6.10    3.80
   0  -8   6    7.10    5.00
  -1   8  -6    4.80    3.40
  -1   8  -6    0.90    3.60
   1  -8   6    7.60    4.50
   1  -8   6    7.40    3.60
  -2   8  -6   24.50    4.90
  -2   8  -6   17.60    4.20
   2  -8   6   11.90    4.60
   2  -8   6   12.10    4.10
   2  -8   6   29.60    7.70
  -3   8  -6  251.67   11.70
  -3   8  -6  241.48   10.30
   3  -8   6  248.78   12.60
   3  -8   6  265.67   12.90
   3  -8   6  248.68   11.70
  -4   8  -6  549.15   19.10
  -4   8  -6  614.64   21.00
   4  -8   6  565.84   21.80
   4  -8   6  588.24   22.50
  -5   8  -6  307.87   12.60
  -5   8  -6  281.87   12.60
   5  -8   6  309.27   14.30
   5  -8   6  298.37   15.60
   2   7  -6   49.80    7.40
   2   7  -6   48.60    7.20
  -2  -7   6   42.40    7.60
  -2  -7   6   37.10    5.80
   1   7  -6   13.30    4.00
   1   7  -6   19.00    5.40
  -1  -7   6   14.60    4.20
   0   7  -6    4.20    2.80
   0   7  -6    4.50    3.00
   0  -7   6    8.10    2.50
   0  -7   6    3.40    3.50
  -1   7  -6  151.28    8.50
  -1   7  -6  152.08    7.60
   1  -7   6  140.39    8.80
   1  -7   6  155.68    8.10
   1  -7   6  165.38    9.10
  -2   7  -6   14.70    3.30
  -2   7  -6   18.10    3.70
  -2   7  -6    8.20    3.40
   2  -7   6   26.90    5.50
   2  -7   6   19.40    5.50
   2  -7   6   16.70    3.80
  -3   7  -6    0.80    2.90
  -3   7  -6    3.20    2.10
  -3   7  -6   -0.40    2.30
   3  -7   6   -0.20    2.70
   3  -7   6   -1.10    3.10
   3  -7   6   -1.90    2.80
  -4   7  -6  428.56   14.60
  -4   7  -6  455.45   16.30
   4  -7   6  456.05   18.00
   4  -7   6  447.86   17.20
   4  -7   6  446.76   17.50
  -5   7  -6   44.60    5.20
  -5   7  -6   42.10    5.40
   5  -7   6   40.50    6.60
   5  -7   6   39.30    8.00
   6  -7   6  273.77   12.80
   6  -7   6  269.97   15.00
   3   6  -6   39.80    6.80
   3   6  -6   33.70    6.60
  -3  -6   6   44.40    6.00
  -3  -6   6   50.19    5.50
   2   6  -6  313.67   13.10
   2   6  -6  311.87   13.20
  -2  -6   6  314.37   12.80
  -2  -6   6  323.07   11.30
   1   6  -6   19.20    4.10
   1   6  -6   15.00    4.20
   1   6  -6   17.30    5.00
  -1  -6   6   30.70    6.10
  -1  -6   6   17.60    2.50
  -1  -6   6   14.50    3.50
   0   6  -6  161.78    7.80
   0   6  -6  148.99    7.20
   0  -6   6  148.39    8.00
   0  -6   6  147.29    6.90
   0  -6   6  157.98    8.00
  -1   6  -6   40.10    3.60
  -1   6  -6   37.50    4.20
   1  -6   6   37.10    4.50
   1  -6   6   37.40    4.90
   1  -6   6   34.20    4.60
  -2   6  -6   -1.70    2.30
  -2   6  -6    4.50    1.70
  -2   6  -6    4.20    2.10
   2  -6   6    2.50    2.40
   2  -6   6   -0.40    2.00
   2  -6   6    4.10    2.40
  -3   6  -6   50.69    3.50
  -3   6  -6   55.79    4.90
  -3   6  -6   56.59    4.60
   3  -6   6   59.09    4.00
   3  -6   6   55.49    5.60
   3  -6   6   56.29    5.20
   3  -6   6   48.30    5.60
   3  -6   6   56.29    5.40
  -4   6  -6   52.49    4.60
  -4   6  -6   44.90    4.60
   4  -6   6   46.60    5.60
   4  -6   6   54.99    5.40
   4  -6   6   47.60    6.20
  -5   6  -6  664.93   21.20
  -5   6  -6  686.93   21.10
   5  -6   6  631.94   23.10
   5  -6   6  650.93   22.40
   5  -6   6  665.73   24.10
   5  -6   6  616.44   22.20
   6  -6   6  336.47   13.70
   6  -6   6  325.17   15.70
   7  -6   6   23.20    5.80
   4   5  -6   62.59    6.70
   4   5  -6   59.99    6.90
  -4  -5   6   70.39    5.70
   3   5  -6  315.77   12.90
   3   5  -6  312.07   13.10
   3   5  -6  303.57   12.60
  -3  -5   6  328.17   11.50
  -3  -5   6  326.17   11.70
  -3  -5   6  313.97   11.20
   2   5  -6   63.69    5.10
   2   5  -6   68.09    5.10
   2   5  -6   66.69    5.60
  -2  -5   6   68.89    4.90
  -2  -5   6   66.29    3.80
  -2  -5   6   61.79    5.10
  -2  -5   6   69.79    6.50
   1   5  -6  732.93   24.70
   1   5  -6  780.72   24.60
   1   5  -6  784.92   24.90
  -1  -5   6  738.43   24.50
  -1  -5   6  743.73   23.00
  -1  -5   6  749.62   24.20
  -1  -5   6  746.13   24.80
   0   5  -6  959.90   30.10
   0  -5   6  959.90   29.80
   0  -5   6  941.01   30.20
   0  -5   6  981.10   30.30
   0  -5   6  960.70   30.50
  -1   5  -6 1406.26   41.10
  -1   5  -6 1296.97   41.70
  -1   5  -6 1349.16   41.70
   1  -5   6 1363.76   41.20
   1  -5   6 1383.86   41.70
   1  -5   6 1343.97   41.60
   1  -5   6 1328.07   41.90
  -2   5  -6  410.86   14.30
  -2   5  -6  440.96   14.60
  -2   5  -6  406.36   13.40
   2  -5   6  404.76   14.70
   2  -5   6  405.26   13.60
   2  -5   6  399.76   14.40
  -3   5  -6  268.97   10.10
  -3   5  -6  271.77   10.30
  -3   5  -6  268.97    8.90
   3  -5   6  260.57   10.40
   3  -5   6  269.07   10.60
   3  -5   6  284.87   10.80
  -4   5  -6   24.90    3.20
  -4   5  -6   20.70    3.30
   4  -5   6   17.20    3.70
   4  -5   6   20.00    4.10
   4  -5   6   24.10    4.70
  -5   5  -6    3.30    1.70
  -5   5  -6    4.20    1.80
   5  -5   6    3.60    4.40
   5  -5   6    7.70    2.90
   5  -5   6    5.20    2.60
   6  -5   6   92.89    6.50
   6  -5   6   93.59    7.20
   7  -5   6   61.49    6.90
   7  -5   6   55.69    7.90
   5   4  -6   11.30    3.70
   5   4  -6   10.80    3.30
   5   4  -6    9.00    4.00
  -5  -4   6   10.30    3.70
   4   4  -6    5.60    2.60
   4   4  -6    5.30    2.90
   4   4  -6    5.50    2.90
  -4  -4   6   14.60    3.70
   3   4  -6  317.27   12.50
   3   4  -6  349.87   12.90
   3   4  -6  340.97   12.60
  -3  -4   6  335.17   11.30
  -3  -4   6  339.57   11.70
   2   4  -6  778.02   25.00
   2   4  -6  764.12   25.10
   2   4  -6  790.52   25.10
  -2  -4   6  741.23   25.20
  -2  -4   6  787.72   24.60
  -2  -4   6  795.62   24.30
   1   4  -6  145.29    6.20
   1   4  -6  127.89    6.20
   1   4  -6  139.89    6.40
  -1  -4   6  134.49    6.40
  -1  -4   6  134.09    6.00
  -1  -4   6  131.29    6.20
  -1  -4   6  135.99    5.30
   0   4  -6   98.89    4.70
   0   4  -6  100.49    5.10
   0   4  -6  103.39    5.10
   0  -4   6  107.59    5.10
   0  -4   6  100.89    5.20
   0  -4   6   95.39    4.90
  -1   4  -6 1050.59   31.90
  -1   4  -6 1101.99   32.60
  -1   4  -6 1013.70   32.60
   1  -4   6 1017.80   32.40
   1  -4   6 1071.59   32.00
   1  -4   6 1054.49   32.70
  -2   4  -6 1402.26   42.80
  -2   4  -6 1448.06   43.20
  -2   4  -6 1398.56   42.00
   2  -4   6 1432.16   42.90
   2  -4   6 1410.16   43.20
   2  -4   6 1403.66   43.00
  -3   4  -6 1078.19   33.80
  -3   4  -6 1079.69   33.70
   3  -4   6 1132.79   34.00
   3  -4   6 1110.29   34.20
   3  -4   6 1111.59   34.20
  -4   4  -6    8.60    2.30
  -4   4  -6   10.90    2.50
   4  -4   6    6.10    2.00
   4  -4   6   11.90    2.90
   4  -4   6   10.00    2.80
   5  -4   6    3.10    2.20
   5  -4   6    0.90    2.20
   6  -4   6  213.88    9.30
   6  -4   6  188.28    8.90
   7  -4   6  627.94   22.00
   7  -4   6  660.63   22.00
   6   3  -6  105.59    8.40
   6   3  -6  122.59    8.50
   6   3  -6  128.39    7.50
   5   3  -6   45.10    5.20
   5   3  -6   43.20    4.50
   5   3  -6   44.20    5.20
  -5  -3   6   40.00    4.40
   4   3  -6  690.03   21.80
   4   3  -6  657.13   21.70
   4   3  -6  661.03   22.40
  -4  -3   6  664.83   21.00
   3   3  -6   12.10    2.90
   3   3  -6   10.50    2.50
   3   3  -6    9.90    2.80
  -3  -3   6   13.60    2.50
   2   3  -6 1298.07   38.30
   2   3  -6 1232.18   38.40
   2   3  -6 1226.48   38.20
  -2  -3   6 1248.18   37.90
  -2  -3   6 1255.97   37.70
   1   3  -6   20.60    2.50
   1   3  -6   24.20    2.40
   1   3  -6   22.60    2.30
  -1  -3   6   23.90    2.40
  -1  -3   6   20.30    2.50
   0   3  -6  230.38    8.20
   0   3  -6  231.68    8.60
   0   3  -6  241.88    8.60
   0  -3   6  241.08    8.50
   0  -3   6  224.68    8.60
  -1   3  -6  205.78    7.70
  -1   3  -6  211.38    7.10
  -1   3  -6  209.48    7.80
   1  -3   6  199.88    7.80
   1  -3   6  201.88    7.20
   1  -3   6  206.28    7.60
  -2   3  -6   16.30    1.40
  -2   3  -6   15.50    2.20
  -2   3  -6   15.60    2.10
   2  -3   6   15.40    2.30
   2  -3   6   18.50    2.30
   2  -3   6   15.50    2.30
  -3   3  -6   22.90    2.40
  -3   3  -6   21.90    2.30
   3  -3   6   24.00    3.10
   3  -3   6   22.50    2.70
   3  -3   6   21.70    2.70
  -4   3  -6   84.39    4.10
  -4   3  -6   92.49    4.20
   4  -3   6   86.99    4.80
   4  -3   6   88.19    5.50
   4  -3   6   97.99    4.90
   5  -3   6  253.87    9.70
   5  -3   6  244.58    9.60
   6  -3   6    1.40    2.40
   6  -3   6    4.10    2.70
   7  -3   6   10.70    3.40
   7  -3   6    7.40    4.40
   7   2  -6    7.60    4.20
   7   2  -6    8.10    3.50
   6   2  -6  560.14   19.60
   6   2  -6  546.15   18.20
   6   2  -6  530.85   18.30
   5   2  -6  906.81   28.20
   5   2  -6  892.41   28.20
   5   2  -6  917.11   29.40
   4   2  -6 2090.49   58.29
   4   2  -6 1982.00   59.19
   4   2  -6 1781.92   58.09
   3   2  -6    2.60    1.40
   3   2  -6    0.50    1.20
   3   2  -6    0.50    1.00
  -3  -2   6    1.20    0.80
  -3  -2   6    1.30    1.00
   2   2  -6  915.71   28.10
   2   2  -6  885.51   28.00
   2   2  -6  929.11   28.40
  -2  -2   6  925.01   27.60
  -2  -2   6  946.81   27.00
  -2  -2   6  889.01   27.80
   1   2  -6  243.08    8.40
   1   2  -6  226.68    8.20
   1   2  -6  234.38    8.30
  -1  -2   6  233.68    7.60
  -1  -2   6  236.58    8.10
  -1  -2   6  221.68    8.20
   0   2  -6  262.67    8.90
   0   2  -6  267.07    9.10
   0   2  -6  264.67    9.10
   0  -2   6  265.47    9.20
   0  -2   6  259.37    9.00
  -1   2  -6 2583.74   77.39
  -1   2  -6 2719.63   78.09
  -1   2  -6 2687.93   78.09
   1  -2   6 2597.64   77.89
   1  -2   6 2644.44   78.19
   1  -2   6 2650.03   77.59
  -2   2  -6  173.28    5.80
  -2   2  -6  174.98    6.70
  -2   2  -6  190.58    6.80
  -2   2  -6  179.68    7.10
   2  -2   6  175.88    6.90
   2  -2   6  176.38    6.70
   2  -2   6  183.48    6.80
  -3   2  -6  104.89    4.60
  -3   2  -6  109.39    5.60
  -3   2  -6  114.19    4.70
   3  -2   6  112.89    5.00
   3  -2   6  109.39    5.00
   3  -2   6  107.39    5.30
  -4   2  -6   39.60    4.30
  -4   2  -6   38.40    2.60
  -4   2  -6   39.30    2.50
   4  -2   6   41.30    3.30
   4  -2   6   38.60    3.40
   4  -2   6   36.10    4.10
  -5   2  -6  488.05   18.40
   5  -2   6  496.85   16.60
   5  -2   6  497.35   16.50
  -6   2  -6  274.77   13.10
   6  -2   6  264.67   10.80
   6  -2   6  267.97   10.60
   7  -2   6   11.00    3.80
   7   1  -6   40.00    6.10
   7   1  -6   43.40    4.40
   6   1  -6   72.59    4.10
   6   1  -6   68.59    4.50
   6   1  -6   66.19    5.50
   5   1  -6  541.05   17.10
   5   1  -6  543.05   18.40
   5   1  -6  527.95   17.00
   4   1  -6  606.34   18.90
   4   1  -6  609.74   19.00
   4   1  -6  605.24   20.00
   3   1  -6 1939.21   58.89
   3   1  -6 1912.21   58.19
   3   1  -6 2005.80   58.19
  -3  -1   6 1967.80   57.69
  -3  -1   6 1951.60   57.69
  -3  -1   6 2031.20   57.59
   2   1  -6 1370.76   41.90
   2   1  -6 1415.66   42.40
   2   1  -6 1405.26   42.00
  -2  -1   6 1464.35   41.50
  -2  -1   6 1377.16   41.80
  -2  -1   6 1405.96   41.60
   1   1  -6   -0.20    0.70
   1   1  -6    0.90    0.70
  -1  -1   6   -0.10    0.70
  -1  -1   6    1.90    0.70
  -1  -1   6    2.20    0.80
   0   1  -6 6309.87  175.98
   0  -1   6 5767.52  175.88
  -1   1  -6  457.45   15.10
  -1   1  -6  503.05   15.30
  -1   1  -6  461.25   15.10
   1  -1   6  472.45   15.10
   1  -1   6  478.95   14.80
   1  -1   6  484.05   15.30
  -2   1  -6 1415.86   43.30
  -2   1  -6 1397.36   42.00
  -2   1  -6 1455.85   42.80
  -2   1  -6 1400.36   42.70
   2  -1   6 1505.65   42.90
   2  -1   6 1378.66   42.90
   2  -1   6 1449.55   42.80
  -3   1  -6  107.49    3.90
  -3   1  -6  105.49    4.60
  -3   1  -6  109.69    5.70
  -3   1  -6  104.39    4.40
   3  -1   6  110.79    5.20
   3  -1   6  109.79    4.90
   3  -1   6  103.79    4.90
  -4   1  -6   76.49    5.60
  -4   1  -6   74.09    3.10
   4  -1   6   76.69    5.00
   4  -1   6   80.29    4.40
   4  -1   6   70.59    4.30
  -5   1  -6    2.20    3.10
   5  -1   6    8.30    2.20
   5  -1   6    8.10    2.40
   5  -1   6    1.10    2.70
  -6   1  -6  306.47   14.50
   6  -1   6  331.37   12.20
   6  -1   6  302.67   12.40
   8   0  -6  316.77   13.70
   7   0  -6   11.90    2.50
   7   0  -6   10.10    3.20
   7   0  -6   10.50    3.20
   6   0  -6  210.28    7.40
   6   0  -6  202.78    7.20
   6   0  -6  204.88    9.00
   6   0  -6  195.68    7.00
   6   0  -6  205.18    8.00
   5   0  -6  117.69    4.70
   5   0  -6  113.19    4.90
   5   0  -6  118.89    4.50
   5   0  -6  113.89    4.50
   5   0  -6  118.29    6.00
   4   0  -6  141.69    5.00
   4   0  -6  138.29    5.20
   4   0  -6  135.09    6.20
   4   0  -6  140.79    5.30
   4   0  -6  144.59    5.20
  -4   0   6  135.29    5.40
   3   0  -6   94.29    3.90
   3   0  -6   91.19    3.50
   3   0  -6   91.49    3.70
  -3   0   6   90.59    3.50
  -3   0   6   88.79    3.90
  -3   0   6   89.39    3.40
   2   0  -6   38.90    2.00
   2   0  -6   40.50    2.20
   2   0  -6   41.80    2.30
  -2   0   6   40.80    2.30
  -2   0   6   37.90    2.20
  -2   0   6   34.40    2.20
   1   0  -6 1410.36   43.10
   1   0  -6 1428.06   42.90
   1   0  -6 1458.65   43.00
  -1   0   6 1474.65   42.90
  -1   0   6 1448.06   43.00
  -1   0   6 1462.95   43.10
   0   0  -6 2234.18   67.49
   0   0  -6 2188.68   67.59
   0   0  -6 2261.37   67.19
   0   0   6 2270.27   67.59
   0   0   6 2371.86   67.39
   0   0   6 2420.96   67.59
  -1   0  -6 6345.67  183.88
   1   0   6 6384.86  183.78
   1   0   6 6004.00  183.88
   1   0   6 6504.95  183.78
  -2   0  -6 1338.97   40.10
  -2   0  -6 1326.67   40.30
  -2   0  -6 1333.57   40.80
  -2   0  -6 1317.07   39.80
   2   0   6 1322.27   40.40
   2   0   6 1420.56   40.40
   2   0   6 1323.97   40.50
  -3   0  -6   48.80    2.90
  -3   0  -6   53.39    3.30
  -3   0  -6   51.19    2.90
  -3   0  -6   61.39    4.40
   3   0   6   54.09    3.70
   3   0   6   56.09    3.70
   3   0   6   56.19    3.90
  -4   0  -6    3.20    1.50
  -4   0  -6    0.60    2.60
   4   0   6    2.00    1.90
   4   0   6    2.50    1.80
   4   0   6    2.40    2.10
  -5   0  -6   -1.70    3.20
  -5   0  -6    6.20    2.10
   5   0   6    7.40    2.50
   5   0   6    3.30    3.10
   5   0   6   -0.10    2.60
  -6   0  -6   20.50    5.80
   6   0   6    6.00    4.30
   6   0   6   11.20    3.30
   8  -1  -6  250.17    9.70
   8  -1  -6  257.47   11.50
   8  -1  -6  261.67   11.80
   7  -1  -6    9.20    2.90
   7  -1  -6   11.30    3.30
   7  -1  -6   11.80    3.20
   6  -1  -6  456.95   15.50
   6  -1  -6  472.55   16.20
   6  -1  -6  454.75   14.40
   6  -1  -6  450.35   14.30
   6  -1  -6  466.95   15.00
   5  -1  -6   73.99    3.80
   5  -1  -6   77.29    3.40
   5  -1  -6   74.89    3.20
   5  -1  -6   70.09    4.10
  -5   1   6   72.29    4.20
   4  -1  -6  111.99    4.60
   4  -1  -6  114.09    4.40
   4  -1  -6  108.89    4.80
   4  -1  -6  108.49    4.30
  -4   1   6  109.69    5.00
   3  -1  -6    2.30    0.80
   3  -1  -6    2.30    0.90
   3  -1  -6    2.70    0.80
  -3   1   6    2.90    0.80
  -3   1   6    1.70    0.70
  -3   1   6    0.40    0.90
   2  -1  -6   35.50    2.40
   2  -1  -6   36.10    2.20
   2  -1  -6   39.70    2.30
  -2   1   6   36.60    2.50
  -2   1   6   38.30    2.20
  -2   1   6   40.10    2.30
   1  -1  -6  115.79    4.50
   1  -1  -6  116.29    4.60
  -1   1   6  115.69    4.70
  -1   1   6  123.89    4.70
  -1   1   6  111.69    4.70
   0  -1  -6 5445.76  161.38
   0  -1  -6 5505.65  161.08
   0  -1  -6 5642.14  161.68
   0  -1  -6 5485.85  161.38
   0  -1  -6 5418.46  161.38
   0   1   6 5579.24  161.38
   0   1   6 5593.74  161.28
   0   1   6 5612.34  161.58
  -1  -1  -6   95.49    4.50
  -1  -1  -6   96.69    4.20
  -1  -1  -6   96.39    4.40
  -1  -1  -6   92.69    4.20
   1   1   6   93.49    4.50
   1   1   6   97.39    4.50
  -2  -1  -6  914.21   27.90
  -2  -1  -6  883.41   28.50
  -2  -1  -6  911.11   27.90
  -2  -1  -6  885.91   28.10
   2   1   6  914.01   28.20
   2   1   6  923.81   28.40
   2   1   6  948.81   28.20
  -3  -1  -6 1214.98   38.40
  -3  -1  -6 1237.68   37.30
  -3  -1  -6 1210.08   37.00
  -3  -1  -6 1241.78   37.40
   3   1   6 1256.17   37.60
   3   1   6 1222.58   37.40
   3   1   6 1195.08   37.80
   3   1   6 1252.87   37.70
  -4  -1  -6  472.55   18.00
  -4  -1  -6  504.95   16.50
   4   1   6  497.95   16.40
   4   1   6  462.45   16.70
   4   1   6  508.35   17.00
   4   1   6  503.05   16.90
  -5  -1  -6  117.29    6.70
  -5  -1  -6  128.79    9.40
   5   1   6  120.39    7.10
   5   1   6  115.19    6.40
   5   1   6  108.59    7.80
   5   1   6   96.89    8.00
   6   1   6  168.48   10.10
   8  -2  -6    6.20    2.70
   8  -2  -6   11.70    3.60
   8  -2  -6   11.20    4.50
   7  -2  -6  875.01   27.50
   7  -2  -6  853.41   28.10
   7  -2  -6  874.11   28.20
   6  -2  -6 1877.51   55.69
   6  -2  -6 1888.51   55.79
   6  -2  -6 1886.61   57.19
   6  -2  -6 1910.41   56.79
   5  -2  -6 2410.66   70.89
   5  -2  -6 2413.16   71.69
   5  -2  -6 2410.76   70.99
   5  -2  -6 2487.15   72.09
  -5   2   6 2357.66   72.29
   4  -2  -6   30.60    2.30
   4  -2  -6   32.00    2.60
   4  -2  -6   24.70    2.10
  -4   2   6   29.30    3.00
   3  -2  -6 1140.49   33.20
   3  -2  -6 1065.59   32.90
   3  -2  -6 1095.79   33.10
  -3   2   6 1051.09   32.70
  -3   2   6 1113.19   32.80
  -3   2   6 1105.09   33.70
   2  -2  -6   76.39    3.50
   2  -2  -6   74.89    3.70
   2  -2  -6   71.49    3.50
  -2   2   6   75.99    3.60
  -2   2   6   72.59    3.50
  -2   2   6   75.49    3.90
   1  -2  -6  975.90   29.50
   1  -2  -6  987.50   30.00
   1  -2  -6  961.10   29.80
   1  -2  -6  958.10   29.60
  -1   2   6  991.60   29.80
  -1   2   6  990.40   29.80
  -1   2   6  948.11   29.80
   0  -2  -6 1168.48   35.30
   0  -2  -6 1137.79   35.20
   0  -2  -6 1172.78   35.20
   0   2   6 1150.88   35.40
   0   2   6 1186.78   35.50
   0   2   6 1159.08   35.30
  -1  -2  -6  262.77    9.40
  -1  -2  -6  263.17    9.80
  -1  -2  -6  265.57    9.60
  -1  -2  -6  267.27    9.60
   1   2   6  265.77    9.90
   1   2   6  273.17    9.60
   1   2   6  275.27    9.90
  -2  -2  -6  265.87    9.70
  -2  -2  -6  245.08    9.20
  -2  -2  -6  273.87    9.80
  -2  -2  -6  258.17   10.10
   2   2   6  259.27    9.70
   2   2   6  256.07    9.90
   2   2   6  268.47   10.00
   2   2   6  249.38    9.50
  -3  -2  -6 5698.83  169.48
  -3  -2  -6 5821.52  168.58
  -3  -2  -6 5718.93  167.78
  -3  -2  -6 5978.40  168.18
   3   2   6 5865.41  168.78
   3   2   6 5749.52  168.28
   3   2   6 5589.24  168.78
   3   2   6 5576.84  168.48
  -4  -2  -6   36.90    6.10
  -4  -2  -6   41.60    5.40
   4   2   6   35.40    6.20
   4   2   6   41.10    4.70
   4   2   6   40.60    5.60
  -5  -2  -6  251.07   13.70
  -5  -2  -6  232.68   12.70
   5   2   6  261.27   11.10
   8  -3  -6  364.06   13.80
   8  -3  -6  321.47   14.70
   8  -3  -6  361.56   13.70
   7  -3  -6   65.99    4.00
   7  -3  -6   72.79    3.70
   7  -3  -6   70.99    6.30
   7  -3  -6   70.89    5.40
   6  -3  -6  991.20   30.10
   6  -3  -6 1006.30   31.40
   6  -3  -6 1011.40   31.90
   6  -3  -6  987.50   30.30
  -6   3   6  986.00   32.00
   5  -3  -6 2937.11   87.69
   5  -3  -6 2913.11   86.79
   5  -3  -6 2903.81   86.89
  -5   3   6 3064.19   88.49
   4  -3  -6  370.26   12.70
   4  -3  -6  393.86   12.40
   4  -3  -6  368.06   12.10
  -4   3   6  365.86   11.70
  -4   3   6  345.27   11.60
  -4   3   6  362.16   13.30
   3  -3  -6  196.18    7.50
   3  -3  -6  192.58    7.30
   3  -3  -6  196.98    7.50
  -3   3   6  195.78    8.00
  -3   3   6  203.28    7.30
  -3   3   6  188.98    7.10
   2  -3  -6  495.25   16.20
   2  -3  -6  472.75   15.80
   2  -3  -6  494.25   15.80
   2  -3  -6  525.05   16.30
  -2   3   6  482.55   15.90
  -2   3   6  476.55   15.90
  -2   3   6  478.85   16.30
   1  -3  -6  407.16   13.10
   1  -3  -6  386.76   13.30
   1  -3  -6  380.66   13.10
   1  -3  -6  394.86   13.50
  -1   3   6  390.66   13.30
  -1   3   6  390.06   13.40
   0  -3  -6  830.22   26.70
   0  -3  -6  854.51   26.20
   0  -3  -6  811.22   26.20
   0  -3  -6  874.01   26.50
   0   3   6  827.62   26.60
   0   3   6  841.62   26.60
   0   3   6  850.71   26.40
  -1  -3  -6   10.90    2.30
  -1  -3  -6   11.10    3.20
  -1  -3  -6   12.40    2.70
  -1  -3  -6   14.00    2.70
   1   3   6   10.40    2.20
   1   3   6   10.10    3.00
   1   3   6   11.60    3.30
   1   3   6   11.90    2.90
  -2  -3  -6   26.70    4.00
  -2  -3  -6   25.10    4.20
  -2  -3  -6   25.70    3.30
  -2  -3  -6   29.30    4.30
   2   3   6   24.80    3.90
   2   3   6   24.80    3.80
   2   3   6   23.50    4.40
   2   3   6   27.30    4.00
  -3  -3  -6   58.69    5.00
  -3  -3  -6   61.59    4.30
  -3  -3  -6   62.99    6.50
   3   3   6   65.19    5.40
   3   3   6   67.49    6.00
   3   3   6   60.09    5.50
   3   3   6   63.79    6.70
  -4  -3  -6  788.32   27.60
  -4  -3  -6  861.61   29.00
   4   3   6  759.92   27.00
   4   3   6  844.92   27.60
   4   3   6  855.11   27.40
   9  -4  -6  175.88   10.00
   9  -4  -6  164.58   10.30
   8  -4  -6  117.79    7.80
   8  -4  -6  108.99    6.50
   8  -4  -6  119.69    5.50
   7  -4  -6    6.30    2.20
   7  -4  -6    3.60    3.80
   7  -4  -6    4.60    1.70
   7  -4  -6    4.00    2.40
   6  -4  -6   -0.50    1.90
   6  -4  -6   -0.70    1.40
   6  -4  -6    0.60    1.80
  -6   4   6   -0.20    2.40
   5  -4  -6  309.47   11.20
   5  -4  -6  340.07   11.60
   5  -4  -6  324.17   12.10
  -5   4   6  322.67   12.90
   4  -4  -6    1.40    1.80
   4  -4  -6    7.70    2.30
   4  -4  -6    5.90    1.70
   4  -4  -6    3.70    1.70
  -4   4   6    6.40    2.20
  -4   4   6    5.90    1.40
  -4   4   6    6.30    1.60
   3  -4  -6  705.43   22.50
   3  -4  -6  707.73   22.50
   3  -4  -6  653.13   22.00
   3  -4  -6  692.23   22.30
  -3   4   6  695.43   22.00
  -3   4   6  699.73   23.00
  -3   4   6  707.93   22.10
   2  -4  -6   98.99    5.40
   2  -4  -6   95.59    4.90
   2  -4  -6  103.79    5.30
   2  -4  -6   96.39    4.90
  -2   4   6  102.19    5.60
  -2   4   6   97.09    5.20
  -2   4   6   99.19    5.00
   1  -4  -6  158.88    7.20
   1  -4  -6  153.38    7.30
   1  -4  -6  167.78    6.80
   1  -4  -6  156.08    6.80
  -1   4   6  164.18    7.10
  -1   4   6  164.58    7.20
  -1   4   6  159.88    7.30
   0  -4  -6   86.59    5.70
   0  -4  -6   88.79    4.80
   0  -4  -6   82.79    5.50
   0  -4  -6   90.19    5.10
   0   4   6   95.29    5.50
   0   4   6   79.59    5.20
  -1  -4  -6   63.49    5.30
  -1  -4  -6   66.29    4.70
  -1  -4  -6   66.89    4.80
   1   4   6   64.69    5.10
   1   4   6   66.09    5.10
   1   4   6   60.79    5.20
   1   4   6   56.79    5.50
  -2  -4  -6  112.99    7.20
  -2  -4  -6  130.09    6.50
  -2  -4  -6  123.49    7.60
  -2  -4  -6  109.69    7.60
   2   4   6  107.29    8.00
   2   4   6  120.89    7.50
   2   4   6  128.49    7.40
   2   4   6  122.29    7.10
  -3  -4  -6   34.00    5.90
  -3  -4  -6   45.00    7.60
  -3  -4  -6   33.10    4.50
   3   4   6   20.90    4.60
   3   4   6   31.90    6.20
   3   4   6   37.70    6.10
   8  -5  -6  266.77   10.10
   8  -5  -6  262.87   12.40
   8  -5  -6  262.67   10.90
   7  -5  -6   49.99    5.90
   7  -5  -6   36.10    5.00
   7  -5  -6   47.60    6.40
   7  -5  -6   48.90    4.20
   6  -5  -6   -2.30    2.60
   6  -5  -6    1.00    1.80
   6  -5  -6   -1.30    2.20
   6  -5  -6    2.10    2.40
  -6   5   6   -0.30    2.70
   5  -5  -6   27.50    4.50
   5  -5  -6   23.20    4.50
   5  -5  -6   29.60    4.00
   5  -5  -6   23.80    3.30
  -5   5   6   25.10    2.90
  -5   5   6   25.50    2.70
   4  -5  -6  113.19    6.40
   4  -5  -6  125.19    6.10
   4  -5  -6  124.99    6.60
   4  -5  -6  127.19    6.70
  -4   5   6  126.69    5.70
  -4   5   6  133.69    6.10
   3  -5  -6 1913.71   57.09
   3  -5  -6 1914.91   57.29
   3  -5  -6 1866.41   56.99
   3  -5  -6 1986.10   57.59
  -3   5   6 1795.02   56.89
  -3   5   6 1836.92   57.89
   2  -5  -6  242.58    9.50
   2  -5  -6  220.28    9.50
  -2   5   6  249.48   10.50
  -2   5   6  243.98   10.00
  -2   5   6  260.77    9.90
   1  -5  -6  353.06   13.30
   1  -5  -6  369.66   13.10
  -1   5   6  382.56   13.80
  -1   5   6  367.66   14.00
   0  -5  -6  818.32   28.00
   0  -5  -6  860.41   27.70
   0  -5  -6  866.21   27.30
   0   5   6  885.31   28.30
   0   5   6  850.81   28.20
   0   5   6  868.91   28.30
  -1  -5  -6    5.90    2.70
  -1  -5  -6   11.10    3.00
  -1  -5  -6    2.20    3.60
   1   5   6   -0.70    2.70
   1   5   6    0.50    3.20
   1   5   6    4.30    3.00
  -2  -5  -6  722.03   25.20
  -2  -5  -6  736.03   23.80
  -2  -5  -6  711.63   24.60
   2   5   6  728.13   25.30
   2   5   6  693.73   25.10
   2   5   6  726.83   25.10
   8  -6  -6  601.74   23.10
   8  -6  -6  668.93   21.30
   8  -6  -6  622.64   23.30
   7  -6  -6  170.38   10.00
   7  -6  -6  181.98    9.70
   7  -6  -6  194.38    8.60
   7  -6  -6  182.78   10.20
   6  -6  -6  141.39    8.30
   6  -6  -6  132.69    8.10
   6  -6  -6  136.49    7.10
   6  -6  -6  123.29    8.30
   5  -6  -6  156.28    8.10
   5  -6  -6  151.48    8.30
   5  -6  -6  148.69    7.40
   5  -6  -6  148.39    8.30
  -5   6   6  146.19    7.00
  -5   6   6  151.58    6.60
   4  -6  -6   38.10    4.30
   4  -6  -6   35.30    4.80
   4  -6  -6   34.40    5.30
   4  -6  -6   32.70    5.50
  -4   6   6   36.90    4.70
  -4   6   6   43.70    7.10
   3  -6  -6  390.06   13.80
   3  -6  -6  356.46   13.60
   3  -6  -6  349.96   13.90
   3  -6  -6  365.36   14.50
  -3   6   6  369.26   13.50
  -3   6   6  348.47   14.80
   2  -6  -6 1291.77   39.10
   2  -6  -6 1204.28   39.30
  -2   6   6 1177.48   40.20
  -2   6   6 1235.58   39.80
  -2   6   6 1363.66   39.90
   1  -6  -6    1.70    2.30
   1  -6  -6    0.10    2.60
  -1   6   6    8.50    3.50
  -1   6   6    1.00    2.50
   0  -6  -6  464.35   16.70
   0  -6  -6  450.45   16.20
   0   6   6  462.85   17.20
   0   6   6  455.25   17.50
   0   6   6  417.86   17.60
  -1  -6  -6  249.08   11.60
  -1  -6  -6  242.18   11.10
   1   6   6  224.28   11.80
   1   6   6  249.18   12.20
   8  -7  -6    0.00    4.50
   8  -7  -6    7.50    4.10
   7  -7  -6   44.70    7.70
   7  -7  -6   42.60    6.20
   6  -7  -6    1.40    3.40
   6  -7  -6   -4.80    2.80
  -6   7   6   15.20    4.40
  -6   7   6    1.00    2.10
   5  -7  -6  946.01   30.40
   5  -7  -6 1014.40   31.10
  -5   7   6  905.61   29.50
  -5   7   6  840.32   29.60
   4  -7  -6   29.30    5.80
   4  -7  -6   33.00    5.40
  -4   7   6   34.10    4.80
  -4   7   6   24.80    6.10
   3  -7  -6  155.68    8.30
   3  -7  -6  125.99    8.10
  -3   7   6  140.29    8.00
   2  -7  -6    0.80    2.80
  -2   7   6   -0.60    2.80
   1  -7  -6   15.70    3.90
   1  -7  -6   16.50    3.70
  -1   7   6   17.40    4.10
   0  -7  -6   16.10    4.50
   0  -7  -6   17.90    4.10
   0   7   6   11.90    4.50
   6  -8  -6  371.56   15.70
   6  -8  -6  368.96   16.40
  -6   8   6  394.96   14.10
   5  -8  -6   33.10    6.80
   5  -8  -6   43.60    7.60
  -5   8   6   41.20    5.60
   4  -8  -6    1.60    3.70
   4  -8  -6   -5.00    3.70
  -4   8   6    1.50    3.40
   3  -8  -6   41.80    7.10
   3  -8  -6   41.50    7.20
  -3   8   6   29.70    6.50
   2  -8  -6   52.09    8.20
   2  -8  -6   61.29    8.20
  -2   8   6   62.09    7.80
   0   8  -7   95.29   10.60
   0   8  -7  121.19    8.50
   0  -8   7  109.69   10.60
  -1   8  -7   84.19    8.00
  -1   8  -7   84.59    6.90
   1  -8   7   79.99    9.00
   1  -8   7   88.49    8.00
  -2   8  -7    6.50    3.70
  -2   8  -7    9.70    3.30
   2  -8   7   14.30    4.90
   2  -8   7   30.00    8.30
   2  -8   7    7.80    4.10
  -3   8  -7    7.80    3.70
  -3   8  -7    3.80    3.00
   3  -8   7    1.10    4.60
   3  -8   7    8.90    4.60
   3  -8   7    4.20    5.80
   3  -8   7    7.80    4.60
  -4   8  -7   -1.40    2.70
  -4   8  -7   -0.60    3.50
   4  -8   7    4.50    4.70
   4  -8   7    2.90    4.70
  -5   8  -7  179.18    9.80
   5  -8   7  197.28   13.30
   5  -8   7  167.18   11.60
   2   7  -7   18.00    4.50
   2   7  -7   39.80    7.50
  -2  -7   7   23.60    5.00
   1   7  -7  166.98   10.10
   1   7  -7  181.98    9.70
  -1  -7   7  193.68   10.90
   0   7  -7  388.96   15.00
   0   7  -7  375.66   15.80
   0  -7   7  413.36   16.20
   0  -7   7  422.46   14.30
  -1   7  -7  492.05   17.30
  -1   7  -7  465.55   18.20
   1  -7   7  503.05   17.80
   1  -7   7  512.35   18.70
   1  -7   7  479.85   18.00
  -2   7  -7  312.77   12.80
  -2   7  -7  305.77   11.40
   2  -7   7  302.27   13.10
   2  -7   7  300.47   12.20
   2  -7   7  294.97   13.20
  -3   7  -7  135.89    6.30
  -3   7  -7  123.89    8.10
  -3   7  -7  129.89    7.70
   3  -7   7  134.69    8.70
   3  -7   7  142.09    9.20
  -4   7  -7    0.80    3.10
  -4   7  -7   -3.30    2.60
  -4   7  -7    1.00    1.90
   4  -7   7   -1.60    3.40
   4  -7   7  -10.40    4.30
   4  -7   7    2.80    3.90
  -5   7  -7   -2.30    3.20
  -5   7  -7   13.40    3.30
   5  -7   7    3.60    4.10
   5  -7   7   15.10    4.90
   6  -7   7   35.20    9.90
   3   6  -7  157.38    9.80
   3   6  -7  150.28    9.60
  -3  -6   7  159.08    8.60
   2   6  -7  157.78    8.70
   2   6  -7  153.88    8.70
  -2  -6   7  158.18    8.70
  -2  -6   7  146.29    6.50
   1   6  -7   -1.40    2.40
   1   6  -7    6.10    2.70
  -1  -6   7    6.90    4.00
  -1  -6   7    0.80    2.90
  -1  -6   7   -0.70    3.40
  -1  -6   7   -0.50    1.50
   0   6  -7   12.00    2.80
   0   6  -7   13.80    4.00
   0  -6   7   16.00    3.30
   0  -6   7   12.30    3.60
   0  -6   7    9.70    3.20
   0  -6   7    7.10    2.40
  -1   6  -7  273.17   11.00
  -1   6  -7  255.27    9.90
   1  -6   7  246.38   11.00
   1  -6   7  252.27   10.80
   1  -6   7  264.37   10.50
  -2   6  -7  388.06   14.50
  -2   6  -7  387.56   13.20
   2  -6   7  398.46   14.20
   2  -6   7  380.56   14.90
   2  -6   7  378.86   14.70
  -3   6  -7  399.76   14.40
  -3   6  -7  382.66   12.80
   3  -6   7  368.46   14.70
   3  -6   7  385.46   14.90
   3  -6   7  395.26   14.70
   3  -6   7  404.26   15.60
  -4   6  -7    3.80    2.20
  -4   6  -7   -1.30    2.40
   4  -6   7    2.70    3.20
   4  -6   7    3.80    3.00
  -5   6  -7    2.00    2.20
  -5   6  -7    1.70    2.60
   5  -6   7    5.20    4.80
   5  -6   7    6.40    3.90
   5  -6   7    1.70    3.20
   6  -6   7   62.79    7.30
   6  -6   7   70.49    9.60
   4   5  -7  117.29    8.30
   4   5  -7  108.59    7.80
   3   5  -7   17.20    4.60
   3   5  -7   11.70    3.60
   3   5  -7   18.40    4.90
  -3  -5   7   13.70    2.70
  -3  -5   7   22.80    4.70
   2   5  -7  238.48   10.20
   2   5  -7  235.28   10.20
   2   5  -7  237.88   10.50
  -2  -5   7  237.48    9.60
  -2  -5   7  250.57   10.10
   1   5  -7   -0.30    2.30
   1   5  -7    1.10    1.80
   1   5  -7    3.10    1.90
  -1  -5   7    2.40    2.80
  -1  -5   7    0.70    2.30
  -1  -5   7    2.40    2.20
  -1  -5   7    2.20    1.50
   0   5  -7  329.87   12.00
   0   5  -7  351.46   12.70
   0  -5   7  317.87   12.50
   0  -5   7  323.87   12.00
   0  -5   7  339.47   12.30
   0  -5   7  335.77   12.40
  -1   5  -7  133.09    6.80
  -1   5  -7  136.39    6.00
  -1   5  -7  143.79    6.90
   1  -5   7  149.49    7.20
   1  -5   7  139.49    6.20
   1  -5   7  131.89    6.70
  -2   5  -7   57.89    4.40
  -2   5  -7   60.19    3.30
  -2   5  -7   58.99    4.30
   2  -5   7   60.49    4.40
   2  -5   7   50.99    4.60
  -3   5  -7    4.10    1.20
  -3   5  -7   12.40    3.20
  -3   5  -7    1.50    1.70
   3  -5   7    1.60    2.50
   3  -5   7   -1.60    2.20
   3  -5   7    0.20    2.10
  -4   5  -7   -0.80    1.90
  -4   5  -7   -0.20    1.70
   4  -5   7    0.40    2.50
   4  -5   7    3.20    3.40
   4  -5   7   -3.80    2.20
  -5   5  -7  368.46   12.50
   5  -5   7  363.96   13.90
   5  -5   7  364.16   13.90
   5  -5   7  354.96   14.60
   6  -5   7   30.80    6.70
   6  -5   7   34.90    5.90
   7  -5   7   70.09    8.00
   5   4  -7  453.65   17.60
   5   4  -7  483.35   17.10
   5   4  -7  413.46   20.90
   4   4  -7  883.01   30.20
   4   4  -7 1003.60   30.40
   4   4  -7  914.31   30.60
   3   4  -7   52.09    4.80
   3   4  -7   55.89    4.60
   3   4  -7   52.59    5.00
  -3  -4   7   58.99    3.90
  -3  -4   7   57.39    4.30
   2   4  -7  106.09    5.80
   2   4  -7  103.69    5.60
   2   4  -7   97.19    5.60
  -2  -4   7   99.89    5.50
  -2  -4   7  102.39    5.10
   1   4  -7   23.00    3.40
   1   4  -7   22.30    3.00
   1   4  -7   22.90    3.00
  -1  -4   7   24.70    2.60
  -1  -4   7   22.30    3.10
  -1  -4   7   22.40    3.20
   0   4  -7  215.18    8.00
   0   4  -7  210.98    8.40
   0   4  -7  198.48    8.30
   0  -4   7  204.08    8.50
   0  -4   7  203.68    8.20
  -1   4  -7 1334.87   41.40
  -1   4  -7 1373.66   42.10
   1  -4   7 1346.37   41.30
   1  -4   7 1427.16   42.10
   1  -4   7 1412.56   42.40
  -2   4  -7  198.38    8.00
  -2   4  -7  195.08    6.80
  -2   4  -7  194.68    7.80
   2  -4   7  196.68    7.80
   2  -4   7  195.38    8.20
   2  -4   7  196.68    8.00
  -3   4  -7  213.58    8.30
  -3   4  -7  217.58    8.50
   3  -4   7  218.58    8.80
   3  -4   7  212.18    8.70
   3  -4   7  208.78    8.60
  -4   4  -7   41.80    3.60
  -4   4  -7   43.20    3.60
   4  -4   7   41.40    4.80
   4  -4   7   38.30    4.00
   4  -4   7   42.80    4.30
  -5   4  -7  517.25   16.30
  -5   4  -7  517.85   16.30
   5  -4   7  511.95   17.70
   5  -4   7  532.05   17.90
   5  -4   7  497.45   18.50
   6  -4   7  218.68   10.50
   6  -4   7  236.68   10.30
   7  -4   7   60.59    7.50
   6   3  -7   23.60    6.80
   6   3  -7   13.00    4.10
   6   3  -7   16.60    3.70
   5   3  -7  180.18    8.80
   5   3  -7  178.48    9.20
   5   3  -7  192.78    8.50
   4   3  -7  185.98    8.20
   4   3  -7  192.98    8.10
   4   3  -7  184.68    8.70
   3   3  -7  911.11   27.80
   3   3  -7  848.62   27.70
   3   3  -7  888.71   28.30
  -3  -3   7  877.31   27.00
  -3  -3   7  867.51   26.70
   2   3  -7  442.06   15.40
   2   3  -7  469.55   15.30
   2   3  -7  451.15   15.30
  -2  -3   7  459.55   14.70
  -2  -3   7  438.76   14.90
  -2  -3   7  450.15   13.60
   1   3  -7   16.00    2.50
   1   3  -7   15.00    2.30
   1   3  -7   15.90    2.30
  -1  -3   7   18.40    2.70
  -1  -3   7   15.90    2.40
   0   3  -7 2983.20   88.99
   0   3  -7 2918.21   88.59
   0   3  -7 3001.30   88.99
   0  -3   7 2964.20   88.99
   0  -3   7 3177.68   88.79
  -1   3  -7  305.87   10.60
  -1   3  -7  296.97   10.60
  -1   3  -7  294.67    9.90
   1  -3   7  328.37   10.60
   1  -3   7  284.07   10.70
   1  -3   7  282.97    9.90
  -2   3  -7  615.44   19.90
  -2   3  -7  628.54   19.90
  -2   3  -7  620.04   18.80
   2  -3   7  604.04   19.80
   2  -3   7  641.44   19.70
   2  -3   7  613.94   20.10
  -3   3  -7  104.99    5.00
  -3   3  -7   99.69    4.90
   3  -3   7  111.29    5.30
   3  -3   7  106.89    5.40
   3  -3   7  107.49    5.40
  -4   3  -7    5.60    1.60
  -4   3  -7    5.30    1.70
   4  -3   7    3.30    2.10
   4  -3   7    5.30    2.00
   4  -3   7   10.80    2.70
   5  -3   7    5.80    2.30
   5  -3   7    2.70    2.50
   5  -3   7    1.70    3.40
   6  -3   7  224.18    9.60
   6  -3   7  198.08    9.90
   7  -3   7   36.00    6.90
   7   2  -7   11.20    4.20
   7   2  -7    9.90    4.00
   6   2  -7  167.18    8.40
   6   2  -7  179.58    7.90
   6   2  -7  181.38    9.40
   5   2  -7   31.90    4.00
   5   2  -7   31.00    3.50
   5   2  -7   25.30    4.30
   4   2  -7   -0.40    1.60
   4   2  -7   -0.20    1.30
   4   2  -7    1.90    1.70
   3   2  -7    0.40    1.50
   3   2  -7    1.00    1.30
   3   2  -7    0.80    1.10
  -3  -2   7   -0.70    1.20
  -3  -2   7    0.10    0.90
   2   2  -7   27.40    2.40
   2   2  -7   20.80    2.50
   2   2  -7   30.30    2.80
  -2  -2   7   26.10    2.40
  -2  -2   7   28.80    1.80
  -2  -2   7   24.40    2.20
   1   2  -7 1730.43   51.19
   1   2  -7 1649.83   51.19
   1   2  -7 1659.53   51.19
  -1  -2   7 1682.73   51.19
  -1  -2   7 1774.12   50.89
  -1  -2   7 1765.52   50.39
   0   2  -7 1235.98   37.30
   0   2  -7 1229.38   37.60
   0   2  -7 1210.98   37.60
   0  -2   7 1270.97   37.70
   0  -2   7 1216.48   36.40
   0  -2   7 1275.57   37.40
  -1   2  -7 2155.08   64.09
  -1   2  -7 2267.87   64.39
  -1   2  -7 2213.48   64.39
  -1   2  -7 2149.19   63.69
   1  -2   7 2075.79   64.39
   1  -2   7 2175.88   63.69
   1  -2   7 2113.59   64.19
  -2   2  -7  839.02   26.50
  -2   2  -7  841.22   26.10
  -2   2  -7  864.61   26.20
   2  -2   7  844.12   25.90
   2  -2   7  843.52   26.30
   2  -2   7  819.32   26.10
  -3   2  -7  349.27   12.80
  -3   2  -7  338.07   11.80
  -3   2  -7  331.57   11.70
   3  -2   7  354.56   12.00
   3  -2   7  365.46   12.30
   3  -2   7  345.17   12.20
  -4   2  -7    0.20    1.40
  -4   2  -7    0.80    1.20
  -4   2  -7    1.90    2.50
   4  -2   7    3.30    2.30
   4  -2   7    3.10    1.80
   4  -2   7   -1.70    1.80
  -5   2  -7   83.89    7.00
   5  -2   7   99.29    5.70
   5  -2   7   78.09    6.50
   5  -2   7   88.99    5.80
  -6   2  -7   10.00    5.00
   6  -2   7   -2.80    2.80
   6  -2   7    4.00    3.50
   7   1  -7    6.50    3.60
   7   1  -7   25.90    4.10
   6   1  -7  539.75   19.50
   6   1  -7  560.84   18.00
   6   1  -7  561.84   18.00
   5   1  -7  117.89    5.40
   5   1  -7  116.19    6.40
   5   1  -7  116.49    5.20
   4   1  -7  247.48    8.60
   4   1  -7  240.88    9.60
   4   1  -7  251.67    8.70
  -4  -1   7  227.88    7.90
   3   1  -7   36.50    2.50
   3   1  -7   35.40    2.70
   3   1  -7   35.20    3.00
  -3  -1   7   33.50    2.20
  -3  -1   7   33.70    2.30
  -3  -1   7   36.70    2.20
   2   1  -7   15.40    1.90
   2   1  -7   14.70    1.90
  -2  -1   7   18.00    1.90
  -2  -1   7   13.20    1.70
  -2  -1   7   17.10    1.60
   1   1  -7   90.39    4.00
   1   1  -7   85.89    4.10
  -1  -1   7   84.69    4.10
  -1  -1   7   91.79    3.70
  -1  -1   7   90.39    3.90
   0   1  -7 6186.78  180.88
   0  -1   7 6300.57  180.48
   0  -1   7 6014.00  180.88
   0  -1   7 6301.67  180.68
  -1   1  -7   16.20    2.00
  -1   1  -7   18.70    2.20
  -1   1  -7   16.80    2.10
   1  -1   7   20.80    1.90
   1  -1   7   17.60    2.20
   1  -1   7   14.30    2.20
  -2   1  -7 2655.43   78.39
  -2   1  -7 2737.73   79.29
  -2   1  -7 2568.84   79.09
  -2   1  -7 2723.43   79.69
   2  -1   7 2655.53   79.39
   2  -1   7 2698.03   79.19
   2  -1   7 2725.83   78.99
  -3   1  -7  967.80   29.70
  -3   1  -7  966.40   28.90
  -3   1  -7  953.50   29.60
  -3   1  -7  968.50   30.90
   3  -1   7  943.81   29.90
   3  -1   7  989.80   30.00
   3  -1   7  988.10   30.20
  -4   1  -7 1173.28   35.40
  -4   1  -7 1183.08   35.50
  -4   1  -7 1148.29   34.90
  -4   1  -7 1184.58   37.80
   4  -1   7 1195.78   36.50
   4  -1   7 1198.78   36.40
  -5   1  -7  199.78   10.50
   5  -1   7  184.28    8.50
   5  -1   7  189.38    8.80
  -6   1  -7  362.26   16.60
   6  -1   7  374.56   14.00
   6  -1   7  343.77   14.50
   8   0  -7   11.50    4.50
   7   0  -7  589.74   19.10
   7   0  -7  618.04   21.30
   7   0  -7  617.54   19.10
   7   0  -7  606.54   19.60
   7   0  -7  577.74   18.30
   6   0  -7 1733.43   50.69
   6   0  -7 1686.93   50.69
   6   0  -7 1705.43   52.39
   6   0  -7 1720.43   50.89
   6   0  -7 1664.63   50.09
   5   0  -7 1507.75   44.10
   5   0  -7 1469.55   43.60
   5   0  -7 1451.95   43.90
   5   0  -7 1465.15   44.00
   5   0  -7 1487.55   45.50
   4   0  -7    9.10    1.70
   4   0  -7    7.00    1.40
   4   0  -7    6.40    1.40
   4   0  -7    5.60    1.60
  -4   0   7    6.00    1.40
   3   0  -7 1178.48   35.00
   3   0  -7 1187.78   35.30
   3   0  -7 1247.48   35.50
  -3   0   7 1104.59   35.00
  -3   0   7 1173.88   35.40
  -3   0   7 1169.08   34.90
   2   0  -7   53.69    2.70
   2   0  -7   56.19    3.10
   2   0  -7   57.99    3.00
  -2   0   7   58.99    2.90
  -2   0   7   56.79    2.90
  -2   0   7   48.90    2.80
   1   0  -7  974.70   29.30
   1   0  -7 1000.80   30.00
   1   0  -7  935.61   30.10
  -1   0   7 1018.60   29.80
  -1   0   7  993.00   29.90
  -1   0   7 1008.70   30.10
   0   0  -7 2006.50   59.29
   0   0  -7 1971.00   58.89
   0   0  -7 2048.30   59.49
   0   0   7 2051.59   59.09
   0   0   7 1869.81   59.29
   0   0   7 2036.50   59.29
  -1   0  -7   88.29    4.20
  -1   0  -7   93.19    4.00
  -1   0  -7   97.79    4.50
  -1   0  -7   93.89    4.30
   1   0   7   86.49    4.30
   1   0   7   92.49    4.40
   1   0   7   87.19    4.40
  -2   0  -7  563.24   17.60
  -2   0  -7  535.55   17.70
  -2   0  -7  538.95   17.20
  -2   0  -7  557.24   18.20
   2   0   7  546.25   17.90
   2   0   7  556.04   17.80
   2   0   7  552.24   17.80
  -3   0  -7 7697.33  229.08
  -3   0  -7 7913.31  229.58
  -3   0  -7 7697.13  229.28
  -3   0  -7 7714.73  230.78
   3   0   7 7911.61  229.98
   3   0   7 8349.06  229.98
   3   0   7 7887.41  230.08
  -4   0  -7    7.60    1.80
  -4   0  -7   14.90    3.40
  -4   0  -7    9.50    2.70
  -4   0  -7    9.80    2.30
   4   0   7   17.60    3.70
   4   0   7   11.10    2.70
   4   0   7   14.10    4.10
  -5   0  -7  371.16   15.60
  -5   0  -7  353.16   12.30
   5   0   7  350.06   13.80
   5   0   7  361.96   13.60
  -6   0  -7   87.69    9.90
   6   0   7  105.39    8.10
   8  -1  -7  135.79    8.60
   8  -1  -7  124.59    8.70
   8  -1  -7  129.49    6.80
   7  -1  -7    9.90    3.00
   7  -1  -7    7.60    3.10
   7  -1  -7    5.80    1.80
   7  -1  -7    5.70    1.50
   6  -1  -7  534.25   18.00
   6  -1  -7  512.65   16.40
   6  -1  -7  492.75   16.10
   6  -1  -7  525.55   17.00
   6  -1  -7  497.25   16.00
   5  -1  -7 2166.78   62.89
   5  -1  -7 2050.39   62.69
   5  -1  -7 2117.69   63.19
   5  -1  -7 2119.69   62.69
  -5   1   7 2176.58   63.69
   4  -1  -7   22.20    2.10
   4  -1  -7   20.90    2.20
   4  -1  -7   25.00    2.10
  -4   1   7   23.10    2.70
   3  -1  -7  118.09    4.60
   3  -1  -7  114.49    4.80
   3  -1  -7  114.39    4.70
  -3   1   7  121.59    5.20
  -3   1   7  118.79    4.50
  -3   1   7  113.89    4.50
   2  -1  -7  100.39    4.30
   2  -1  -7   97.49    4.50
   2  -1  -7  108.49    4.30
  -2   1   7  108.19    4.40
  -2   1   7  106.59    4.60
  -2   1   7   95.89    4.30
   1  -1  -7  617.04   19.40
   1  -1  -7  625.64   19.30
  -1   1   7  616.04   19.40
  -1   1   7  633.64   19.40
  -1   1   7  599.24   19.50
   0  -1  -7  587.44   18.50
   0  -1  -7  574.04   18.10
   0  -1  -7  596.04   18.50
   0   1   7  595.54   18.40
   0   1   7  590.54   18.50
   0   1   7  546.05   18.60
  -1  -1  -7   92.49    4.30
  -1  -1  -7   83.59    4.20
  -1  -1  -7   86.99    4.40
  -1  -1  -7   95.69    4.70
   1   1   7   90.99    4.50
   1   1   7   86.69    4.60
   1   1   7   89.79    4.50
  -2  -1  -7  449.16   14.70
  -2  -1  -7  440.76   14.80
  -2  -1  -7  458.85   15.60
  -2  -1  -7  453.75   15.10
   2   1   7  447.36   15.00
   2   1   7  430.26   15.30
   2   1   7  470.95   15.30
  -3  -1  -7  108.09    6.40
  -3  -1  -7   99.89    4.80
  -3  -1  -7  102.69    5.10
   3   1   7  102.49    5.70
   3   1   7   99.39    5.80
   3   1   7   94.09    5.60
  -4  -1  -7  742.63   24.70
  -4  -1  -7  705.03   22.60
  -4  -1  -7  704.13   21.80
   4   1   7  704.13   23.30
   4   1   7  671.33   23.00
   4   1   7  671.03   23.20
  -5  -1  -7  270.57   11.30
  -5  -1  -7  278.57   14.20
   5   1   7  292.97   12.20
   8  -2  -7  116.19    8.10
   8  -2  -7  124.39    6.70
   8  -2  -7  114.59    8.60
   7  -2  -7   15.40    3.60
   7  -2  -7   14.20    3.60
   7  -2  -7   13.20    2.30
   7  -2  -7   12.80    3.20
   7  -2  -7   14.10    2.90
   6  -2  -7   23.70    2.40
   6  -2  -7   24.20    3.20
   6  -2  -7   29.80    3.90
   6  -2  -7   28.10    2.80
  -6   2   7   27.80    4.10
   5  -2  -7  109.59    4.60
   5  -2  -7  104.19    4.70
   5  -2  -7  111.89    5.20
  -5   2   7  107.69    5.80
   4  -2  -7  201.08    7.40
   4  -2  -7  196.68    7.10
   4  -2  -7  188.68    7.30
  -4   2   7  195.48    6.60
  -4   2   7  190.08    6.60
  -4   2   7  205.28    8.20
   3  -2  -7 1912.21   57.89
   3  -2  -7 1978.50   57.99
   3  -2  -7 1997.40   58.19
  -3   2   7 1879.91   57.69
  -3   2   7 1985.30   57.79
   2  -2  -7   29.80    2.40
   2  -2  -7   27.70    2.40
   2  -2  -7   21.90    2.50
  -2   2   7   27.00    2.70
  -2   2   7   27.80    2.50
  -2   2   7   23.70    2.30
   1  -2  -7 1020.30   33.10
   1  -2  -7 1099.99   33.00
   1  -2  -7 1109.09   33.20
   1  -2  -7 1075.59   32.80
  -1   2   7 1071.19   33.00
  -1   2   7 1153.68   33.10
  -1   2   7 1021.10   33.00
   0  -2  -7  255.37    9.20
   0  -2  -7  236.28    8.80
   0  -2  -7  232.48    8.70
   0  -2  -7  227.08    8.60
   0   2   7  248.68    8.90
   0   2   7  237.58    8.90
   0   2   7  226.08    8.90
  -1  -2  -7  686.53   21.90
  -1  -2  -7  698.13   21.70
  -1  -2  -7  669.83   22.10
  -1  -2  -7  682.33   21.80
   1   2   7  712.53   22.20
   1   2   7  654.43   22.10
   1   2   7  686.83   21.80
  -2  -2  -7  210.78    8.10
  -2  -2  -7  215.68    9.00
  -2  -2  -7  213.78    8.70
  -2  -2  -7  212.58    8.40
   2   2   7  212.48    8.80
   2   2   7  209.98    9.00
   2   2   7  203.88    8.40
  -3  -2  -7   -1.80    2.40
  -3  -2  -7    2.70    2.20
  -3  -2  -7    2.20    1.60
  -3  -2  -7    1.80    2.80
   3   2   7    3.00    2.10
   3   2   7    2.40    2.90
   3   2   7    2.60    2.40
  -4  -2  -7    9.30    4.30
  -4  -2  -7   -0.70    3.40
   4   2   7    6.90    3.60
   4   2   7    6.50    3.10
   5   2   7  616.74   22.20
   8  -3  -7  290.97   10.00
   8  -3  -7  294.97   12.60
   8  -3  -7  280.17   13.50
   8  -3  -7  304.67   11.90
   7  -3  -7   16.50    3.40
   7  -3  -7   28.00    5.30
   7  -3  -7   22.60    2.90
   7  -3  -7   18.50    4.00
   6  -3  -7    4.00    1.60
   6  -3  -7    7.00    2.00
   6  -3  -7    3.00    1.40
  -6   3   7    1.50    2.40
   5  -3  -7   22.40    2.90
   5  -3  -7   30.40    3.30
   5  -3  -7   28.40    2.70
  -5   3   7   24.60    4.00
   4  -3  -7  282.27   10.00
   4  -3  -7  273.87   10.20
   4  -3  -7  301.97   10.50
  -4   3   7  273.07    9.50
  -4   3   7  291.87    9.70
  -4   3   7  294.77   11.20
   3  -3  -7 3695.13  106.49
   3  -3  -7 3609.74  106.79
   3  -3  -7 3650.43  106.59
  -3   3   7 3501.25  106.39
  -3   3   7 3779.32  107.49
  -3   3   7 3497.45  106.29
   2  -3  -7  636.64   20.70
   2  -3  -7  634.54   20.30
   2  -3  -7  647.14   20.80
   2  -3  -7  647.94   20.40
  -2   3   7  644.04   20.50
  -2   3   7  642.74   20.90
  -2   3   7  620.44   20.40
   1  -3  -7  947.41   29.40
   1  -3  -7 1002.20   30.00
   1  -3  -7  900.01   29.40
   1  -3  -7  940.01   29.70
  -1   3   7  969.20   29.80
  -1   3   7  947.41   29.80
  -1   3   7  950.10   29.70
   0  -3  -7 1793.42   52.89
   0  -3  -7 1793.32   52.89
   0  -3  -7 1672.73   53.29
   0  -3  -7 1742.13   52.99
   0   3   7 1747.53   53.19
   0   3   7 1782.92   53.09
  -1  -3  -7   26.00    3.70
  -1  -3  -7   22.60    3.90
  -1  -3  -7   23.50    3.50
  -1  -3  -7   24.10    3.20
   1   3   7   20.00    3.80
   1   3   7   20.40    3.50
   1   3   7   32.10    4.30
  -2  -3  -7 1557.24   53.09
  -2  -3  -7 1804.82   52.79
  -2  -3  -7 1831.52   53.89
  -2  -3  -7 1766.92   53.29
   2   3   7 1747.23   53.69
   2   3   7 1685.03   53.09
   2   3   7 1837.92   53.79
  -3  -3  -7   55.29    6.70
  -3  -3  -7   47.60    5.50
  -3  -3  -7   45.00    4.30
  -3  -3  -7   45.70    6.10
   3   3   7   53.09    5.60
   3   3   7   47.00    6.50
  -4  -3  -7    8.50    5.10
   4   3   7    5.20    4.30
   8  -4  -7  675.83   23.30
   8  -4  -7  682.53   21.50
   7  -4  -7  115.79    6.90
   7  -4  -7  114.59    6.10
   7  -4  -7  113.19    8.30
   7  -4  -7  113.79    5.50
   6  -4  -7  190.38    7.60
   6  -4  -7  195.98    8.80
   6  -4  -7  193.88    8.10
   5  -4  -7  376.06   13.50
   5  -4  -7  382.96   12.90
   5  -4  -7  363.26   13.10
  -5   4   7  373.06   14.50
   4  -4  -7   75.69    5.10
   4  -4  -7   70.99    4.20
   4  -4  -7   64.59    4.60
   4  -4  -7   68.79    4.60
  -4   4   7   69.39    3.80
  -4   4   7   69.39    5.50
  -4   4   7   72.29    4.10
   3  -4  -7  537.45   18.00
   3  -4  -7  575.24   18.60
   3  -4  -7  553.74   18.00
   3  -4  -7  553.64   18.50
  -3   4   7  560.44   17.90
  -3   4   7  516.65   17.90
  -3   4   7  523.15   18.80
   2  -4  -7 1521.95   46.40
   2  -4  -7 1523.35   46.00
   2  -4  -7 1542.55   46.70
   2  -4  -7 1496.25   46.10
  -2   4   7 1540.25   46.90
  -2   4   7 1495.25   46.20
  -2   4   7 1500.85   46.30
   1  -4  -7   71.49    4.90
   1  -4  -7   62.59    5.10
   1  -4  -7   60.29    4.30
   1  -4  -7   66.99    4.30
  -1   4   7   62.99    4.50
  -1   4   7   67.49    5.10
  -1   4   7   63.49    4.90
   0  -4  -7  801.62   27.30
   0  -4  -7  829.42   26.70
   0  -4  -7  859.21   26.80
   0   4   7  825.92   27.20
   0   4   7  879.11   27.40
  -1  -4  -7  265.37   10.70
  -1  -4  -7  261.47   10.30
   1   4   7  260.47   11.00
   1   4   7  264.47   11.00
   1   4   7  245.98   11.20
  -2  -4  -7   25.60    4.60
  -2  -4  -7   21.10    5.80
  -2  -4  -7   27.30    5.90
   2   4   7   18.70    4.00
   2   4   7   25.80    5.50
   2   4   7   20.20    5.20
  -3  -4  -7  371.06   14.20
  -3  -4  -7  415.66   17.10
   3   4   7  408.26   16.20
   3   4   7  398.56   16.10
   8  -5  -7   18.10    4.10
   8  -5  -7   25.90    4.40
   8  -5  -7   20.60    6.90
   7  -5  -7    7.30    3.10
   7  -5  -7    1.70    2.80
   7  -5  -7    1.70    2.30
   6  -5  -7   10.30    2.40
   6  -5  -7    4.80    2.70
   6  -5  -7    9.90    3.60
   6  -5  -7    5.50    2.60
  -6   5   7    6.10    3.50
   5  -5  -7 1206.78   38.30
   5  -5  -7 1234.28   38.90
   5  -5  -7 1247.48   38.90
   5  -5  -7 1226.78   38.70
  -5   5   7 1282.87   37.70
  -5   5   7 1234.58   37.40
   4  -5  -7   95.39    6.30
   4  -5  -7   93.19    5.70
   4  -5  -7   85.29    5.90
  -4   5   7   92.09    5.40
  -4   5   7   87.99    4.90
   3  -5  -7  375.06   14.00
   3  -5  -7  402.46   14.00
   3  -5  -7  404.46   14.70
  -3   5   7  388.06   13.90
  -3   5   7  379.56   14.10
   2  -5  -7   52.19    4.30
   2  -5  -7   47.50    4.40
  -2   5   7   49.10    4.50
  -2   5   7   46.60    5.40
   1  -5  -7   26.50    4.10
   1  -5  -7   17.10    5.10
   1  -5  -7   23.30    3.90
  -1   5   7   21.70    4.00
  -1   5   7   16.80    5.00
   0  -5  -7   -1.50    2.30
   0  -5  -7   -2.80    3.10
   0  -5  -7    3.60    3.50
   0  -5  -7    1.20    2.20
   0   5   7    3.80    2.50
   0   5   7   -2.10    2.80
  -1  -5  -7   -3.60    3.10
  -1  -5  -7    5.20    3.90
  -1  -5  -7    0.00    2.70
   1   5   7   -0.40    2.90
   1   5   7   -4.70    3.60
  -2  -5  -7   35.10    7.70
  -2  -5  -7   47.10    6.00
  -2  -5  -7   60.19    8.10
   2   5   7   35.10    7.30
   2   5   7   43.00    7.10
   8  -6  -7  206.48    9.60
   8  -6  -7  203.28   11.50
   7  -6  -7   -0.30    3.30
   7  -6  -7   -0.50    4.00
   7  -6  -7    1.40    2.60
   6  -6  -7 1263.87   38.40
   6  -6  -7 1129.69   37.80
   6  -6  -7 1175.48   38.00
   6  -6  -7 1175.58   37.30
   5  -6  -7   87.79    5.90
   5  -6  -7   84.19    7.20
   5  -6  -7   76.19    7.10
   5  -6  -7   85.39    6.50
  -5   6   7   84.59    5.60
  -5   6   7   81.69    5.10
   4  -6  -7   44.60    4.80
   4  -6  -7   45.70    6.00
   4  -6  -7   43.90    6.20
   4  -6  -7   47.30    5.20
  -4   6   7   33.60    5.10
  -4   6   7   46.70    4.50
  -4   6   7   30.30    6.20
   3  -6  -7  135.79    7.30
   3  -6  -7  145.09    7.50
   3  -6  -7  119.39    8.00
  -3   6   7  129.69    9.10
  -3   6   7  138.99    8.00
   2  -6  -7  331.57   13.20
   2  -6  -7  349.07   13.00
  -2   6   7  357.06   13.50
  -2   6   7  312.87   14.50
   1  -6  -7  677.53   23.60
   1  -6  -7  686.53   23.20
  -1   6   7  720.33   24.10
   0  -6  -7  351.56   14.10
   0  -6  -7  372.26   14.10
   0   6   7  339.97   14.70
  -1  -6  -7   82.69    7.90
  -1  -6  -7   69.99    7.60
   1   6   7   75.09    8.00
   7  -7  -7   52.89    8.30
   7  -7  -7   60.59    6.80
   6  -7  -7    9.60    3.50
   6  -7  -7   13.20    4.00
  -6   7   7   16.10    4.00
  -6   7   7    8.90    3.50
   5  -7  -7  333.97   14.00
   5  -7  -7  329.17   13.60
  -5   7   7  322.47   12.60
   4  -7  -7   34.20    6.10
   4  -7  -7   30.20    5.60
  -4   7   7   41.50    6.60
   3  -7  -7 2047.20   62.49
   3  -7  -7 2034.10   62.99
  -3   7   7 2059.99   62.99
   2  -7  -7   15.60    4.00
   2  -7  -7   32.80    6.10
  -2   7   7   20.00    5.90
   1  -7  -7  311.17   14.30
   1  -7  -7  334.17   13.70
  -1   7   7  342.27   14.60
   6  -8  -7   16.10    4.70
  -6   8   7   23.60    5.60
   5  -8  -7    2.50    4.40
   5  -8  -7   -2.40    3.90
  -5   8   7    3.70    3.30
   4  -8  -7   89.59    8.30
   4  -8  -7   98.29    8.80
   3  -8  -7  349.37   15.10
  -3   8   7  377.16   15.50
  -1   8  -8   24.70    7.00
  -1   8  -8   22.00    6.00
   1  -8   8   19.50    5.60
   1  -8   8   24.40    7.60
  -2   8  -8   81.59    6.60
  -2   8  -8   72.09    8.00
   2  -8   8   84.99    9.10
   2  -8   8   75.69    9.50
  -3   8  -8   71.49    6.00
  -3   8  -8   74.69    7.80
   3  -8   8   71.99    9.90
   3  -8   8   81.39    9.50
   3  -8   8   95.39    9.60
  -4   8  -8   28.90    6.90
   4  -8   8   52.59    9.80
   4  -8   8   20.80    5.70
   1   7  -8    5.60    3.80
   1   7  -8    2.50    3.50
  -1  -7   8    9.40    4.50
   0   7  -8  249.97   12.00
   0   7  -8  250.77   11.10
   0  -7   8  256.77   10.60
   0  -7   8  266.37   12.60
  -1   7  -8   86.19    6.90
  -1   7  -8   72.29    5.60
   1  -7   8   84.09    7.80
   1  -7   8   69.69    7.30
  -2   7  -8  134.39    8.10
  -2   7  -8  125.79    6.70
   2  -7   8  121.79    8.80
   2  -7   8  131.59    9.00
   2  -7   8  135.99    8.40
  -3   7  -8    2.30    2.80
  -3   7  -8    0.70    2.10
   3  -7   8    0.00    3.70
   3  -7   8   -1.20    4.10
   3  -7   8    0.90    3.70
  -4   7  -8   17.90    5.20
  -4   7  -8   32.10    6.30
   4  -7   8   22.80    5.80
   4  -7   8   21.30    4.70
   4  -7   8   16.90    4.80
  -5   7  -8  281.07   12.20
   5  -7   8  313.07   14.20
   5  -7   8  302.07   15.40
   3   6  -8   41.50    7.00
   3   6  -8   46.70    7.10
  -3  -6   8   47.90    6.90
   2   6  -8    2.30    3.10
   2   6  -8    7.10    3.50
  -2  -6   8    5.30    3.50
  -2  -6   8    4.00    3.80
   1   6  -8   56.59    5.90
   1   6  -8   64.59    5.60
  -1  -6   8   62.69    6.50
  -1  -6   8   63.09    4.30
  -1  -6   8   73.99    6.70
   0   6  -8   73.69    6.00
   0   6  -8   90.19    5.60
   0  -6   8   76.49    6.50
   0  -6   8   86.09    5.90
   0  -6   8   86.09    6.70
  -1   6  -8  426.76   16.90
  -1   6  -8  468.05   17.10
  -1   6  -8  480.25   16.10
   1  -6   8  484.55   17.40
   1  -6   8  432.26   16.70
   1  -6   8  487.05   15.90
   1  -6   8  474.95   17.00
  -2   6  -8  157.28    6.80
  -2   6  -8  171.58    8.30
  -2   6  -8  153.18    8.30
   2  -6   8  175.98    8.90
   2  -6   8  161.38    9.00
   2  -6   8  159.18    7.90
  -3   6  -8  130.09    5.40
  -3   6  -8  128.99    7.30
   3  -6   8  128.29    8.10
   3  -6   8  124.39    7.70
  -4   6  -8   11.60    3.10
  -4   6  -8    2.40    2.90
   4  -6   8   12.70    3.50
  -5   6  -8  282.67   11.50
  -5   6  -8  305.07   11.60
   5  -6   8  300.97   13.10
   6  -6   8  118.49    9.20
   4   5  -8   32.10    6.40
   4   5  -8   19.50    4.60
   3   5  -8  287.57   12.50
   3   5  -8  303.07   12.60
  -3  -5   8  313.77   11.70
  -3  -5   8  292.77   11.10
   2   5  -8   47.00    4.80
   2   5  -8   44.70    5.70
   2   5  -8   41.90    4.80
  -2  -5   8   39.10    4.90
  -2  -5   8   45.00    5.30
   1   5  -8    8.90    2.50
   1   5  -8    8.20    2.50
   1   5  -8    6.70    2.80
  -1  -5   8   17.10    4.20
  -1  -5   8    5.10    2.60
  -1  -5   8    4.20    1.90
   0   5  -8  855.01   27.40
   0   5  -8  878.51   28.20
   0  -5   8  835.52   28.00
   0  -5   8  878.91   27.40
  -1   5  -8   91.69    4.70
  -1   5  -8   74.89    6.20
  -1   5  -8   88.89    5.60
   1  -5   8   90.89    6.00
   1  -5   8   81.99    4.70
  -2   5  -8   80.69    4.00
  -2   5  -8   67.59    5.10
  -2   5  -8   80.79    5.30
   2  -5   8   76.69    5.00
   2  -5   8   82.09    5.80
  -3   5  -8   67.39    5.00
  -3   5  -8   69.79    5.10
  -3   5  -8   71.99    3.20
   3  -5   8   71.09    5.70
   3  -5   8   75.99    5.70
   3  -5   8   77.69    5.70
  -4   5  -8   26.60    4.40
  -4   5  -8   25.10    4.00
   4  -5   8   30.40    4.90
   4  -5   8   30.00    5.50
  -5   5  -8    0.00    2.10
   5  -5   8    1.40    3.20
   5  -5   8    2.90    4.40
   5  -5   8    3.80    3.20
   6  -5   8   49.80    7.10
   5   4  -8    1.80    3.20
   5   4  -8    2.20    3.80
   4   4  -8   32.80    5.00
   4   4  -8   40.00    6.00
   4   4  -8   41.10    5.40
   3   4  -8   22.60    4.20
   3   4  -8   26.40    4.00
   3   4  -8   32.70    4.90
  -3  -4   8   22.00    3.50
  -3  -4   8   18.20    4.00
   2   4  -8    6.50    2.30
   2   4  -8    6.30    2.40
   2   4  -8    7.20    2.10
  -2  -4   8    7.50    2.10
  -2  -4   8    8.20    2.40
   1   4  -8 1373.06   40.60
   1   4  -8 1314.47   40.40
   1   4  -8 1253.67   40.50
  -1  -4   8 1302.47   40.50
  -1  -4   8 1303.17   40.00
   0   4  -8  303.07   11.20
   0   4  -8  284.57   10.60
   0   4  -8  308.47   12.70
   0  -4   8  295.47   10.90
   0  -4   8  297.77   11.40
  -1   4  -8  131.89    5.60
  -1   4  -8  136.59    6.40
  -1   4  -8  139.89    6.40
   1  -4   8  123.59    6.40
   1  -4   8  126.89    5.40
   1  -4   8  134.19    6.40
  -2   4  -8  279.47   10.40
  -2   4  -8  266.67    9.20
  -2   4  -8  279.57   10.50
   2  -4   8  274.17   10.00
   2  -4   8  280.67   10.80
   2  -4   8  271.57   10.50
  -3   4  -8  600.64   18.70
  -3   4  -8  588.74   18.80
   3  -4   8  488.95   18.80
   3  -4   8  568.14   18.70
   3  -4   8  554.64   18.80
  -4   4  -8    8.40    2.20
  -4   4  -8   11.00    3.10
   4  -4   8    2.40    2.80
   4  -4   8   15.80    4.40
   4  -4   8    8.70    2.70
  -5   4  -8  247.98    9.10
  -5   4  -8  254.47    9.20
   5  -4   8  268.67   10.90
   5  -4   8  260.07   11.10
   5  -4   8  219.58   11.30
   6  -4   8   27.10    6.10
   6   3  -8  308.37   14.50
   6   3  -8  339.77   13.30
   6   3  -8  324.27   14.30
   5   3  -8   78.69    6.80
   5   3  -8   88.19    6.70
   5   3  -8   92.99    6.00
   4   3  -8  174.98    8.20
   4   3  -8  182.68    8.60
   4   3  -8  179.28    7.90
   3   3  -8   84.09    4.90
   3   3  -8   79.09    5.20
   3   3  -8   87.49    5.30
  -3  -3   8   77.49    4.10
  -3  -3   8   80.09    4.60
   2   3  -8   30.30    3.40
   2   3  -8   28.90    3.30
   2   3  -8   30.20    3.10
  -2  -3   8   26.10    3.20
  -2  -3   8   27.80    2.90
  -2  -3   8   28.40    2.00
   1   3  -8   20.40    2.90
   1   3  -8   22.80    2.70
   1   3  -8   27.00    2.80
  -1  -3   8   19.10    3.00
  -1  -3   8   21.50    2.10
  -1  -3   8   23.70    2.80
   0   3  -8 3122.99   96.99
   0   3  -8 3236.38   96.59
   0   3  -8 3461.85   97.09
   0  -3   8 3186.58   97.09
   0  -3   8 3397.96   96.79
  -1   3  -8   11.40    2.40
  -1   3  -8   10.80    2.70
  -1   3  -8   13.10    1.90
   1  -3   8   15.90    2.80
   1  -3   8   15.80    2.20
   1  -3   8   13.60    2.70
  -2   3  -8 3301.97   99.29
  -2   3  -8 3205.48   97.99
  -2   3  -8 3501.25   99.29
   2  -3   8 3385.36   99.19
   2  -3   8 3427.76   98.79
   2  -3   8 3330.07   99.59
  -3   3  -8  522.75   17.10
  -3   3  -8  510.95   17.00
   3  -3   8  528.45   17.60
   3  -3   8  504.35   17.20
   3  -3   8  507.45   17.20
  -4   3  -8 1420.26   40.80
  -4   3  -8 1379.06   40.70
   4  -3   8 1174.38   41.10
   4  -3   8 1374.26   41.20
   5  -3   8  227.68    9.70
   5  -3   8  221.68   10.00
   6  -3   8  430.46   16.10
   6   2  -8  928.61   30.40
   6   2  -8 1009.80   30.70
   6   2  -8  942.21   31.90
   5   2  -8  462.05   15.50
   5   2  -8  447.66   16.60
   5   2  -8  438.76   15.50
   4   2  -8    2.40    1.70
   4   2  -8    1.00    1.90
   4   2  -8    2.70    1.70
   3   2  -8  581.84   19.00
   3   2  -8  600.94   19.60
   3   2  -8  579.74   18.90
  -3  -2   8  589.14   18.20
  -3  -2   8  584.44   17.80
  -3  -2   8  572.14   18.50
   2   2  -8   24.30    2.50
   2   2  -8   26.50    2.90
   2   2  -8   25.90    2.80
  -2  -2   8   24.40    2.80
  -2  -2   8   26.80    2.00
  -2  -2   8   25.40    2.50
   1   2  -8  293.47   10.90
   1   2  -8  328.27   11.10
   1   2  -8  318.37   11.00
  -1  -2   8  316.17   11.10
  -1  -2   8  309.67   10.70
  -1  -2   8  315.37   10.30
   0   2  -8 1225.88   38.10
   0   2  -8 1262.77   37.80
   0   2  -8 1229.08   38.10
   0  -2   8 1299.67   37.70
   0  -2   8 1233.08   38.20
   0  -2   8 1244.38   37.90
  -1   2  -8   22.70    2.70
  -1   2  -8   23.50    2.40
  -1   2  -8   22.10    2.40
   1  -2   8   19.00    2.60
   1  -2   8   23.30    2.70
   1  -2   8   20.00    2.10
  -2   2  -8  718.73   22.60
  -2   2  -8  669.63   22.40
  -2   2  -8  701.43   22.80
   2  -2   8  730.73   22.80
   2  -2   8  713.83   22.50
   2  -2   8  715.43   22.10
  -3   2  -8 6453.05  191.58
  -3   2  -8 6499.45  190.48
  -3   2  -8 6230.18  190.38
   3  -2   8 6922.61  190.78
   3  -2   8 6407.66  190.88
   3  -2   8 6627.44  190.58
  -4   2  -8    3.50    2.60
  -4   2  -8    3.80    1.90
  -4   2  -8    3.10    1.60
   4  -2   8    1.70    2.10
   4  -2   8    4.10    2.40
  -5   2  -8  246.98   12.20
   5  -2   8  243.48   10.70
   5  -2   8  265.17   10.70
  -6   2  -8   74.99    9.30
   6  -2   8   94.59    7.40
   7   1  -8   10.00    2.70
   7   1  -8   13.50    4.30
   6   1  -8  141.39    6.90
   6   1  -8  151.58    6.70
   6   1  -8  148.59    8.30
   5   1  -8  861.31   26.90
   5   1  -8  866.51   27.00
   5   1  -8  867.41   28.30
   4   1  -8   82.99    4.30
   4   1  -8   91.79    4.50
   4   1  -8   88.49    5.20
  -4  -1   8   81.79    3.90
   3   1  -8   11.40    2.00
   3   1  -8   11.00    2.20
   3   1  -8   12.60    2.50
  -3  -1   8    9.10    1.90
  -3  -1   8   10.40    1.90
  -3  -1   8   12.10    2.10
   2   1  -8   29.40    2.50
   2   1  -8   34.30    2.70
  -2  -1   8   29.90    2.50
  -2  -1   8   32.30    2.70
  -2  -1   8   30.70    2.20
   1   1  -8  495.15   17.30
   1   1  -8  536.65   17.30
  -1  -1   8  537.25   17.40
  -1  -1   8  561.64   17.20
  -1  -1   8  561.54   16.90
   0   1  -8   79.29    4.20
   0   1  -8   81.59    3.70
   0   1  -8   85.59    4.10
   0  -1   8   81.39    4.10
   0  -1   8   77.69    4.20
   0  -1   8   82.79    3.90
  -1   1  -8  132.39    5.60
  -1   1  -8  136.59    5.90
  -1   1  -8  138.19    5.70
   1  -1   8  135.39    5.80
   1  -1   8  128.49    5.80
   1  -1   8  130.79    5.70
  -2   1  -8 1409.46   43.50
  -2   1  -8 1434.26   43.00
  -2   1  -8 1409.26   43.10
  -2   1  -8 1392.66   42.20
   2  -1   8 1446.46   43.40
   2  -1   8 1428.96   43.20
   2  -1   8 1430.86   43.10
  -3   1  -8   89.89    4.60
  -3   1  -8   93.59    3.80
  -3   1  -8   89.19    4.90
  -3   1  -8   92.59    5.80
   3  -1   8   85.39    5.20
   3  -1   8   92.69    5.30
   3  -1   8   90.99    5.10
  -4   1  -8  213.98    7.70
  -4   1  -8  213.08    9.90
  -4   1  -8  203.48    7.90
   4  -1   8  173.98    8.70
   4  -1   8  207.98    8.90
   4  -1   8  196.08    9.30
   4  -1   8  205.28    8.70
  -5   1  -8  296.07   13.80
   5  -1   8  289.37   12.50
   5  -1   8  311.17   12.10
  -6   1  -8   32.30    9.10
   6  -1   8   28.60    6.70
   8   0  -8   77.29    8.20
   7   0  -8   27.60    3.70
   7   0  -8   26.00    2.50
   7   0  -8   18.00    4.20
   7   0  -8   31.90    4.20
   7   0  -8   33.70    5.90
   6   0  -8  113.29    6.90
   6   0  -8  111.19    4.50
   6   0  -8  116.99    5.20
   6   0  -8  108.79    5.40
   6   0  -8  115.39    5.20
   5   0  -8   12.20    2.50
   5   0  -8   10.90    2.00
   5   0  -8   12.60    3.40
   5   0  -8   14.10    2.30
  -5   0   8   10.70    2.80
   4   0  -8  631.94   20.60
   4   0  -8  656.03   20.50
   4   0  -8  678.13   20.10
  -4   0   8  656.33   20.70
   3   0  -8 2142.69   64.59
   3   0  -8 2168.78   64.99
   3   0  -8 2292.67   65.19
  -3   0   8 2197.58   64.99
  -3   0   8 2209.38   64.59
  -3   0   8 2154.58   64.79
   2   0  -8   13.40    1.80
   2   0  -8    8.40    2.00
   2   0  -8   13.30    1.90
  -2   0   8   12.20    2.00
  -2   0   8   15.50    2.00
  -2   0   8   15.00    2.00
   1   0  -8 2328.97   66.59
   1   0  -8 2196.28   65.69
   1   0  -8 2205.48   66.69
  -1   0   8 2307.57   66.29
  -1   0   8 2206.08   66.59
  -1   0   8 2217.18   66.39
   0   0  -8  398.36   13.40
   0   0  -8  401.66   13.20
   0   0  -8  393.06   12.80
   0   0   8  404.36   13.00
   0   0   8  383.86   13.10
   0   0   8  383.76   13.30
  -1   0  -8 1711.13   50.59
  -1   0  -8 1647.04   50.69
  -1   0  -8 1687.93   50.29
  -1   0  -8 1627.74   50.79
   1   0   8 1642.14   50.89
   1   0   8 1702.53   50.59
   1   0   8 1796.32   50.79
  -2   0  -8  320.27   11.60
  -2   0  -8  346.67   11.90
  -2   0  -8  323.57   11.10
  -2   0  -8  342.97   12.30
   2   0   8  332.67   11.90
   2   0   8  335.97   11.90
   2   0   8  339.37   12.10
  -3   0  -8   37.90    3.10
  -3   0  -8   43.00    3.80
  -3   0  -8   39.80    3.30
  -3   0  -8   36.90    4.70
   3   0   8   44.20    4.10
   3   0   8   44.70    4.30
   3   0   8   40.80    4.50
  -4   0  -8   52.19    4.10
  -4   0  -8   49.20    3.90
  -4   0  -8   49.99    3.50
  -4   0  -8   45.50    6.10
   4   0   8   46.20    5.60
   4   0   8   52.69    4.90
   4   0   8   40.80    5.80
  -5   0  -8 1341.07   45.10
   5   0   8 1422.66   43.40
   8  -1  -8  193.58   10.70
   7  -1  -8    4.30    1.80
   7  -1  -8    4.80    2.90
   7  -1  -8    5.30    1.70
   7  -1  -8    5.90    2.10
   7  -1  -8    5.50    3.10
   6  -1  -8   -5.20    2.10
   6  -1  -8    0.30    2.00
   6  -1  -8    1.30    1.40
   6  -1  -8   -0.20    1.50
   6  -1  -8    1.00    1.30
   5  -1  -8   22.80    2.40
   5  -1  -8   24.50    2.70
   5  -1  -8   25.20    2.80
   5  -1  -8   24.60    2.50
  -5   1   8   23.90    3.40
   4  -1  -8  209.78    7.70
   4  -1  -8  215.38    7.90
   4  -1  -8  213.98    7.60
  -4   1   8  208.48    7.10
  -4   1   8  220.28    8.50
   3  -1  -8 4187.98  117.49
   3  -1  -8 4172.18  117.69
   3  -1  -8 3499.25  117.59
  -3   1   8 4173.08  118.09
  -3   1   8 4041.00  117.39
  -3   1   8 4011.30  117.49
   2  -1  -8  585.54   18.10
   2  -1  -8  575.24   18.50
   2  -1  -8  610.34   18.40
  -2   1   8  598.24   18.30
  -2   1   8  591.24   18.30
  -2   1   8  486.45   18.20
   1  -1  -8 1420.26   42.90
   1  -1  -8 1358.76   42.60
   1  -1  -8 1398.96   42.60
  -1   1   8 1432.86   42.70
  -1   1   8 1454.75   42.80
  -1   1   8 1419.66   42.60
   0  -1  -8 2077.29   61.99
   0  -1  -8 2054.09   61.59
   0  -1  -8 2160.18   61.99
   0   1   8 2060.29   61.89
   0   1   8 2205.58   62.19
   0   1   8 1921.31   62.09
  -1  -1  -8   52.59    3.40
  -1  -1  -8   49.80    3.40
  -1  -1  -8   51.19    3.80
  -1  -1  -8   47.50    3.60
   1   1   8   47.50    3.70
   1   1   8   43.40    3.60
   1   1   8   48.10    3.70
  -2  -1  -8 2728.33   79.39
  -2  -1  -8 2607.94   78.99
  -2  -1  -8 2692.03   78.89
  -2  -1  -8 2655.53   79.79
   2   1   8 2697.83   79.19
   2   1   8 2658.83   79.59
   2   1   8 2606.24   79.39
  -3  -1  -8   86.29    4.70
  -3  -1  -8   88.89    6.30
  -3  -1  -8   82.89    5.40
  -3  -1  -8   84.29    5.00
   3   1   8   84.49    6.00
   3   1   8   77.19    5.80
   3   1   8   89.19    5.70
  -4  -1  -8   15.10    4.50
  -4  -1  -8   23.20    4.10
  -4  -1  -8   16.00    4.50
  -4  -1  -8   15.90    3.10
   4   1   8   13.30    4.10
   4   1   8   20.00    5.00
  -5  -1  -8   14.90    5.90
   5   1   8   18.40    4.40
   8  -2  -8  438.96   16.40
   8  -2  -8  413.86   14.50
   8  -2  -8  379.06   15.70
   7  -2  -8   23.00    3.70
   7  -2  -8   27.30    5.10
   7  -2  -8   24.80    3.00
   7  -2  -8   30.10    5.20
   7  -2  -8   24.90    3.70
   6  -2  -8  174.48    6.70
   6  -2  -8  171.58    7.70
   6  -2  -8  177.48    7.20
   6  -2  -8  167.08    6.90
  -6   2   8  156.78    8.20
   5  -2  -8  608.94   19.10
   5  -2  -8  575.44   19.30
   5  -2  -8  629.54   19.50
  -5   2   8  610.54   20.40
   4  -2  -8  175.18    6.60
   4  -2  -8  168.98    6.70
   4  -2  -8  167.48    6.80
  -4   2   8  166.28    6.10
  -4   2   8  172.58    6.20
  -4   2   8  171.38    7.60
   3  -2  -8  342.67   12.00
   3  -2  -8  340.27   11.70
   3  -2  -8  344.87   11.70
  -3   2   8  352.86   12.40
  -3   2   8  355.56   11.70
  -3   2   8  336.57   11.60
   2  -2  -8  925.31   29.80
   2  -2  -8  969.10   29.80
   2  -2  -8  997.10   30.30
  -2   2   8 1016.50   30.00
  -2   2   8  957.70   30.20
  -2   2   8  955.20   29.90
   1  -2  -8  480.25   15.80
   1  -2  -8  471.85   16.00
   1  -2  -8  478.05   16.20
   1  -2  -8  474.05   15.70
  -1   2   8  470.95   16.00
  -1   2   8  499.15   16.00
  -1   2   8  485.95   16.00
   0  -2  -8  988.80   31.40
   0  -2  -8 1026.50   31.60
   0  -2  -8 1000.00   31.20
   0  -2  -8 1053.09   32.00
   0   2   8 1036.00   31.60
   0   2   8  965.10   31.70
   0   2   8 1054.89   31.80
  -1  -2  -8   85.29    4.70
  -1  -2  -8   81.09    5.10
  -1  -2  -8   78.79    4.60
  -1  -2  -8   78.89    4.80
   1   2   8   81.39    5.00
   1   2   8   77.39    4.90
   1   2   8   81.89    5.20
  -2  -2  -8   15.10    4.20
  -2  -2  -8    5.80    2.50
  -2  -2  -8   10.30    2.20
  -2  -2  -8   10.20    3.00
   2   2   8    9.40    2.80
   2   2   8    7.90    2.30
   2   2   8   13.60    3.60
  -3  -2  -8  254.07    9.60
  -3  -2  -8  260.87   10.60
  -3  -2  -8  247.58   10.30
  -3  -2  -8  259.97   11.60
   3   2   8  254.77   10.90
   3   2   8  241.08   11.50
   3   2   8  249.88   10.90
  -4  -2  -8   14.90    5.50
   4   2   8   13.20    3.90
   8  -3  -8   89.19    5.00
   8  -3  -8  103.79    6.60
   8  -3  -8   83.69    7.80
   8  -3  -8   83.89    8.90
   7  -3  -8  163.28    7.70
   7  -3  -8  156.28    8.80
   7  -3  -8  155.78    6.50
   7  -3  -8  158.38    7.10
   6  -3  -8   27.90    3.20
   6  -3  -8   32.70    3.80
   6  -3  -8   28.50    3.60
  -6   3   8   37.50    5.20
   5  -3  -8 1023.10   31.60
   5  -3  -8 1013.20   31.90
   5  -3  -8 1039.70   32.10
  -5   3   8 1042.30   33.20
   4  -3  -8  124.59    5.60
   4  -3  -8  131.49    5.90
   4  -3  -8  135.29    6.10
  -4   3   8  120.69    6.70
  -4   3   8  123.99    5.20
  -4   3   8  122.19    5.30
   3  -3  -8  912.41   29.00
   3  -3  -8  939.31   28.70
   3  -3  -8  923.21   28.60
  -3   3   8  917.61   29.40
  -3   3   8  940.81   28.60
  -3   3   8  887.11   28.50
   2  -3  -8  259.37   10.00
   2  -3  -8  263.47    9.50
   2  -3  -8  261.97    9.60
   2  -3  -8  239.88    9.90
  -2   3   8  255.27   10.10
  -2   3   8  261.37    9.70
  -2   3   8  268.07    9.80
   1  -3  -8  410.36   14.30
   1  -3  -8  416.46   14.60
   1  -3  -8  441.06   15.00
   1  -3  -8  426.26   14.30
  -1   3   8  414.16   14.70
  -1   3   8  428.56   14.70
  -1   3   8  396.86   14.50
   0  -3  -8  128.59    6.40
   0  -3  -8  122.29    6.00
   0  -3  -8  123.69    6.70
   0  -3  -8  124.59    6.20
   0   3   8  127.99    6.60
  -1  -3  -8   75.39    5.30
  -1  -3  -8   76.29    5.90
  -1  -3  -8   71.79    5.50
  -1  -3  -8   83.79    4.90
   1   3   8   73.79    5.50
   1   3   8   78.59    6.00
   1   3   8   81.89    5.40
  -2  -3  -8  245.28   10.40
  -2  -3  -8  207.98    8.90
  -2  -3  -8  186.08    9.70
   2   3   8  230.58   10.20
   2   3   8  231.08    9.90
  -3  -3  -8    9.10    3.80
  -3  -3  -8    8.60    4.20
  -3  -3  -8    4.30    4.20
  -3  -3  -8    3.90    2.50
   3   3   8    7.40    3.30
   8  -4  -8  238.78   11.10
   8  -4  -8  249.08    9.40
   7  -4  -8   -3.10    2.50
   7  -4  -8    2.60    2.10
   7  -4  -8    2.50    2.40
  -7   4   8    8.30    3.60
   6  -4  -8 2443.86   73.39
   6  -4  -8 2453.35   74.19
   6  -4  -8 2502.75   73.79
   5  -4  -8   86.89    5.40
   5  -4  -8   82.89    4.80
   5  -4  -8   86.39    5.40
  -5   4   8   83.29    4.00
  -5   4   8   84.99    4.30
   4  -4  -8  207.78    9.10
   4  -4  -8  252.27   10.10
   4  -4  -8  250.67    9.30
   4  -4  -8  249.08    9.70
  -4   4   8  236.28   10.50
  -4   4   8  225.88    8.70
  -4   4   8  229.28    8.90
   3  -4  -8  546.35   17.90
   3  -4  -8  539.05   18.40
   3  -4  -8  539.25   18.00
  -3   4   8  544.05   18.10
  -3   4   8  516.75   17.80
   2  -4  -8  832.12   30.40
   2  -4  -8  878.31   30.40
   2  -4  -8 1086.09   34.00
  -2   4   8 1062.59   31.20
  -2   4   8 1040.00   31.10
   1  -4  -8 1407.66   43.70
   1  -4  -8 1427.36   43.50
  -1   4   8 1381.16   44.20
  -1   4   8 1472.95   44.10
   0  -4  -8  878.81   27.90
   0  -4  -8  877.11   27.80
   0   4   8  843.12   28.30
  -1  -4  -8  115.99    7.60
  -1  -4  -8  121.89    7.20
  -1  -4  -8  114.19    7.90
  -1  -4  -8  131.29    6.80
   1   4   8  108.69    7.90
  -2  -4  -8  298.47   11.70
  -2  -4  -8  284.47   12.80
  -3  -4  -8  140.69    7.70
   8  -5  -8   45.60    5.10
   8  -5  -8   37.40    6.80
   7  -5  -8   42.50    4.60
   7  -5  -8   25.50    6.10
   7  -5  -8   33.40    5.80
   6  -5  -8   78.29    5.30
   6  -5  -8   81.29    6.20
   6  -5  -8   76.19    6.40
   6  -5  -8   63.49    7.10
   5  -5  -8  342.37   12.50
   5  -5  -8  319.67   13.00
   5  -5  -8  337.97   13.50
   5  -5  -8  340.37   13.00
  -5   5   8  359.46   12.00
  -5   5   8  329.27   11.70
  -5   5   8  314.57   14.20
   4  -5  -8  140.09    7.10
   4  -5  -8  151.98    8.10
   4  -5  -8  149.79    8.20
   4  -5  -8  153.18    7.40
  -4   5   8  143.99    7.20
  -4   5   8  160.18    7.00
   3  -5  -8 3521.55  105.89
   3  -5  -8 3472.65  106.59
   3  -5  -8 3518.35  106.09
  -3   5   8 3777.62  106.19
   2  -5  -8  109.49    6.30
   2  -5  -8  108.89    6.30
  -2   5   8  108.49    6.20
  -2   5   8  102.09    7.40
   1  -5  -8  824.72   25.30
   1  -5  -8  717.33   25.90
   1  -5  -8  814.92   25.00
   1  -5  -8  682.13   25.20
  -1   5   8  759.02   26.10
   0  -5  -8  347.17   13.50
   0  -5  -8  351.86   13.60
   0   5   8  348.07   14.10
  -1  -5  -8  115.79    8.30
  -1  -5  -8  121.89    7.60
   1   5   8  115.59    8.40
   8  -6  -8   -0.40    3.80
   8  -6  -8    9.80    3.40
   7  -6  -8  295.67   12.00
   7  -6  -8  299.97   13.40
   6  -6  -8    5.20    4.30
   6  -6  -8    3.50    2.70
   6  -6  -8    6.30    3.30
  -6   6   8    6.10    2.00
  -6   6   8    5.90    2.40
   5  -6  -8   26.60    5.30
   5  -6  -8   27.20    4.70
  -5   6   8   30.60    5.20
  -5   6   8   30.00    4.20
   4  -6  -8  569.44   19.70
   4  -6  -8  537.85   19.60
  -4   6   8  590.54   19.50
   3  -6  -8 1007.80   30.50
   3  -6  -8  938.31   30.70
  -3   6   8  871.31   30.80
  -3   6   8  950.50   30.60
   2  -6  -8  597.84   21.10
   2  -6  -8  616.94   20.90
   1  -6  -8  130.89    8.00
   1  -6  -8  133.29    8.20
  -1   6   8  126.39    8.40
   0  -6  -8  345.07   14.20
   0  -6  -8  339.87   14.20
   0  -6  -8  335.77   14.20
   0   6   8  333.07   14.50
   7  -7  -8  156.18   10.40
   7  -7  -8  146.59    9.20
   6  -7  -8  301.47   13.50
   6  -7  -8  282.17   12.60
  -6   7   8  294.37   11.10
   5  -7  -8    7.00    3.50
   5  -7  -8    1.30    3.30
  -5   7   8   12.80    4.20
  -5   7   8    6.20    2.90
   4  -7  -8    4.00    3.50
   4  -7  -8   10.30    3.50
  -4   7   8    6.60    3.20
   3  -7  -8  423.56   16.00
   3  -7  -8  400.36   16.20
   2  -7  -8  315.07   14.20
   2  -7  -8  339.07   13.80
  -2   8  -9   83.19    8.60
  -2   8  -9   85.59    6.70
   2  -8   9   78.49   10.40
   2  -8   9   70.89   10.00
  -3   8  -9   34.80    7.60
   3  -8   9   22.20    6.00
   1   7  -9   -3.20    3.70
   1   7  -9   -1.60    3.70
  -1  -7   9    4.90    4.70
   0   7  -9  139.49    9.30
   0   7  -9  137.79    8.10
   0  -7   9  146.89    8.10
   0  -7   9  128.89    9.90
  -1   7  -9    4.40    2.80
  -1   7  -9    5.70    3.50
   1  -7   9    1.30    3.70
   1  -7   9    9.20    3.90
   1  -7   9   -2.30    3.90
  -2   7  -9    5.50    3.40
  -2   7  -9    3.20    2.60
   2  -7   9   -4.90    3.80
   2  -7   9   -0.20    4.20
   2  -7   9    7.10    4.20
  -3   7  -9   33.50    3.90
  -3   7  -9   26.10    5.90
   3  -7   9   42.30    8.00
   3  -7   9   27.30    7.40
  -4   7  -9   99.59    7.60
   4  -7   9   77.79    9.20
   4  -7   9   95.09   10.10
   4  -7   9  105.09    9.60
  -5   7  -9    3.30    3.60
   5  -7   9    2.30    5.00
   5  -7   9   13.20    5.60
   3   6  -9   27.10    7.20
   3   6  -9   17.90    4.90
  -3  -6   9   33.20    7.10
   2   6  -9    8.30    3.50
   2   6  -9   -2.70    3.20
  -2  -6   9    3.00    4.00
  -2  -6   9   -6.50    3.50
   1   6  -9  794.32   26.50
   1   6  -9  759.12   25.70
  -1  -6   9  775.12   24.00
  -1  -6   9  723.23   23.40
  -1  -6   9  783.02   26.10
   0   6  -9   31.40    5.00
   0   6  -9   34.20    4.50
   0  -6   9   38.10    5.40
   0  -6   9   36.00    5.80
  -1   6  -9   38.70    4.10
  -1   6  -9   37.50    5.10
   1  -6   9   36.60    6.00
   1  -6   9   34.20    5.80
   1  -6   9   43.20    4.70
  -2   6  -9   73.39    5.80
  -2   6  -9   61.99    4.30
  -2   6  -9   53.19    6.00
   2  -6   9   56.19    5.80
   2  -6   9   72.79    6.80
  -3   6  -9  464.45   17.10
  -3   6  -9  434.46   16.90
  -3   6  -9  465.65   15.00
   3  -6   9  480.45   17.90
   3  -6   9  490.85   17.00
  -4   6  -9   20.10    3.50
  -4   6  -9   20.50    4.50
   4  -6   9   26.60    6.40
   4  -6   9   26.40    6.90
  -5   6  -9  276.27   11.40
  -5   6  -9  262.87   12.50
   5  -6   9  298.47   13.30
   4   5  -9   59.09    7.40
   4   5  -9   74.39    7.60
   3   5  -9   45.20    6.00
   3   5  -9   43.30    5.90
  -3  -5   9   57.79    6.00
  -3  -5   9   47.30    5.40
   2   5  -9    4.00    2.40
   2   5  -9    3.70    2.60
  -2  -5   9    1.00    2.60
  -2  -5   9    5.40    3.00
   1   5  -9    1.50    2.30
   1   5  -9    6.80    2.50
   1   5  -9   -0.20    2.80
  -1  -5   9    2.60    1.60
  -1  -5   9    1.90    2.60
  -1  -5   9    4.30    2.20
   0   5  -9 1166.58   36.90
   0   5  -9 1198.38   37.80
   0  -5   9 1199.18   37.80
  -1   5  -9   55.39    3.90
  -1   5  -9   52.39    4.80
   1  -5   9   49.50    5.40
   1  -5   9   55.79    4.00
  -2   5  -9 2320.87   70.39
  -2   5  -9 2284.87   68.79
   2  -5   9 2365.66   69.29
   2  -5   9 2323.77   70.69
  -3   5  -9  215.08    9.40
   3  -5   9  225.28   10.00
   3  -5   9  210.68    9.40
   3  -5   9  199.58    9.80
  -4   5  -9  881.61   27.90
  -4   5  -9  851.01   27.90
   4  -5   9  864.51   28.80
  -5   5  -9  164.48    7.70
   5  -5   9  163.88    9.40
   6  -5   9  292.17   13.80
   5   4  -9   49.30    6.90
   5   4  -9   60.49    7.40
   4   4  -9    8.80    3.30
   4   4  -9    0.60    3.50
   4   4  -9    5.20    2.90
  -4  -4   9    4.60    2.20
   3   4  -9  153.58    8.00
   3   4  -9  146.39    8.50
   3   4  -9  159.18    8.30
  -3  -4   9  168.08    7.10
  -3  -4   9  175.78    7.60
   2   4  -9   41.60    4.10
   2   4  -9   38.90    4.70
   2   4  -9   33.10    4.20
  -2  -4   9   33.40    4.40
  -2  -4   9   32.00    2.40
  -2  -4   9   33.00    4.10
  -2  -4   9   37.50    3.10
   1   4  -9   27.00    3.60
   1   4  -9   24.20    4.20
   1   4  -9   25.50    3.50
  -1  -4   9   30.10    4.20
  -1  -4   9   25.20    2.80
  -1  -4   9   29.20    3.90
   0   4  -9  492.55   16.60
   0   4  -9  474.35   15.90
   0  -4   9  477.85   16.70
   0  -4   9  452.45   16.20
  -1   4  -9  221.68    8.10
  -1   4  -9  230.28    9.20
  -1   4  -9  206.58    8.90
   1  -4   9  214.88    7.80
   1  -4   9  205.48    9.20
  -2   4  -9  525.25   17.80
  -2   4  -9  509.95   16.40
  -2   4  -9  509.05   17.80
   2  -4   9  537.25   18.20
   2  -4   9  517.45   17.00
  -3   4  -9 3140.79   93.89
  -3   4  -9 3154.08   94.09
   3  -4   9 3123.99   94.49
   3  -4   9 3161.38   93.69
   3  -4   9 3224.78   94.19
  -4   4  -9   -0.90    2.30
  -4   4  -9   -2.60    1.90
   4  -4   9   -0.90    3.10
   4  -4   9    0.90    2.60
  -5   4  -9   62.39    5.20
  -5   4  -9   68.79    4.70
   5  -4   9   72.39    6.60
   6  -4   9   35.70    7.50
   6   3  -9   24.80    6.30
   6   3  -9   25.30    6.60
   5   3  -9  220.08    9.60
   5   3  -9  192.28   10.00
   5   3  -9  219.58   10.60
   4   3  -9  213.48    9.10
   4   3  -9  209.18    9.30
   4   3  -9  197.58    9.60
   3   3  -9   19.50    3.10
   3   3  -9   21.30    3.80
   3   3  -9   10.90    2.70
  -3  -3   9   10.60    2.90
  -3  -3   9   11.80    2.40
   2   3  -9  198.78    8.40
   2   3  -9  195.88    8.30
   2   3  -9  192.18    8.20
  -2  -3   9  196.48    7.70
  -2  -3   9  193.88    6.80
  -2  -3   9  196.78    8.20
   1   3  -9  396.36   13.80
   1   3  -9  380.16   13.60
   1   3  -9  391.66   13.80
  -1  -3   9  396.46   13.90
  -1  -3   9  396.76   12.70
  -1  -3   9  383.16   13.40
   0   3  -9    5.00    1.90
   0   3  -9   11.40    2.50
   0   3  -9    6.00    1.60
   0  -3   9    4.30    1.90
   0  -3   9    5.40    1.90
  -1   3  -9   96.09    5.40
  -1   3  -9  103.39    4.60
  -1   3  -9   99.99    5.30
   1  -3   9   95.39    5.50
   1  -3   9  104.59    5.50
   1  -3   9   97.59    4.40
  -2   3  -9 1819.32   55.99
  -2   3  -9 1889.81   55.99
  -2   3  -9 1827.42   54.69
   2  -3   9 1834.02   55.89
   2  -3   9 1870.31   56.29
   2  -3   9 1875.11   55.29
  -3   3  -9   43.60    4.30
  -3   3  -9   43.40    3.90
   3  -3   9   40.30    4.40
   3  -3   9   46.20    4.60
   3  -3   9   41.30    4.30
  -4   3  -9   -3.60    2.20
  -4   3  -9    0.60    1.80
   4  -3   9    0.20    2.30
   4  -3   9   -0.60    2.70
   5  -3   9  160.28   11.00
   5  -3   9  215.38    9.60
   6  -3   9  167.98    9.90
   6   2  -9  136.09    9.00
   6   2  -9  145.69    8.30
   6   2  -9  153.08    7.60
   5   2  -9    5.40    2.80
   5   2  -9    2.30    2.50
   5   2  -9    6.20    2.20
   4   2  -9  718.33   23.80
   4   2  -9  690.93   22.90
   4   2  -9  718.13   22.90
   3   2  -9 1233.28   36.70
   3   2  -9 1162.78   37.20
   3   2  -9 1195.38   36.60
  -3  -2   9 1171.38   35.40
  -3  -2   9 1196.58   35.80
  -3  -2   9 1159.18   36.10
   2   2  -9  113.99    5.70
   2   2  -9  119.99    5.60
   2   2  -9  115.69    5.50
  -2  -2   9  116.29    5.20
  -2  -2   9  106.79    5.40
  -2  -2   9  115.39    4.70
   1   2  -9 2134.29   64.69
   1   2  -9 2109.59   64.59
   1   2  -9 2125.29   64.69
  -1  -2   9 2274.77   64.49
  -1  -2   9 2215.68   63.89
  -1  -2   9 2114.39   64.69
   0   2  -9  370.26   12.40
   0   2  -9  374.76   12.80
   0   2  -9  367.26   12.90
   0  -2   9  370.36   12.60
   0  -2   9  364.46   12.30
   0  -2   9  348.37   12.80
  -1   2  -9 1731.33   50.79
  -1   2  -9 1774.72   50.89
  -1   2  -9 1701.03   50.39
   1  -2   9 1575.04   50.49
   1  -2   9 1664.53   49.60
   1  -2   9 1615.24   50.79
  -2   2  -9  311.87   10.40
  -2   2  -9  314.97   11.70
  -2   2  -9  320.07   11.40
  -2   2  -9  317.97   11.50
   2  -2   9  310.07   11.50
   2  -2   9  314.97   10.90
   2  -2   9  314.37   11.80
  -3   2  -9   97.59    6.00
  -3   2  -9   77.59    5.10
  -3   2  -9   79.19    4.70
   3  -2   9   85.29    5.30
   3  -2   9   74.79    5.00
   3  -2   9   89.39    5.50
  -4   2  -9  113.49    6.00
  -4   2  -9  121.29    5.70
  -4   2  -9  126.69    7.80
   4  -2   9  108.79    6.80
   4  -2   9  114.49    6.80
   4  -2   9  104.79    6.50
  -5   2  -9 1837.32   58.89
   5  -2   9 1887.51   57.19
  -6   2  -9    6.00    6.00
   6  -2   9    9.70    4.60
   7   1  -9    2.60    2.70
   7   1  -9    0.00    3.90
   6   1  -9   15.30    4.20
   6   1  -9   15.30    3.70
   6   1  -9   12.30    2.50
   5   1  -9    0.80    1.60
   5   1  -9   -0.60    2.20
   5   1  -9    2.40    2.00
   4   1  -9   38.10    3.40
   4   1  -9   36.10    4.00
   4   1  -9   31.00    3.10
  -4  -1   9   30.90    2.90
  -4  -1   9   37.10    2.50
   3   1  -9 2745.83   77.09
   3   1  -9 2569.44   77.59
   3   1  -9 2560.24   76.89
  -3  -1   9 2552.24   76.39
  -3  -1   9 2511.45   76.49
  -3  -1   9 2611.44   76.29
   2   1  -9  129.89    5.90
   2   1  -9  134.19    5.80
  -2  -1   9  132.69    5.60
  -2  -1   9  129.39    5.80
  -2  -1   9  142.39    5.40
   1   1  -9 1178.78   36.40
   1   1  -9 1182.88   36.30
  -1  -1   9 1203.18   36.40
  -1  -1   9 1179.28   36.10
   0   1  -9 1167.18   36.00
   0   1  -9 1165.48   36.70
   0   1  -9 1243.28   36.90
   0  -1   9 1198.18   36.80
   0  -1   9 1194.68   36.50
   0  -1   9 1208.98   36.30
  -1   1  -9   40.70    3.60
  -1   1  -9   38.20    3.20
  -1   1  -9   37.40    3.20
   1  -1   9   39.60    3.50
   1  -1   9   43.40    3.50
   1  -1   9   37.00    3.40
  -2   1  -9 2434.26   70.39
  -2   1  -9 2352.56   70.19
  -2   1  -9 2341.47   69.29
  -2   1  -9 2343.37   70.69
   2  -1   9 2303.27   70.19
   2  -1   9 2340.37   70.49
  -3   1  -9  152.48    7.60
  -3   1  -9  143.69    6.80
  -3   1  -9  138.39    5.50
  -3   1  -9  142.09    6.40
   3  -1   9  140.39    7.10
   3  -1   9  136.79    8.00
   3  -1   9  150.78    7.20
  -4   1  -9   70.99    4.50
  -4   1  -9   73.99    5.10
  -4   1  -9   64.99    6.40
   4  -1   9   66.39    6.40
   4  -1   9   70.09    5.70
  -5   1  -9   36.70    7.80
   5  -1   9   26.20    6.00
   7   0  -9    1.80    3.30
   7   0  -9    1.30    1.50
   7   0  -9   -0.10    2.10
   7   0  -9   -0.60    2.70
   6   0  -9  111.49    5.70
   6   0  -9  110.89    5.40
   6   0  -9  110.99    4.60
   6   0  -9  103.89    7.00
   5   0  -9  572.24   18.80
   5   0  -9  584.34   18.20
   5   0  -9  598.34   20.40
   5   0  -9  611.14   19.10
  -5   0   9  580.84   19.10
   4   0  -9  412.16   13.80
   4   0  -9  417.36   13.20
   4   0  -9  410.16   13.90
  -4   0   9  407.76   12.90
  -4   0   9  419.76   14.00
  -4   0   9  403.96   13.10
   3   0  -9   51.79    3.10
   3   0  -9   53.79    3.50
   3   0  -9   53.09    3.40
  -3   0   9   45.30    3.30
  -3   0   9   54.09    3.30
  -3   0   9   51.69    3.50
   2   0  -9  128.89    5.70
   2   0  -9  117.99    5.40
   2   0  -9  121.89    4.40
  -2   0   9  128.89    5.40
  -2   0   9  132.89    5.60
   1   0  -9 1011.20   31.30
   1   0  -9 1049.99   32.40
   1   0  -9 1053.49   32.20
  -1   0   9 1077.59   32.10
  -1   0   9 1038.00   32.30
  -1   0   9 1039.90   31.90
   0   0  -9  676.13   21.80
   0   0  -9  684.03   22.20
   0   0   9  703.83   22.50
   0   0   9  728.13   22.40
   0   0   9  712.93   22.20
  -1   0  -9   22.80    2.60
  -1   0  -9   20.40    2.60
  -1   0  -9   18.00    2.80
  -1   0  -9   19.90    3.20
   1   0   9   25.70    3.00
   1   0   9   20.60    3.20
   1   0   9   25.40    3.30
  -2   0  -9    8.00    2.60
  -2   0  -9    6.30    1.80
  -2   0  -9    6.70    2.20
  -2   0  -9    6.80    1.80
   2   0   9    6.40    2.50
   2   0   9    6.30    2.10
   2   0   9    7.60    2.20
  -3   0  -9   48.50    4.50
  -3   0  -9   30.50    4.80
  -3   0  -9   46.20    3.80
  -3   0  -9   34.80    3.40
   3   0   9   34.50    4.90
   3   0   9   39.40    4.30
   3   0   9   36.50    4.90
  -4   0  -9   16.70    4.40
  -4   0  -9    9.10    2.20
  -4   0  -9    8.80    2.80
  -4   0  -9    9.60    2.50
   4   0   9    8.20    3.60
   4   0   9    9.80    3.10
  -5   0  -9   29.50    8.20
   5   0   9   40.50    6.90
   8  -1  -9  107.59    9.00
   7  -1  -9  435.76   15.20
   7  -1  -9  445.66   14.50
   7  -1  -9  445.76   14.70
   7  -1  -9  436.76   15.00
   7  -1  -9  451.55   17.10
   6  -1  -9   47.90    5.20
   6  -1  -9   41.40    3.30
   6  -1  -9   41.90    3.80
   6  -1  -9   39.30    3.70
   6  -1  -9   37.80    3.40
  -6   1   9   29.20    4.50
   5  -1  -9  503.15   16.10
   5  -1  -9  491.95   16.50
   5  -1  -9  489.45   16.20
   5  -1  -9  511.95   16.30
  -5   1   9  511.75   17.20
   4  -1  -9   71.59    4.00
   4  -1  -9   78.89    3.90
   4  -1  -9   76.19    4.40
  -4   1   9   75.49    3.60
  -4   1   9   76.29    3.70
  -4   1   9   76.39    4.70
   3  -1  -9 1494.45   46.10
   3  -1  -9 1547.05   45.80
   3  -1  -9 1512.45   46.30
  -3   1   9 1550.24   45.80
  -3   1   9 1572.34   46.40
  -3   1   9 1501.15   45.90
   2  -1  -9  530.25   17.10
   2  -1  -9  499.95   16.60
   2  -1  -9  511.75   16.80
  -2   1   9  511.55   16.90
  -2   1   9  512.05   16.70
  -2   1   9  525.05   16.90
   1  -1  -9 1424.66   42.20
   1  -1  -9 1298.47   41.70
   1  -1  -9 1334.57   41.00
  -1   1   9 1424.26   42.00
  -1   1   9 1406.46   41.80
  -1   1   9 1365.16   41.80
   0  -1  -9  349.17   12.00
   0  -1  -9  336.37   11.90
   0  -1  -9  335.27   12.30
   0  -1  -9  347.37   11.70
   0   1   9  329.97   12.20
   0   1   9  333.77   12.10
   0   1   9  352.26   12.00
  -1  -1  -9  319.07   11.50
  -1  -1  -9  325.17   11.70
  -1  -1  -9  309.27   11.80
  -1  -1  -9  324.57   11.30
   1   1   9  307.67   11.80
   1   1   9  325.87   11.90
   1   1   9  327.47   11.70
  -2  -1  -9  567.34   19.80
  -2  -1  -9  572.84   18.90
  -2  -1  -9  609.74   18.90
  -2  -1  -9  556.44   19.50
   2   1   9  579.34   19.40
   2   1   9  573.54   19.60
   2   1   9  586.84   19.70
  -3  -1  -9   93.79    7.10
  -3  -1  -9   93.49    6.40
  -3  -1  -9   95.89    5.70
  -3  -1  -9   99.49    5.30
   3   1   9  100.09    6.60
   3   1   9   78.09    6.50
   3   1   9   87.19    7.20
  -4  -1  -9  562.44   21.20
  -4  -1  -9  525.55   17.60
  -4  -1  -9  545.85   18.50
   4   1   9  537.35   19.50
   8  -2  -9  136.39    9.40
   8  -2  -9  130.59    6.90
   8  -2  -9  138.19    7.10
   7  -2  -9    0.50    1.90
   7  -2  -9    3.90    3.30
   7  -2  -9    0.60    3.10
   7  -2  -9    0.10    2.40
   7  -2  -9    1.50    1.80
   6  -2  -9 2737.33   81.29
   6  -2  -9 2731.63   81.49
   6  -2  -9 2737.13   81.89
   6  -2  -9 2729.73   81.49
  -6   2   9 2811.72   82.79
   5  -2  -9   17.40    3.10
   5  -2  -9   22.50    2.80
   5  -2  -9   22.30    2.90
  -5   2   9   22.80    4.10
   4  -2  -9  491.65   16.30
   4  -2  -9  484.55   16.20
  -4   2   9  515.85   16.00
  -4   2   9  505.65   17.30
  -4   2   9  497.95   15.90
   3  -2  -9 1337.67   40.60
   3  -2  -9 1309.37   40.10
   3  -2  -9 1359.96   40.30
  -3   2   9 1326.97   40.10
  -3   2   9 1308.87   40.10
  -3   2   9 1295.27   40.80
   2  -2  -9 1890.31   57.99
   2  -2  -9 1931.51   58.49
   2  -2  -9 1958.10   57.89
  -2   2   9 1994.50   58.39
  -2   2   9 1859.71   58.09
  -2   2   9 1982.50   58.09
   1  -2  -9 1984.10   58.89
   1  -2  -9 1942.91   58.39
   1  -2  -9 1878.21   58.29
   1  -2  -9 1967.30   58.59
  -1   2   9 1895.51   58.49
  -1   2   9 1952.60   58.59
  -1   2   9 1989.30   58.59
   0  -2  -9 1283.67   40.20
   0  -2  -9 1287.37   39.80
   0  -2  -9 1301.47   39.50
   0  -2  -9 1257.57   39.70
   0   2   9 1340.97   40.20
   0   2   9 1293.77   40.10
  -1  -2  -9  301.67   11.10
  -1  -2  -9  294.67   11.70
  -1  -2  -9  297.47   11.40
  -1  -2  -9  315.07   11.10
   1   2   9  291.57   11.60
   1   2   9  290.27   11.60
   1   2   9  289.87   11.40
  -2  -2  -9  518.95   17.10
  -2  -2  -9  516.85   18.10
  -2  -2  -9  502.45   17.30
  -2  -2  -9  521.45   17.80
   2   2   9  467.95   17.90
   2   2   9  476.45   17.60
   2   2   9  505.95   17.90
  -3  -2  -9  180.08   10.10
  -3  -2  -9  176.98    7.90
  -3  -2  -9  170.48    8.90
   3   2   9  174.08    9.30
  -4  -2  -9  140.49   10.90
   4   2   9  148.89    9.90
   8  -3  -9    5.40    4.20
   8  -3  -9    0.70    2.70
   8  -3  -9   -4.20    4.90
   8  -3  -9    2.40    2.20
   7  -3  -9   -0.30    1.90
   7  -3  -9   -3.60    3.70
   7  -3  -9    0.30    2.50
   7  -3  -9   -2.50    2.10
   6  -3  -9  231.68    9.60
   6  -3  -9  253.17    9.20
   6  -3  -9  243.58    9.70
   5  -3  -9  126.39    5.80
   5  -3  -9  128.99    6.40
   5  -3  -9  128.79    6.10
  -5   3   9  118.99    7.50
   4  -3  -9  385.86   13.40
   4  -3  -9  375.26   13.30
   4  -3  -9  389.86   13.80
  -4   3   9  380.86   14.40
  -4   3   9  391.76   13.00
   3  -3  -9 3871.51  115.89
   3  -3  -9 3951.90  115.39
   3  -3  -9 3782.72  115.39
  -3   3   9 3804.52  115.29
  -3   3   9 4074.59  115.49
  -3   3   9 4013.40  116.29
   2  -3  -9  335.87   14.20
   2  -3  -9  346.57   12.90
   2  -3  -9  347.27   12.40
   2  -3  -9  354.96   12.30
  -2   3   9  334.47   12.50
  -2   3   9  351.96   12.50
   1  -3  -9 1195.38   38.20
   1  -3  -9 1243.38   37.90
   1  -3  -9 1263.87   37.60
   1  -3  -9 1175.98   37.50
  -1   3   9 1185.68   37.80
   0  -3  -9  384.56   13.80
   0  -3  -9  394.96   14.10
   0  -3  -9  393.86   13.60
   0   3   9  379.46   14.20
   0   3   9  375.26   14.30
  -1  -3  -9   83.49    5.30
  -1  -3  -9   70.69    5.70
   1   3   9   68.79    6.40
   1   3   9   65.59    5.60
   1   3   9   64.49    6.50
  -2  -3  -9  247.68   11.50
  -2  -3  -9  268.57   10.70
  -2  -3  -9  265.37   12.00
   2   3   9  276.67   11.80
  -3  -3  -9    3.30    5.00
  -3  -3  -9    7.20    2.90
   3   3   9   -0.60    3.80
   8  -4  -9   50.89    6.50
   8  -4  -9   48.60    4.80
   7  -4  -9  614.34   19.50
   7  -4  -9  614.04   20.20
   7  -4  -9  613.14   20.40
  -7   4   9  506.05   21.90
   6  -4  -9    9.60    2.90
   6  -4  -9   14.30    3.50
   6  -4  -9    5.30    2.50
  -6   4   9    7.30    3.60
   5  -4  -9   81.09    5.80
   5  -4  -9   79.19    5.40
   5  -4  -9   77.59    5.00
  -5   4   9   79.39    4.30
  -5   4   9   86.09    4.80
   4  -4  -9 1773.72   54.29
   4  -4  -9 1826.82   54.89
   4  -4  -9 1752.12   54.29
  -4   4   9 1773.52   53.89
  -4   4   9 1828.72   54.19
   3  -4  -9 1848.72   59.19
   3  -4  -9 1947.51   58.59
   3  -4  -9 1929.81   58.69
  -3   4   9 2002.40   58.79
  -3   4   9 1972.90   58.69
   2  -4  -9  284.87   10.90
   2  -4  -9  286.47   10.90
  -2   4   9  270.97   11.00
   1  -4  -9  244.48    9.80
   1  -4  -9  222.38   10.60
   1  -4  -9  242.98    9.90
  -1   4   9  244.58   10.10
  -1   4   9  222.28   10.50
   0  -4  -9  313.87   11.90
   0  -4  -9  288.37   12.30
   0  -4  -9  301.87   13.00
   0  -4  -9  320.27   12.10
   0   4   9  280.97   12.80
   0   4   9  324.37   12.50
  -1  -4  -9  149.79    7.90
  -1  -4  -9  156.38    8.80
   1   4   9  158.98    8.80
  -2  -4  -9   79.79    6.60
  -2  -4  -9   85.39    8.40
   2   4   9   84.39    7.90
   8  -5  -9  254.37   10.60
   8  -5  -9  246.38   12.10
   7  -5  -9  426.66   15.20
   7  -5  -9  407.86   16.30
   7  -5  -9  434.66   16.30
   6  -5  -9  404.06   15.00
   6  -5  -9  402.06   14.30
   6  -5  -9  362.16   15.10
   5  -5  -9   56.09    4.90
   5  -5  -9   56.69    5.40
   5  -5  -9   47.90    6.10
  -5   5   9   60.89    5.10
  -5   5   9   66.39    4.50
   4  -5  -9   -0.10    3.50
   4  -5  -9    5.60    3.20
   4  -5  -9    2.40    2.10
   4  -5  -9    1.40    2.30
  -4   5   9    3.20    2.60
  -4   5   9    2.00    2.00
  -4   5   9   -0.50    2.90
   3  -5  -9  930.61   29.50
   3  -5  -9  918.61   29.70
   3  -5  -9  895.51   30.40
  -3   5   9  928.71   29.60
   2  -5  -9  534.45   18.40
   2  -5  -9  548.45   18.30
  -2   5   9  533.15   18.60
  -2   5   9  477.75   18.80
   1  -5  -9  877.41   28.10
   1  -5  -9  852.81   27.90
  -1   5   9  831.82   28.40
   0  -5  -9  218.58   10.00
   0  -5  -9  203.58    9.80
   0   5   9  193.28   10.00
  -1  -5  -9    8.80    3.50
  -1  -5  -9   10.10    4.50
   1   5   9    8.30    3.90
   7  -6  -9  367.16   14.20
   7  -6  -9  364.46   15.50
   6  -6  -9  563.64   19.20
   6  -6  -9  533.95   19.70
  -6   6   9  505.95   19.10
  -6   6   9  546.45   17.50
   5  -6  -9   11.20    3.20
   5  -6  -9   19.50    5.30
  -5   6   9   11.70    3.50
  -5   6   9   12.60    2.80
   4  -6  -9  168.48    8.60
   4  -6  -9  158.58    8.50
  -4   6   9  175.78    8.30
  -4   6   9  149.09    8.90
   3  -6  -9    3.40    3.00
   3  -6  -9    8.10    3.00
  -3   6   9    5.80    3.00
   2  -6  -9    4.30    3.40
   2  -6  -9    6.60    3.10
  -2   6   9    7.40    3.30
   1  -6  -9   16.50    3.90
   1  -6  -9   15.90    3.90
  -1   6   9   21.90    5.90
   0  -6  -9  270.17   12.80
   6  -7  -9   16.70    4.50
   6  -7  -9   19.80    4.60
  -6   7   9   34.20    5.30
   5  -7  -9   38.80    6.60
   5  -7  -9   39.70    7.20
  -5   7   9   33.30    7.40
  -5   7   9   41.90    5.80
   4  -7  -9   98.79    8.20
   4  -7  -9  120.29    8.30
  -4   7   9  115.59    7.90
   3  -7  -9   38.50    7.00
   3  -7  -9   32.50    7.00
  -3   7   9   26.80    6.50
   2  -7  -9   24.70    7.00
  -2   7   9   19.60    4.50
   1   7 -10    0.60    4.10
  -1  -7  10    9.30    5.20
   0   7 -10  272.47   11.90
   0   7 -10  262.27   12.90
   0  -7  10  266.07   11.80
   0  -7  10  273.67   13.70
  -1   7 -10   38.90    5.30
  -1   7 -10   28.20    6.70
   1  -7  10   37.60    8.10
   1  -7  10   36.30    7.90
  -2   7 -10  863.91   31.30
  -2   7 -10 1053.59   33.90
   2  -7  10 1064.99   34.40
   2  -7  10 1035.50   34.10
  -3   7 -10   96.89    8.00
  -3   7 -10   89.99    5.50
   3  -7  10  107.79   10.10
   3  -7  10  108.59    9.70
  -4   7 -10  343.37   14.20
   4  -7  10  339.27   16.80
   4  -7  10  303.47   15.60
   2   6 -10   49.00    6.90
   2   6 -10   53.49    7.00
  -2  -6  10   65.49    7.70
   1   6 -10    3.80    3.20
   1   6 -10    7.60    3.30
  -1  -6  10    0.70    2.60
  -1  -6  10    0.20    3.90
  -1  -6  10    0.10    2.60
   0   6 -10  196.38   10.00
   0   6 -10  197.38    9.10
   0  -6  10  191.78   10.40
   0  -6  10  194.68    9.70
  -1   6 -10  322.07   12.50
  -1   6 -10  345.27   14.00
   1  -6  10  354.76   14.60
   1  -6  10  331.47   11.90
  -2   6 -10  240.38    9.20
  -2   6 -10  250.77   11.10
   2  -6  10  234.18   10.10
   2  -6  10  238.98   12.00
  -3   6 -10  793.52   24.60
  -3   6 -10  872.51   27.40
   3  -6  10  690.33   26.10
   3  -6  10  873.51   28.20
  -4   6 -10    5.00    3.30
  -4   6 -10    5.30    4.00
   4  -6  10    3.50    4.50
   4  -6  10    3.10    4.10
  -5   6 -10    0.00    3.40
   5  -6  10    5.60    4.80
   4   5 -10  137.19    9.60
   3   5 -10   48.10    6.40
   3   5 -10   44.50    6.10
  -3  -5  10   23.90    6.50
  -3  -5  10   31.90    5.60
   2   5 -10  212.78   10.40
   2   5 -10  217.58   10.20
  -2  -5  10  226.38   10.40
   1   5 -10  250.37   11.10
   1   5 -10  255.47   10.70
  -1  -5  10  271.87   10.20
  -1  -5  10  245.38    9.10
  -1  -5  10  247.98   10.80
  -1  -5  10  261.37   11.30
   0   5 -10   25.90    4.40
   0   5 -10   26.90    3.90
   0  -5  10   22.20    5.40
   0  -5  10   27.10    5.30
  -1   5 -10   65.09    4.30
  -1   5 -10   65.39    5.40
  -1   5 -10   60.19    5.80
   1  -5  10   55.19    4.10
   1  -5  10   71.49    6.20
   1  -5  10   44.10    5.80
  -2   5 -10 1383.86   41.80
  -2   5 -10 1349.36   43.30
  -2   5 -10 1386.76   43.70
   2  -5  10 1441.56   44.00
   2  -5  10 1383.06   42.20
  -3   5 -10    6.30    3.40
  -3   5 -10   11.00    3.00
   3  -5  10    8.90    3.40
   3  -5  10    9.00    3.30
  -4   5 -10  134.39    7.60
   4  -5  10  142.39    8.70
   4  -5  10  137.39    8.80
  -5   5 -10   97.69    6.60
   5  -5  10  101.29    8.70
   5   4 -10    3.40    5.50
   5   4 -10   15.10    4.20
   4   4 -10  398.96   15.30
   4   4 -10  358.66   15.60
  -4  -4  10  400.36   13.30
   3   4 -10  335.67   13.50
   3   4 -10  321.17   13.10
  -3  -4  10  333.17   12.00
  -3  -4  10  341.27   12.70
   2   4 -10  117.69    7.50
   2   4 -10  132.29    7.00
   2   4 -10  129.09    7.10
  -2  -4  10  121.19    6.70
  -2  -4  10  130.49    5.20
  -2  -4  10  135.59    7.10
   1   4 -10 1220.88   38.80
   1   4 -10 1258.07   38.50
   1   4 -10 1223.58   38.70
  -1  -4  10 1223.58   37.10
  -1  -4  10 1228.88   38.70
   0   4 -10  208.28    8.30
   0   4 -10  194.28    8.80
   0  -4  10  201.38    9.20
  -1   4 -10  902.81   27.70
  -1   4 -10  878.91   28.80
   1  -4  10  883.01   27.10
   1  -4  10  897.71   29.10
  -2   4 -10  213.98    7.80
  -2   4 -10  231.98    9.50
   2  -4  10  213.08    9.70
   2  -4  10  209.58    8.50
  -3   4 -10   49.00    4.70
   3  -4  10   43.50    5.30
   3  -4  10   52.29    5.10
   3  -4  10   47.10    5.80
  -4   4 -10  146.79    7.50
   4  -4  10  142.49    8.30
   4  -4  10  134.09    8.10
  -5   4 -10 1418.46   44.20
   5  -4  10 1488.25   46.10
   5   3 -10   22.20    5.10
   5   3 -10   11.60    4.00
   5   3 -10   16.10    4.10
   4   3 -10    3.20    2.30
   4   3 -10    2.00    3.00
   4   3 -10    5.50    2.90
  -4  -3  10    2.40    1.90
  -4  -3  10    1.50    2.20
   3   3 -10  818.22   27.10
   3   3 -10  838.72   26.80
   3   3 -10  818.52   26.80
  -3  -3  10  821.32   25.70
  -3  -3  10  817.52   24.80
  -3  -3  10  823.62   26.20
   2   3 -10    4.80    2.30
   2   3 -10    1.10    1.90
   2   3 -10    1.40    1.90
  -2  -3  10    3.70    1.40
  -2  -3  10    1.70    1.90
  -2  -3  10    6.80    2.30
   1   3 -10  609.44   20.10
   1   3 -10  609.64   20.30
   1   3 -10  600.64   20.50
  -1  -3  10  623.94   19.20
  -1  -3  10  592.04   19.80
  -1  -3  10  602.54   20.30
   0   3 -10  334.87   11.50
   0   3 -10  276.57   11.70
   0  -3  10  341.47   12.30
   0  -3  10  329.47   11.30
   0  -3  10  319.87   11.80
  -1   3 -10    6.30    2.00
  -1   3 -10    7.90    2.30
  -1   3 -10    5.20    2.20
   1  -3  10    6.10    2.20
   1  -3  10    8.30    1.60
  -2   3 -10 1277.97   38.80
  -2   3 -10 1254.17   38.70
  -2   3 -10 1215.68   37.20
   2  -3  10 1264.97   39.10
   2  -3  10 1199.38   38.60
   2  -3  10 1252.67   37.80
  -3   3 -10  191.98    8.40
  -3   3 -10  185.68    8.10
   3  -3  10  178.08    8.70
   3  -3  10  182.88    8.80
   3  -3  10  179.68    8.00
  -4   3 -10  155.98    7.70
  -4   3 -10  146.29    7.30
   4  -3  10  162.88    8.50
   4  -3  10  146.49    8.10
   5  -3  10   16.50    4.10
   6   2 -10   44.00    6.80
   6   2 -10   46.70    6.90
   6   2 -10   49.10    5.50
   5   2 -10  346.27   13.60
   5   2 -10  361.86   14.50
   5   2 -10  376.06   13.50
   4   2 -10  663.63   21.70
   4   2 -10  669.43   22.50
   4   2 -10  643.04   21.50
  -4  -2  10  646.84   20.20
  -4  -2  10  646.04   20.40
   3   2 -10    3.50    2.30
   3   2 -10    7.80    2.00
   3   2 -10    4.80    2.10
  -3  -2  10    6.90    1.80
  -3  -2  10    8.60    2.40
  -3  -2  10    6.30    2.10
   2   2 -10   70.49    4.40
   2   2 -10   65.69    4.60
   2   2 -10   72.59    4.70
  -2  -2  10   73.79    4.30
  -2  -2  10   70.89    3.80
  -2  -2  10   68.09    4.50
   1   2 -10  847.82   27.70
   1   2 -10  885.01   27.80
   1   2 -10  877.31   27.60
  -1  -2  10  902.31   26.90
  -1  -2  10  892.01   27.40
  -1  -2  10  836.32   27.70
   0   2 -10  214.08    8.60
   0   2 -10  209.48    8.70
   0  -2  10  223.88    8.30
   0  -2  10  211.08    8.80
   0  -2  10  208.98    8.50
  -1   2 -10  267.57   10.10
  -1   2 -10  259.07    9.80
  -1   2 -10  270.57   10.40
   1  -2  10  252.37   10.00
   1  -2  10  268.37   10.40
  -2   2 -10   70.39    3.80
  -2   2 -10   82.29    4.90
  -2   2 -10   78.39    5.20
  -2   2 -10   77.19    5.30
   2  -2  10   74.49    5.30
   2  -2  10   78.09    5.30
  -3   2 -10   27.40    4.80
  -3   2 -10   17.30    4.40
  -3   2 -10   25.60    3.70
   3  -2  10   21.50    4.10
   3  -2  10   19.10    4.70
  -4   2 -10    3.30    3.70
  -4   2 -10    3.90    2.20
  -4   2 -10    2.90    2.80
   4  -2  10    5.20    2.80
  -5   2 -10    7.20    5.30
   5  -2  10    4.10    3.80
   7   1 -10  530.65   18.20
   7   1 -10  508.55   20.00
   6   1 -10   20.10    5.00
   6   1 -10   18.80    4.00
   6   1 -10   26.70    5.70
   5   1 -10  159.98    7.30
   5   1 -10  152.38    6.90
   5   1 -10  151.08    8.10
  -5  -1  10  140.09    6.30
   4   1 -10   14.30    3.30
   4   1 -10   12.20    2.90
   4   1 -10   14.50    2.80
  -4  -1  10   11.80    2.80
  -4  -1  10   13.20    2.50
  -4  -1  10   12.30    3.00
   3   1 -10 1702.63   51.79
   3   1 -10 1652.23   51.69
   3   1 -10 1729.23   52.39
  -3  -1  10 1670.93   51.39
  -3  -1  10 1759.92   51.29
  -3  -1  10 1755.12   51.19
   2   1 -10  500.85   16.80
   2   1 -10  509.15   16.70
  -2  -1  10  473.55   16.20
  -2  -1  10  495.75   16.00
  -2  -1  10  502.75   16.60
   1   1 -10 1988.80   59.29
   1   1 -10 1886.31   59.09
  -1  -1  10 1858.31   59.09
  -1  -1  10 2076.89   58.99
  -1  -1  10 2017.40   58.59
   0   1 -10  209.08    8.00
   0   1 -10  241.78    9.10
   0   1 -10  225.88    8.80
   0  -1  10  228.48    8.50
   0  -1  10  217.18    8.70
   0  -1  10  209.68    8.80
  -1   1 -10  536.95   17.70
  -1   1 -10  525.95   17.50
  -1   1 -10  524.65   17.40
   1  -1  10  515.15   17.70
   1  -1  10  503.05   17.30
  -2   1 -10  645.34   21.80
  -2   1 -10  644.84   21.50
  -2   1 -10  661.33   20.70
  -2   1 -10  662.93   22.10
   2  -1  10  682.73   21.80
   2  -1  10  660.43   22.00
  -3   1 -10  230.98    8.30
  -3   1 -10  246.58   10.60
  -3   1 -10  240.78    9.40
  -3   1 -10  241.38    9.90
   3  -1  10  244.88   10.20
   3  -1  10  202.08   10.10
   3  -1  10  234.78   10.30
  -4   1 -10  933.61   29.00
  -4   1 -10  912.11   31.10
  -4   1 -10  899.11   28.60
   4  -1  10  908.31   30.00
  -5   1 -10    3.80    5.50
   5  -1  10   -0.10    4.10
   7   0 -10   12.50    5.40
   7   0 -10   14.30    4.20
   7   0 -10   15.30    3.00
   6   0 -10 1846.92   54.39
   6   0 -10 1781.92   55.39
   6   0 -10 1856.11   55.39
   6   0 -10 1868.51   57.19
   5   0 -10    5.20    1.70
   5   0 -10    6.50    2.60
   5   0 -10    5.20    1.50
   5   0 -10    6.90    2.10
  -5   0  10    5.30    2.20
   4   0 -10  486.35   15.60
   4   0 -10  478.75   16.30
   4   0 -10  496.55   16.20
  -4   0  10  483.95   15.50
  -4   0  10  476.75   15.30
   3   0 -10 1575.24   47.80
   3   0 -10 1517.95   47.90
  -3   0  10 1585.04   47.80
  -3   0  10 1597.74   47.60
  -3   0  10 1621.74   47.40
   2   0 -10 1934.71   61.89
   2   0 -10 2172.88   62.29
  -2   0  10 2109.69   61.79
  -2   0  10 2031.00   61.99
  -2   0  10 2098.49   61.79
   1   0 -10 1575.04   47.30
   1   0 -10 1550.74   48.20
   1   0 -10 1604.74   48.60
  -1   0  10 1641.14   48.00
  -1   0  10 1591.54   48.40
   0   0 -10 1095.89   33.00
   0   0 -10 1044.30   32.40
   0   0  10 1097.49   32.80
   0   0  10 1069.09   32.90
   0   0  10  989.60   33.00
  -1   0 -10  632.54   21.60
  -1   0 -10  653.73   21.30
  -1   0 -10  664.33   20.90
  -1   0 -10  666.23   21.30
   1   0  10  645.14   21.60
  -2   0 -10  436.56   14.70
  -2   0 -10  466.75   15.40
  -2   0 -10  459.95   16.10
  -2   0 -10  438.76   15.70
   2   0  10  437.86   15.80
   2   0  10  415.16   15.60
  -3   0 -10   76.19    6.50
  -3   0 -10   76.69    4.80
  -3   0 -10   69.39    6.00
  -3   0 -10   80.69    5.10
   3   0  10   75.29    6.00
   3   0  10   63.99    6.50
  -4   0 -10  192.88    9.00
  -4   0 -10  183.68    8.10
  -4   0 -10  192.78   11.20
   4   0  10  194.08   10.10
   8  -1 -10   30.80    7.80
   7  -1 -10   25.10    5.90
   7  -1 -10   25.60    3.90
   7  -1 -10   29.40    5.00
   7  -1 -10   23.90    6.20
   6  -1 -10  388.86   13.40
   6  -1 -10  391.46   13.10
   6  -1 -10  376.36   13.60
   6  -1 -10  386.16   15.30
   6  -1 -10  395.56   13.10
  -6   1  10  389.86   14.50
   5  -1 -10    5.00    2.00
   5  -1 -10    4.40    1.90
   5  -1 -10    5.00    1.60
   5  -1 -10    5.00    1.60
  -5   1  10    5.90    2.40
   4  -1 -10  602.64   19.10
   4  -1 -10  588.74   19.70
   4  -1 -10  624.54   19.50
  -4   1  10  574.84   18.80
  -4   1  10  610.04   19.00
  -4   1  10  600.64   20.00
   3  -1 -10 2606.04   80.69
   3  -1 -10 2728.63   80.99
   3  -1 -10 2680.83   80.39
  -3   1  10 2800.02   81.09
  -3   1  10 2804.12   80.49
  -3   1  10 2696.73   80.59
   2  -1 -10  616.44   19.40
   2  -1 -10  573.24   19.10
   2  -1 -10  580.34   19.60
  -2   1  10  602.54   19.30
  -2   1  10  599.34   19.50
  -2   1  10  584.14   19.30
   1  -1 -10 1168.98   35.90
   1  -1 -10 1139.79   35.10
  -1   1  10 1207.08   36.00
  -1   1  10 1145.49   35.80
  -1   1  10 1140.79   36.00
   0  -1 -10  282.17   10.80
   0  -1 -10  270.07   10.30
   0  -1 -10  276.97   10.40
   0  -1 -10  272.57   10.00
   0   1  10  271.57   10.70
  -1  -1 -10    0.20    2.40
  -1  -1 -10    1.40    1.70
  -1  -1 -10    3.90    2.00
  -1  -1 -10    1.80    1.90
   1   1  10   -0.10    1.90
   1   1  10    3.80    2.50
  -2  -1 -10  682.23   22.60
  -2  -1 -10  688.13   21.60
  -2  -1 -10  633.94   21.60
   2   1  10  633.24   22.10
   2   1  10  618.64   22.30
   2   1  10  715.53   22.70
  -3  -1 -10  102.99    6.40
  -3  -1 -10   89.49    7.30
  -3  -1 -10  115.59    8.10
  -3  -1 -10  106.69    6.20
   3   1  10  102.49    7.30
  -4  -1 -10   57.59    6.00
  -4  -1 -10   62.39    8.90
   4   1  10   68.19    7.80
   8  -2 -10  135.09    9.80
   8  -2 -10  133.39    7.00
   7  -2 -10  701.83   22.30
   7  -2 -10  676.03   22.40
   7  -2 -10  685.03   21.80
   7  -2 -10  667.13   21.60
  -7   2  10  640.84   23.30
   6  -2 -10   47.00    3.90
   6  -2 -10   48.60    4.80
   6  -2 -10   50.59    4.10
   6  -2 -10   43.90    4.70
  -6   2  10   46.50    6.00
   5  -2 -10   97.39    5.70
   5  -2 -10   92.89    5.00
   5  -2 -10   97.09    5.00
  -5   2  10   98.99    6.60
   4  -2 -10 3077.29   93.49
   4  -2 -10 3168.58   93.39
  -4   2  10 3231.58   93.19
  -4   2  10 3118.49   93.09
  -4   2  10 3211.68   94.49
   3  -2 -10 2361.06   70.59
   3  -2 -10 2282.87   70.19
   3  -2 -10 2365.86   70.09
  -3   2  10 2424.26   70.19
  -3   2  10 2324.67   70.79
  -3   2  10 2351.16   70.09
   2  -2 -10   13.30    3.00
   2  -2 -10   14.70    3.40
   2  -2 -10   16.40    2.80
  -2   2  10   21.70    3.50
  -2   2  10   11.70    2.80
  -2   2  10   11.70    2.40
   1  -2 -10  342.77   13.40
   1  -2 -10  391.56   13.90
   1  -2 -10  347.37   13.40
   1  -2 -10  414.76   13.10
  -1   2  10  416.16   14.00
  -1   2  10  399.56   14.00
   0  -2 -10  139.89    7.00
   0  -2 -10  143.49    6.60
   0  -2 -10  151.28    6.90
   0   2  10  139.79    7.10
  -1  -2 -10  328.57   12.20
  -1  -2 -10  328.97   12.40
  -1  -2 -10  325.37   12.60
   1   2  10  340.17   13.00
   1   2  10  332.17   13.10
   1   2  10  316.87   12.70
  -2  -2 -10  250.27   11.50
  -2  -2 -10  266.77   10.50
   2   2  10  261.17   11.40
  -3  -2 -10  243.18   12.40
  -3  -2 -10  242.98   10.20
   3   2  10  234.08   11.70
   8  -3 -10  202.08    8.90
   8  -3 -10  229.18    9.80
   7  -3 -10  542.75   18.30
   7  -3 -10  546.95   17.90
   7  -3 -10  533.75   18.60
   7  -3 -10  547.15   19.40
  -7   3  10  512.55   20.20
   6  -3 -10  317.67   11.70
   6  -3 -10  334.67   12.10
   6  -3 -10  314.27   12.40
   5  -3 -10  110.09    6.40
   5  -3 -10  115.89    5.90
   5  -3 -10  113.99    5.80
  -5   3  10  108.29    5.10
  -5   3  10  105.79    5.00
   4  -3 -10   88.89    5.50
   4  -3 -10  117.29    6.50
   4  -3 -10  116.39    5.80
  -4   3  10  110.19    5.60
  -4   3  10  114.89    5.50
   3  -3 -10 1243.98   38.10
   3  -3 -10 1221.18   37.90
   3  -3 -10 1171.18   38.40
  -3   3  10 1252.77   38.10
  -3   3  10 1254.57   38.00
   2  -3 -10  525.05   17.20
   2  -3 -10  511.35   17.00
  -2   3  10  466.35   17.10
  -2   3  10  491.55   17.10
   1  -3 -10 1582.34   48.30
   1  -3 -10 1528.85   48.20
  -1   3  10 1618.04   48.70
   0  -3 -10  399.86   14.60
   0  -3 -10  419.46   14.80
   0  -3 -10  416.66   15.70
   0   3  10  379.96   15.30
   0   3  10  431.56   15.40
  -1  -3 -10   49.90    5.70
  -1  -3 -10   56.19    6.90
  -1  -3 -10   52.99    6.20
  -1  -3 -10   48.30    5.00
   1   3  10   49.90    5.70
  -2  -3 -10  344.17   15.10
  -2  -3 -10  367.36   15.20
  -2  -3 -10  357.16   13.70
   2   3  10  361.26   14.80
   8  -4 -10    9.20    3.00
   8  -4 -10   22.60    6.20
   7  -4 -10  356.06   12.60
   7  -4 -10  337.57   13.30
   7  -4 -10  315.37   13.50
   6  -4 -10  414.76   14.70
   6  -4 -10  426.66   14.40
   6  -4 -10  398.26   15.10
  -6   4  10  348.87   16.40
   5  -4 -10  115.99    6.20
   5  -4 -10  117.69    6.50
   5  -4 -10  105.19    7.10
  -5   4  10  124.79    6.00
  -5   4  10  110.49    5.50
  -5   4  10  102.29    8.40
   4  -4 -10  163.18    8.60
   4  -4 -10  170.78    7.70
   4  -4 -10  166.88    7.70
  -4   4  10  159.78    9.20
  -4   4  10  172.48    7.50
  -4   4  10  163.58    7.80
   3  -4 -10  120.89    6.50
   3  -4 -10  126.09    6.60
   3  -4 -10  122.89    7.70
  -3   4  10  124.89    6.50
   2  -4 -10   21.30    5.20
   2  -4 -10   21.50    4.10
   2  -4 -10   27.00    4.10
  -2   4  10   27.20    4.10
  -2   4  10   26.40    5.10
   1  -4 -10  181.88    8.70
   1  -4 -10  176.48    9.20
   1  -4 -10  169.38    8.30
  -1   4  10  172.88    8.70
   0  -4 -10  233.68   10.10
   0  -4 -10  225.08   10.10
   0   4  10  227.58   10.70
  -1  -4 -10   35.00    5.70
  -1  -4 -10   31.20    6.60
   1   4  10   24.20    4.60
   7  -5 -10  143.79    7.80
   7  -5 -10  131.99    8.70
   6  -5 -10    6.60    3.00
   6  -5 -10    7.40    2.80
   5  -5 -10   10.10    2.90
   5  -5 -10    4.10    2.50
  -5   5  10   -0.10    2.20
  -5   5  10    6.00    2.80
   4  -5 -10  270.97   11.20
   4  -5 -10  266.77   11.30
  -4   5  10  284.47   11.00
   3  -5 -10   -3.80    2.40
   3  -5 -10    1.30    2.30
  -3   5  10    2.10    3.20
  -3   5  10   -0.60    2.30
   2  -5 -10   79.59    6.30
   2  -5 -10   81.09    6.40
  -2   5  10   90.89    6.50
   1  -5 -10   91.89    7.30
   1  -5 -10   98.89    7.10
  -1   5  10  100.99    7.40
   0  -5 -10  254.07   11.80
   0   5  10  272.47   12.60
   7  -6 -10   12.90    4.10
   7  -6 -10   19.20    4.10
   6  -6 -10  145.59    8.50
   6  -6 -10  135.19    8.90
  -6   6  10  142.19    6.90
   5  -6 -10  489.05   18.10
   5  -6 -10  492.55   18.10
  -5   6  10  490.85   17.30
   4  -6 -10  262.17   11.60
   4  -6 -10  258.77   11.80
  -4   6  10  262.37   11.30
   3  -6 -10   19.40    5.70
   3  -6 -10   29.60    5.90
  -3   6  10   16.10    3.70
   2  -6 -10  131.19    8.60
   2  -6 -10  127.89    8.60
  -2   6  10  125.49    8.70
   1  -6 -10   89.39    8.20
   1  -6 -10   85.29    8.30
  -1   6  10   71.99    7.70
   5  -7 -10    2.90    4.10
  -5   7  10    0.40    3.40
  -4   7  10  302.07   13.40
   0   7 -11   20.80    6.00
   0  -7  11   11.00    5.60
  -1   7 -11   17.60    3.80
  -1   7 -11   31.70    7.10
   1  -7  11   42.50    9.00
   1  -7  11   21.10    5.00
  -2   7 -11  696.23   25.50
  -2   7 -11  694.23   23.20
   2  -7  11  750.62   26.30
   2  -7  11  699.53   26.30
  -3   7 -11   -0.60    4.20
   3  -7  11    9.30    5.20
   2   6 -11   60.59    7.50
   2   6 -11   74.79    8.10
  -2  -6  11   52.49    8.60
   1   6 -11  476.95   19.50
   1   6 -11  536.95   19.00
  -1  -6  11  522.35   19.70
  -1  -6  11  518.05   17.80
   0   6 -11   61.59    6.00
   0   6 -11   76.29    7.20
   0  -6  11   62.09    7.30
   0  -6  11   61.49    7.90
  -1   6 -11  312.27   12.40
  -1   6 -11  335.97   14.20
   1  -6  11  342.37   14.80
  -2   6 -11  142.39    8.90
  -2   6 -11  135.99    6.80
   2  -6  11  163.28    7.80
   2  -6  11  149.49   10.40
  -3   6 -11    9.80    3.60
   3  -6  11    7.60    4.20
   3  -6  11    5.80    4.60
  -4   6 -11   94.99    7.90
   4  -6  11   91.39    9.30
   3   5 -11  126.99    9.00
   3   5 -11  129.49    8.90
  -3  -5  11  137.79    8.70
   2   5 -11   56.29    6.20
   2   5 -11   49.99    6.00
  -2  -5  11   50.69    6.50
  -2  -5  11   44.20    4.60
  -2  -5  11   55.59    6.80
   1   5 -11  172.48    8.80
   1   5 -11  187.18    9.40
  -1  -5  11  200.68    9.90
  -1  -5  11  170.08    7.40
   0   5 -11   41.40    4.60
   0   5 -11   44.70    5.30
   0  -5  11   37.70    6.20
   0  -5  11   32.50    5.00
  -1   5 -11    3.90    2.10
  -1   5 -11    1.40    2.60
   1  -5  11   -5.10    3.10
  -2   5 -11  407.96   15.90
  -2   5 -11  419.16   14.10
   2  -5  11  440.46   16.60
   2  -5  11  418.16   14.50
  -3   5 -11  179.28    9.40
   3  -5  11  190.68   10.40
  -4   5 -11  190.78   10.30
  -4   5 -11  206.28    9.70
   4  -5  11  154.38   10.30
   4  -5  11  214.48   11.20
   5  -5  11   10.40    5.20
   4   4 -11  592.04   21.70
   4   4 -11  593.84   22.10
  -4  -4  11  621.44   19.80
   3   4 -11   32.70    5.10
   3   4 -11   29.80    5.50
  -3  -4  11   36.10    5.80
  -3  -4  11   30.90    5.00
   2   4 -11  285.67   11.80
   2   4 -11  281.87   11.80
  -2  -4  11  272.07    9.70
  -2  -4  11  290.07   11.80
   1   4 -11  372.56   14.90
   1   4 -11  410.16   14.70
   1   4 -11  388.46   14.90
  -1  -4  11  413.86   15.20
  -1  -4  11  401.26   13.40
   0   4 -11   21.00    3.70
   0   4 -11   20.40    3.80
   0  -4  11   26.70    4.90
   0  -4  11   18.20    4.60
   0  -4  11   15.10    4.00
  -1   4 -11  346.67   13.50
  -1   4 -11  359.46   12.40
  -1   4 -11  342.77   13.70
   1  -4  11  338.17   11.50
   1  -4  11  366.46   14.00
  -2   4 -11  141.79    7.30
  -2   4 -11  136.79    5.70
  -2   4 -11  125.89    7.90
   2  -4  11  139.29    8.10
   2  -4  11  122.29    6.30
  -3   4 -11   98.79    7.10
  -3   4 -11   93.09    6.40
   3  -4  11   93.69    7.20
  -4   4 -11    1.60    3.00
   4  -4  11    1.20    4.20
   4  -4  11   -2.30    3.40
   5  -4  11    4.30    4.60
   5   3 -11   38.50    6.80
   5   3 -11   34.80    5.90
   4   3 -11    6.40    2.80
   4   3 -11    4.00    3.20
   4   3 -11    4.50    3.10
  -4  -3  11    5.00    2.60
  -4  -3  11    2.90    2.40
   3   3 -11 1222.98   37.80
   3   3 -11 1073.19   37.10
   3   3 -11 1227.18   37.40
  -3  -3  11 1166.28   35.40
  -3  -3  11 1195.48   36.70
  -3  -3  11 1181.48   36.20
   2   3 -11  264.87   11.30
   2   3 -11  281.37   11.30
   2   3 -11  301.37   11.50
  -2  -3  11  290.57    9.90
  -2  -3  11  271.07   10.60
  -2  -3  11  275.57   11.30
   1   3 -11 1448.06   44.60
   1   3 -11 1405.46   44.90
  -1  -3  11 1436.86   44.90
  -1  -3  11 1502.55   43.70
   0   3 -11   25.60    3.30
   0   3 -11   23.40    3.60
   0  -3  11   16.40    4.00
   0  -3  11   22.80    3.70
  -1   3 -11  370.76   13.70
  -1   3 -11  358.66   12.60
   1  -3  11  367.26   13.90
  -2   3 -11  355.16   13.20
  -2   3 -11  356.56   11.70
   2  -3  11  331.07   13.30
   2  -3  11  364.16   13.80
   2  -3  11  340.57   12.00
  -3   3 -11  263.87   10.80
   3  -3  11  258.97   11.40
  -4   3 -11  672.93   24.50
  -4   3 -11  737.13   24.90
   4  -3  11  864.41   26.40
   5  -3  11    3.30    4.40
   6   2 -11  723.03   26.50
   6   2 -11  771.02   25.20
   5   2 -11   31.30    5.90
   5   2 -11   50.69    6.20
   5   2 -11   44.30    5.00
   4   2 -11  252.87   10.40
   4   2 -11  243.88   10.60
   4   2 -11  252.07   11.20
  -4  -2  11  252.17    9.50
  -4  -2  11  259.97    9.30
  -4  -2  11  265.17    9.20
   3   2 -11 1174.78   37.20
   3   2 -11 1130.59   36.70
   3   2 -11 1140.79   36.70
  -3  -2  11 1200.38   36.40
  -3  -2  11 1175.68   35.60
  -3  -2  11 1209.28   35.90
   2   2 -11 1169.18   35.90
   2   2 -11 1182.48   36.00
   2   2 -11 1150.88   36.00
  -2  -2  11 1095.69   35.60
  -2  -2  11 1155.58   34.80
  -2  -2  11 1111.39   35.20
   1   2 -11  824.72   26.70
   1   2 -11  821.62   26.50
  -1  -2  11  814.72   26.20
  -1  -2  11  860.21   25.90
  -1  -2  11  806.32   26.70
   0   2 -11  429.56   14.80
   0  -2  11  399.86   14.60
   0  -2  11  400.66   14.90
   0  -2  11  425.66   14.20
  -1   2 -11  899.61   28.30
  -1   2 -11  881.61   27.80
   1  -2  11  853.01   28.40
  -2   2 -11  161.68    7.80
  -2   2 -11  147.89    7.30
  -2   2 -11  153.88    6.20
   2  -2  11  150.78    7.90
   2  -2  11  153.68    7.80
   2  -2  11  136.79    7.80
  -3   2 -11    4.00    3.00
  -3   2 -11    1.30    2.30
  -3   2 -11    1.80    1.50
   3  -2  11    0.40    2.60
  -4   2 -11  100.69    8.90
  -4   2 -11  106.69    7.40
  -4   2 -11  111.19    6.50
   4  -2  11  108.19    7.80
  -5   2 -11   58.49    9.80
   5  -2  11   75.09    8.50
   6   1 -11  382.06   13.80
   6   1 -11  373.06   15.50
   6   1 -11  351.56   14.10
   5   1 -11  164.28    8.30
   5   1 -11  183.58    8.00
   5   1 -11  168.88    8.90
  -5  -1  11  166.68    7.30
   4   1 -11  540.85   18.10
   4   1 -11  501.05   17.80
   4   1 -11  532.55   18.90
  -4  -1  11  531.05   16.90
  -4  -1  11  528.75   17.50
  -4  -1  11  538.85   17.30
   3   1 -11  960.60   31.70
   3   1 -11  986.60   31.70
  -3  -1  11 1041.10   31.40
  -3  -1  11 1013.20   31.20
  -3  -1  11 1032.10   31.10
   2   1 -11  582.74   18.60
   2   1 -11  505.35   18.40
  -2  -1  11  557.04   17.90
  -2  -1  11  559.84   18.50
  -2  -1  11  540.65   18.10
  -1  -1  11  474.05   16.90
  -1  -1  11  504.75   16.80
  -1  -1  11  510.55   16.50
   0   1 -11  122.59    6.50
   0   1 -11  119.19    5.50
   0   1 -11  124.09    6.00
   0  -1  11  123.49    6.30
   0  -1  11  122.99    6.10
   0  -1  11  102.09    6.10
  -1   1 -11   70.09    4.70
  -1   1 -11   64.79    4.70
  -1   1 -11   66.69    4.50
   1  -1  11   67.79    5.10
  -2   1 -11 1038.60   32.10
  -2   1 -11 1036.30   32.60
  -2   1 -11 1018.20   31.10
   2  -1  11  947.31   32.20
   2  -1  11 1025.40   32.60
  -3   1 -11  338.97   11.80
  -3   1 -11  344.87   12.90
  -3   1 -11  353.96   14.30
   3  -1  11  363.36   13.90
  -4   1 -11  208.38    9.20
  -4   1 -11  213.18   11.60
  -4   1 -11  212.08   11.90
   4  -1  11  215.48   10.90
   7   0 -11  449.36   15.80
   7   0 -11  434.76   17.80
   6   0 -11   54.19    5.70
   6   0 -11   52.99    6.30
   6   0 -11   57.59    4.80
  -6   0  11   39.80    5.60
   5   0 -11   52.79    4.90
   5   0 -11   56.59    4.30
   5   0 -11   51.19    5.40
  -5   0  11   47.20    4.90
   4   0 -11 3300.17   99.09
   4   0 -11 3358.96   99.29
  -4   0  11 3346.67   98.29
  -4   0  11 3387.56   98.49
  -4   0  11 3335.57   99.19
   3   0 -11 1660.53   50.69
   3   0 -11 1658.73   50.49
  -3   0  11 1614.54   50.29
  -3   0  11 1721.13   50.19
  -3   0  11 1662.23   50.39
   2   0 -11   74.59    5.10
   2   0 -11   77.99    4.70
   2   0 -11   73.39    3.40
  -2   0  11   91.49    5.00
  -2   0  11   73.89    4.70
  -2   0  11   69.99    4.70
   1   0 -11  477.15   15.40
  -1   0  11  473.55   16.20
  -1   0  11  481.75   16.60
  -1   0  11  488.05   16.40
   0   0 -11    9.70    2.70
   0   0 -11   15.70    3.60
   0   0 -11   15.20    3.00
   0   0  11   13.20    3.40
   0   0  11   21.50    3.50
  -1   0 -11  407.26   14.10
  -1   0 -11  377.66   13.50
  -1   0 -11  386.66   14.00
   1   0  11  376.46   14.30
  -2   0 -11  397.56   14.90
  -2   0 -11  375.06   13.50
  -2   0 -11  381.56   14.10
   2   0  11  408.86   14.90
  -3   0 -11  321.77   12.10
  -3   0 -11  343.07   12.70
  -3   0 -11  341.57   14.40
   3   0  11  328.37   13.60
  -4   0 -11  561.84   22.40
  -4   0 -11  590.44   19.40
   4   0  11  579.14   21.30
   7  -1 -11  393.46   13.90
   7  -1 -11  387.76   13.20
   7  -1 -11  407.86   16.20
   7  -1 -11  357.26   14.40
   6  -1 -11  121.69    6.30
   6  -1 -11  137.69    6.10
   6  -1 -11  116.99    7.00
  -6   1  11  128.79    8.00
   5  -1 -11   71.59    4.40
   5  -1 -11   78.29    5.40
   5  -1 -11   68.19    4.60
  -5   1  11   68.09    6.10
   4  -1 -11  386.56   13.80
   4  -1 -11  364.56   13.20
   4  -1 -11  373.96   12.90
  -4   1  11  371.16   12.90
  -4   1  11  373.96   12.80
  -4   1  11  385.46   14.00
   3  -1 -11  840.92   27.10
   3  -1 -11  880.01   26.80
   3  -1 -11  845.12   26.50
  -3   1  11  822.82   26.50
  -3   1  11  816.42   26.50
  -3   1  11  833.52   27.00
   2  -1 -11  237.48    8.20
   2  -1 -11  238.68    9.30
  -2   1  11  238.08    9.50
  -2   1  11  234.48    9.40
  -2   1  11  227.78    9.30
   1  -1 -11 1624.34   48.50
   1  -1 -11 1562.64   49.20
  -1   1  11 1608.64   49.20
  -1   1  11 1567.94   49.20
  -1   1  11 1709.13   49.60
   0  -1 -11  669.03   21.60
   0  -1 -11  643.14   21.10
   0  -1 -11  658.13   21.50
   0   1  11  630.34   21.70
  -1  -1 -11  106.19    6.00
  -1  -1 -11  107.19    6.40
  -1  -1 -11  112.49    6.10
   1   1  11  104.19    6.50
   1   1  11   96.09    7.00
  -2  -1 -11  335.67   14.00
  -2  -1 -11  334.57   12.50
  -2  -1 -11  325.07   12.70
  -2  -1 -11  335.67   13.60
   2   1  11  344.87   13.60
  -3  -1 -11  111.79    6.90
  -3  -1 -11  114.09    9.10
  -3  -1 -11  116.59    7.20
   3   1  11  118.29    8.30
   7  -2 -11  177.08    7.90
   7  -2 -11  183.08    8.00
   7  -2 -11  162.88    9.10
   6  -2 -11  142.99    6.70
   6  -2 -11  140.79    7.20
   6  -2 -11  140.09    6.70
   6  -2 -11  133.39    7.60
   5  -2 -11  211.78    9.20
   5  -2 -11  258.07    9.70
  -5   2  11  251.27    8.70
  -5   2  11  252.57    8.70
  -5   2  11  240.18   11.10
   4  -2 -11   93.29    5.20
   4  -2 -11   84.29    5.90
   4  -2 -11   80.39    5.00
  -4   2  11   86.19    6.30
  -4   2  11   97.99    5.10
  -4   2  11   96.19    5.20
   3  -2 -11  417.26   14.20
   3  -2 -11  415.66   13.90
   3  -2 -11  392.56   14.50
  -3   2  11  378.86   14.00
  -3   2  11  384.66   13.90
   2  -2 -11  339.87   12.30
   2  -2 -11  335.37   12.30
  -2   2  11  342.57   12.50
  -2   2  11  312.17   12.20
   1  -2 -11  588.94   19.60
   1  -2 -11  565.14   18.80
  -1   2  11  585.84   19.90
   0  -2 -11   56.19    4.70
   0  -2 -11   55.89    4.70
   0  -2 -11   56.59    6.00
   0   2  11   47.20    4.90
  -1  -2 -11   48.90    4.90
  -1  -2 -11   44.90    5.40
  -1  -2 -11   60.59    6.60
   1   2  11   49.30    5.50
  -2  -2 -11   14.10    4.20
  -2  -2 -11   10.50    2.90
  -2  -2 -11   17.40    4.70
  -2  -2 -11    5.70    4.30
   2   2  11   11.90    3.60
  -3  -2 -11    4.50    5.20
  -3  -2 -11    3.70    3.20
   3   2  11    1.40    4.10
   7  -3 -11  210.98   10.60
   7  -3 -11  217.28    9.20
   7  -3 -11  229.18   11.10
   7  -3 -11  231.98    9.60
  -7   3  11  199.28   12.10
   6  -3 -11    5.60    2.20
   6  -3 -11    7.70    2.40
   6  -3 -11    9.30    3.40
  -6   3  11   10.40    4.10
   5  -3 -11   99.59    5.70
   5  -3 -11   88.79    6.50
   5  -3 -11   84.29    5.50
  -5   3  11   89.99    5.20
  -5   3  11   90.79    4.90
  -5   3  11   99.09    8.00
   4  -3 -11  368.46   14.30
   4  -3 -11  380.96   13.60
   4  -3 -11  407.86   13.60
  -4   3  11  373.66   13.40
  -4   3  11  404.86   13.40
  -4   3  11  313.17   14.80
   3  -3 -11   54.19    4.60
   3  -3 -11   53.69    4.50
   3  -3 -11   59.59    5.80
   3  -3 -11   44.20    5.60
  -3   3  11   54.59    4.50
  -3   3  11   49.40    5.00
  -3   3  11   46.50    5.70
   2  -3 -11  124.59    6.70
   2  -3 -11  107.79    7.30
   2  -3 -11  125.59    6.50
  -2   3  11  124.99    6.70
   1  -3 -11  369.16   13.10
   1  -3 -11  374.86   13.70
   1  -3 -11  345.97   14.40
   1  -3 -11  362.76   14.20
  -1   3  11  401.86   14.20
  -1   3  11  326.57   14.00
   0  -3 -11  483.55   18.40
   0  -3 -11  547.45   18.40
   0  -3 -11  530.65   18.30
   0   3  11  522.15   18.80
  -1  -3 -11  366.96   15.10
  -1  -3 -11  387.96   14.60
   1   3  11  397.26   15.60
  -2  -3 -11   94.39    9.00
  -2  -3 -11   85.09    7.20
   2   3  11   90.09    8.40
   7  -4 -11    8.60    4.10
   7  -4 -11   11.50    3.10
   7  -4 -11   12.00    3.10
   6  -4 -11  142.49    7.90
   6  -4 -11  155.38    9.20
   6  -4 -11  162.38    7.90
   5  -4 -11  843.42   26.80
   5  -4 -11  763.52   27.30
   5  -4 -11  814.22   26.70
  -5   4  11  832.32   26.00
  -5   4  11  848.42   26.30
   4  -4 -11  365.76   13.70
   4  -4 -11  365.96   13.70
  -4   4  11  368.06   13.40
   3  -4 -11    6.30    2.30
   3  -4 -11    4.80    2.50
  -3   4  11    7.20    2.50
  -3   4  11    7.00    3.10
   2  -4 -11  276.37   11.70
   2  -4 -11  290.67   11.70
  -2   4  11  299.57   11.90
   1  -4 -11  116.09    7.40
   1  -4 -11  102.19    6.60
   1  -4 -11  107.89    7.00
  -1   4  11  111.79    7.40
   0  -4 -11   31.40    5.60
   0  -4 -11   28.30    5.80
   0   4  11   27.80    5.90
  -1  -4 -11   40.30    7.30
  -1  -4 -11   31.40    6.30
   1   4  11   24.40    5.00
   7  -5 -11   23.40    4.30
   7  -5 -11   24.80    5.60
   6  -5 -11   32.10    5.40
   6  -5 -11   21.40    5.70
   5  -5 -11   31.90    5.30
   5  -5 -11   36.80    5.30
  -5   5  11   27.50    5.70
  -5   5  11   32.90    4.60
   4  -5 -11  360.76   14.50
   4  -5 -11  395.06   14.70
  -4   5  11  402.16   14.40
  -4   5  11  356.66   14.70
   3  -5 -11   21.40    5.30
  -3   5  11   26.50    5.00
   2  -5 -11   22.10    5.60
   2  -5 -11   24.60    5.80
  -2   5  11   35.80    5.80
   1  -5 -11   14.60    3.80
   1  -5 -11   10.90    4.10
   1  -5 -11   10.90    3.80
  -1   5  11   13.90    4.10
   6  -6 -11  328.27   14.00
   6  -6 -11  330.17   14.20
   5  -6 -11   41.30    6.60
   5  -6 -11   37.30    6.40
  -5   6  11   40.50    5.70
  -5   6  11   40.50    7.70
   4  -6 -11  169.68    9.80
   4  -6 -11  171.08    9.80
  -4   6  11  180.08    9.50
   3  -6 -11  107.49    8.40
   3  -6 -11  102.59    8.20
  -3   6  11  116.19    8.50
   2  -6 -11  136.29    9.20
  -2   6  11  148.59    9.90
   1   6 -12   96.59    8.80
   1   6 -12  120.89    8.30
  -1  -6  12  124.49   10.10
   0   6 -12    0.60    3.10
   0   6 -12   -3.20    3.60
   0  -6  12   -1.00    4.60
  -1   6 -12  234.88   10.20
  -1   6 -12  234.98   12.00
   1  -6  12  245.98   13.10
  -2   6 -12   98.49    8.40
  -2   6 -12   92.59    5.70
   2  -6  12  106.49   10.00
  -3   6 -12   91.99    8.10
   3  -6  12   82.89    9.80
   3   5 -12  489.35   19.50
   3   5 -12  498.25   19.70
  -3  -5  12  538.75   19.00
   2   5 -12   90.29    7.70
   2   5 -12   95.89    7.80
  -2  -5  12  103.69    8.50
   1   5 -12  690.83   23.90
   1   5 -12  669.23   23.10
  -1  -5  12  653.83   21.40
  -1  -5  12  673.73   23.90
   0   5 -12   14.20    3.20
   0   5 -12   12.30    3.40
   0  -5  12    9.60    4.10
  -1   5 -12  125.99    6.70
  -1   5 -12  130.89    8.10
   1  -5  12  128.09    9.00
  -2   5 -12   85.49    4.90
  -2   5 -12   94.99    7.10
   2  -5  12   79.09    5.70
   2  -5  12   88.59    7.90
  -3   5 -12  148.29    8.90
   3  -5  12  129.09    9.90
  -4   5 -12  516.85   18.60
   4  -5  12  474.15   19.70
   4   4 -12   74.39    7.80
   4   4 -12   82.39    8.20
   3   4 -12  688.53   24.40
   3   4 -12  698.03   24.50
  -3  -4  12  712.83   23.70
   2   4 -12  371.76   14.20
   2   4 -12  350.36   14.20
  -2  -4  12  353.46   14.20
  -2  -4  12  342.57   13.50
  -2  -4  12  352.76   12.20
   1   4 -12  284.37   11.80
   1   4 -12  305.47   12.40
  -1  -4  12  261.47   11.90
  -1  -4  12  288.17   10.80
  -1  -4  12  322.37   12.70
   0   4 -12   62.19    5.50
   0   4 -12   65.09    5.10
   0  -4  12   53.09    6.00
  -1   4 -12  709.83   23.70
  -1   4 -12  680.63   22.20
   1  -4  12  637.04   22.70
   1  -4  12  721.43   24.10
  -2   4 -12    2.90    1.90
  -2   4 -12    2.30    2.60
   2  -4  12    1.90    3.30
   2  -4  12   -0.10    2.50
  -3   4 -12   79.19    6.50
   3  -4  12   75.99    7.60
  -4   4 -12   40.50    7.20
  -4   4 -12   16.30    4.00
   4  -4  12   18.00    5.00
   5   3 -12  273.07   12.50
   5   3 -12  268.17   13.10
   4   3 -12  281.87   12.90
   4   3 -12  306.47   12.50
  -4  -3  12  268.17   10.70
  -4  -3  12  301.47   11.30
   3   3 -12  204.78    9.70
   3   3 -12  215.88   10.10
  -3  -3  12  201.68    9.00
  -3  -3  12  201.58    8.20
  -3  -3  12  214.98    9.60
   2   3 -12  326.77   13.10
   2   3 -12  341.67   13.10
  -2  -3  12  337.67   11.80
  -2  -3  12  329.37   13.10
   1   3 -12   74.79    8.50
   1   3 -12   88.39    5.90
   1   3 -12   92.59    5.80
  -1  -3  12   94.19    6.30
  -1  -3  12   84.49    6.70
  -1  -3  12   87.19    5.40
   0   3 -12   40.20    4.60
   0   3 -12   41.50    4.10
   0  -3  12   37.70    5.20
   0  -3  12   43.50    5.20
  -1   3 -12  183.78    8.50
  -1   3 -12  174.08    7.40
  -1   3 -12  174.48    9.10
   1  -3  12  171.98    8.30
   1  -3  12  170.28    8.90
  -2   3 -12  832.92   25.60
  -2   3 -12  771.82   27.20
  -2   3 -12  861.11   27.40
   2  -3  12  831.22   27.80
  -3   3 -12  520.35   19.00
  -3   3 -12  529.25   18.80
   3  -3  12  546.95   19.70
  -4   3 -12  315.37   12.70
   4  -3  12  316.47   14.30
   6   2 -12   13.90    3.90
   5   2 -12    7.20    3.10
   5   2 -12   11.50    3.90
   4   2 -12 2043.30   64.19
   4   2 -12 2145.99   64.29
   4   2 -12 2158.18   65.09
  -4  -2  12 2090.99   62.79
  -4  -2  12 2103.69   62.89
  -4  -2  12 2121.29   63.09
   3   2 -12  649.74   22.30
   3   2 -12  636.34   21.90
   3   2 -12  642.84   22.00
  -3  -2  12  643.54   21.60
  -3  -2  12  656.73   20.90
  -3  -2  12  659.63   21.10
   2   2 -12  186.28    8.30
   2   2 -12  171.68    8.40
   2   2 -12  181.98    8.90
  -2  -2  12  181.58    8.40
  -2  -2  12  179.58    7.60
   1   2 -12  393.26   14.50
   1   2 -12  423.86   14.90
  -1  -2  12  402.56   14.90
  -1  -2  12  396.86   14.00
   0   2 -12   13.30    3.30
   0  -2  12   13.20    3.00
   0  -2  12   11.30    2.90
  -1   2 -12  213.68   10.20
  -1   2 -12  241.38    9.50
  -1   2 -12  225.38    9.60
   1  -2  12  235.18   10.20
   1  -2  12  213.98    9.70
  -2   2 -12  281.37   10.20
  -2   2 -12  294.77   11.50
  -2   2 -12  267.57   11.80
  -2   2 -12  292.37   11.90
   2  -2  12  271.97   12.00
  -3   2 -12  277.37   11.20
  -3   2 -12  227.68    9.10
  -3   2 -12  285.37   12.60
  -3   2 -12  264.07   11.80
  -3   2 -12  265.17    9.10
   3  -2  12  282.27   12.20
  -4   2 -12  590.14   20.40
  -4   2 -12  599.64   23.00
   4  -2  12  606.24   22.10
   6   1 -12   14.40    3.40
   6   1 -12   13.90    6.00
   6   1 -12   23.30    6.40
   5   1 -12   14.90    3.50
   5   1 -12   15.10    3.80
   5   1 -12   19.30    4.30
  -5  -1  12   16.30    4.80
   4   1 -12  525.25   18.50
   4   1 -12  529.05   19.10
   4   1 -12  496.45   18.10
  -4  -1  12  536.15   17.80
  -4  -1  12  532.25   17.20
  -4  -1  12  535.75   17.50
   3   1 -12  240.58   10.60
   3   1 -12  250.47   10.20
  -3  -1  12  254.17   10.20
  -3  -1  12  274.77   10.00
  -3  -1  12  260.07   10.00
   2   1 -12   32.50    3.70
   2   1 -12   35.90    4.70
  -2  -1  12   33.20    4.10
  -2  -1  12   31.90    4.00
  -2  -1  12   38.50    4.20
   1   1 -12  914.11   27.80
   1   1 -12  887.01   29.30
  -1  -1  12  923.71   29.40
  -1  -1  12  925.51   28.70
   0   1 -12  774.82   24.70
   0   1 -12  768.22   25.50
   0  -1  12  798.42   25.80
  -1   1 -12   75.89    5.20
  -1   1 -12   73.39    5.10
  -1   1 -12   74.19    5.30
  -1   1 -12   72.29    6.10
   1  -1  12   64.09    5.80
   1  -1  12   76.99    5.70
  -2   1 -12  159.18    6.90
  -2   1 -12  155.88    8.30
  -2   1 -12  150.28    7.70
  -2   1 -12  149.69    8.70
   2  -1  12  166.68    8.60
  -3   1 -12   28.30    4.90
  -3   1 -12   32.30    6.50
  -3   1 -12   30.60    6.70
   3  -1  12   22.40    4.30
  -4   1 -12  100.69    7.10
  -4   1 -12  120.29   10.60
   4  -1  12   91.09    9.10
   7   0 -12   43.00    8.10
   7   0 -12   43.50    5.90
   6   0 -12   18.20    4.40
   6   0 -12   10.10    3.80
   6   0 -12   23.00    6.20
  -6   0  12   10.40    3.70
   5   0 -12  253.17   11.20
   5   0 -12  281.07   10.80
   5   0 -12  272.27   12.10
  -5   0  12  276.27   11.40
   4   0 -12   23.50    4.70
   4   0 -12   23.60    3.60
  -4   0  12   29.20    4.60
  -4   0  12   21.60    3.70
  -4   0  12   25.20    3.70
   3   0 -12  566.54   19.90
   3   0 -12  597.64   19.70
  -3   0  12  576.44   19.60
  -3   0  12  586.54   19.30
  -3   0  12  588.74   19.50
   2   0 -12  839.92   25.50
   2   0 -12  895.21   27.20
   2   0 -12  844.32   27.40
  -2   0  12  854.11   26.90
  -2   0  12  704.23   26.60
  -2   0  12  887.61   26.90
   1   0 -12  875.11   27.30
   1   0 -12  830.42   28.20
  -1   0  12  944.71   28.70
   0   0 -12   10.20    2.40
   0   0 -12   12.30    2.70
   0   0 -12   15.30    3.20
   0   0 -12   12.40    3.10
   0   0  12    7.70    2.50
   0   0  12    7.20    2.40
  -1   0 -12   68.19    5.60
  -1   0 -12   93.49    6.80
  -1   0 -12   77.69    5.60
  -1   0 -12   84.09    5.60
   1   0  12   84.49    6.20
  -2   0 -12   11.10    3.90
  -2   0 -12   11.50    2.70
  -2   0 -12   13.10    3.80
  -2   0 -12   18.70    4.30
   2   0  12    8.20    3.30
  -3   0 -12   19.40    4.70
  -3   0 -12   16.70    4.90
  -3   0 -12   28.50    5.80
   3   0  12   28.40    6.80
   7  -1 -12  187.78    8.10
   7  -1 -12  188.98    8.80
   7  -1 -12  180.28   13.10
   7  -1 -12  193.88   11.10
   6  -1 -12   53.99    6.40
   6  -1 -12   49.00    4.40
   6  -1 -12   51.29    4.80
  -6   1  12   46.20    6.90
   5  -1 -12  208.88    8.30
   5  -1 -12  195.48    9.50
   5  -1 -12  200.38    8.70
  -5   1  12  191.68    7.50
  -5   1  12  217.18   10.30
   4  -1 -12  348.07   12.10
   4  -1 -12  324.87   12.90
   4  -1 -12  339.87   12.40
  -4   1  12  330.77   12.00
  -4   1  12  323.67   11.90
  -4   1  12  322.67   13.10
   3  -1 -12  114.19    4.60
   3  -1 -12  107.09    6.00
   3  -1 -12  112.99    6.80
  -3   1  12  105.69    6.20
  -3   1  12  115.89    6.10
   2  -1 -12   85.19    4.40
   2  -1 -12   92.29    5.50
  -2   1  12   87.59    5.60
   1  -1 -12  592.64   20.10
   1  -1 -12  584.04   19.30
  -1   1  12  608.94   20.30
   0  -1 -12  657.03   22.70
   0  -1 -12  674.03   21.80
   0  -1 -12  678.13   22.20
   0  -1 -12  598.74   21.80
   0   1  12  687.53   22.60
  -1  -1 -12  577.34   19.40
  -1  -1 -12  559.04   19.60
  -1  -1 -12  512.15   20.00
   1   1  12  591.24   20.10
  -2  -1 -12  122.49    7.40
  -2  -1 -12  122.09    8.50
   2   1  12  116.29    8.20
  -3  -1 -12  341.37   15.90
  -3  -1 -12  355.46   13.60
   3   1  12  325.97   15.10
   7  -2 -12   10.90    2.90
   7  -2 -12   16.20    4.80
  -7   2  12   17.00    5.10
   6  -2 -12   69.99    5.30
   6  -2 -12   68.09    5.20
   6  -2 -12   66.49    5.70
   5  -2 -12  908.81   28.60
   5  -2 -12  888.91   28.90
  -5   2  12  913.61   27.90
  -5   2  12  903.21   28.00
   4  -2 -12  222.58    9.50
   4  -2 -12  238.98   10.40
   4  -2 -12  231.88    9.40
  -4   2  12  232.18    9.40
  -4   2  12  232.68    9.30
   3  -2 -12    2.10    1.90
   3  -2 -12    3.40    2.70
   3  -2 -12    6.90    2.20
  -3   2  12    3.30    2.40
  -3   2  12    0.40    2.70
  -3   2  12    4.40    2.00
   2  -2 -12  266.87    9.60
   2  -2 -12  268.77   10.70
   2  -2 -12  245.08   11.30
  -2   2  12  260.37   11.30
  -2   2  12  272.37   10.80
   1  -2 -12   47.60    4.30
   1  -2 -12   51.69    4.80
   1  -2 -12   45.20    8.20
  -1   2  12   50.89    6.00
  -1   2  12   51.49    5.10
   0  -2 -12    3.80    2.50
   0  -2 -12    3.70    2.40
   0  -2 -12    9.90    3.40
   0   2  12    4.30    2.80
  -1  -2 -12    2.70    3.70
  -1  -2 -12    7.60    3.50
  -1  -2 -12    5.90    2.90
   1   2  12    2.60    3.10
  -2  -2 -12    1.30    3.20
  -2  -2 -12    0.50    4.10
  -2  -2 -12    1.00    4.30
   2   2  12    3.40    3.90
   7  -3 -12  139.49    7.80
   7  -3 -12  134.39    7.70
   6  -3 -12    5.20    2.50
   6  -3 -12    1.80    2.40
   6  -3 -12    1.70    3.40
   5  -3 -12  146.29    7.30
   5  -3 -12  150.78    7.30
   5  -3 -12  117.99    8.00
  -5   3  12  104.59    9.40
  -5   3  12  143.19    6.60
  -5   3  12  143.99    7.10
   4  -3 -12  307.77   12.10
   4  -3 -12  305.97   11.90
  -4   3  12  312.47   12.10
  -4   3  12  310.27   11.80
   3  -3 -12   17.10    4.20
   3  -3 -12   30.00    4.30
  -3   3  12   25.00    4.30
  -3   3  12   29.20    6.00
   2  -3 -12  119.49    6.80
   2  -3 -12   99.89    6.40
  -2   3  12  119.19    6.80
  -2   3  12   86.29    7.20
   1  -3 -12   22.40    4.20
   1  -3 -12   24.60    4.60
  -1   3  12   16.30    3.40
   0  -3 -12    1.40    2.70
   0  -3 -12   -1.70    3.20
   0   3  12    0.00    3.20
  -1  -3 -12   32.60    7.10
  -1  -3 -12   35.60    6.20
   1   3  12   36.00    6.90
   7  -4 -12  111.49    7.40
   7  -4 -12  100.19    7.60
   6  -4 -12  523.85   18.30
   6  -4 -12  503.45   18.30
   5  -4 -12   20.20    4.90
   5  -4 -12   15.80    4.80
  -5   4  12   23.90    4.40
  -5   4  12   26.40    5.30
   4  -4 -12  403.66   14.90
   4  -4 -12  407.96   15.10
  -4   4  12  408.26   14.70
  -4   4  12  367.86   16.10
   3  -4 -12  357.26   14.30
   3  -4 -12  384.66   14.40
  -3   4  12  376.86   14.40
   2  -4 -12  449.16   16.90
   2  -4 -12  447.26   16.90
  -2   4  12  475.65   17.20
   1  -4 -12  123.29    8.00
   1  -4 -12  123.19    7.60
  -1   4  12  140.19    8.60
   0  -4 -12  356.16   14.80
   0  -4 -12  352.46   14.50
   0   4  12  354.56   15.30
   6  -5 -12   23.50    6.30
   6  -5 -12   28.70    6.10
   5  -5 -12  261.47   11.90
   5  -5 -12  263.87   11.90
  -5   5  12  276.47   11.10
   4  -5 -12    6.30    3.40
   4  -5 -12   11.20    3.30
  -4   5  12    6.30    3.20
   3  -5 -12  181.88   10.00
   3  -5 -12  185.48   10.00
  -3   5  12  218.38   10.30
   2  -5 -12  554.04   19.90
   2  -5 -12  513.35   19.80
  -2   5  12  535.75   20.00
   1  -5 -12  225.08   11.00
   1  -5 -12  204.98   11.20
   0   6 -13   -0.80    3.60
   0  -6  13    2.40    5.30
  -1   6 -13  354.86   15.80
  -1   6 -13  361.26   13.80
   1  -6  13  357.06   16.70
   2   5 -13  119.29    9.20
   2   5 -13  137.59    9.30
  -2  -5  13  134.99    9.70
   1   5 -13    1.70    3.50
   1   5 -13   -1.60    3.40
  -1  -5  13    5.90    4.60
   0   5 -13   24.60    5.30
   0   5 -13   12.20    3.80
   0  -5  13   18.40    4.90
   0  -5  13    9.50    3.40
  -1   5 -13  152.28    9.20
  -1   5 -13  122.09    7.20
   1  -5  13  152.38   10.40
  -2   5 -13  431.36   14.90
  -2   5 -13  436.46   17.40
   2  -5  13  460.45   18.30
  -3   5 -13  451.85   17.90
   3   4 -13  142.99    9.20
   3   4 -13  147.79    9.50
  -3  -4  13  152.68    9.40
  -3  -4  13  140.89    8.70
   2   4 -13  128.09    8.30
   2   4 -13  137.99    8.40
  -2  -4  13  124.79    8.70
  -2  -4  13  116.99    6.60
   1   4 -13  254.97   11.70
   1   4 -13  278.27   11.40
  -1  -4  13  270.27   12.40
  -1  -4  13  256.17   10.50
   0   4 -13   16.40    4.60
   0   4 -13   20.20    5.10
   0  -4  13   21.00    5.90
   0  -4  13   20.00    5.40
  -1   4 -13   62.19    5.10
  -1   4 -13   61.49    6.20
   1  -4  13   70.89    7.50
  -2   4 -13   78.09    4.70
  -2   4 -13   77.59    6.70
   2  -4  13   75.49    8.00
  -3   4 -13  151.78    9.00
   3  -4  13  136.79    9.90
   4   3 -13  456.85   18.30
   4   3 -13  458.75   17.80
  -4  -3  13  485.05   16.70
   3   3 -13   18.90    5.00
   3   3 -13   19.60    5.50
  -3  -3  13   22.90    4.60
  -3  -3  13   26.30    6.10
   2   3 -13    4.70    2.70
   2   3 -13    4.00    2.70
  -2  -3  13    5.30    3.20
  -2  -3  13    2.10    2.50
  -2  -3  13    3.30    3.30
   1   3 -13  299.47   12.00
   1   3 -13  279.47   11.50
  -1  -3  13  269.57   12.00
   0   3 -13  629.94   22.50
   0   3 -13  674.83   21.90
   0  -3  13  643.44   21.70
   0  -3  13  661.03   22.80
  -1   3 -13   11.70    2.60
  -1   3 -13   11.40    3.00
   1  -3  13    9.00    3.80
  -2   3 -13   22.90    5.20
  -2   3 -13   21.30    4.30
  -2   3 -13   28.60    3.50
   2  -3  13   28.60    6.30
  -3   3 -13    3.70    3.10
   3  -3  13    8.20    4.30
   5   2 -13  167.08    9.30
   5   2 -13  173.18   10.50
   4   2 -13    6.60    3.00
   4   2 -13    9.40    3.40
  -4  -2  13    6.30    2.90
  -4  -2  13    7.40    3.20
  -4  -2  13    5.70    2.80
   3   2 -13  493.95   18.00
   3   2 -13  479.85   17.60
  -3  -2  13  495.05   17.40
  -3  -2  13  484.45   16.70
   2   2 -13  930.11   30.80
   2   2 -13  952.60   30.80
  -2  -2  13  958.60   29.80
  -2  -2  13  937.21   31.10
  -2  -2  13  949.11   30.70
   1   2 -13  730.53   24.00
   1   2 -13  708.23   24.20
  -1  -2  13  769.92   24.60
  -1  -2  13  669.63   23.80
   0   2 -13   89.49    6.20
   0   2 -13   94.89    5.90
   0  -2  13   89.99    6.70
   0  -2  13   89.29    6.50
  -1   2 -13   94.59    6.40
  -1   2 -13  101.89    6.30
   1  -2  13   99.29    7.20
  -2   2 -13   91.69    7.10
  -2   2 -13   88.99    6.50
  -2   2 -13   90.29    5.60
   2  -2  13   83.59    7.60
  -3   2 -13   70.89    6.80
  -3   2 -13   95.19    8.50
   3  -2  13   75.89    8.10
   6   1 -13   54.19    7.40
   6   1 -13   47.10    6.40
   5   1 -13  172.68    8.70
   5   1 -13  179.48   10.00
  -5  -1  13  137.09   11.50
   4   1 -13  152.08    8.80
   4   1 -13  148.39    7.80
  -4  -1  13  144.19    7.20
  -4  -1  13  153.28    7.90
  -4  -1  13  150.48    7.60
   3   1 -13   61.79    4.90
  -3  -1  13   57.69    5.30
  -3  -1  13   49.60    5.30
  -3  -1  13   67.69    5.40
   2   1 -13   18.70    3.80
   2   1 -13   13.80    3.40
  -2  -1  13   20.70    4.50
   1   1 -13  425.46   15.30
  -1  -1  13  395.56   15.20
  -1  -1  13  428.96   15.50
   0   1 -13  513.15   18.10
   0   1 -13  516.55   17.30
   0  -1  13  531.15   18.60
   0  -1  13  484.05   17.80
  -1   1 -13  425.86   15.30
  -1   1 -13  416.46   15.50
  -1   1 -13  399.66   14.70
   1  -1  13  419.86   16.10
  -2   1 -13  113.89    6.50
  -2   1 -13  111.29    7.10
  -2   1 -13  123.69    8.00
   2  -1  13  109.69    8.10
  -3   1 -13  405.96   15.40
  -3   1 -13  393.16   17.00
   3  -1  13  406.96   16.60
   6   0 -13    6.40    3.00
   6   0 -13   11.10    4.10
   5   0 -13  581.64   21.10
   5   0 -13  567.44   19.70
  -5   0  13  562.34   20.20
   4   0 -13   39.90    5.60
   4   0 -13   43.00    4.60
  -4   0  13   41.90    4.80
  -4   0  13   42.20    5.80
  -4   0  13   44.80    4.80
   3   0 -13   34.50    5.60
   3   0 -13   38.10    4.20
  -3   0  13   45.80    4.80
   2   0 -13   89.59    6.80
   2   0 -13  106.99    4.80
   2   0 -13  114.39    6.20
  -2   0  13   96.29    6.30
   1   0 -13   -0.40    1.90
   1   0 -13    1.50    2.10
  -1   0  13    2.30    2.50
  -1   0  13   -0.30    2.80
  -1   0  13   -2.40    2.40
   0   0 -13   26.50    4.40
   0   0 -13   29.20    4.20
   0   0  13   25.70    4.80
  -1   0 -13    7.60    3.20
  -1   0 -13   11.30    3.50
  -1   0 -13    9.50    2.80
   1   0  13    4.60    3.20
  -2   0 -13   73.89    6.50
  -2   0 -13   77.89    7.40
  -2   0 -13   77.59    6.20
   2   0  13   74.19    7.70
   6  -1 -13   25.70    5.00
   6  -1 -13   29.40    4.70
   5  -1 -13  264.67   11.00
   5  -1 -13  274.87   10.50
  -5   1  13  281.17   10.10
  -5   1  13  260.67   10.00
   4  -1 -13  118.69    6.70
  -4   1  13  114.59    6.50
  -4   1  13  114.89    6.50
   3  -1 -13  202.08    7.40
   3  -1 -13  195.28    9.00
  -3   1  13  198.28    9.80
  -3   1  13  213.78    9.20
   2  -1 -13  244.08    8.90
   2  -1 -13  232.48   10.10
  -2   1  13  233.18   10.20
  -2   1  13  242.98   10.40
  -2   1  13  233.08   10.60
   1  -1 -13  209.68   10.00
   1  -1 -13  192.88    9.10
   1  -1 -13  201.68    8.40
  -1   1  13  203.78    9.50
   0  -1 -13    6.50    2.70
   0  -1 -13    0.60    2.60
   0   1  13    2.70    2.90
  -1  -1 -13  164.68    8.90
  -1  -1 -13  152.88    8.30
   1   1  13  160.68    9.40
  -2  -1 -13   10.00    3.60
  -2  -1 -13   26.70    7.50
   2   1  13   10.50    4.20
   7  -2 -13   86.59    6.50
   7  -2 -13   75.79    6.70
   6  -2 -13  421.46   15.40
   6  -2 -13  434.76   15.10
  -6   2  13  397.26   17.50
   5  -2 -13    6.10    2.60
   5  -2 -13    3.30    2.50
  -5   2  13    2.70    2.40
  -5   2  13    2.10    3.90
  -5   2  13    4.40    2.60
   4  -2 -13  497.85   16.80
   4  -2 -13  462.05   16.90
  -4   2  13  459.65   16.60
  -4   2  13  474.75   18.20
  -4   2  13  472.35   16.70
   3  -2 -13  661.53   21.90
   3  -2 -13  647.94   21.70
  -3   2  13  612.04   21.60
  -3   2  13  647.04   21.90
   2  -2 -13  608.14   21.30
   2  -2 -13  634.84   20.20
  -2   2  13  621.64   21.40
   1  -2 -13  205.88    8.80
   1  -2 -13  173.38    9.80
   1  -2 -13  207.58    9.50
  -1   2  13  209.38   10.00
   0  -2 -13  677.63   23.70
   0  -2 -13  711.43   24.00
   0   2  13  715.93   24.50
  -1  -2 -13  117.79    7.80
  -1  -2 -13  108.79    8.30
   1   2  13  111.59    8.80
   6  -3 -13   27.00    5.40
   5  -3 -13  111.19    7.10
   5  -3 -13  117.49    7.20
  -5   3  13  121.89    7.20
  -5   3  13  117.79    6.70
   4  -3 -13   33.90    5.10
   4  -3 -13   30.80    4.90
  -4   3  13   37.10    4.90
   3  -3 -13  152.28    8.40
   3  -3 -13  170.38    8.60
  -3   3  13  168.48    8.40
   2  -3 -13  601.44   20.60
   2  -3 -13  573.44   19.40
  -2   3  13  579.04   20.70
   1  -3 -13  164.48    8.40
   1  -3 -13  152.88    8.80
  -1   3  13  161.68    9.40
   0  -3 -13  184.38    9.80
   0  -3 -13  188.18   10.00
   0   3  13  174.08   10.40
   6  -4 -13  749.53   25.90
   6  -4 -13  784.02   25.90
   5  -4 -13    5.70    3.00
   5  -4 -13    2.30    3.10
  -5   4  13   -1.00    5.80
  -5   4  13    1.10    2.90
   4  -4 -13   11.80    3.40
   4  -4 -13   25.50    5.70
  -4   4  13    4.30    3.80
  -4   4  13   13.90    3.40
   3  -4 -13   12.30    3.40
   3  -4 -13   11.20    3.40
  -3   4  13   19.10    5.60
   2  -4 -13    2.90    3.40
   2  -4 -13    5.10    3.30
   2  -4 -13    6.10    3.40
  -2   4  13    7.50    3.60
   1  -4 -13   32.80    6.60
   1  -4 -13   35.70    6.50
  -1   4  13   24.80    7.10
   5  -5 -13  226.98   11.40
   5  -5 -13  223.38   11.50
  -5   5  13  244.78   10.70
   4  -5 -13    0.70    3.40
   4  -5 -13   -2.40    3.60
  -4   5  13   -3.00    3.40
   3  -5 -13    1.30    4.50
  -3   5  13    3.80    3.90
   1   5 -14   31.80    6.90
  -1  -5  14   42.50    9.10
   0   5 -14  419.36   15.90
   0   5 -14  412.26   17.20
   0  -5  14  412.66   17.90
  -1   5 -14    1.00    3.90
  -1   5 -14   -0.30    3.20
   1  -5  14    3.80    5.20
   3   4 -14  248.78   12.60
   3   4 -14  242.68   12.40
  -3  -4  14  244.98   12.20
   2   4 -14  593.64   21.40
   2   4 -14  574.94   21.60
  -2  -4  14  581.84   21.60
   1   4 -14  384.96   15.20
   1   4 -14  396.56   16.00
  -1  -4  14  390.26   16.40
   0   4 -14   81.29    7.50
   0   4 -14   96.59    6.80
   0  -4  14  103.49    8.60
  -1   4 -14   84.69    7.50
  -1   4 -14   89.69    6.20
   1  -4  14   69.09    8.80
  -2   4 -14  132.89    9.00
   2  -4  14  142.09   10.30
   4   3 -14   34.60    7.40
   4   3 -14   27.10    6.90
  -4  -3  14   34.90    8.20
   3   3 -14    7.80    3.90
   3   3 -14    6.00    3.60
  -3  -3  14    5.60    3.80
  -3  -3  14    5.10    4.00
   2   3 -14    0.90    3.30
   2   3 -14    1.10    3.00
  -2  -3  14   -2.60    2.90
  -2  -3  14    4.20    3.60
   1   3 -14  166.78    8.50
   1   3 -14  154.78    8.90
  -1  -3  14  164.58    9.40
  -1  -3  14  155.08    8.50
   0   3 -14  267.37   11.70
   0   3 -14  245.58   10.70
   0  -3  14  247.08   12.00
  -1   3 -14  136.49    7.10
  -1   3 -14  134.79    8.40
   1  -3  14  136.69    9.30
  -2   3 -14   64.79    5.70
  -2   3 -14   76.69    7.20
   2  -3  14   95.49    8.70
   5   2 -14  198.08   10.70
   4   2 -14   -4.60    2.90
   4   2 -14    1.60    3.60
  -4  -2  14   -2.40    3.50
   3   2 -14   55.49    6.50
   3   2 -14   70.69    6.30
  -3  -2  14   69.99    6.50
  -3  -2  14   65.39    6.60
  -3  -2  14   71.19    6.40
   2   2 -14    8.80    2.90
   2   2 -14    5.50    3.00
  -2  -2  14    5.30    3.50
  -2  -2  14    6.30    3.40
   1   2 -14   43.00    5.30
   1   2 -14   38.50    5.20
  -1  -2  14   41.70    5.90
  -1  -2  14   44.10    6.10
   0   2 -14  130.59    7.30
   0   2 -14  120.09    7.60
   0  -2  14  130.09    8.40
  -1   2 -14   28.90    5.40
  -1   2 -14   36.00    5.80
  -1   2 -14   40.30    5.60
  -1   2 -14   42.20    4.80
   1  -2  14   31.50    6.70
  -2   2 -14  254.47   12.00
  -2   2 -14  263.57   10.00
  -2   2 -14  259.07   11.70
   2  -2  14  235.58   12.50
   5   1 -14  255.57   11.80
   5   1 -14  276.47   13.00
   4   1 -14   13.10    3.90
   4   1 -14   12.50    3.10
  -4  -1  14    7.60    3.10
  -4  -1  14    6.50    3.50
  -4  -1  14   13.70    3.50
   3   1 -14  300.97   13.10
   3   1 -14  296.87   12.60
  -3  -1  14  315.77   13.40
  -3  -1  14  325.37   12.70
   2   1 -14  284.57   11.70
  -2  -1  14  276.57   11.70
  -2  -1  14  278.47   11.50
  -2  -1  14  253.37   11.50
   1   1 -14  388.76   14.80
  -1  -1  14  381.26   15.00
   0   1 -14   38.00    4.70
   0   1 -14   33.60    5.20
   0  -1  14   27.00    5.80
  -1   1 -14  262.57   11.20
  -1   1 -14  241.58   11.20
  -1   1 -14  234.48   10.70
   1  -1  14  265.07   12.10
  -2   1 -14   26.90    7.20
  -2   1 -14   39.60    6.00
   2  -1  14   21.80    4.80
   6   0 -14  192.48    9.90
   5   0 -14    2.50    3.00
   5   0 -14    5.40    4.20
  -5   0  14   -1.00    2.80
  -5   0  14   -3.80    4.60
   4   0 -14  355.66   13.80
  -4   0  14  334.87   13.10
  -4   0  14  359.86   13.40
   3   0 -14  561.34   20.30
  -3   0  14  625.34   20.40
  -3   0  14  569.94   20.40
  -3   0  14  572.04   20.00
   2   0 -14  420.86   13.50
   2   0 -14  414.56   15.30
  -2   0  14  368.36   15.20
  -2   0  14  414.06   15.40
   1   0 -14  212.78   10.10
   1   0 -14  226.58    9.10
  -1   0  14  226.68   10.40
   0   0 -14  701.23   23.90
   0   0 -14  748.63   24.80
   0   0 -14  704.73   25.40
   0   0  14  731.13   25.00
  -1   0 -14  140.49    8.40
  -1   0 -14  140.49    8.20
   1   0  14  124.29    8.90
  -2   0 -14  134.89    9.70
  -2   0 -14  142.19    8.80
   2   0  14  101.89   11.40
   6  -1 -14    5.50    3.30
   5  -1 -14    8.80    3.10
  -5   1  14   19.30    4.60
  -5   1  14    7.40    4.50
   4  -1 -14   77.09    6.20
  -4   1  14   86.99    6.50
  -4   1  14   82.49    7.80
   3  -1 -14   82.29    6.10
   3  -1 -14   71.69    4.30
  -3   1  14   66.39    6.70
  -3   1  14   71.59    6.20
   2  -1 -14  376.36   14.50
   2  -1 -14  360.56   13.00
  -2   1  14  380.36   14.60
   1  -1 -14   10.30    4.20
   1  -1 -14   37.90    5.30
   1  -1 -14   19.30    4.20
  -1   1  14   21.20    5.30
   0  -1 -14  125.79    7.40
   0  -1 -14  107.49    8.10
   0  -1 -14  120.29    7.60
   0   1  14  125.59    8.60
  -1  -1 -14   31.00    6.60
  -1  -1 -14   56.09    7.50
  -1  -1 -14   59.19    6.70
   1   1  14   43.40    7.50
   6  -2 -14 1094.19   34.70
   6  -2 -14 1089.59   35.20
   5  -2 -14    6.70    3.10
   5  -2 -14   12.20    3.10
  -5   2  14    8.50    3.10
   4  -2 -14   65.89    5.90
   4  -2 -14   60.89    5.80
  -4   2  14   50.29    7.90
  -4   2  14   59.39    6.00
   3  -2 -14   41.10    4.00
   3  -2 -14   40.10    5.30
  -3   2  14   39.90    5.60
   2  -2 -14   10.00    2.90
   2  -2 -14    6.20    2.90
  -2   2  14    8.20    3.20
   1  -2 -14  211.08   10.50
   1  -2 -14  230.18   10.00
  -1   2  14  228.78   11.20
   0  -2 -14   80.89    7.40
   0  -2 -14   84.89    7.50
   0   2  14   96.29    8.40
   6  -3 -14  258.57   12.00
   6  -3 -14  282.97   12.10
   5  -3 -14  265.57   12.00
   5  -3 -14  284.17   11.90
  -5   3  14  266.67   11.40
   4  -3 -14    6.00    3.30
   4  -3 -14    8.60    3.20
  -4   3  14   10.10    4.00
  -4   3  14   12.20    3.40
   3  -3 -14   12.10    3.60
   3  -3 -14   16.20    3.80
   3  -3 -14   12.70    3.10
  -3   3  14   14.50    3.60
   2  -3 -14   -3.80    2.90
   2  -3 -14    6.00    3.20
  -2   3  14    0.30    3.40
   1  -3 -14  172.58    9.50
   1  -3 -14  164.68    9.50
  -1   3  14  170.98   10.30
   5  -4 -14  822.42   27.80
   5  -4 -14  791.22   27.80
  -5   4  14  856.51   27.20
   4  -4 -14   53.89    7.30
   4  -4 -14   60.49    7.00
  -4   4  14   54.19    6.60
   3  -4 -14   13.60    3.90
   3  -4 -14   10.50    3.80
  -3   4  14    6.10    4.00
   1   4 -15  103.49    8.30
  -1  -4  15   96.39    9.80
   0   4 -15  116.09    9.20
   0   4 -15  155.98    8.80
   0  -4  15  164.48   11.00
   3   3 -15  209.68   11.60
   3   3 -15  194.88   11.10
  -3  -3  15  212.98   11.50
   2   3 -15  169.58   10.10
   2   3 -15  179.78    9.80
  -2  -3  15  180.58   10.50
  -2  -3  15  164.98    9.60
   1   3 -15  281.47   13.20
   1   3 -15  292.47   12.60
  -1  -3  15  307.67   13.80
   0   3 -15   39.50    5.80
   0   3 -15   40.70    6.70
   0  -3  15   50.39    7.90
  -1   3 -15  170.98   10.20
  -1   3 -15  182.58    8.80
   1  -3  15  176.18   11.40
   4   2 -15  146.39    9.40
   4   2 -15  151.28   10.30
  -4  -2  15  158.28    9.60
   3   2 -15  313.77   13.80
   3   2 -15  326.87   14.20
  -3  -2  15  334.27   13.90
   2   2 -15  116.09    8.00
   2   2 -15  125.59    8.30
  -2  -2  15  133.09    8.90
  -2  -2  15  106.19    8.10
   1   2 -15  130.09    8.10
   1   2 -15  121.29    8.20
  -1  -2  15  135.49    9.20
   0   2 -15  469.55   16.60
   0   2 -15  426.96   17.20
   0  -2  15  443.26   17.80
  -1   2 -15  105.89    8.00
  -1   2 -15   83.29    6.90
   1  -2  15  122.59    9.40
   4   1 -15  128.19    9.20
   4   1 -15  116.49    8.20
  -4  -1  15  125.39    8.40
   3   1 -15   12.00    3.40
   3   1 -15   18.70    4.50
  -3  -1  15   16.40    4.00
  -3  -1  15    9.80    3.80
   2   1 -15   77.19    6.60
  -2  -1  15   80.39    7.40
   1   1 -15   15.10    3.70
  -1  -1  15   33.20    6.50
   0   1 -15   32.70    5.50
   0   1 -15   36.30    5.90
   0   1 -15   33.30    7.20
   0  -1  15   29.60    7.00
  -1   1 -15    1.20    4.30
  -1   1 -15    2.90    3.50
   1  -1  15   -5.30    4.10
   5   0 -15   24.00    6.90
   5   0 -15   16.20    4.00
   4   0 -15   61.89    6.60
  -4   0  15   35.70    7.60
  -4   0  15   55.19    6.50
   3   0 -15   53.99    6.20
  -3   0  15   49.10    6.40
   2   0 -15   25.50    5.50
  -2   0  15   29.30    6.00
   1   0 -15  494.95   16.90
   1   0 -15  480.75   18.20
  -1   0  15  480.05   18.50
   0   0 -15  193.28    9.40
   0   0 -15  176.78    9.70
   0   0  15  175.38   10.70
  -1   0 -15    8.80    4.00
  -1   0 -15    4.80    4.70
   5  -1 -15  198.68   10.20
  -5   1  15  202.28   10.20
   4  -1 -15    7.10    3.40
  -4   1  15   16.20    3.80
  -4   1  15   11.00    3.90
   3  -1 -15   60.39    4.50
   3  -1 -15   46.30    6.30
  -3   1  15   61.19    6.70
   2  -1 -15    4.60    2.90
   2  -1 -15    4.50    3.20
  -2   1  15    7.10    3.50
   1  -1 -15  181.38    8.70
   1  -1 -15  157.88    9.30
  -1   1  15  177.58   10.00
   0  -1 -15  633.34   22.00
   0  -1 -15  591.54   22.10
   0   1  15  621.64   22.80
   5  -2 -15  564.34   21.20
  -5   2  15  617.34   20.50
   4  -2 -15   21.70    4.20
   4  -2 -15   21.40    3.90
  -4   2  15   21.20    6.00
   3  -2 -15   -0.80    2.70
   3  -2 -15   -3.40    3.10
  -3   2  15    2.30    3.40
   2  -2 -15  613.94   22.10
   2  -2 -15  643.54   21.00
  -2   2  15  596.44   22.20
   1  -2 -15   62.79    6.60
   1  -2 -15   52.69    7.30
  -1   2  15   52.49    7.60
   4  -3 -15  107.99    8.30
   4  -3 -15  113.49    8.30
  -4   3  15  102.19    8.00
   3  -3 -15   23.20    5.30
   3  -3 -15   11.20    4.30
  -3   3  15   12.80    4.20
   2   2 -16   24.00    6.70
  -2  -2  16   25.90    5.20
   1   2 -16  492.05   18.90
  -1  -2  16  518.85   20.00
   3   1 -16  114.49    8.40
   3   1 -16  118.59    9.20
  -3  -1  16  118.79    9.20
   2   1 -16   45.90    6.80
  -2  -1  16   63.79    8.20
   1   1 -16   78.99    7.70
  -1  -1  16   97.99    9.00
   4   0 -16   -3.50    3.30
   3   0 -16    4.80    3.70
  -3   0  16   11.60    4.40
   2   0 -16  666.03   24.40
  -2   0  16  718.23   24.80
   1   0 -16  133.99    9.50
  -1   0  16  180.88   10.70
   3  -1 -16   13.20    3.90
  -3   1  16   18.20    4.80
  -2   1  16  174.28   10.80
_computing_structure_solution     'SHELXT 2014/4 (Sheldrick, 2014)'
;
_shelx_hkl_checksum              14800
_shelx_res_file
;
    d8-1211_w.res created by SHELXL-2014/7
TITL d8-1211_a.res in P-1
REM Old TITL d8-1211 in P-1
REM SHELXT solution in P-1
REM R1 0.104,  Rweak 0.006,  Alpha 0.049,  Orientation as input
REM Formula found by SHELXT:  C8 N4 O3 F S
CELL  0.71073   6.8304   7.0075  12.3042   93.348  103.091  115.566
ZERR    2.000   0.0003   0.0004   0.0006    0.002    0.001    0.001
LATT  1
SFAC C H N O F S
UNIT 18 14 4 8 2 2
TEMP -173
SIZE 0.107 0.109 0.378
L.S. 80
BOND $H
LIST 4
ACTA
EQIV $1 -x+2, -y+2, -z+1
HTAB C8A O3A_$1
EQIV $2 -x+1, -y+1, -z
HTAB C10A O2_$2
EQIV $3 -x+1, -y+2, -z+1
HTAB O4A O3A_$3
HTAB C9B F5_$2
HTAB C10B O2_$2
HTAB O3B O4B_$3
EQIV $4 -x, -y+1, -z+1
HTAB N1 O1_$4
EQIV $5 -x+1, -y+1, -z+1
HTAB N3 O1_$5
EQIV $6 x-1, y, z
HTAB C6 O2_$6
EADP S1A C8B
EADP C8A S1B
EADP O3A O3B
EADP O4A O4B
EADP C11A C11B
EADP C7A C7B
EADP C9A C9B
EADP C10A C10B
SADI 0.005 C8A C9A C8B C10B
SADI 0.005 C8A C7A C8B C7B
SADI 0.005 S1A C10A S1B C9B
SADI 0.005 S1A C7A S1B C7B
SADI 0.005 C9A C10A C9B C10B
SADI 0.005 C7A C11A C7B C11B
SADI 0.005 C11A O3A C11B O3B
SADI 0.005 C11A O4A C11B O4B
DFIX 0.88 N1 H1
DFIX 0.88 N3 H3
FMAP 2
PLAN 20
WGHT    0.038600    0.173800
FVAR       1.94283   0.83176
F5    5    0.001178    0.305644    0.059702    11.00000    0.02482    0.03628 =
         0.01112    0.00256    0.00404    0.01566
O1    4    0.255783    0.511045    0.513417    11.00000    0.01611    0.03476 =
         0.01354   -0.00113    0.00393    0.01413
O2    4    0.404061    0.328706    0.190588    11.00000    0.01977    0.02868 =
         0.01755    0.00255    0.00894    0.01401
N1    3   -0.007873    0.436482    0.344835    11.00000    0.01283    0.02214 =
         0.01499    0.00089    0.00490    0.00992
H1    2   -0.093974    0.457048    0.378603    11.00000    0.02235
N3    3    0.323580    0.417506    0.350572    11.00000    0.01328    0.02438 =
         0.01302    0.00090    0.00351    0.01076
H3    2    0.453684    0.430817    0.392426    11.00000    0.03199
C2    1    0.192424    0.456947    0.408392    11.00000    0.01378    0.01837 =
         0.01495    0.00119    0.00507    0.00783
C4    1    0.274770    0.362298    0.233424    11.00000    0.01581    0.01717 =
         0.01433    0.00217    0.00652    0.00747
C5    1    0.060567    0.352759    0.173553    11.00000    0.01715    0.02008 =
         0.01146    0.00207    0.00336    0.00834
C6    1   -0.073646    0.386843    0.228035    11.00000    0.01412    0.01848 =
         0.01601    0.00260    0.00249    0.00780
AFIX  43
H6    2   -0.213978    0.376826    0.186251    11.00000   -1.20000
AFIX   0
PART 1
S1A   6    0.500668    0.851868    0.137427    21.00000    0.01829    0.02611 =
         0.01104    0.00117    0.00191    0.00991
C7A   1    0.660395    0.891451    0.274111    21.00000    0.01702    0.01840 =
         0.01424    0.00226    0.00555    0.00690
C8A   1    0.851133    0.872863    0.275841    21.00000    0.02037    0.02499 =
         0.01608    0.00466    0.00431    0.01287
AFIX  43
H8A   2    0.958883    0.887879    0.344195    21.00000   -1.20000
AFIX   0
C9A   1    0.875362    0.829951    0.168985    21.00000    0.02051    0.02246 =
         0.02139    0.00290    0.00836    0.01141
AFIX  43
H9A   2    1.000829    0.815682    0.156184    21.00000   -1.20000
AFIX   0
C10A  1    0.694046    0.810946    0.084479    21.00000    0.02445    0.02435 =
         0.01576    0.00177    0.01115    0.01225
AFIX  43
H10A  2    0.677695    0.778872    0.005871    21.00000   -1.20000
AFIX   0
C11A  1    0.589100    0.937674    0.371274    21.00000    0.01708    0.01904 =
         0.01569    0.00269    0.00600    0.00796
O3A   4    0.715127    0.970279    0.470665    21.00000    0.02564    0.04222 =
         0.01379    0.00203    0.00439    0.01904
O4A   4    0.397171    0.938931    0.355363    21.00000    0.01921    0.03706 =
         0.01144    0.00001    0.00348    0.01496
AFIX  83
H4A   2    0.378530    0.968187    0.418251    21.00000   -1.50000
AFIX   0
PART 2
S1B   6    0.884245    0.870670    0.287900   -21.00000    0.02037    0.02499 =
         0.01608    0.00466    0.00431    0.01287
C7B   1    0.636403    0.886772    0.272514   -21.00000    0.01702    0.01840 =
         0.01424    0.00226    0.00555    0.00690
C8B   1    0.528029    0.859753    0.161196   -21.00000    0.01829    0.02611 =
         0.01104    0.00117    0.00191    0.00991
AFIX  43
H8B   2    0.390758    0.869313    0.136926   -21.00000   -1.20000
AFIX   0
C9B   1    0.827787    0.813561    0.143561   -21.00000    0.02051    0.02246 =
         0.02139    0.00290    0.00836    0.01141
AFIX  43
H9B   2    0.922324    0.782503    0.107395   -21.00000   -1.20000
AFIX   0
C10B  1    0.634022    0.816952    0.085506   -21.00000    0.02445    0.02435 =
         0.01576    0.00177    0.01115    0.01225
AFIX  43
H10B  2    0.579429    0.793558    0.005253   -21.00000   -1.20000
AFIX   0
C11B  1    0.570896    0.933178    0.371816   -21.00000    0.01708    0.01904 =
         0.01569    0.00269    0.00600    0.00796
O3B   4    0.725217    0.985193    0.464128   -21.00000    0.02564    0.04222 =
         0.01379    0.00203    0.00439    0.01904
AFIX  83
H3B   2    0.673833    0.995032    0.518947   -21.00000   -1.50000
AFIX   0
O4B   4    0.376773    0.928318    0.335245   -21.00000    0.01921    0.03706 =
         0.01144    0.00001    0.00348    0.01496
PART 0
HKLF 4
REM  d8-1211_a.res in P-1
REM R1 =  0.0281 for    2357 Fo > 4sig(Fo)  and  0.0305 for all    2525 data
REM    187 parameters refined using     10 restraints
END
WGHT      0.0390      0.1672
REM Highest difference peak  0.365,  deepest hole -0.320,  1-sigma level  0.044
Q1    1   0.1622  0.3605  0.2038  11.00000  0.05    0.36
Q2    1   0.6271  0.9190  0.3196  11.00000  0.05    0.32
Q3    1   0.7589  0.9064  0.2786  11.00000  0.05    0.27
Q4    1  -0.0237  0.3167  0.2028  11.00000  0.05    0.27
Q5    1   0.0243  0.4177  0.1996  11.00000  0.05    0.26
Q6    1   0.0877  0.4333  0.3728  11.00000  0.05    0.25
Q7    1   0.5713  0.8410  0.2278  11.00000  0.05    0.23
Q8    1   0.2721  0.3506  0.3016  11.00000  0.05    0.21
Q9    1  -0.0275  0.4203  0.2913  11.00000  0.05    0.20
Q10   1   0.8707  0.8648  0.2162  11.00000  0.05    0.19
Q11   1   0.2663  0.4502  0.3750  11.00000  0.05    0.19
Q12   1   0.6335  0.9191  0.4255  11.00000  0.05    0.17
Q13   1   0.8117  0.8812  0.1241  11.00000  0.05    0.17
Q14   1   0.7390  0.7587  0.1067  11.00000  0.05    0.14
Q15   1   0.4454  0.2394  0.1195  11.00000  0.05    0.14
Q16   1   0.2328  0.2257  0.1039  11.00000  0.05    0.13
Q17   1   0.4977  0.9354  0.3601  11.00000  0.05    0.13
Q18   1  -0.1409  0.1631  0.0824  11.00000  0.05    0.12
Q19   1   0.3725  0.2733  0.1116  11.00000  0.05    0.12
Q20   1   0.1390  0.5329  0.5177  11.00000  0.05    0.11
;
_shelx_res_checksum              25584
loop_
_space_group_symop_operation_xyz
'x, y, z'
'-x, -y, -z'
loop_
_atom_site_type_symbol
_atom_site_label
_atom_site_fract_x
_atom_site_fract_y
_atom_site_fract_z
_atom_site_U_iso_or_equiv
_atom_site_adp_type
_atom_site_calc_flag
_atom_site_occupancy
_atom_site_disorder_assembly
_atom_site_disorder_group
F F5 0.00118(11) 0.30564(11) 0.05970(5) 0.02370(16) Uani d 1 . .
O O1 0.25578(13) 0.51105(13) 0.51342(6) 0.02083(18) Uani d 1 . .
O O2 0.40406(13) 0.32871(13) 0.19059(6) 0.02030(17) Uani d 1 . .
N N1 -0.00787(14) 0.43648(14) 0.34484(7) 0.01586(18) Uani d 1 . .
H H1 -0.094(2) 0.457(2) 0.3786(12) 0.022(3) Uiso d 1 . .
N N3 0.32358(14) 0.41751(14) 0.35057(7) 0.01623(19) Uani d 1 . .
H H3 0.454(2) 0.431(2) 0.3924(13) 0.032(4) Uiso d 1 . .
C C2 0.19242(17) 0.45695(16) 0.40839(9) 0.0154(2) Uani d 1 . .
C C4 0.27477(17) 0.36230(16) 0.23342(8) 0.0154(2) Uani d 1 . .
C C5 0.06057(17) 0.35276(16) 0.17355(8) 0.0164(2) Uani d 1 . .
C C6 -0.07365(17) 0.38684(16) 0.22804(9) 0.0164(2) Uani d 1 . .
H H6 -0.2140 0.3768 0.1863 0.020 Uiso calc 1 . .
S S1A 0.50067(8) 0.85187(10) 0.13743(3) 0.01907(13) Uani d 0.8318(16) A 1
C C7A 0.6604(10) 0.8915(19) 0.2741(3) 0.0168(4) Uani d 0.8318(16) A 1
C C8A 0.8511(13) 0.8729(14) 0.2758(6) 0.0196(9) Uani d 0.8318(16) A 1
H H8A 0.9589 0.8879 0.3442 0.024 Uiso calc 0.8318(16) A 1
C C9A 0.8754(3) 0.8300(4) 0.16898(15) 0.0205(3) Uani d 0.8318(16) A 1
H H9A 1.0008 0.8157 0.1562 0.025 Uiso calc 0.8318(16) A 1
C C10A 0.6940(3) 0.8109(3) 0.08448(15) 0.0202(3) Uani d 0.8318(16) A 1
H H10A 0.6777 0.7789 0.0059 0.024 Uiso calc 0.8318(16) A 1
C C11A 0.5891(12) 0.938(2) 0.3713(3) 0.0171(4) Uani d 0.8318(16) A 1
O O3A 0.7151(12) 0.9703(16) 0.4707(5) 0.0262(7) Uani d 0.8318(16) A 1
O O4A 0.3972(6) 0.9389(7) 0.35536(17) 0.0221(4) Uani d 0.8318(16) A 1
H H4A 0.3785 0.9682 0.4183 0.033 Uiso calc 0.8318(16) A 1
S S1B 0.8842(18) 0.8707(18) 0.2879(8) 0.0196(9) Uani d 0.1682(16) A 2
C C7B 0.636(5) 0.887(10) 0.2725(13) 0.0168(4) Uani d 0.1682(16) A 2
C C8B 0.528(2) 0.860(3) 0.1612(9) 0.01907(13) Uani d 0.1682(16) A 2
H H8B 0.3908 0.8693 0.1369 0.023 Uiso calc 0.1682(16) A 2
C C9B 0.828(2) 0.814(2) 0.1436(8) 0.0205(3) Uani d 0.1682(16) A 2
H H9B 0.9223 0.7825 0.1074 0.025 Uiso calc 0.1682(16) A 2
C C10B 0.6340(16) 0.8170(19) 0.0855(10) 0.0202(3) Uani d 0.1682(16) A 2
H H10B 0.5794 0.7936 0.0053 0.024 Uiso calc 0.1682(16) A 2
C C11B 0.571(6) 0.933(13) 0.3718(17) 0.0171(4) Uani d 0.1682(16) A 2
O O3B 0.725(7) 0.985(8) 0.464(3) 0.0262(7) Uani d 0.1682(16) A 2
H H3B 0.6738 0.9950 0.5189 0.039 Uiso calc 0.1682(16) A 2
O O4B 0.377(3) 0.928(4) 0.3352(12) 0.0221(4) Uani d 0.1682(16) A 2
loop_
_atom_site_aniso_label
_atom_site_aniso_U_11
_atom_site_aniso_U_22
_atom_site_aniso_U_33
_atom_site_aniso_U_12
_atom_site_aniso_U_13
_atom_site_aniso_U_23
F5 0.0248(3) 0.0363(4) 0.0111(3) 0.0157(3) 0.0040(2) 0.0026(3)
O1 0.0161(4) 0.0348(4) 0.0135(4) 0.0141(3) 0.0039(3) -0.0011(3)
O2 0.0198(4) 0.0287(4) 0.0175(4) 0.0140(3) 0.0089(3) 0.0026(3)
N1 0.0128(4) 0.0221(4) 0.0150(4) 0.0099(3) 0.0049(3) 0.0009(3)
N3 0.0133(4) 0.0244(4) 0.0130(4) 0.0108(3) 0.0035(3) 0.0009(3)
C2 0.0138(4) 0.0184(4) 0.0150(4) 0.0078(4) 0.0051(4) 0.0012(3)
C4 0.0158(5) 0.0172(4) 0.0143(4) 0.0075(4) 0.0065(4) 0.0022(3)
C5 0.0172(5) 0.0201(5) 0.0115(4) 0.0083(4) 0.0034(4) 0.0021(3)
C6 0.0141(4) 0.0185(4) 0.0160(5) 0.0078(4) 0.0025(4) 0.0026(4)
S1A 0.0183(2) 0.02611(18) 0.0110(2) 0.00991(16) 0.00191(17) 0.00117(19)
C7A 0.0170(15) 0.0184(7) 0.0142(5) 0.0069(16) 0.0055(6) 0.0023(4)
C8A 0.020(2) 0.0250(4) 0.0161(14) 0.0129(11) 0.0043(13) 0.0047(8)
C9A 0.0205(10) 0.0225(7) 0.0214(9) 0.0114(8) 0.0084(7) 0.0029(8)
C10A 0.0244(10) 0.0244(5) 0.0158(5) 0.0122(7) 0.0112(7) 0.0018(4)
C11A 0.0171(14) 0.0190(9) 0.0157(5) 0.0080(16) 0.0060(5) 0.0027(4)
O3A 0.0256(8) 0.0422(17) 0.0138(10) 0.0190(9) 0.0044(8) 0.0020(7)
O4A 0.0192(8) 0.0371(7) 0.0114(10) 0.0150(7) 0.0035(8) 0.0000(10)
S1B 0.020(2) 0.0250(4) 0.0161(14) 0.0129(11) 0.0043(13) 0.0047(8)
C7B 0.0170(15) 0.0184(7) 0.0142(5) 0.0069(16) 0.0055(6) 0.0023(4)
C8B 0.0183(2) 0.02611(18) 0.0110(2) 0.00991(16) 0.00191(17) 0.00117(19)
C9B 0.0205(10) 0.0225(7) 0.0214(9) 0.0114(8) 0.0084(7) 0.0029(8)
C10B 0.0244(10) 0.0244(5) 0.0158(5) 0.0122(7) 0.0112(7) 0.0018(4)
C11B 0.0171(14) 0.0190(9) 0.0157(5) 0.0080(16) 0.0060(5) 0.0027(4)
O3B 0.0256(8) 0.0422(17) 0.0138(10) 0.0190(9) 0.0044(8) 0.0020(7)
O4B 0.0192(8) 0.0371(7) 0.0114(10) 0.0150(7) 0.0035(8) 0.0000(10)
loop_
_atom_type_symbol
_atom_type_description
_atom_type_scat_dispersion_real
_atom_type_scat_dispersion_imag
_atom_type_scat_source
C C 0.0033 0.0016 'International Tables Vol C Tables 4.2.6.8 and 6.1.1.4'
H H 0.0000 0.0000 'International Tables Vol C Tables 4.2.6.8 and 6.1.1.4'
N N 0.0061 0.0033 'International Tables Vol C Tables 4.2.6.8 and 6.1.1.4'
O O 0.0106 0.0060 'International Tables Vol C Tables 4.2.6.8 and 6.1.1.4'
F F 0.0171 0.0103 'International Tables Vol C Tables 4.2.6.8 and 6.1.1.4'
S S 0.1246 0.1234 'International Tables Vol C Tables 4.2.6.8 and 6.1.1.4'
loop_
_geom_angle_atom_site_label_1
_geom_angle_atom_site_label_2
_geom_angle_atom_site_label_3
_geom_angle
C2 N1 C6 122.43(9)
C2 N1 H1 118.2(10)
C6 N1 H1 119.3(10)
C2 N3 C4 126.89(9)
C2 N3 H3 115.8(11)
C4 N3 H3 117.3(11)
O1 C2 N1 122.30(9)
O1 C2 N3 121.47(9)
N1 C2 N3 116.22(9)
O2 C4 N3 121.41(9)
O2 C4 C5 126.36(10)
N3 C4 C5 112.23(9)
C6 C5 F5 121.13(9)
C6 C5 C4 122.23(9)
F5 C5 C4 116.64(9)
C5 C6 N1 119.94(9)
C5 C6 H6 120.0
N1 C6 H6 120.0
C10A S1A C7A 91.18(12)
C8A C7A C11A 127.3(4)
C8A C7A S1A 111.0(4)
C11A C7A S1A 121.7(2)
C7A C8A C9A 114.4(5)
C7A C8A H8A 122.8
C9A C8A H8A 122.8
C10A C9A C8A 111.2(4)
C10A C9A H9A 124.4
C8A C9A H9A 124.4
C9A C10A S1A 112.20(15)
C9A C10A H10A 123.9
S1A C10A H10A 123.9
O3A C11A O4A 120.9(6)
O3A C11A C7A 119.4(6)
O4A C11A C7A 119.7(3)
C11A O4A H4A 109.5
C9B S1B C7B 90.4(9)
C8B C7B C11B 128.4(15)
C8B C7B S1B 111.1(12)
C11B C7B S1B 120.5(12)
C7B C8B C10B 114.8(13)
C7B C8B H8B 122.6
C10B C8B H8B 122.6
C10B C9B S1B 113.6(10)
C10B C9B H9B 123.2
S1B C9B H9B 123.2
C9B C10B C8B 110.0(11)
C9B C10B H10B 125.0
C8B C10B H10B 125.0
O3B C11B O4B 139(3)
O3B C11B C7B 113(3)
O4B C11B C7B 106.9(17)
C11B O3B H3B 109.5
loop_
_geom_bond_atom_site_label_1
_geom_bond_atom_site_label_2
_geom_bond_distance
F5 C5 1.3449(11)
O1 C2 1.2445(12)
O2 C4 1.2202(13)
N1 C2 1.3553(13)
N1 C6 1.3793(13)
N1 H1 0.846(13)
N3 C2 1.3655(13)
N3 C4 1.3944(12)
N3 H3 0.883(13)
C4 C5 1.4524(14)
C5 C6 1.3400(14)
C6 H6 0.9500
S1A C10A 1.7164(15)
S1A C7A 1.717(3)
C7A C8A 1.360(6)
C7A C11A 1.4581(17)
C8A C9A 1.393(7)
C8A H8A 0.9500
C9A C10A 1.375(2)
C9A H9A 0.9500
C10A H10A 0.9500
C11A O3A 1.269(3)
C11A O4A 1.2849(17)
O4A H4A 0.8400
S1B C9B 1.714(5)
S1B C7B 1.714(6)
C7B C8B 1.360(8)
C7B C11B 1.458(5)
C8B C10B 1.393(8)
C8B H8B 0.9500
C9B C10B 1.365(5)
C9B H9B 0.9500
C10B H10B 0.9500
C11B O3B 1.270(5)
C11B O4B 1.285(5)
O3B H3B 0.8400
loop_
_geom_hbond_atom_site_label_D
_geom_hbond_atom_site_label_H
_geom_hbond_atom_site_label_A
_geom_hbond_site_symmetry_A
_geom_hbond_distance_DH
_geom_hbond_distance_HA
_geom_hbond_distance_DA
_geom_hbond_angle_DHA
_geom_hbond_publ_flag
N1 H1 O1 2_566 0.846(15) 1.970(15) 2.8008(13) 167.0(14) yes
N3 H3 O1 2_666 0.884(15) 1.910(15) 2.7908(13) 174.5(12) yes
O4A H4A O3A 2_676 0.84 1.74 2.565(8) 167 yes
C6 H6 O2 1_455 0.95 2.50 3.3293(16) 147 yes
C8A H8A O3A 2_776 0.95 2.58 3.510(11) 166 yes
C10A H10A O2 2_665 0.95 2.35 3.2987(19) 174 yes

_cod_database_fobs_code 2020809
