#------------------------------------------------------------------------------
#$Date: 2015-11-18 03:56:00 +0200 (Wed, 18 Nov 2015) $
#$Revision: 170374 $
#$URL: svn://www.crystallography.net/cod/cif/2/02/02/2020299.cif $
#------------------------------------------------------------------------------
#
# This file is available in the Crystallography Open Database (COD),
# http://www.crystallography.net/. The original data for this entry
# were provided by IUCr Journals, http://journals.iucr.org/.
#
# The file may be used within the scientific community so long as
# proper attribution is given to the journal article from which the
# data were obtained.
#
data_2020299
loop_
_publ_author_name
'Burnett, Marianne E.'
'Johnston, Hannah M.'
'Green, Kayla N.'
_publ_section_title
;
 Structural characterization of the aquaporin inhibitor
 2-nicotinamido-1,3,4-thiadiazole
;
_journal_coeditor_code           YP3101
_journal_issue                   12
_journal_name_full               'Acta Crystallographica Section C'
_journal_page_first
;
;
_journal_paper_doi               10.1107/S2053229615021130
_journal_volume                  71
_journal_year                    2015
_chemical_formula_iupac          'C8 H6 N4 O S'
_chemical_formula_moiety         'C8 H6 N4 O S'
_chemical_formula_sum            'C8 H6 N4 O S'
_chemical_formula_weight         206.23
_chemical_melting_point          555
_chemical_name_common            TGN-020
_chemical_name_systematic
;
2-Nicotinamido-1,3,4,-thiadiazole
;
_space_group_crystal_system      orthorhombic
_space_group_IT_number           19
_space_group_name_Hall           'P 2ac 2ab'
_space_group_name_H-M_alt        'P 21 21 21'
_symmetry_space_group_name_Hall  'P 2ac 2ab'
_symmetry_space_group_name_H-M   'P 21 21 21'
_atom_sites_solution_hydrogens   geom
_audit_creation_method
;
Olex2 1.2-dev
(compiled 2015.09.07 svn.r3215 for OlexSys, GUI svn.r3563)
;
_cell_angle_alpha                90
_cell_angle_beta                 90
_cell_angle_gamma                90
_cell_formula_units_Z            4
_cell_length_a                   3.7097(3)
_cell_length_b                   9.5406(10)
_cell_length_c                   22.841(2)
_cell_measurement_reflns_used    3955
_cell_measurement_temperature    100(2)
_cell_measurement_theta_max      26.00
_cell_measurement_theta_min      3.57
_cell_volume                     808.41(13)
_computing_cell_refinement
;
SAINT (Bruker, 2013)
;
_computing_data_collection
;
APEX2 (Bruker, 2013)
;
_computing_data_reduction
;
SAINT (Bruker, 2013)
;
_computing_molecular_graphics
;
OLEX2 (Dolomanov <i>et al.</i>,  2009)
;
_computing_publication_material
;
OLEX2 (Dolomanov <i>et al.</i>,  2009)
;
_computing_structure_refinement
;
SHELXL2014 (Sheldrick, 2015)
;
_computing_structure_solution
;
olex2.solve (Bourhis <i>et al.</i>,  2015)
;
_diffrn_ambient_temperature      100.0
_diffrn_measured_fraction_theta_full 0.996
_diffrn_measured_fraction_theta_max 0.991
_diffrn_measurement_device_type  'Bruker APEXII CCD'
_diffrn_measurement_method       '\f and \w scans'
_diffrn_radiation_type           MoK\a
_diffrn_radiation_wavelength     0.71073
_diffrn_reflns_av_R_equivalents  0.0857
_diffrn_reflns_limit_h_max       4
_diffrn_reflns_limit_h_min       -4
_diffrn_reflns_limit_k_max       12
_diffrn_reflns_limit_k_min       -12
_diffrn_reflns_limit_l_max       28
_diffrn_reflns_limit_l_min       -28
_diffrn_reflns_number            13928
_diffrn_reflns_theta_full        25.242
_diffrn_reflns_theta_max         26.645
_diffrn_reflns_theta_min         3.423
_diffrn_standards_number         0
_exptl_absorpt_coefficient_mu    0.365
_exptl_absorpt_correction_T_max  0.7454
_exptl_absorpt_correction_T_min  0.6492
_exptl_absorpt_correction_type   multi-scan
_exptl_absorpt_process_details
;
(SADABS; Bruker, 2014)
;
_exptl_crystal_colour            colourless
_exptl_crystal_density_diffrn    1.694
_exptl_crystal_description       needle
_exptl_crystal_F_000             424
_exptl_crystal_size_max          0.818
_exptl_crystal_size_mid          0.239
_exptl_crystal_size_min          0.215
_refine_diff_density_max         0.299
_refine_diff_density_min         -0.369
_refine_ls_abs_structure_details
;
Refined as an inversion twin.
;
_refine_ls_abs_structure_Flack   0.44(15)
_refine_ls_extinction_method     none
_refine_ls_goodness_of_fit_ref   1.052
_refine_ls_hydrogen_treatment    constr
_refine_ls_matrix_type           full
_refine_ls_number_parameters     128
_refine_ls_number_reflns         1693
_refine_ls_number_restraints     0
_refine_ls_restrained_S_all      1.052
_refine_ls_R_factor_all          0.0655
_refine_ls_R_factor_gt           0.0441
_refine_ls_shift/su_max          0.000
_refine_ls_shift/su_mean         0.000
_refine_ls_structure_factor_coef Fsqd
_refine_ls_weighting_details
'w=1/[\s^2^(Fo^2^)+(0.0323P)^2^+0.3974P] where P=(Fo^2^+2Fc^2^)/3'
_refine_ls_weighting_scheme      calc
_refine_ls_wR_factor_gt          0.0750
_refine_ls_wR_factor_ref         0.0799
_reflns_number_gt                1396
_reflns_number_total             1693
_reflns_threshold_expression     'I > 2\s(I)'
_cod_data_source_file            yp3101sup1.cif
_cod_data_source_block           I
_cod_original_cell_volume        808.42(13)
_cod_database_code               2020299
_shelx_space_group_comment
;
The symmetry employed for this shelxl refinement is uniquely defined
by the following loop, which should always be used as a source of
symmetry information in preference to the above space-group names.
They are only intended as comments.
;
_shelx_estimated_absorpt_t_min   0.754
_shelx_estimated_absorpt_t_max   0.926
_shelx_hkl_file
;
   1   1   0  622.09   11.77
   1   1   0  624.95   11.84
  -1  -1   0  610.42   11.75
  -1  -1   0  620.32   11.79
   1   1   0  622.49   11.77
  -1  -1   0  619.31   11.77
  -1  -1   0  627.93   11.77
   2   2   0    1.27    0.82
   2   2   0    1.35    0.65
  -2  -2   0    1.60    0.89
  -2  -2   0    1.16    0.54
  -2  -2   0    1.16    0.81
  -2  -2   0    2.67    0.69
   2   2   0    1.57    0.91
   2   2   0    1.20    0.66
   3   3   0    0.66    1.49
  -3  -3   0    1.14    1.39
  -3  -3   0    4.24    1.24
   3   3   0    1.10    1.05
  -3  -3   0    3.41    1.57
   3   3   0    2.10    1.57
  -4  -4   0    2.40    1.90
   4   4   0    0.81    1.86
  -1  -1   1   11.68    0.79
   1   1   1   10.28    0.86
  -1  -1   1   11.61    0.70
  -1  -1   1   11.07    0.79
  -1  -1   1   10.95    0.81
   1   1   1   10.49    0.86
   1   1  -1   10.21    0.82
   1   1  -1   10.58    0.75
   1   1  -1   11.57    0.83
  -1  -1  -1   12.36    0.93
  -1  -1  -1   11.04    0.88
   1   1  -1   10.55    0.81
  -1  -1  -1   11.06    0.88
  -1  -1  -1   10.21    0.78
  -2  -2   1    5.89    0.84
  -2  -2   1    5.99    0.95
  -2  -2   1    4.89    0.66
   2   2   1    4.95    0.77
   2   2   1    5.62    0.83
   2   2   1    5.28    1.01
  -2  -2   1    5.18    0.88
   2   2  -1    4.34    0.99
   2   2  -1    5.75    1.00
  -2  -2  -1    5.06    1.03
   2   2  -1    6.08    0.77
  -2  -2  -1    5.53    0.68
  -2  -2  -1    4.23    0.95
  -2  -2  -1    5.56    0.84
   2   2  -1    5.16    0.76
  -3  -3   1   14.13    1.88
   3   3   1   15.43    1.97
   3   3   1   12.40    1.84
  -3  -3   1   12.72    1.68
  -3  -3   1   13.48    1.92
   3   3   1   13.36    1.47
  -3  -3  -1   15.57    1.83
  -3  -3  -1   14.38    1.55
  -3  -3  -1   14.67    1.85
   3   3  -1   16.50    1.81
   3   3  -1   13.16    1.87
   3   3  -1   13.59    1.45
  -4  -4   1    4.25    1.91
   4   4   1    2.40    1.82
  -4  -4  -1    1.76    2.19
  -1  -1   2   18.89    0.86
  -1  -1   2   19.02    0.86
   1   1   2   18.42    1.01
   1   1   2   18.76    1.03
   1   1   2   15.99    0.95
  -1  -1   2   18.25    0.88
  -1  -1   2   18.34    0.80
  -1  -1  -2   18.09    1.08
  -1  -1  -2   20.50    1.11
  -1  -1  -2   18.23    1.04
   1   1  -2   18.92    0.85
   1   1  -2   18.66    0.87
  -1  -1  -2   18.53    0.96
   1   1  -2   20.16    0.96
   1   1  -2   17.97    0.83
   2   2   2   68.50    2.26
  -2  -2   2   70.19    2.31
  -2  -2   2   68.98    2.02
  -2  -2   2   71.77    2.11
  -2  -2   2   72.70    2.23
   2   2   2   70.42    2.25
  -2  -2  -2   70.43    2.42
  -2  -2  -2   72.09    2.19
   2   2  -2   71.78    2.26
   2   2  -2   71.97    2.39
  -2  -2  -2   69.81    2.33
   2   2  -2   71.92    2.11
  -2  -2  -2   70.25    2.47
   2   2  -2   68.25    2.06
  -3  -3   2   27.97    2.37
  -3  -3   2   23.41    2.47
  -3  -3   2   21.35    2.41
   3   3   2   23.06    2.90
   3   3   2   29.05    2.11
   3   3  -2   29.94    2.60
  -3  -3  -2   25.60    2.68
  -3  -3  -2   27.06    2.70
   3   3  -2   30.06    2.54
   3   3  -2   23.33    2.21
  -3  -3  -2   29.28    2.23
  -4  -4   2   15.55    2.21
   4   4   2    8.21    2.02
   4   4  -2   14.18    2.02
  -4  -4  -2   11.26    2.23
  -1  -1   3    5.51    0.68
  -1  -1   3    5.35    0.70
  -1  -1   3    5.35    0.63
   1   1   3    4.84    0.69
   1   1   3    4.98    0.69
  -1  -1   3    5.34    0.59
   1   1   3    4.87    0.70
   1   1   3    5.41    0.69
  -1  -1  -3    4.38    0.57
  -1  -1  -3    4.28    0.69
   1   1  -3    5.12    0.55
   1   1  -3    4.72    0.58
  -1  -1  -3    5.36    0.69
  -1  -1  -3    5.15    0.72
   1   1  -3    5.58    0.60
   1   1  -3    4.75    0.48
  -2  -2   3   16.69    1.19
  -2  -2   3   17.97    1.33
   2   2   3   17.74    1.34
  -2  -2   3   16.62    1.11
  -2  -2   3   17.40    1.37
   2   2   3   16.11    1.41
   2   2   3   16.83    1.60
   2   2  -3   19.56    1.45
  -2  -2  -3   18.79    1.65
  -2  -2  -3   16.03    1.62
   2   2  -3   17.16    1.06
   2   2  -3   18.93    1.16
  -2  -2  -3   17.45    1.29
   2   2  -3   18.00    1.53
  -2  -2  -3   17.60    1.45
   3   3   3    8.39    1.43
  -3  -3   3    7.47    1.42
  -3  -3   3    7.26    1.67
   3   3   3    6.96    1.78
   3   3   3    6.78    1.81
   3   3  -3    9.22    1.69
  -3  -3  -3   11.01    1.51
  -3  -3  -3    7.82    1.85
  -3  -3  -3    6.84    1.61
   3   3  -3    9.15    1.83
   3   3  -3    8.43    1.64
   4   4   3    4.50    1.98
  -4  -4   3    4.69    1.89
  -4  -4  -3   11.64    2.37
   4   4  -3    5.36    1.74
   0   0   4  194.24    3.82
   0   0   4  188.21    3.82
   0   0  -4  200.79    3.85
   0   0  -4  192.32    3.83
   1   1   4   21.09    1.15
  -1  -1   4   20.69    0.82
   1   1   4   23.25    1.23
  -1  -1   4   20.05    0.80
  -1  -1   4   21.17    0.87
   1   1   4   20.10    1.13
   1   1   4   20.26    1.24
   1   1  -4   20.72    0.94
  -1  -1  -4   20.67    1.22
   1   1  -4   19.78    0.86
   1   1  -4   20.47    0.81
  -1  -1  -4   20.04    1.13
  -1  -1  -4   18.96    1.28
   1   1  -4   19.96    0.84
  -1  -1  -4   21.63    1.22
   2   2   4    2.68    0.84
   2   2   4    1.65    1.02
  -2  -2   4    2.33    0.65
   2   2   4    2.84    0.84
  -2  -2   4    2.43    0.86
   2   2   4    2.03    0.99
  -2  -2   4    3.03    0.62
  -2  -2   4    2.00    0.74
  -2  -2  -4    2.60    0.77
   2   2  -4    1.77    0.61
  -2  -2  -4    1.91    1.01
  -2  -2  -4    2.04    0.96
   2   2  -4    3.19    0.86
  -2  -2  -4    2.98    1.10
   2   2  -4    2.86    0.87
   2   2  -4    2.55    0.61
  -3  -3   4   14.72    1.88
   3   3   4   16.50    2.03
  -3  -3   4   19.43    2.48
   3   3   4   18.38    2.24
   3   3   4   21.89    2.84
   3   3  -4   17.63    2.18
  -3  -3  -4   14.57    2.14
   3   3  -4   17.97    2.38
   3   3  -4   15.03    1.79
  -3  -3  -4   15.23    1.98
  -3  -3  -4   21.96    2.51
   4   4   4   11.32    2.15
  -4  -4   4   10.14    2.03
   4   4  -4   11.88    1.88
  -4  -4  -4   15.72    2.56
   0   0   5    0.31    0.34
   0   0   5   -0.16    0.30
   0   0   5   -0.35    0.32
   0   0   5    0.22    0.40
   0   0  -5   -0.12    0.39
   0   0  -5   -0.21    0.39
  -1  -1   5    2.23    0.47
  -1  -1   5    1.81    0.41
   1   1   5    1.99    0.58
   1   1   5    1.90    0.67
   1   1   5    2.03    0.62
  -1  -1   5    1.74    0.41
  -1  -1   5    2.92    0.37
   1   1   5    2.17    0.73
  -1  -1  -5    2.50    0.61
  -1  -1  -5    2.33    0.73
   1   1  -5    2.55    0.51
  -1  -1  -5    1.48    0.68
   1   1  -5    2.68    0.40
  -1  -1  -5    2.09    0.73
   1   1  -5    2.21    0.50
   2   2   5    3.27    1.10
   2   2   5    5.06    1.10
  -2  -2   5    3.15    0.87
   2   2   5    5.54    1.04
  -2  -2   5    3.01    0.64
  -2  -2   5    4.24    0.75
   2   2   5    3.39    0.86
  -2  -2   5    4.21    0.64
   2   2  -5    2.99    0.66
   2   2  -5    2.19    0.77
  -2  -2  -5    4.09    1.01
  -2  -2  -5    3.96    0.94
   2   2  -5    4.98    0.97
   2   2  -5    3.54    0.62
  -2  -2  -5    4.43    1.09
  -2  -2  -5    4.38    1.25
   3   3   5   -0.08    1.26
   3   3   5    0.48    1.75
  -3  -3   5    1.78    1.09
  -3  -3   5    0.28    1.37
  -3  -3   5   -1.23    1.18
  -3  -3  -5    1.45    1.52
  -3  -3  -5   -1.00    1.92
   3   3  -5   -1.72    0.98
  -3  -3  -5    2.64    1.72
   4   4   5   28.53    3.46
   4   4  -5   31.95    2.92
  -4  -4  -5   29.69    3.93
   0   0   6    3.95    0.51
   0   0   6    4.04    0.51
   0   0   6    3.68    0.45
   0   0  -6    4.10    0.53
   0   0  -6    3.26    0.95
  -1  -1   6   43.59    1.21
  -1  -1   6   46.30    1.33
  -1  -1   6   44.90    1.27
   1   1   6   44.60    1.65
  -1  -1   6   46.67    1.29
   1   1   6   50.90    1.79
   1   1   6   47.20    1.69
   1   1   6   48.99    1.72
  -1  -1  -6   45.91    1.72
  -1  -1  -6   47.57    1.79
   1   1  -6   43.47    1.38
  -1  -1  -6   45.93    1.83
  -1  -1  -6   43.41    1.69
   1   1  -6   46.80    1.34
   1   1  -6   45.71    1.23
   1   1  -6   45.97    1.38
  -2  -2   6   28.98    1.74
  -2  -2   6   32.54    1.41
   2   2   6   29.75    2.06
   2   2   6   32.88    2.05
   2   2   6   29.94    1.81
   2   2   6   27.68    1.72
   2   2  -6   29.95    1.26
  -2  -2  -6   32.85    1.90
  -2  -2  -6   28.41    2.14
  -2  -2  -6   28.37    2.08
   2   2  -6   32.13    1.70
  -2  -2  -6   26.93    2.00
  -3  -3   6   12.04    1.52
   3   3   6   11.24    1.56
   3   3   6   11.23    2.08
   3   3   6   10.33    2.04
   3   3  -6   18.53    2.20
  -3  -3  -6   14.35    2.03
  -3  -3  -6   10.45    2.20
  -3  -3  -6   10.24    2.02
   3   3  -6   11.07    1.23
   4   4   6    8.26    2.33
  -4  -4  -6   11.20    2.71
   4   4  -6   10.94    1.95
   0   0   7    0.32    0.48
   0   0   7    0.37    0.34
   0   0   7    0.07    0.48
   0   0   7   -0.02    0.51
   0   0  -7    0.01    0.70
   0   0  -7   -0.48    0.49
   0   0  -7   -0.25    0.46
   1   1   7   17.68    1.30
   1   1   7   15.77    1.24
  -1  -1   7   16.65    0.70
  -1  -1   7   16.92    0.92
   1   1   7   16.68    1.28
  -1  -1   7   17.33    0.87
  -1  -1   7   17.35    0.82
   1   1   7   17.39    1.23
   1   1  -7   19.39    0.95
  -1  -1  -7   18.40    1.45
   1   1  -7   17.89    0.99
  -1  -1  -7   19.52    1.39
   1   1  -7   17.19    0.77
  -1  -1  -7   18.24    1.38
  -1  -1  -7   19.12    1.35
   2   2   7   18.36    1.87
  -2  -2   7   16.39    1.71
  -2  -2   7   15.97    1.04
  -2  -2   7   13.55    1.01
   2   2   7   10.16    1.41
   2   2   7   12.96    1.71
   2   2   7   18.12    1.97
  -2  -2  -7   16.09    1.84
   2   2  -7   16.51    1.96
  -2  -2  -7   14.51    1.76
  -2  -2  -7   16.49    1.71
   2   2  -7   17.18    1.01
  -2  -2  -7   14.46    1.95
   3   3   7    1.53    1.88
  -3  -3   7    3.01    1.25
   3   3   7    2.89    2.03
  -3  -3  -7    3.24    2.10
   3   3  -7    3.41    1.00
  -3  -3  -7    3.84    1.96
  -3  -3  -7    1.23    1.80
   3   3  -7    0.82    1.33
   4   4   7   14.62    2.45
   4   4  -7   14.14    1.84
  -4  -4  -7   12.68    2.85
   0   0   8   44.52    1.48
   0   0   8   44.42    1.46
   0   0   8   48.55    1.53
   0   0   8   45.84    1.32
   0   0  -8   39.42    1.70
   0   0  -8   44.51    1.49
   0   0  -8   44.79    1.44
  -1  -1   8   34.30    1.14
   1   1   8   33.98    1.61
   1   1   8   35.30    1.62
  -1  -1   8   34.97    1.22
  -1  -1   8   33.32    1.00
   1   1   8   31.81    1.89
   1   1   8   33.39    1.62
  -1  -1   8   33.08    1.19
  -1  -1  -8   32.61    1.78
   1   1  -8   33.25    1.12
  -1  -1  -8   34.37    1.72
   1   1  -8   34.46    1.31
   1   1  -8   34.63    1.05
  -1  -1  -8   29.55    1.91
  -1  -1  -8   34.40    1.67
  -2  -2   8    3.19    0.76
   2   2   8    4.08    1.30
   2   2   8    2.56    0.94
  -2  -2   8    4.20    0.66
   2   2   8    3.90    1.28
   2   2   8    4.11    1.20
  -2  -2  -8    3.56    1.24
  -2  -2  -8    6.19    1.37
  -2  -2  -8    4.85    1.21
  -2  -2  -8    4.68    1.24
   2   2  -8    3.82    1.43
   3   3   8   18.03    2.41
   3   3   8   18.54    2.50
  -3  -3   8   20.30    1.58
   3   3   8   18.97    2.49
  -3  -3   8   20.98    2.02
   3   3  -8   18.64    2.30
  -3  -3  -8   15.60    2.31
   3   3  -8   21.08    1.61
  -3  -3  -8   17.62    2.42
  -3  -3  -8   20.48    2.25
  -4  -4   8    4.54    1.50
   4   4   8    5.89    2.34
  -4  -4  -8    9.03    2.86
   0   0   9    0.39    0.59
   0   0   9    0.46    0.57
   0   0   9    0.05    0.59
   0   0   9   -0.52    0.35
   0   0  -9    0.07    0.52
   0   0  -9    0.00    0.68
   0   0  -9   -0.66    0.56
   1   1   9   50.26    1.93
  -1  -1   9   53.11    1.59
   1   1   9   49.97    2.02
  -1  -1   9   51.67    1.48
   1   1   9   50.32    2.02
   1   1   9   51.42    1.98
  -1  -1   9   49.00    1.54
   1   1  -9   52.28    1.40
  -1  -1  -9   52.91    2.10
  -1  -1  -9   51.96    2.12
  -1  -1  -9   48.00    2.08
  -1  -1  -9   49.47    2.16
   1   1  -9   51.50    1.66
   1   1  -9   50.96    1.46
   1   1  -9   50.55    1.64
  -2  -2   9    5.23    0.73
   2   2   9    4.26    1.24
   2   2   9    3.62    1.01
  -2  -2   9    5.46    0.82
   2   2   9    4.76    1.33
  -2  -2  -9    5.57    1.35
  -2  -2  -9    6.28    1.47
   2   2  -9    5.87    0.89
   2   2  -9    4.37    0.66
  -2  -2  -9    4.69    1.64
  -2  -2  -9    6.23    1.41
   3   3   9    1.52    2.14
   3   3   9   -0.18    2.11
  -3  -3   9    0.38    0.88
   3   3   9   -0.43    1.39
  -3  -3   9   -0.24    1.29
  -3  -3  -9    3.28    2.37
  -3  -3  -9    2.09    1.99
   3   3  -9    0.65    1.37
  -3  -3  -9   -1.26    1.88
  -4  -4   9   16.61    1.84
   4   4   9   21.05    2.83
  -4  -4  -9   23.68    3.22
   0   0  10   69.61    2.05
   0   0  10   70.75    1.91
   0   0  10   72.93    2.07
   0   0  10   73.99    2.11
   0   0 -10   70.47    2.25
   0   0 -10   58.41    2.08
   0   0 -10   68.68    2.07
  -1  -1  10   53.31    1.69
   1   1  10   50.15    2.11
   1   1  10   48.90    2.03
  -1  -1  10   51.08    1.65
   1   1  10   51.67    2.03
   1   1  10   52.07    2.07
  -1  -1  10   53.02    1.57
  -1  -1 -10   50.97    2.25
   1   1 -10   49.36    1.51
   1   1 -10   53.78    1.50
  -1  -1 -10   50.79    2.19
  -1  -1 -10   50.17    2.18
   1   1 -10   54.50    1.82
   1   1 -10   53.42    1.72
  -1  -1 -10   49.53    2.17
   2   2  10    6.78    1.22
   2   2  10    8.25    1.48
   2   2  10    6.90    1.46
  -2  -2  10    7.24    0.88
   2   2  10    7.43    1.41
  -2  -2  10    9.36    0.99
   2   2 -10    9.40    1.10
  -2  -2 -10    9.55    1.47
  -2  -2 -10    7.18    1.44
   2   2 -10    7.03    0.92
  -2  -2 -10    7.00    1.68
  -2  -2 -10    8.00    1.55
   3   3  10    6.97    2.39
   3   3  10    9.53    1.78
  -3  -3  10    8.84    1.15
   3   3  10    6.62    2.39
  -3  -3 -10    7.39    2.21
  -3  -3 -10    7.08    2.62
  -3  -3 -10    9.49    2.37
   3   3 -10    8.72    1.02
   3   3 -10    8.22    1.57
   4   4  10    6.48    2.56
  -4  -4  10    1.79    1.54
   4   4 -10    4.98    1.62
  -4  -4 -10   13.49    3.36
   0   0  11    0.63    0.43
   0   0  11    1.23    0.68
   0   0  11    0.26    0.73
   0   0  11   -0.15    0.67
   0   0 -11    0.70    0.66
   0   0 -11    0.53    0.76
   0   0 -11    0.24    0.57
  -1  -1  11   15.67    1.15
  -1  -1  11   14.15    0.80
   1   1  11   14.81    1.54
   1   1  11   13.02    1.43
   1   1  11   11.40    1.53
  -1  -1  11   13.64    0.97
  -1  -1  11   13.07    1.18
   1   1 -11   14.09    1.23
  -1  -1 -11   14.06    1.73
   1   1 -11   13.09    0.92
   1   1 -11   16.87    1.38
   1   1 -11   13.86    0.89
  -1  -1 -11   13.26    1.77
  -1  -1 -11   11.86    1.61
   2   2  11    5.43    1.29
   2   2  11    8.03    1.51
   2   2  11    6.99    1.64
  -2  -2  11    6.48    0.81
   2   2  11    4.87    1.82
   2   2 -11    5.12    0.68
  -2  -2 -11    5.02    1.49
  -2  -2 -11    6.30    1.43
   2   2 -11    5.89    0.97
  -2  -2 -11    3.16    1.56
  -2  -2 -11    5.98    1.79
   3   3  11    6.39    1.77
   3   3  11    6.28    2.13
  -3  -3 -11    7.42    2.41
  -3  -3 -11    5.30    2.80
  -3  -3 -11    7.80    3.90
   3   3 -11    9.53    1.57
  -4  -4  11    0.69    1.72
   4   4  11    1.99    2.66
  -4  -4 -11    3.00    3.52
   4   4 -11   -0.82    1.85
   0   0  12    7.56    0.95
   0   0  12    8.40    0.98
   0   0  12    7.76    0.96
   0   0  12    6.01    0.75
   0   0 -12    6.94    0.90
   0   0 -12    7.58    0.98
   0   0 -12    7.37    1.04
   1   1  12   20.65    1.65
   1   1  12   15.15    1.72
  -1  -1  12   19.47    0.94
  -1  -1  12   18.32    1.10
   1   1  12   20.61    1.67
   1   1  12   19.49    1.61
  -1  -1  12   19.90    1.31
  -1  -1  12   20.55    1.31
  -1  -1 -12   19.71    1.92
  -1  -1 -12   17.94    1.81
  -1  -1 -12   17.55    1.77
   1   1 -12   19.33    1.03
  -1  -1 -12   21.57    2.00
   1   1 -12   18.84    1.16
   1   1 -12   17.76    1.39
   1   1 -12   19.93    1.54
   2   2  12   32.58    2.65
   2   2  12   30.19    2.70
   2   2  12   32.01    2.33
  -2  -2  12   34.37    1.51
   2   2  12   34.00    2.60
   2   2 -12   34.13    1.87
  -2  -2 -12   28.66    3.62
  -2  -2 -12   32.80    2.80
   2   2 -12   33.55    1.48
  -2  -2 -12   34.45    2.61
  -2  -2 -12   32.36    2.82
   3   3  12   26.95    3.01
   3   3  12   28.15    3.66
   3   3  12   25.55    2.99
   3   3 -12   28.14    2.47
  -3  -3 -12   26.21    3.34
   3   3 -12   23.41    1.77
  -3  -3 -12   27.00    3.45
   0   0  13    1.15    0.85
   0   0  13    0.47    0.81
   0   0  13   -0.41    0.75
   0   0  13    0.75    0.45
   0   0 -13    0.56    0.81
   0   0 -13    0.95    0.93
   0   0 -13   -0.29    0.69
   1   1  13   34.93    2.04
   1   1  13   32.41    1.94
  -1  -1  13   33.52    1.44
  -1  -1  13   35.18    1.60
   1   1  13   33.09    1.96
   1   1  13   33.33    2.07
  -1  -1  13   34.72    1.21
  -1  -1  13   34.51    1.67
   1   1 -13   35.78    1.80
  -1  -1 -13   35.25    2.21
   1   1 -13   33.62    1.75
  -1  -1 -13   36.84    2.34
   1   1 -13   33.73    1.50
   1   1 -13   31.63    1.35
  -1  -1 -13   35.69    2.30
  -1  -1 -13   33.95    2.12
   2   2  13   26.05    2.62
   2   2  13   25.48    2.56
   2   2  13   26.30    2.70
   2   2  13   27.10    2.38
  -2  -2  13   26.47    1.57
   2   2 -13   26.46    1.47
  -2  -2 -13   25.65    2.67
   2   2 -13   28.92    1.81
  -2  -2 -13   28.56    3.09
  -2  -2 -13   25.79    2.87
  -2  -2 -13   24.67    2.98
   3   3  13    5.22    1.94
   3   3  13    3.38    2.74
   3   3  13   10.50    2.40
  -3  -3 -13    6.44    3.94
   3   3 -13    3.77    1.57
   3   3 -13    3.66    1.05
  -3  -3 -13    3.07    3.20
  -3  -3 -13    8.44    2.45
   0   0  14    1.32    0.93
   0   0  14    2.41    0.88
   0   0  14    2.55    0.59
   0   0  14    1.54    0.91
   0   0 -14    1.25    0.76
   0   0 -14    1.08    0.92
   0   0 -14    1.91    1.00
  -1  -1  14    4.03    0.54
  -1  -1  14    3.28    0.86
   1   1  14    4.86    1.14
   1   1  14    3.43    1.06
  -1  -1  14    3.44    0.75
  -1  -1  14    3.07    0.94
   1   1  14    3.90    1.29
   1   1  14    3.17    1.14
   1   1 -14    1.20    1.00
   1   1 -14    3.27    0.75
  -1  -1 -14    5.04    1.43
  -1  -1 -14    3.35    1.42
  -1  -1 -14    3.11    1.12
   1   1 -14    3.23    0.77
  -1  -1 -14    3.04    1.35
   1   1 -14    4.89    1.10
   2   2  14    6.95    1.84
   2   2  14    7.47    1.69
  -2  -2  14    6.78    1.00
   2   2  14    6.17    1.56
  -2  -2  14    9.08    1.22
   2   2  14    8.35    1.92
   2   2 -14    8.94    1.18
  -2  -2 -14    7.94    1.95
  -2  -2 -14    4.90    2.04
   2   2 -14    9.81    1.26
  -2  -2 -14    7.82    1.99
  -2  -2 -14    9.08    1.92
   3   3  14   23.96    2.86
   3   3  14   22.65    2.67
  -3  -3 -14   22.72    2.94
   3   3 -14   14.22    1.85
   3   3 -14   20.68    2.62
   0   0  15   -0.24    0.94
   0   0  15   -0.55    0.86
   0   0  15    0.28    0.55
   0   0  15    0.03    0.91
   0   0 -15   -0.13    0.97
   0   0 -15    2.18    0.88
   0   0 -15   -0.42    1.08
  -1  -1  15   23.80    1.75
  -1  -1  15   24.25    1.17
   1   1  15   26.24    1.99
  -1  -1  15   26.97    1.45
   1   1  15   26.65    2.05
  -1  -1  15   26.28    1.65
   1   1  15   26.97    2.05
   1   1  15   27.72    2.22
  -1  -1 -15   27.87    2.55
   1   1 -15   26.23    1.43
  -1  -1 -15   25.87    2.19
   1   1 -15   24.22    1.86
  -1  -1 -15   24.13    2.40
  -1  -1 -15   26.20    2.42
   1   1 -15   24.16    2.02
   1   1 -15   24.71    1.56
   2   2  15   22.82    2.77
   2   2  15   18.58    2.23
  -2  -2  15   19.59    1.67
   2   2  15   20.62    2.49
   2   2  15   21.73    2.46
  -2  -2 -15   19.45    2.33
  -2  -2 -15   20.91    2.46
   2   2 -15   21.73    1.90
  -2  -2 -15   24.37    2.79
  -2  -2 -15   19.37    2.50
   3   3  15   15.59    2.59
   3   3  15   17.19    3.25
  -3  -3 -15   20.06    4.65
   3   3 -15   10.53    1.48
   3   3 -15   11.01    1.90
  -3  -3 -15   15.03    3.21
   0   0  16    2.09    1.02
   0   0  16    1.67    1.10
   0   0  16    2.90    1.02
   0   0  16    1.91    0.64
   0   0 -16    0.71    1.07
   0   0 -16    2.79    1.32
   0   0 -16    1.43    0.97
   1   1  16    6.06    1.37
  -1  -1  16    4.61    0.68
  -1  -1  16    5.40    0.91
  -1  -1  16    6.20    1.05
   1   1  16    5.45    1.33
   1   1  16    4.78    1.42
  -1  -1  16    6.60    1.22
   1   1  16    5.38    1.34
   1   1 -16    2.22    1.30
  -1  -1 -16    5.26    1.61
  -1  -1 -16    3.27    1.52
  -1  -1 -16    5.85    1.76
   1   1 -16    4.93    0.94
   1   1 -16    5.28    1.35
   1   1 -16    5.66    1.00
  -1  -1 -16    2.98    1.58
  -2  -2  16   10.29    1.24
  -2  -2  16   11.49    1.44
   2   2  16   11.37    2.11
   2   2  16   14.84    2.48
   2   2  16    9.72    1.90
   2   2  16   14.35    2.20
   2   2 -16   13.76    1.49
  -2  -2 -16   11.28    2.31
  -2  -2 -16   10.41    2.46
  -2  -2 -16   11.74    2.30
   2   2 -16   11.17    1.31
  -2  -2 -16   13.54    2.68
   3   3  16   19.95    4.42
   3   3  16   25.63    3.20
  -3  -3 -16   17.46    3.56
   3   3 -16   20.20    2.05
  -3  -3 -16   17.88    3.42
   3   3 -16   13.41    2.08
   0   0  17   -0.19    0.65
   0   0  17   -0.08    1.00
   0   0  17    1.00    1.18
   0   0  17   -0.64    1.08
   0   0 -17   -0.42    1.34
   0   0 -17   -0.86    1.15
   0   0 -17   -1.62    1.10
   1   1  17   38.35    2.56
  -1  -1  17   35.36    1.86
  -1  -1  17   35.98    2.00
   1   1  17   37.68    2.68
  -1  -1  17   34.32    2.17
  -1  -1  17   34.19    1.44
   1   1  17   37.53    2.51
   1   1  17   37.10    2.39
   1   1 -17   37.25    2.59
   1   1 -17   31.55    1.73
  -1  -1 -17   33.47    2.94
   1   1 -17   32.80    1.96
  -1  -1 -17   35.91    2.99
  -1  -1 -17   34.81    2.65
  -1  -1 -17   37.40    2.91
   1   1 -17   28.62    2.32
   2   2  17   24.47    2.86
  -2  -2  17   26.61    1.78
   2   2  17   29.79    3.72
   2   2  17   29.00    3.33
   2   2  17   28.10    3.49
  -2  -2  17   27.36    1.86
  -2  -2 -17   25.18    3.07
  -2  -2 -17   28.24    2.88
  -2  -2 -17   26.34    3.57
  -2  -2 -17   33.29    3.93
   2   2 -17   23.67    1.85
   2   2 -17   26.92    2.19
   3   3  17    9.65    4.22
  -3  -3 -17    8.06    3.46
   3   3 -17    5.30    1.51
   0   0  18   28.34    2.05
   0   0  18   27.15    1.58
   0   0  18   25.14    2.12
   0   0  18   29.98    2.30
   0   0 -18   26.30    2.07
   0   0 -18   28.90    2.61
   0   0 -18   29.84    2.37
  -1  -1  18   13.27    1.38
  -1  -1  18   12.53    1.36
   1   1  18   11.71    1.70
   1   1  18   13.00    1.64
  -1  -1  18   13.67    1.57
   1   1  18   11.29    1.71
   1   1  18   12.66    1.85
   1   1 -18   12.91    1.85
  -1  -1 -18    9.91    2.07
   1   1 -18   10.09    1.66
   1   1 -18   10.22    1.38
  -1  -1 -18   10.14    2.08
  -1  -1 -18    9.60    2.08
  -1  -1 -18   12.15    1.90
   2   2  18   -0.65    1.79
   2   2  18    0.73    2.04
   2   2  18    4.24    2.46
  -2  -2  18    2.38    1.09
   2   2  18    4.42    2.56
  -2  -2  18    1.04    1.11
  -2  -2 -18    1.74    2.73
   2   2 -18    2.03    1.38
   2   2 -18    3.71    1.42
  -2  -2 -18    0.31    2.55
  -2  -2 -18    2.24    2.37
  -2  -2 -18   -2.11    2.28
   3   3  18    9.86    3.16
  -3  -3 -18    8.38    3.64
   3   3 -18    8.38    1.63
   0   0  19    0.25    1.28
   0   0  19   -0.11    1.35
   0   0  19   -0.05    0.83
   0   0  19   -0.31    1.22
   0   0 -19   -0.93    1.39
   0   0 -19   -0.02    1.66
   0   0 -19    1.32    1.46
  -1  -1  19   44.45    2.70
  -1  -1  19   42.09    2.32
   1   1  19   38.56    2.87
   1   1  19   43.92    3.19
   1   1  19   40.17    2.93
   1   1  19   46.27    2.76
  -1  -1 -19   45.17    4.88
  -1  -1 -19   39.98    3.53
  -1  -1 -19   38.86    3.07
   1   1 -19   36.52    3.09
  -1  -1 -19   45.83    3.52
   1   1 -19   37.97    2.85
  -2  -2  19    2.41    1.22
   2   2  19    0.82    2.03
  -2  -2  19    3.64    1.17
   2   2  19    2.53    2.28
   2   2  19    5.13    2.73
   2   2  19    3.04    2.49
   2   2 -19    1.55    1.21
  -2  -2 -19    0.63    2.87
  -2  -2 -19    5.54    2.65
   2   2 -19    3.72    1.45
  -2  -2 -19   -2.37    3.01
  -2  -2 -19    3.66    2.82
   3   3  19    8.38    2.87
   3   3 -19    7.47    1.72
  -3  -3 -19    6.90    3.78
   0   0  20   16.34    1.78
   0   0  20   14.09    1.81
   0   0  20   16.51    1.99
   0   0 -20   15.12    2.20
   0   0 -20   15.10    1.95
   1   1  20   13.26    2.32
  -1  -1  20   11.91    1.55
   1   1  20   12.43    2.06
  -1  -1  20   13.41    1.83
   1   1  20   11.50    1.80
   1   1  20   11.06    2.17
  -1  -1  20   13.72    1.90
   1   1 -20   10.54    2.02
  -1  -1 -20   10.78    2.22
   1   1 -20   10.56    1.66
   1   1 -20   10.30    2.12
  -1  -1 -20   10.51    2.53
  -1  -1 -20   13.02    2.55
  -2  -2  20    1.33    1.26
  -2  -2  20    1.94    1.29
   2   2  20    0.62    2.50
   2   2  20    3.78    2.88
   2   2  20   -0.02    2.00
   2   2 -20    1.79    1.41
  -2  -2 -20    6.25    2.91
  -2  -2 -20   -0.70    3.32
  -2  -2 -20   -1.70    2.79
   2   2 -20    3.70    1.63
  -2  -2 -20   -1.40    3.44
   3   3  20    6.05    2.95
  -3  -3 -20    8.73    4.07
   0   0  21   -0.55    2.31
   0   0  21    0.82    1.51
   0   0  21    0.46    1.66
   0   0 -21   -0.40    1.99
   0   0 -21    1.69    2.02
  -1  -1  21    1.91    1.35
  -1  -1  21    1.19    1.40
   1   1  21    3.78    1.74
   1   1  21   -1.51    1.92
   1   1  21    4.77    2.38
  -1  -1  21    1.96    1.86
  -1  -1 -21   -0.94    2.42
   1   1 -21   -0.71    1.96
  -1  -1 -21    0.06    2.25
  -1  -1 -21    2.16    2.94
   1   1 -21   -0.27    1.57
   1   1 -21   -0.01    2.23
   2   2  21    4.60    2.28
   2   2  21    7.20    3.45
  -2  -2  21    3.27    1.52
  -2  -2  21    5.32    1.49
   2   2  21    5.61    2.75
   2   2 -21    2.98    1.61
   2   2 -21    4.27    1.74
  -2  -2 -21   -2.21    3.62
  -2  -2 -21   11.68    3.26
  -2  -2 -21    6.06    3.20
   0   0  22    6.13    1.94
   0   0  22    3.59    1.67
   0   0  22    6.39    1.81
   0   0 -22    5.05    2.32
   0   0 -22    7.60    1.97
   1   1  22    1.07    2.14
  -1  -1  22    6.63    1.61
   1   1  22    7.90    2.42
  -1  -1  22    6.67    2.56
   1   1  22    6.90    2.62
  -1  -1 -22    3.91    2.67
  -1  -1 -22    5.69    2.79
  -1  -1 -22    2.46    2.45
   1   1 -22    1.55    2.15
   1   1 -22    3.76    2.38
  -2  -2  22    9.02    1.89
   2   2  22    4.83    2.45
   2   2  22   13.70    3.17
  -2  -2  22   10.39    1.75
   2   2 -22    8.44    1.84
  -2  -2 -22   13.25    3.76
  -2  -2 -22   14.56    3.66
   0   0  23   -1.14    2.06
   0   0  23    1.45    1.88
   0   0  23   -2.49    1.66
   0   0 -23    0.92    2.55
   0   0 -23   -1.08    2.01
   0   0 -23   -1.63    4.57
   1   1  23    0.03    2.23
  -1  -1  23    4.02    2.84
  -1  -1  23    1.83    1.60
  -1  -1  23    2.05    1.68
   1   1  23    2.38    2.99
  -1  -1 -23   -2.04    2.53
   1   1 -23    1.53    1.89
   1   1 -23   -0.94    2.31
  -1  -1 -23    0.73    2.75
  -2  -2  23    6.87    1.83
   2   2  23    8.59    3.70
   2   2 -23    2.92    1.89
  -2  -2 -23    2.06    6.18
  -1  -1  24   16.50    2.18
   1   1  24   17.08    2.71
   1   1 -24   17.12    2.48
  -1  -1 -24   10.55    3.25
  -2  -2  24   10.28    1.89
   2   2  24    9.26    3.60
   2   2 -24    4.91    2.10
  -2  -2 -24    8.53    3.96
   0   0  25   -0.30    2.09
   0   0 -25   -0.64    2.45
   1   1  25   -2.01    4.13
  -1  -1  25    4.71    1.97
   1   1 -25    1.23    2.24
  -2  -2  25    6.46    2.18
   2   2 -25    1.47    2.26
  -2  -2 -25    1.28    4.58
   0   0  26    5.50    2.42
   0   0 -26    2.97    2.77
  -1  -1  26    7.17    2.31
   1   1  26    6.67    2.92
  -1  -1 -26   -0.91    3.20
   1   1 -26    8.76    2.48
   0   0  27    2.37    2.67
   0   0 -27   -0.43    2.89
   1   1  27   14.97    3.32
  -1  -1  27   13.52    2.52
   1   1 -27   18.53    2.98
  -1  -1 -27    5.86    3.87
   0   0  28    8.93    3.11
   0   0 -28    5.55    3.23
   4   3   0    8.55    1.83
  -4  -3   0    7.44    1.97
  -3  -2   0   19.80    2.21
  -3  -2   0   16.80    2.20
   3   2   0   22.69    2.34
  -3  -2   0   21.50    1.88
   3   2   0   21.88    2.37
   3   2   0   20.13    1.76
   2   1   0    0.32    0.73
   2   1   0    1.07    0.56
  -2  -1   0   -0.30    0.60
  -2  -1   0    0.30    0.54
   2   1   0    1.03    0.57
  -2  -1   0    1.37    0.75
   2   1   0   -0.43    0.77
  -2  -1   0   -0.28    0.73
  -1   0   0    0.43    0.40
   1   0   0    2.13    0.42
  -1   0   0    1.79    0.48
  -1   0   0    1.48    0.44
   1   0   0    1.17    0.45
   1   0   0    1.29    0.44
  -1  -2   0    8.62    0.98
  -1  -2   0    8.11    0.76
  -1  -2   0    9.11    0.96
   1   2   0    8.74    0.86
  -1  -2   0    6.95    0.97
   1   2   0    7.57    0.92
   1   2   0    7.93    0.99
   1   2   0    9.41    0.89
  -2  -3   0  128.78    3.34
   2   3   0  124.93    3.29
   2   3   0  128.46    4.46
  -2  -3   0  128.90    3.33
  -2  -3   0  126.72    3.47
   2   3   0  125.14    3.34
  -2  -3   0  125.19    3.52
  -3  -4   0   64.03    3.75
   3   4   0   71.11    3.63
  -3  -4   0   68.59    3.51
  -3  -4   0   69.56    3.38
   4   5   0   19.82    2.45
  -4  -5   0   17.94    2.71
  -4  -3   1   -0.29    1.76
   4   3   1    3.46    1.68
   4   3  -1    0.35    1.59
  -4  -3  -1    7.34    1.94
  -3  -2   1   11.73    1.46
  -3  -2   1   13.08    1.79
  -3  -2   1   15.53    1.71
   3   2   1   12.67    1.69
   3   2   1   13.01    1.70
   3   2   1   14.75    1.75
  -3  -2  -1   13.85    1.65
   3   2  -1   12.52    1.66
  -3  -2  -1   11.68    1.69
   3   2  -1   12.47    1.60
  -3  -2  -1   18.17    1.94
   3   2  -1   14.26    1.61
  -2  -1   1   15.64    1.28
   2   1   1   15.39    1.47
  -2  -1   1   14.19    1.02
   2   1   1   14.25    1.10
   2   1   1   15.62    1.37
  -2  -1   1   14.46    1.24
  -2  -1   1   16.50    1.12
   2   1   1   14.63    1.14
   2   1  -1   16.77    1.31
  -2  -1  -1   16.03    1.23
   2   1  -1   15.26    1.02
  -2  -1  -1   15.84    1.41
   2   1  -1   15.65    1.03
   2   1  -1   15.65    1.31
  -2  -1  -1   15.40    1.02
  -2  -1  -1   15.46    1.32
   1   0   1   76.43    1.85
   1   0   1   75.05    1.83
   1   0   1   75.52    1.82
   1   0   1   74.98    1.84
   1   0  -1   72.96    1.71
  -1   0  -1   73.33    1.81
  -1   0  -1   77.16    1.88
   1   0  -1   73.26    1.69
  -1   0  -1   76.39    1.80
  -1   0  -1   77.34    1.84
  -1  -2   1   38.20    1.41
   1   2   1   37.91    1.41
  -1  -2   1   40.09    1.29
   1   2   1   36.05    1.47
   1   2   1   39.31    1.40
  -1  -2   1   38.17    1.40
  -1  -2   1   38.54    1.37
   1   2   1   41.94    1.55
   1   2  -1   38.43    1.33
  -1  -2  -1   37.93    1.43
  -1  -2  -1   39.41    1.49
  -1  -2  -1   38.72    1.46
  -1  -2  -1   39.49    1.37
   1   2  -1   38.04    1.31
  -2  -3   1    3.98    0.84
   2   3   1    4.30    0.84
  -2  -3   1    4.37    0.96
   2   3   1    4.18    1.06
  -2  -3   1    5.62    0.72
   2   3   1    4.39    0.83
  -2  -3   1    3.14    1.05
   2   3  -1    3.64    0.83
  -2  -3  -1    4.37    1.08
   2   3  -1    4.10    1.03
  -2  -3  -1    3.93    1.03
   2   3  -1    4.65    0.81
  -2  -3  -1    4.79    0.95
  -2  -3  -1    4.50    0.84
   3   4   1    0.03    2.01
   3   4   1    0.71    1.70
  -3  -4   1    1.82    1.81
   3   4   1    0.75    1.78
  -3  -4   1    3.60    1.67
  -3  -4   1    1.06    1.27
   3   4  -1    1.69    1.43
   3   4  -1    2.75    1.77
   3   4  -1    2.19    1.67
  -3  -4  -1   -2.01    1.89
  -3  -4  -1   -0.91    1.61
   4   5   1    5.22    2.18
  -4  -5   1    2.29    2.20
  -4  -5  -1   -0.91    2.34
   4   5  -1    3.35    2.19
   4   3   2    5.36    1.74
  -4  -3   2    3.13    1.67
   4   3  -2    1.69    1.63
  -4  -3  -2    7.67    2.07
  -3  -2   2    4.03    1.20
   3   2   2    5.67    1.19
   3   2   2    4.86    1.68
  -3  -2   2    6.25    1.14
   3   2   2    6.06    1.59
   3   2  -2    3.81    1.44
   3   2  -2    5.12    0.96
   3   2  -2    3.77    1.50
  -3  -2  -2    5.10    1.29
  -3  -2  -2    4.25    1.49
  -3  -2  -2    4.13    1.60
  -2  -1   2   30.56    1.45
   2   1   2   31.91    1.71
   2   1   2   33.93    1.66
  -2  -1   2   30.38    1.37
  -2  -1   2   30.43    1.21
   2   1   2   26.73    1.37
  -2  -1   2   31.30    1.27
   2   1   2   30.20    1.41
  -2  -1  -2   29.02    1.68
  -2  -1  -2   30.27    1.63
  -2  -1  -2   30.77    1.54
   2   1  -2   31.04    1.45
   2   1  -2   31.04    1.49
   2   1  -2   28.35    1.26
  -2  -1  -2   30.64    1.30
   1   0   2   90.90    2.14
   1   0   2   91.76    2.18
  -1   0  -2   90.90    2.13
  -1   0  -2   89.20    2.20
  -1   0  -2   91.67    2.18
  -1   0  -2   87.32    2.15
   1   2   2    4.64    0.69
  -1  -2   2    4.60    0.69
   1   2   2    4.56    0.76
  -1  -2   2    4.75    0.64
  -1  -2   2    4.77    0.54
   1   2   2    4.55    0.75
  -1  -2   2    4.90    0.65
   1   2   2    5.14    0.68
  -1  -2  -2    4.14    0.70
  -1  -2  -2    4.80    0.73
  -1  -2  -2    4.94    0.61
   1   2  -2    5.22    0.61
   1   2  -2    4.50    0.62
  -1  -2  -2    4.81    0.71
   2   3   2    3.02    1.02
  -2  -3   2    2.49    0.73
  -2  -3   2    1.18    0.88
  -2  -3   2    2.20    0.58
   2   3   2    2.40    0.79
   2   3   2    2.22    0.91
  -2  -3   2    0.85    0.94
   2   3   2    0.97    1.02
   2   3  -2    3.14    1.02
  -2  -3  -2    1.46    1.05
   2   3  -2    1.27    0.91
   2   3  -2    1.69    0.65
   2   3  -2    1.16    0.74
  -2  -3  -2    2.88    0.89
  -2  -3  -2    2.87    1.08
  -2  -3  -2    1.02    0.82
  -3  -4   2   16.23    2.09
  -3  -4   2   18.54    2.12
  -3  -4   2   22.55    2.64
   3   4   2   20.30    2.31
   3   4   2   21.74    2.95
   3   4   2   20.84    2.25
  -3  -4  -2   17.42    2.08
   3   4  -2   20.70    2.71
  -3  -4  -2   18.80    2.23
  -3  -4  -2   20.18    3.20
   3   4  -2   19.65    2.09
   3   4  -2   19.89    2.20
   4   5   2    2.55    2.15
  -4  -5   2    5.11    2.25
   4   5  -2   -2.88    2.03
  -4  -5  -2    4.89    2.33
   4   3   3   18.63    2.21
  -4  -3   3   17.93    2.09
   4   3  -3   24.70    2.56
  -4  -3  -3   18.76    2.30
   3   2   3   14.28    1.45
  -3  -2   3   10.77    1.43
   3   2   3   13.26    1.96
  -3  -2   3   11.58    1.58
   3   2   3   13.95    1.72
  -3  -2  -3   15.86    1.66
   3   2  -3   12.39    1.48
  -3  -2  -3   13.15    1.90
   3   2  -3   10.93    1.49
  -3  -2  -3   11.21    1.67
  -2  -1   3   59.67    1.98
   2   1   3   62.93    2.27
  -2  -1   3   61.36    1.73
   2   1   3   60.90    1.99
   2   1   3   60.84    2.09
  -2  -1  -3   59.84    2.21
  -2  -1  -3   62.58    2.22
   2   1  -3   62.81    2.01
  -2  -1  -3   59.97    1.93
   2   1  -3   60.65    1.76
  -2  -1  -3   59.83    2.11
   1   0   3  976.68   18.49
   1   0   3  994.73   18.82
   1   0   3  989.06   18.54
  -1   0  -3  987.46   18.53
  -1   0  -3  966.16   18.50
  -1   0  -3 1000.00   18.55
  -1   0  -3  986.29   18.53
   0   1   3    1.69    0.38
   0   1   3    2.42    0.38
   0  -1   3    1.93    0.32
   0  -1   3    2.30    0.31
   0   1  -3    1.99    0.36
   0  -1  -3    1.73    0.37
   0   1  -3    2.20    0.40
   0   1  -3    1.80    0.30
   0  -1  -3    1.28    0.36
   0   1  -3    1.18    0.26
  -1  -2   3   23.15    0.95
  -1  -2   3   21.11    1.06
   1   2   3   20.49    1.14
   1   2   3   21.29    1.18
  -1  -2   3   22.03    1.13
   1   2   3   23.28    1.28
  -1  -2   3   23.03    1.09
   1   2   3   22.00    1.31
  -1  -2  -3   21.07    1.27
   1   2  -3   21.78    1.24
  -1  -2  -3   21.71    1.28
   1   2  -3   21.75    0.99
   1   2  -3   22.70    1.10
  -1  -2  -3   22.95    1.23
  -1  -2  -3   21.40    1.31
   2   3   3    1.02    1.04
   2   3   3    1.23    1.06
  -2  -3   3    0.18    0.94
   2   3   3    0.28    0.91
   2   3   3    1.48    0.87
  -2  -3   3    0.67    0.74
  -2  -3   3    1.06    0.87
  -2  -3   3    1.11    0.60
   2   3  -3    1.07    0.74
   2   3  -3    1.43    0.98
  -2  -3  -3    0.24    0.83
  -2  -3  -3    1.11    1.01
   2   3  -3    0.49    0.98
  -2  -3  -3    0.47    1.11
   2   3  -3    0.40    0.61
  -2  -3  -3    2.25    0.94
  -3  -4   3    4.78    1.67
  -3  -4   3    6.80    1.32
   3   4   3    5.15    1.94
  -3  -4   3    5.73    1.61
   3   4   3    6.18    1.47
   3   4  -3    1.82    1.76
  -3  -4  -3    8.93    2.47
  -3  -4  -3    5.64    1.89
  -3  -4  -3    8.35    2.02
   3   4  -3    5.36    1.24
   3   4  -3    5.43    1.77
  -4  -5   3   14.78    2.38
   4   5   3   16.70    2.58
   4   5  -3   19.71    2.45
  -4  -5  -3   11.24    2.51
   4   3   4    6.93    1.99
  -4  -3   4   -2.38    1.66
   4   3  -4    0.90    1.48
  -4  -3  -4    2.88    1.96
  -3  -2   4    8.97    1.21
  -3  -2   4    8.69    1.35
   3   2   4    7.93    1.32
   3   2   4    8.00    1.82
   3   2  -4    7.81    1.02
  -3  -2  -4    8.10    1.69
   3   2  -4    7.33    1.32
  -3  -2  -4    7.62    1.52
  -3  -2  -4   10.09    1.74
   2   1   4   41.59    1.82
   2   1   4   40.62    1.69
  -2  -1   4   42.35    1.61
   2   1   4   42.93    1.97
  -2  -1  -4   41.92    1.65
  -2  -1  -4   38.88    1.98
   2   1  -4   41.95    1.39
  -2  -1  -4   39.64    1.86
  -2  -1  -4   45.24    1.99
   1   0   4  754.86   14.31
   1   0   4  762.17   14.32
   1   0   4  736.70   14.29
   1   0   4  755.41   14.27
  -1   0  -4  759.78   14.30
  -1   0  -4  733.12   14.28
  -1   0  -4  759.29   14.29
  -1   0  -4  739.83   14.29
   0   1   4  403.36    7.76
   0  -1   4  405.65    7.79
   0   1   4  406.91    7.79
   0  -1   4  405.19    7.75
   0  -1   4  408.86    7.78
   0   1   4  407.71    7.75
   0   1   4  399.65    7.76
   0  -1   4  405.72    7.81
   0  -1  -4  420.07    7.81
   0  -1  -4  402.72    7.80
   0   1  -4  401.94    7.80
   0   1  -4  405.35    7.82
   0   1  -4  418.31    7.78
   0   1  -4  409.50    7.77
   1   2   4    1.59    0.74
  -1  -2   4    1.74    0.38
   1   2   4    1.54    0.64
   1   2   4    1.42    0.58
  -1  -2   4    1.48    0.57
   1   2   4    0.77    0.70
  -1  -2   4    1.03    0.51
   1   2  -4    1.15    0.61
   1   2  -4    0.87    0.60
  -1  -2  -4    1.10    0.70
   1   2  -4    1.23    0.45
  -1  -2  -4    0.59    0.70
  -1  -2  -4    0.96    0.64
  -1  -2  -4    1.76    0.72
   1   2  -4    2.61    0.56
   2   3   4   35.96    1.84
  -2  -3   4   37.16    1.84
  -2  -3   4   34.42    1.47
   2   3   4   32.87    2.16
  -2  -3   4   36.24    1.60
  -2  -3   4   35.03    1.86
   2   3   4   36.02    2.20
   2   3   4   37.69    2.05
   2   3  -4   37.42    1.86
  -2  -3  -4   33.49    2.22
   2   3  -4   37.08    1.97
  -2  -3  -4   36.62    2.16
  -2  -3  -4   37.20    2.02
   2   3  -4   34.91    1.55
  -2  -3  -4   35.27    1.98
   2   3  -4   37.60    1.67
   3   4   4    9.88    1.68
  -3  -4   4   10.62    1.89
  -3  -4   4   10.99    1.49
  -3  -4   4    9.07    1.72
   3   4   4    6.59    2.37
   3   4   4   10.59    2.08
   3   4  -4   11.04    1.94
   3   4  -4   11.04    1.35
  -3  -4  -4    7.73    2.21
  -3  -4  -4    7.98    2.12
   3   4  -4    6.37    1.91
  -3  -4  -4    9.51    1.94
  -4  -5   4    3.33    1.78
   4   5   4    2.72    2.15
   4   5  -4    8.67    2.07
  -4  -5  -4    0.12    2.34
   4   3   5    5.52    2.05
  -4  -3   5    2.60    1.72
   4   3  -5    0.12    1.51
  -4  -3  -5    9.67    2.41
  -3  -2   5    2.53    1.24
   3   2   5    1.67    1.13
   3   2   5    0.28    1.74
   3   2   5    2.60    1.70
  -3  -2  -5    2.74    1.41
   3   2  -5    1.90    0.94
   3   2  -5    1.15    1.11
  -3  -2  -5    3.06    1.59
  -3  -2  -5    4.20    1.61
   2   1   5   74.30    2.42
   2   1   5   70.19    2.32
   2   1   5   73.82    2.56
   2   1   5   64.68    2.52
  -2  -1  -5   68.43    2.39
  -2  -1  -5   71.05    2.31
   2   1  -5   70.07    1.84
  -2  -1  -5   73.94    2.47
  -2  -1  -5   74.20    2.54
   2   1  -5   74.90    2.05
   1   0   5  224.82    4.81
   1   0   5  223.09    4.75
   1   0   5  226.05    4.81
   1   0   5  229.58    4.80
  -1   0  -5  222.08    4.79
  -1   0  -5  225.16    4.81
  -1   0  -5  222.58    4.80
  -1   0  -5  225.28    4.79
   0   1   5   14.47    0.84
   0  -1   5   15.28    0.82
   0  -1   5   13.59    0.68
   0  -1   5   14.87    0.79
   0   1   5   14.73    0.77
   0  -1   5   14.79    0.79
   0   1   5   14.30    0.76
   0   1   5   14.05    0.81
   0   1  -5   14.08    0.89
   0   1  -5   14.24    0.76
   0  -1  -5   14.34    0.90
   0   1  -5   15.57    0.88
   0   1  -5   15.24    0.79
   0  -1  -5   14.59    0.83
   1   2   5   78.80    2.35
   1   2   5   74.32    2.23
  -1  -2   5   75.68    2.02
  -1  -2   5   74.14    1.93
  -1  -2   5   76.06    1.97
   1   2   5   75.36    2.20
   1   2   5   76.05    2.28
   1   2  -5   74.46    2.04
  -1  -2  -5   74.45    2.32
  -1  -2  -5   72.67    2.23
  -1  -2  -5   74.00    2.28
  -1  -2  -5   78.37    2.30
   1   2  -5   73.17    2.00
   2   3   5    0.09    0.83
  -2  -3   5    0.93    0.85
  -2  -3   5    0.71    0.93
   2   3   5    1.12    1.23
   2   3   5    1.13    1.09
  -2  -3   5    0.06    0.61
   2   3   5    2.02    1.05
  -2  -3   5    0.15    0.67
   2   3  -5    0.40    0.95
  -2  -3  -5    2.19    1.00
  -2  -3  -5    0.87    1.04
  -2  -3  -5    0.54    1.12
   2   3  -5    1.14    0.72
   2   3  -5    0.28    1.01
   2   3  -5    1.16    0.64
  -2  -3  -5    2.70    1.22
  -3  -4   5   -1.78    1.58
  -3  -4   5    0.02    1.49
   3   4   5   -1.09    1.90
   3   4   5    1.53    1.94
  -3  -4   5    0.23    1.03
   3   4   5    2.71    1.38
  -3  -4  -5   -0.09    2.10
   3   4  -5   -1.61    1.75
   3   4  -5   -1.09    1.64
  -3  -4  -5    0.77    2.01
  -3  -4  -5    3.06    1.92
   3   4  -5    0.04    1.12
   4   5   5    1.35    2.25
   4   5  -5    7.04    2.09
  -4  -5  -5    5.67    2.66
   4   3   6   18.16    2.43
  -4  -3  -6   19.94    2.69
   4   3  -6   23.52    2.44
   3   2   6    8.67    1.86
   3   2   6    9.16    1.47
  -3  -2  -6    8.19    1.86
  -3  -2  -6    5.59    1.74
   3   2  -6   10.72    1.38
  -3  -2  -6    9.74    1.75
   2   1   6   51.03    2.28
   2   1   6   47.74    2.05
   2   1   6   51.22    2.09
   2   1   6   50.18    2.24
  -2  -1  -6   48.12    2.01
  -2  -1  -6   49.15    2.19
  -2  -1  -6   50.19    2.22
  -2  -1  -6   51.84    2.29
   1   0   6   30.70    1.34
   1   0   6   29.65    1.36
   1   0   6   31.58    1.36
   1   0   6   30.99    1.40
  -1   0  -6   30.27    1.45
  -1   0  -6   29.65    1.46
  -1   0  -6   29.65    1.37
  -1   0  -6   30.68    1.39
   0  -1   6   -0.14    0.44
   0   1   6    0.10    0.37
   0  -1   6    0.69    0.35
   0   1   6   -0.02    0.46
   0  -1   6    0.63    0.45
   0   1   6    0.40    0.48
   0   1   6    0.08    0.51
   0   1  -6    0.39    0.43
   0  -1  -6   -0.35    0.51
   0  -1  -6    0.26    0.51
   0   1  -6    0.19    0.50
   0   1  -6    0.81    0.55
  -1  -2   6   73.12    1.97
  -1  -2   6   70.62    1.87
   1   2   6   70.35    2.18
  -1  -2   6   73.73    1.96
  -1  -2   6   71.74    1.78
   1   2   6   73.83    2.30
   1   2   6   74.76    2.31
   1   2   6   71.36    2.25
   1   2  -6   72.04    1.98
  -1  -2  -6   73.82    2.29
   1   2  -6   71.57    1.85
   1   2  -6   72.50    2.03
   1   2  -6   72.30    1.87
  -1  -2  -6   70.34    2.31
  -1  -2  -6   70.56    2.32
  -1  -2  -6   71.05    2.28
  -2  -3   6   19.93    1.57
   2   3   6   21.68    1.69
   2   3   6   16.97    1.98
   2   3   6   22.25    2.15
  -2  -3   6   21.45    1.62
  -2  -3   6   20.60    1.27
   2   3   6   18.67    2.01
   2   3  -6   23.62    1.26
   2   3  -6   21.29    1.81
  -2  -3  -6   20.11    1.95
  -2  -3  -6   20.64    1.95
   2   3  -6   21.62    1.68
  -2  -3  -6   22.86    2.19
   2   3  -6   19.37    1.31
  -2  -3  -6   21.55    2.10
   3   4   6   31.33    3.58
   3   4   6   27.74    2.66
   3   4   6   28.40    2.60
   3   4  -6   29.45    2.07
   3   4  -6   22.66    2.98
  -3  -4  -6   21.56    2.43
   3   4  -6   24.68    2.76
  -3  -4  -6   28.66    3.54
  -3  -4  -6   23.87    2.84
   4   5   6    2.80    2.41
   4   5  -6    7.02    1.90
  -4  -5  -6   10.71    2.84
   4   3   7    8.62    2.24
   4   3  -7    9.56    1.62
  -4  -3  -7    7.82    2.77
   3   2   7    2.80    1.30
   3   2   7    0.95    1.72
   3   2   7    2.71    2.12
  -3  -2  -7    2.65    1.89
  -3  -2  -7    1.02    1.69
   3   2  -7    4.38    1.10
  -3  -2  -7    6.05    1.67
   3   2  -7    4.24    1.21
   2   1   7   34.25    2.08
   2   1   7   35.93    1.89
   2   1   7   31.51    1.79
   2   1   7   32.33    2.05
  -2  -1  -7   30.74    2.03
  -2  -1  -7   33.48    2.14
   2   1  -7   31.95    1.14
  -2  -1  -7   31.95    1.89
  -2  -1  -7   32.98    2.09
   1   0   7    4.30    0.71
   1   0   7    6.09    0.84
   1   0   7    5.92    0.83
   1   0   7    5.30    0.75
  -1   0  -7    4.87    0.84
  -1   0  -7    5.32    0.88
  -1   0  -7    4.65    0.85
  -1   0  -7    4.67    0.80
   0  -1   7    8.20    0.61
   0  -1   7    7.45    0.84
   0  -1   7    8.80    0.87
   0   1   7    7.86    0.70
   0   1   7    7.25    0.84
   0  -1   7    7.57    0.87
   0   1   7    7.24    0.83
   0   1  -7    9.17    0.95
   0  -1  -7    7.65    0.94
   0   1  -7    7.88    0.99
   0   1  -7    9.00    0.83
   0   1  -7    8.11    0.79
   0  -1  -7    8.58    0.88
   1   2   7   40.21    1.79
   1   2   7   41.30    1.75
   1   2   7   39.25    1.78
  -1  -2   7   39.60    1.34
  -1  -2   7   39.06    1.41
  -1  -2   7   39.29    1.44
   1   2   7   36.02    1.60
  -1  -2   7   39.12    1.17
  -1  -2  -7   36.12    1.79
   1   2  -7   38.76    1.49
  -1  -2  -7   38.57    1.78
   1   2  -7   39.17    1.52
  -1  -2  -7   39.00    1.86
  -1  -2  -7   39.60    1.85
   1   2  -7   40.73    1.30
   1   2  -7   40.10    1.32
  -2  -3   7    2.31    0.68
   2   3   7    4.23    1.22
  -2  -3   7    2.65    0.70
   2   3   7    3.84    1.37
   2   3   7    4.88    1.37
  -2  -3   7    1.02    0.95
   2   3   7    2.59    1.02
  -2  -3   7    3.23    0.88
   2   3  -7    1.32    0.72
  -2  -3  -7    3.38    1.27
   2   3  -7    1.36    1.01
  -2  -3  -7    1.91    1.19
  -2  -3  -7    1.51    1.45
  -2  -3  -7    1.11    1.22
   2   3  -7    2.23    1.07
   3   4   7    1.77    1.54
   3   4   7    1.15    2.16
  -3  -4   7    3.73    1.47
  -3  -4   7    0.98    1.30
   3   4   7    1.66    2.16
  -3  -4   7   -0.75    1.07
   3   4  -7   -0.30    2.98
  -3  -4  -7    1.99    1.93
  -3  -4  -7    6.07    2.52
  -3  -4  -7   -3.00    2.39
   3   4  -7    2.11    1.01
   3   4  -7   -0.13    1.73
  -4  -5   7    6.92    1.75
   4   5   7    6.58    2.36
   4   5  -7    5.66    1.96
  -4  -5  -7   16.07    2.97
  -4  -3   8    8.20    1.40
   4   3   8    1.65    2.12
   4   3  -8    8.45    1.59
  -4  -3  -8   12.42    2.79
   3   2   8   17.79    2.23
   3   2   8   15.87    2.27
   3   2   8   15.34    2.15
   3   2  -8   18.87    1.95
  -3  -2  -8   21.57    2.79
   3   2  -8   21.42    1.45
  -3  -2  -8   20.02    2.25
  -3  -2  -8   15.44    2.32
   2   1   8   -0.04    1.15
   2   1   8    2.06    1.05
   2   1   8    1.35    0.86
   2   1   8    0.79    0.94
  -2  -1  -8    2.09    1.08
  -2  -1  -8    1.78    1.09
  -2  -1  -8    1.17    1.24
  -2  -1  -8   -0.04    1.19
   1   0   8   15.50    1.21
   1   0   8   13.76    1.20
   1   0   8   12.70    1.19
   1   0   8   13.10    1.19
  -1   0  -8   12.61    1.28
  -1   0  -8   15.63    1.38
  -1   0  -8   11.92    1.23
  -1   0  -8   15.54    1.33
   0  -1   8    1.22    0.55
   0   1   8    2.07    0.45
   0  -1   8    2.33    0.61
   0   1   8    1.33    0.58
   0   1   8    1.72    0.65
   0  -1   8    1.85    0.39
   0   1   8    1.79    0.58
   0  -1   8    1.47    0.62
   0  -1  -8    1.46    0.60
   0  -1  -8    0.74    0.60
   0   1  -8    1.48    0.54
   0   1  -8    1.53    0.53
   0   1  -8    2.06    0.69
   0   1  -8    2.07    0.70
   1   2   8   -0.52    0.64
  -1  -2   8    0.32    0.49
  -1  -2   8    0.27    0.58
  -1  -2   8    0.50    0.57
  -1  -2   8   -0.08    0.28
   1   2   8    1.08    0.80
   1   2   8    0.11    0.83
   1   2   8    0.47    0.79
  -1  -2  -8    0.50    0.81
   1   2  -8   -0.24    0.70
  -1  -2  -8   -0.39    0.85
  -1  -2  -8    0.12    0.88
   1   2  -8   -0.21    0.67
  -1  -2  -8    2.06    0.95
   1   2  -8    0.29    0.45
   2   3   8    2.97    1.39
  -2  -3   8    1.16    0.69
   2   3   8    1.91    1.52
   2   3   8    0.61    1.07
  -2  -3   8    0.63    0.86
   2   3   8    1.55    1.26
  -2  -3   8    2.00    0.98
  -2  -3   8    0.59    0.63
  -2  -3  -8   -2.64    1.44
  -2  -3  -8    1.28    1.29
  -2  -3  -8    1.47    1.23
   2   3  -8    1.31    1.05
   2   3  -8    0.39    0.78
   2   3  -8    0.85    1.09
   3   4   8    5.79    1.65
  -3  -4   8    6.75    1.63
   3   4   8    4.98    2.36
  -3  -4   8    7.75    1.66
  -3  -4   8    7.90    1.25
   3   4   8    8.08    2.35
   3   4  -8    6.30    1.84
  -3  -4  -8    8.48    2.69
  -3  -4  -8    6.16    2.30
  -3  -4  -8    5.59    2.69
  -4  -5   8    1.58    1.65
   4   5   8    3.39    2.38
  -4  -5  -8    6.13    2.96
   4   3   9    7.90    2.40
  -4  -3   9    6.46    1.49
  -4  -3  -9    7.55    3.05
   3   2   9   10.06    1.66
   3   2   9    5.90    1.98
   3   2   9    9.78    2.19
  -3  -2  -9    9.40    2.36
  -3  -2  -9   13.76    2.09
  -3  -2  -9    6.76    2.01
   2   1   9   35.68    2.13
   2   1   9   37.38    2.35
   2   1   9   32.34    2.20
   2   1   9   34.36    2.02
  -2  -1  -9   36.75    2.39
  -2  -1  -9   38.39    2.29
  -2  -1  -9   32.73    2.33
  -2  -1  -9   37.68    2.23
   1   0   9    0.44    0.67
   1   0   9    0.49    0.76
   1   0   9   -0.52    0.69
   1   0   9    0.34    0.76
  -1   0  -9   -0.36    0.80
   1   0  -9   -0.22    0.41
  -1   0  -9    0.79    0.83
  -1   0  -9    0.28    0.82
   1   0  -9    0.16    0.54
  -1   0  -9    0.75    0.81
   0  -1   9   -0.05    0.64
   0  -1   9    0.26    0.59
   0   1   9    1.14    0.49
   0   1   9    0.40    0.64
   0   1   9    0.49    0.57
   0  -1   9    0.19    0.60
   0  -1   9    0.25    0.37
   0   1   9   -0.03    0.57
   0   1  -9    1.20    0.62
   0   1  -9    0.99    0.70
   0   1  -9    0.27    0.70
   0  -1  -9    0.05    0.62
   0   1  -9    0.26    0.52
   0  -1  -9    0.08    0.68
   1   2   9    5.04    0.95
  -1  -2   9    4.85    0.68
   1   2   9    5.65    1.04
  -1  -2   9    5.70    0.77
  -1  -2   9    5.24    0.59
   1   2   9    6.09    1.06
   1   2   9    4.25    0.93
  -1  -2   9    4.37    0.68
   1   2  -9    4.96    0.85
   1   2  -9    3.57    0.62
   1   2  -9    5.22    0.63
  -1  -2  -9    3.92    1.06
  -1  -2  -9    4.11    1.01
  -1  -2  -9    4.44    1.08
   1   2  -9    5.55    0.83
  -1  -2  -9    5.78    1.07
   2   3   9    4.46    1.21
  -2  -3   9    6.05    0.85
  -2  -3   9    5.03    1.00
   2   3   9    8.36    1.54
   2   3   9    7.46    1.38
   2   3   9    5.66    1.58
  -2  -3   9    3.82    1.01
  -2  -3   9    5.54    0.81
  -2  -3  -9    5.57    1.61
  -2  -3  -9    6.90    1.45
   2   3  -9    3.22    0.86
   2   3  -9    5.08    1.13
  -2  -3  -9    4.29    1.46
   2   3  -9    5.61    0.81
  -2  -3  -9    6.87    1.41
   2   3  -9    5.91    1.22
  -3  -4   9   22.84    2.57
   3   4   9   19.63    2.66
   3   4   9   22.68    2.95
  -3  -4   9   24.55    2.48
   3   4  -9   18.81    2.60
  -3  -4  -9   18.47    2.57
  -3  -4  -9   23.67    3.26
  -3  -4  -9   21.06    3.05
   4   5   9    9.77    2.74
   4   3  10   19.05    2.63
  -4  -3  10   16.46    1.73
  -4  -3 -10   19.07    3.28
   4   3 -10   19.08    2.24
   3   2  10   26.13    2.57
   3   2  10   30.30    3.55
   3   2  10   27.31    3.43
  -3  -2 -10   29.39    3.52
  -3  -2 -10   30.47    3.38
  -3  -2 -10   31.44    3.77
   2   1  10    7.70    1.34
   2   1  10    7.82    1.19
   2   1  10    5.63    1.28
   2   1  10    7.96    2.54
  -2  -1 -10    6.41    1.52
  -2  -1 -10    9.78    1.51
  -2  -1 -10    7.51    1.79
  -2  -1 -10    8.07    1.47
   1   0  10    7.29    0.97
   1   0  10    5.83    0.92
   1   0  10    8.10    1.04
   1   0  10    7.95    0.98
  -1   0 -10    6.43    1.05
   1   0 -10    7.22    0.98
  -1   0 -10    8.11    1.12
   1   0 -10    6.95    0.75
  -1   0 -10    6.31    1.08
  -1   0 -10    7.22    1.13
   0   1  10   38.69    1.33
   0   1  10   39.02    1.56
   0  -1  10   40.32    1.63
   0   1  10   39.09    1.55
   0   1  10   38.88    1.53
   0  -1  10   39.46    1.59
   0  -1  10   39.25    1.55
   0  -1  10   41.35    1.54
   0   1 -10   38.80    1.67
   0   1 -10   39.85    1.56
   0  -1 -10   38.14    1.49
   0   1 -10   35.19    1.66
  -1  -2  10   12.70    0.98
   1   2  10   10.65    1.38
  -1  -2  10   10.46    1.14
  -1  -2  10   12.57    1.17
   1   2  10   11.73    1.61
   1   2  10   11.41    1.50
   1   2 -10   12.67    1.35
   1   2 -10   12.46    0.97
   1   2 -10   13.09    1.30
  -1  -2 -10   12.80    2.08
  -1  -2 -10   12.31    1.65
  -1  -2 -10   14.28    1.68
   1   2 -10   11.43    0.95
  -1  -2 -10   12.13    1.35
  -2  -3  10   33.84    1.93
  -2  -3  10   33.76    1.89
  -2  -3  10   35.65    1.58
   2   3  10   28.95    2.58
   2   3  10   35.11    2.26
  -2  -3  10   31.87    1.57
   2   3  10   36.96    2.46
   2   3 -10   29.95    1.59
   2   3 -10   34.38    2.19
  -2  -3 -10   36.28    2.61
  -2  -3 -10   33.45    2.67
   2   3 -10   33.75    2.03
  -2  -3 -10   33.91    2.71
   2   3 -10   33.93    1.55
  -2  -3 -10   37.34    2.80
  -3  -4  10   38.59    2.66
   3   4  10   35.90    3.76
   3   4  10   42.39    3.21
   3   4  10   37.83    4.42
  -3  -4  10   37.59    2.16
  -3  -4 -10   50.85    4.39
  -3  -4 -10   44.33    5.99
   3   4 -10   40.92    2.99
   3   4 -10   38.63    2.18
  -3  -4 -10   32.66    3.62
   4   3  11    7.96    2.54
  -4  -3 -11    9.07    3.24
   4   3 -11    4.62    1.53
   3   2  11    2.00    2.10
   3   2  11    0.50    2.14
   3   2  11   -2.60    1.38
  -3  -2 -11    2.53    2.46
  -3  -2 -11   -0.81    2.12
  -3  -2 -11    4.02    2.07
   2   1  11    2.45    1.09
   2   1  11    2.41    1.32
   2   1  11    5.47    1.46
   2   1  11    4.33    1.42
  -2  -1 -11    3.99    1.42
  -2  -1 -11    5.21    1.55
  -2  -1 -11    1.97    1.40
  -2  -1 -11    2.92    1.45
   1   0  11    9.98    1.23
   1   0  11    8.37    1.04
  -1   0  11    9.28    1.00
   1   0  11    7.68    1.08
   1   0  11    8.98    1.01
  -1   0  11    8.11    0.81
  -1   0 -11    8.22    1.09
  -1   0 -11    7.69    1.08
   1   0 -11    8.62    1.10
  -1   0 -11    8.16    1.20
  -1   0 -11    8.92    1.22
   1   0 -11    8.63    0.86
   0   1  11   83.91    2.42
   0  -1  11   82.96    2.48
   0   1  11   83.63    2.41
   0   1  11   82.66    2.39
   0  -1  11   85.59    2.40
   0   1  11   84.74    2.22
   0  -1  11   84.20    2.19
   0  -1  11   85.17    2.44
   0   1 -11   81.39    2.52
   0   1 -11   85.71    2.33
   0  -1 -11   82.57    2.35
   0   1 -11   85.06    2.53
   0   1 -11   81.73    2.43
  -1  -2  11   11.97    1.26
  -1  -2  11   11.93    1.19
   1   2  11   12.73    1.62
   1   2  11   13.20    1.62
   1   2  11   11.88    1.62
   1   2  11   11.13    1.22
  -1  -2  11   11.33    1.02
   1   2 -11   12.08    1.01
   1   2 -11   13.62    1.41
  -1  -2 -11   11.06    1.34
  -1  -2 -11   14.30    1.79
  -1  -2 -11   11.50    1.34
   1   2 -11   13.76    1.01
   1   2 -11   11.17    1.47
  -1  -2 -11   13.26    1.45
  -2  -3  11    0.56    0.68
  -2  -3  11   -0.10    1.05
   2   3  11    1.04    1.56
  -2  -3  11    0.36    0.72
   2   3  11   -1.19    1.49
   2   3  11   -0.02    1.23
   2   3  11    0.46    1.44
   2   3 -11   -0.36    1.19
  -2  -3 -11    2.25    1.59
  -2  -3 -11    0.13    1.63
   2   3 -11    0.77    1.24
   2   3 -11    1.74    0.77
  -2  -3 -11   -0.68    1.49
  -2  -3 -11    2.67    1.82
  -3  -4  11    1.86    1.51
   3   4  11    1.66    1.87
   3   4  11    5.04    2.79
  -3  -4  11    2.43    1.13
   3   4  11    0.51    2.29
   3   4 -11    1.37    1.15
  -3  -4 -11    6.78    4.34
  -3  -4 -11    3.75    2.26
  -3  -4 -11    5.56    2.99
   3   4 -11    2.86    1.68
   4   3  12    2.44    2.54
   4   3 -12    0.71    1.58
  -4  -3 -12    2.15    3.37
   3   2  12    2.68    2.58
   3   2  12    4.47    2.75
   3   2  12    2.22    1.48
  -3  -2 -12    1.55    2.53
  -3  -2 -12    8.54    2.38
  -3  -2 -12    0.06    2.51
   2   1  12    5.86    2.38
   2   1  12    8.30    1.62
   2   1  12    6.77    1.44
   2   1  12    5.83    1.31
   2   1 -12    7.05    0.95
  -2  -1 -12    8.26    1.49
  -2  -1 -12    5.81    1.67
  -2  -1 -12    6.02    1.60
  -2  -1 -12    6.43    1.72
   1   0  12   17.90    1.52
   1   0  12   19.12    1.58
  -1   0  12   18.76    0.81
  -1   0  12   18.44    1.28
   1   0  12   19.41    1.61
   1   0  12   19.68    1.73
  -1   0  12   18.89    1.08
   1   0 -12   16.38    1.08
  -1   0 -12   17.74    1.83
   1   0 -12   20.56    1.37
  -1   0 -12   17.85    2.09
   1   0 -12   18.53    0.90
  -1   0 -12   21.81    1.89
   0  -1  12   89.89    2.54
   0   1  12   88.73    2.32
   0   1  12   86.97    2.53
   0  -1  12   84.84    2.55
   0   1  12   88.22    2.55
   0  -1  12   85.42    2.29
   0  -1  12   87.41    2.63
   0   1  12   83.72    2.50
   0   1 -12   86.49    2.57
   0   1 -12   86.51    2.67
   0  -1 -12   86.31    2.46
   0   1 -12   88.41    2.68
   0   1 -12   82.43    2.41
   0  -1 -12   89.12    3.56
   1   2  12   36.20    2.02
  -1  -2  12   37.21    1.55
   1   2  12   36.41    2.13
   1   2  12   37.65    2.03
   1   2  12   37.50    2.21
  -1  -2  12   38.22    1.71
  -1  -2  12   36.25    1.73
  -1  -2  12   36.25    1.27
  -1  -2 -12   38.51    2.34
  -1  -2 -12   38.11    2.33
  -1  -2 -12   35.94    2.19
  -1  -2 -12   37.21    2.26
   1   2 -12   37.53    1.83
   1   2 -12   33.69    1.46
   1   2 -12   34.18    1.86
   1   2 -12   36.09    1.50
  -2  -3  12   13.66    1.33
   2   3  12   13.18    1.92
   2   3  12   12.18    1.94
  -2  -3  12   12.83    1.43
  -2  -3  12   16.26    1.85
  -2  -3  12   13.03    1.32
   2   3  12   13.92    1.63
   2   3  12   13.93    1.90
   2   3 -12   13.22    1.27
  -2  -3 -12   12.94    2.03
   2   3 -12   16.64    1.40
   2   3 -12   15.80    2.00
  -2  -3 -12   14.23    2.16
  -2  -3 -12   14.32    1.99
   2   3 -12   15.34    1.59
  -2  -3 -12   18.61    2.53
   3   4  12    7.73    2.61
   3   4  12    5.02    3.48
  -3  -4  12    7.37    1.77
  -3  -4  12    7.23    1.24
   3   4  12    9.73    2.35
  -3  -4 -12    8.28    2.56
  -3  -4 -12    7.43    4.32
   3   4 -12    9.49    1.85
   3   4 -12    6.42    1.23
   4   3  13    4.39    2.69
  -4  -3 -13    8.50    3.83
   3   2  13    0.52    2.15
   3   2  13    1.20    1.73
   3   2  13    0.73    2.38
  -3  -2 -13    8.91    2.36
  -3  -2 -13    8.61    2.57
   2   1  13   16.06    1.92
   2   1  13   14.25    1.81
   2   1  13   15.29    2.05
   2   1  13   14.13    1.82
  -2  -1 -13   15.65    1.94
  -2  -1 -13   10.83    2.24
  -2  -1 -13   14.28    2.08
   2   1 -13   13.77    1.11
  -2  -1 -13   14.98    1.92
   1   0  13    9.69    1.30
  -1   0  13    8.16    0.70
   1   0  13    8.26    1.18
   1   0  13    9.85    1.23
  -1   0  13    9.83    1.08
   1   0  13   10.37    1.17
  -1   0  13    8.61    1.01
   1   0 -13    9.70    1.05
  -1   0 -13    8.78    1.30
  -1   0 -13   11.38    1.49
   1   0 -13    9.89    0.83
  -1   0 -13    9.32    1.33
   1   0 -13    7.77    1.03
  -1   0 -13    8.99    1.30
   1   0 -13    9.42    1.06
   0   1  13    0.44    0.84
   0  -1  13    1.08    0.52
   0   1  13    0.75    0.78
   0  -1  13    1.06    0.80
   0   1  13    0.49    0.48
   0  -1  13    1.06    0.86
   0   1  13   -0.20    0.80
   0  -1  13    0.70    0.75
   0  -1 -13    0.43    0.87
   0   1 -13    0.77    0.92
   0   1 -13   -0.29    0.72
   0   1 -13   -0.26    0.74
   0  -1 -13    1.85    1.10
   0  -1 -13    1.00    0.72
   0   1 -13    1.29    1.04
   1   2  13   43.91    2.43
   1   2  13   47.75    2.45
   1   2  13   48.69    2.39
  -1  -2  13   48.62    1.52
  -1  -2  13   48.22    1.82
  -1  -2  13   50.07    1.97
  -1  -2  13   47.35    2.04
   1   2  13   51.84    2.43
   1   2 -13   46.72    2.23
   1   2 -13   50.87    2.15
  -1  -2 -13   46.25    2.51
  -1  -2 -13   52.31    2.60
   1   2 -13   47.34    1.82
  -1  -2 -13   48.55    2.59
  -1  -2 -13   48.51    2.60
   1   2 -13   47.25    1.74
   2   3  13   32.63    3.09
  -2  -3  13   33.42    1.89
   2   3  13   27.49    3.10
  -2  -3  13   38.00    1.75
   2   3  13   33.48    2.76
   2   3  13   35.67    2.60
   2   3 -13   29.50    2.48
  -2  -3 -13   32.16    3.50
   2   3 -13   36.36    2.91
  -2  -3 -13   33.20    2.95
  -2  -3 -13   36.00    3.28
  -2  -3 -13   33.83    3.26
   2   3 -13   35.99    1.77
  -3  -4  13    8.27    1.76
  -3  -4  13    8.06    1.34
   3   4  13    7.90    2.50
   3   4  13    8.85    2.59
  -3  -4 -13    7.74    2.51
   3   4 -13    8.77    1.30
  -3  -4 -13   10.89    4.27
   3   4 -13    5.18    1.91
   3   2  14   12.40    2.53
   3   2  14   11.03    1.90
   3   2  14    8.46    2.85
  -3  -2 -14   17.46    4.74
  -3  -2 -14   12.79    3.15
  -3  -2 -14   14.61    2.49
   2   1  14   13.44    1.81
   2   1  14   17.81    2.08
   2   1  14   16.72    2.20
   2   1  14   15.59    1.92
  -2  -1 -14   15.39    2.06
  -2  -1 -14   15.23    2.19
  -2  -1 -14   15.91    2.20
   2   1 -14   15.98    1.28
  -2  -1 -14   12.14    2.17
   1   0  14    6.87    1.15
   1   0  14    5.82    1.19
  -1   0  14    5.20    0.55
   1   0  14    6.96    1.32
  -1   0  14    6.28    1.01
   1   0  14    6.14    1.10
  -1   0  14    8.60    1.07
   1   0 -14    7.19    1.08
  -1   0 -14    5.77    1.35
  -1   0 -14    6.84    1.39
  -1   0 -14    4.77    1.37
   1   0 -14    4.07    0.78
  -1   0 -14    4.38    1.35
   0   1  14   54.30    1.78
   0  -1  14   50.39    2.00
   0   1  14   53.68    2.16
   0   1  14   54.96    2.11
   0  -1  14   51.38    2.16
   0   1  14   50.67    2.06
   0  -1  14   50.84    2.11
   0  -1  14   51.67    1.75
   0   1 -14   53.15    2.00
   0   1 -14   48.31    2.33
   0   1 -14   49.16    2.11
   0  -1 -14   49.73    2.01
   0  -1 -14   49.41    2.40
   0   1 -14   53.87    2.32
   1   2  14    2.04    1.17
   1   2  14    0.09    1.16
  -1  -2  14    1.59    0.87
  -1  -2  14    0.61    0.51
   1   2  14    1.11    1.20
  -1  -2  14    0.56    0.95
   1   2  14    2.06    1.20
  -1  -2  14    0.79    0.72
  -1  -2 -14    2.09    1.31
   1   2 -14    2.99    1.28
   1   2 -14    1.86    0.83
  -1  -2 -14    1.22    1.36
  -1  -2 -14    2.40    1.42
  -1  -2 -14    0.10    1.33
   1   2 -14    1.85    0.79
   1   2 -14    1.87    1.11
   2   3  14   11.20    2.22
   2   3  14    8.28    1.96
   2   3  14   12.20    1.91
  -2  -3  14    9.80    1.20
  -2  -3  14   11.77    1.45
   2   3  14   10.76    1.79
  -2  -3 -14    7.97    2.00
   2   3 -14   10.90    2.20
  -2  -3 -14   13.47    2.20
  -2  -3 -14   14.98    2.62
  -2  -3 -14   10.02    2.24
   3   4  14   10.33    2.76
   3   4  14   10.37    3.82
  -3  -4  14   10.77    1.51
  -3  -4  14    9.54    1.85
   3   4 -14    9.07    1.46
  -3  -4 -14   12.83    2.83
  -3  -4 -14    9.81    4.08
   3   4 -14   11.13    2.52
   3   2  15    0.29    2.05
   3   2  15    5.07    2.34
  -3  -2 -15    3.44    2.56
   2   1  15   15.49    2.02
   2   1  15   17.64    1.89
   2   1  15   16.05    2.09
   2   1  15   18.42    2.18
  -2  -1 -15   15.49    2.20
  -2  -1 -15   10.98    2.14
  -2  -1 -15   19.65    2.44
  -2  -1 -15   18.63    2.48
   1   0  15   17.63    1.75
   1   0  15   21.25    1.87
  -1   0  15   21.15    1.33
  -1   0  15   18.58    1.74
  -1   0  15   19.11    1.57
   1   0  15   20.35    2.14
   1   0  15   15.58    1.87
  -1   0 -15   18.38    2.35
   1   0 -15   14.58    1.41
  -1   0 -15   19.56    2.26
  -1   0 -15   20.68    2.23
   1   0 -15   20.73    1.75
   1   0 -15   18.44    1.83
  -1   0 -15   18.52    2.21
   0  -1  15   59.47    2.33
   0  -1  15   59.63    2.23
   0  -1  15   59.18    1.93
   0   1  15   59.87    2.31
   0   1  15   56.61    1.91
   0  -1  15   59.84    2.40
   0   1  15   56.92    2.35
   0   1  15   59.58    2.29
   0   1 -15   62.72    2.59
   0  -1 -15   56.53    2.40
   0   1 -15   55.10    2.38
   0  -1 -15   55.86    2.52
   0  -1 -15   57.05    2.22
   0   1 -15   55.96    2.18
   0   1 -15   58.07    2.64
   1   2  15   39.06    2.79
  -1  -2  15   42.68    1.51
   1   2  15   43.21    2.54
  -1  -2  15   43.28    1.85
   1   2  15   43.27    2.48
  -1  -2  15   40.82    2.15
  -1  -2  15   42.17    2.05
   1   2  15   43.48    2.46
   1   2 -15   43.26    2.27
  -1  -2 -15   42.33    2.71
  -1  -2 -15   45.06    2.82
  -1  -2 -15   43.53    2.68
   1   2 -15   40.81    1.81
   1   2 -15   41.23    1.94
  -1  -2 -15   38.53    2.92
   1   2 -15   45.34    2.43
  -2  -3  15   21.75    2.26
   2   3  15   18.75    2.59
  -2  -3  15   22.56    1.74
   2   3  15   23.16    2.56
   2   3  15   21.29    2.55
  -2  -3  15   21.26    1.83
   2   3  15   21.79    2.89
   2   3 -15   21.36    2.89
   2   3 -15   25.91    1.74
  -2  -3 -15   22.39    2.53
  -2  -3 -15   20.40    2.83
  -2  -3 -15   19.91    2.41
   2   3 -15   19.15    2.81
  -2  -3 -15   18.83    2.53
  -3  -4  15   11.78    1.51
   3   4  15   13.16    3.28
  -3  -4  15   10.24    1.92
  -3  -4 -15    7.64    3.49
   3   4 -15   11.85    1.65
  -3  -4 -15   11.00    4.69
   3   2  16   -3.21    3.60
   3   2  16    5.54    2.44
  -3  -2 -16    4.38    3.78
   3   2 -16    0.59    1.55
  -3  -2 -16    0.98    2.94
   2   1  16   13.85    2.03
   2   1  16   15.62    1.90
   2   1  16   13.37    1.98
   2   1  16   16.44    2.29
  -2  -1 -16   12.96    2.29
  -2  -1 -16   15.84    2.51
  -2  -1 -16    9.12    2.33
  -2  -1 -16   17.15    2.39
   2   1 -16   11.80    1.44
   1   0  16    2.87    1.22
  -1   0  16    3.67    0.60
  -1   0  16    4.65    0.86
  -1   0  16    4.59    1.08
   1   0  16    3.11    1.15
   1   0  16    4.52    1.24
   1   0  16    5.37    1.57
  -1   0 -16    2.97    1.76
   1   0 -16    3.38    1.01
  -1   0 -16    3.13    1.55
  -1   0 -16    2.30    1.49
   1   0 -16    2.82    0.81
  -1   0 -16    4.17    1.61
   1   0 -16    5.53    1.28
   1   0 -16    4.48    1.22
   0   1  16   13.83    1.19
   0   1  16   16.69    1.81
   0   1  16   14.48    1.64
   0  -1  16   15.65    1.18
   0  -1  16   17.72    1.57
   0  -1  16   15.78    1.76
   0  -1  16   14.17    1.81
   0   1  16   16.38    1.73
   0  -1 -16   15.59    1.67
   0   1 -16   13.76    1.79
   0  -1 -16   12.95    1.49
   0   1 -16   15.16    1.71
   0   1 -16   15.09    1.59
   0  -1 -16   14.97    1.56
   0   1 -16   16.44    2.03
   1   2  16   28.37    2.55
   1   2  16   27.07    2.39
  -1  -2  16   29.44    1.32
  -1  -2  16   30.70    2.14
  -1  -2  16   30.36    1.73
  -1  -2  16   29.10    1.91
   1   2  16   27.91    2.98
   1   2  16   30.80    2.38
  -1  -2 -16   28.04    2.85
   1   2 -16   28.55    1.71
   1   2 -16   28.13    2.20
   1   2 -16   30.76    1.85
   1   2 -16   32.63    2.35
  -1  -2 -16   30.10    2.63
  -1  -2 -16   29.16    2.91
  -1  -2 -16   28.69    2.70
   2   3  16   33.96    3.16
  -2  -3  16   30.77    2.57
   2   3  16   31.58    2.90
  -2  -3  16   34.38    1.96
   2   3  16   31.40    3.51
  -2  -3  16   30.38    2.07
   2   3  16   36.80    3.65
  -2  -3 -16   30.57    4.09
   2   3 -16   30.95    1.90
   2   3 -16   32.17    3.21
  -2  -3 -16   28.66    3.93
   2   3 -16   34.78    2.52
  -2  -3 -16   37.25    3.89
  -2  -3 -16   29.97    3.26
   3   4  16    0.59    3.92
   3   4 -16    3.12    1.61
  -3  -4 -16    1.83    3.45
   3   2  17   -0.54    3.19
   3   2  17   -0.62    3.47
  -3  -2 -17   -0.15    3.69
  -3  -2 -17    1.66    3.16
   2   1  17   16.05    2.40
   2   1  17   18.35    2.53
   2   1  17   11.01    2.01
   2   1  17   21.72    2.70
   2   1 -17   16.39    1.89
  -2  -1 -17   13.50    2.40
  -2  -1 -17   13.41    2.48
   2   1 -17   13.70    1.57
  -2  -1 -17   12.60    2.69
  -2  -1 -17   12.60    2.54
  -1   0  17    4.41    1.21
   1   0  17    3.55    1.26
  -1   0  17    4.29    1.04
  -1   0  17    3.78    0.63
   1   0  17    6.40    1.75
   1   0  17    1.90    1.38
   1   0  17    4.50    1.33
  -1   0 -17    4.48    2.05
   1   0 -17    4.18    1.11
  -1   0 -17    4.64    1.74
   1   0 -17    4.67    1.37
   1   0 -17    4.57    0.96
  -1   0 -17    2.28    1.65
   1   0 -17    5.68    1.44
  -1   0 -17    3.31    1.81
   0  -1  17    9.44    1.40
   0  -1  17   10.26    1.27
   0  -1  17    7.40    0.95
   0   1  17    8.96    1.33
   0   1  17   10.63    1.43
   0  -1  17    8.48    1.34
   0   1  17    7.09    0.92
   0   1  17    6.36    1.33
   0  -1 -17    4.82    1.46
   0   1 -17    9.59    1.39
   0  -1 -17   10.98    2.98
   0  -1 -17    6.88    1.23
   0   1 -17    6.21    1.39
   0   1 -17    6.20    1.69
   0   1 -17    8.65    1.57
   0  -1 -17    7.65    1.46
   1   2  17   23.90    2.39
  -1  -2  17   27.65    2.21
  -1  -2  17   27.61    1.82
  -1  -2  17   26.60    1.33
   1   2  17   25.13    2.52
  -1  -2  17   24.30    2.00
   1   2  17   25.99    2.66
   1   2  17   20.77    3.10
   1   2 -17   31.05    2.44
   1   2 -17   23.91    1.77
  -1  -2 -17   30.22    2.95
  -1  -2 -17   30.09    2.82
  -1  -2 -17   30.21    3.02
  -1  -2 -17   23.20    2.68
   1   2 -17   26.18    1.93
   1   2 -17   26.26    2.23
  -2  -3  17   17.53    1.73
   2   3  17   17.18    2.67
  -2  -3  17   16.12    1.84
   2   3  17   14.34    2.06
  -2  -3  17   16.68    1.94
   2   3  17   13.56    2.51
   2   3  17   16.57    2.38
   2   3 -17   17.79    2.41
  -2  -3 -17   16.05    3.09
  -2  -3 -17   19.35    2.72
  -2  -3 -17   17.15    3.00
   2   3 -17   16.52    1.86
  -2  -3 -17   12.94    2.36
   3   4  17   -0.14    2.81
  -3  -4 -17   -0.40    3.68
   3   4 -17    1.89    1.58
   3   2  18    3.48    2.74
  -3  -2 -18   11.94    3.50
   2   1  18   17.87    2.69
   2   1  18   10.80    2.18
   2   1  18   10.45    2.26
   2   1  18   16.03    2.10
  -2  -1 -18   10.44    2.45
  -2  -1 -18   10.14    2.55
  -2  -1 -18   10.45    2.76
   2   1 -18   12.57    1.70
  -2  -1 -18    9.03    2.71
   2   1 -18   11.36    1.44
   1   0  18    9.50    1.56
   1   0  18    8.85    1.53
  -1   0  18    9.95    1.25
   1   0  18    7.23    1.59
   1   0  18    9.54    1.89
  -1   0  18    8.43    1.39
  -1   0 -18   10.12    2.02
  -1   0 -18    8.98    3.03
   1   0 -18    8.69    1.58
   1   0 -18    8.90    1.32
  -1   0 -18    6.67    1.78
  -1   0 -18    5.94    2.05
   1   0 -18   10.12    1.74
   0   1  18    4.03    1.38
   0   1  18    4.56    0.86
   0  -1  18    5.97    1.38
   0  -1  18    5.44    1.29
   0   1  18    5.94    1.37
   0   1  18    7.32    1.38
   0  -1  18    4.99    1.36
   0  -1  18    5.19    0.95
   0   1 -18    3.26    1.72
   0  -1 -18    4.95    1.41
   0  -1 -18    5.52    2.31
   0  -1 -18    6.04    1.64
   0   1 -18    4.35    1.41
   0  -1 -18    5.71    1.24
   0   1 -18    5.75    1.65
   0   1 -18    9.50    1.51
   1   2  18    3.39    1.61
  -1  -2  18    0.39    1.34
   1   2  18    1.89    1.76
   1   2  18    0.38    1.55
  -1  -2  18    0.20    1.20
  -1  -2  18    1.27    1.00
  -1  -2 -18   -0.06    2.03
   1   2 -18    2.04    1.61
  -1  -2 -18    0.06    2.03
   1   2 -18    0.86    1.23
   1   2 -18    1.69    1.51
  -1  -2 -18    2.23    2.15
  -1  -2 -18   -0.08    1.75
   2   3  18    4.75    2.36
   2   3  18    2.35    2.46
   2   3  18    2.88    2.63
  -2  -3  18    2.78    1.29
  -2  -3  18    2.61    1.35
   2   3  18    7.09    1.95
  -2  -3 -18    3.03    2.37
   2   3 -18    5.72    1.59
   2   3 -18    4.06    1.65
  -2  -3 -18    2.91    3.13
  -2  -3 -18    9.27    2.75
  -2  -3 -18    8.06    3.22
   3   4  18    5.60    2.89
  -3  -4  18    6.86    1.73
  -3  -4 -18    5.80    3.76
   3   4 -18    7.00    1.76
   3   2  19    7.47    2.56
  -3  -2 -19   10.03    3.72
   2   1  19   10.03    2.11
   2   1  19   10.78    2.92
   2   1  19    6.25    2.45
   2   1  19    4.63    2.16
   2   1 -19    4.77    1.44
  -2  -1 -19    7.53    2.49
  -2  -1 -19    8.70    2.97
  -2  -1 -19   10.92    2.82
  -2  -1 -19    8.78    2.85
   1   0  19   -1.90    1.51
   1   0  19    0.39    1.35
   1   0  19    1.07    1.80
  -1   0  19    0.83    2.01
   1   0  19   -0.36    1.44
  -1   0 -19   -0.99    2.08
  -1   0 -19    1.31    1.98
   1   0 -19    2.97    1.78
  -1   0 -19   -0.60    1.82
  -1   0 -19    1.69    2.51
   1   0 -19    0.12    1.58
   0   1  19    6.42    1.55
   0  -1  19    4.46    0.98
   0  -1  19    3.85    1.42
   0  -1  19    4.42    1.37
   0   1  19    2.71    1.49
   0   1  19    3.82    1.04
   0   1  19    6.90    1.53
   0  -1  19    3.52    1.31
   0  -1 -19    0.64    2.28
   0   1 -19    4.35    1.56
   0   1 -19    5.45    1.76
   0  -1 -19    6.65    1.81
   0  -1 -19    3.78    1.40
   0   1 -19    4.85    1.86
   0  -1 -19    3.62    1.54
   0   1 -19    5.34    1.68
   1   2  19   15.97    2.15
  -1  -2  19   16.21    1.95
  -1  -2  19   18.27    1.74
   1   2  19   14.19    1.97
  -1  -2  19   15.48    1.77
   1   2  19   14.35    2.09
  -1  -2 -19   14.86    2.52
  -1  -2 -19   12.61    2.44
   1   2 -19   10.90    1.91
  -1  -2 -19   14.59    2.14
   1   2 -19   14.70    1.90
  -1  -2 -19   13.12    2.49
   1   2 -19   16.06    2.08
  -2  -3  19   10.11    1.57
   2   3  19   12.71    3.50
  -2  -3  19   12.84    1.50
   2   3  19   13.66    3.15
   2   3  19   10.09    2.14
   2   3  19   13.57    2.65
  -2  -3 -19   17.07    3.13
  -2  -3 -19   13.45    2.73
   2   3 -19   10.23    1.88
  -2  -3 -19    7.36    3.41
   2   3 -19   10.92    1.65
  -2  -3 -19   16.31    3.77
  -3  -4  19    4.27    1.78
   3   4  19   -0.88    3.02
   3   4 -19    1.27    1.84
  -3  -4 -19   -1.01    4.05
   3   2  20    2.10    2.59
   3   2 -20    3.14    1.71
  -3  -2 -20    8.81    4.02
   2   1  20   -0.73    2.28
   2   1  20    5.70    2.20
   2   1  20    9.67    2.96
   2   1  20    4.96    2.75
   2   1 -20   -0.89    1.43
   2   1 -20    1.89    1.37
  -2  -1 -20    3.09    2.53
  -2  -1 -20    5.45    2.71
  -2  -1 -20    3.45    3.22
  -2  -1 -20   -0.89    3.17
  -1   0  20    1.85    1.26
   1   0  20    0.73    2.02
   1   0  20    2.11    1.56
   1   0  20   -2.46    1.67
   1   0  20   -2.03    1.55
  -1   0 -20   -0.96    2.27
   1   0 -20   -0.88    1.69
   1   0 -20   -0.24    1.98
  -1   0 -20   -0.72    1.96
  -1   0 -20    0.82    2.20
  -1   0 -20   -2.08    2.23
   1   0 -20   -0.19    1.46
   0   1  20   15.86    1.86
   0   1  20   12.92    1.82
   0   1  20   12.70    1.94
   0  -1  20   15.08    1.75
   0  -1  20   13.62    1.84
   0  -1  20   12.35    1.64
   0   1 -20   11.53    2.07
   0  -1 -20   18.21    2.24
   0   1 -20    8.22    2.25
   0   1 -20   14.80    1.98
   0  -1 -20   12.16    2.31
   0  -1 -20   12.91    1.90
   1   2  20   22.96    2.40
  -1  -2  20   22.31    2.71
  -1  -2  20   22.55    2.07
  -1  -2  20   20.05    2.33
   1   2  20   25.45    3.24
   1   2 -20   16.69    2.24
   1   2 -20   23.45    2.82
  -1  -2 -20   22.88    2.61
   1   2 -20   23.25    3.15
  -1  -2 -20   18.24    3.22
  -1  -2 -20   20.92    2.94
   2   3  20   25.80    3.72
   2   3  20   19.42    2.61
  -2  -3  20   19.26    2.20
  -2  -3  20   17.61    1.80
   2   3  20   19.59    3.03
   2   3 -20   18.30    2.22
  -2  -3 -20   24.99    3.45
  -2  -3 -20   20.90    3.13
   2   3 -20   18.58    2.39
  -2  -3 -20   16.86    4.01
   3   2  21    2.60    2.88
  -3  -2 -21   10.67    4.18
   2   1  21    9.62    2.40
   2   1  21    4.09    2.50
   2   1  21   10.59    3.47
  -2  -1  21   11.53    1.57
  -2  -1 -21    6.47    3.63
  -2  -1 -21    9.66    3.13
  -2  -1 -21    8.11    3.49
  -2  -1 -21    9.94    3.04
   2   1 -21    5.56    1.62
  -1   0  21    1.20    1.38
   1   0  21    0.64    1.72
   1   0  21    1.86    1.94
  -1   0  21    1.22    1.35
  -1   0  21   -2.74    1.72
  -1   0 -21    3.57    2.53
  -1   0 -21   -1.25    2.35
   1   0 -21   -3.57    2.27
   1   0 -21    0.63    1.92
  -1   0 -21   -1.78    2.06
  -1   0 -21    3.66    4.02
   1   0 -21    2.73    1.48
   0   1  21    3.40    2.80
   0  -1  21   -0.59    1.52
   0   1  21   -0.85    1.67
   0   1  21   -0.53    1.53
   0  -1  21   -0.26    1.70
   0  -1  21    1.95    1.70
   0   1 -21    0.73    2.45
   0  -1 -21    0.56    2.09
   0  -1 -21   -1.62    1.98
   0   1 -21   -2.06    1.86
   0   1 -21   -3.07    2.03
   1   2  21    2.37    2.20
   1   2  21   -1.77    2.00
  -1  -2  21    0.61    1.34
   1   2  21    2.79    2.97
  -1  -2  21    1.05    1.87
  -1  -2  21    0.19    1.50
  -1  -2 -21   -0.22    2.28
   1   2 -21    0.14    1.89
  -1  -2 -21    0.16    3.96
  -1  -2 -21   -2.42    2.53
   1   2 -21    0.37    2.25
   1   2 -21   -2.62    1.53
   2   3  21   -0.93    2.17
  -2  -3  21    2.30    1.57
   2   3  21    0.61    2.77
   2   3 -21    1.01    1.64
  -2  -3 -21    3.91    3.13
  -2  -3 -21    6.81    3.34
   2   1  22    8.61    2.93
   2   1  22   15.74    2.73
  -2  -1 -22   16.20    3.49
   2   1 -22    8.37    1.81
   2   1 -22    4.08    1.80
  -2  -1 -22   10.76    3.51
  -1   0  22   19.58    2.23
   1   0  22   19.97    2.30
   1   0  22   23.46    3.16
  -1   0  22   19.85    2.27
   1   0 -22   23.56    2.62
  -1   0 -22   22.29    3.23
  -1   0 -22   20.51    2.73
  -1   0 -22   21.97    3.15
   0  -1  22   40.71    3.02
   0  -1  22   38.00    2.89
   0  -1  22   40.60    3.37
   0   1  22   39.47    3.34
   0   1  22   38.63    3.08
   0   1  22   44.35    3.03
   0   1 -22   48.60    4.95
   0   1 -22   38.52    3.76
   0  -1 -22   39.61    3.83
   0  -1 -22   39.19    4.06
   0   1 -22   36.26    3.25
   0  -1 -22   38.68    3.17
   1   2  22   35.79    3.92
   1   2  22   37.39    4.12
  -1  -2  22   31.01    2.90
   1   2  22   30.54    3.66
  -1  -2  22   29.79    2.88
  -1  -2  22   30.77    3.37
  -1  -2 -22   32.08    4.31
   1   2 -22   22.51    3.14
   1   2 -22   33.89    3.47
   1   2 -22   33.31    4.02
  -1  -2 -22   37.54    3.74
  -2  -3  22    2.32    1.69
   2   3  22    2.59    3.80
  -2  -3 -22    9.77    4.71
  -2  -3 -22    3.73    3.52
   2   3 -22    1.93    1.84
   2   1  23   11.47    3.00
   2   1  23    3.51    3.16
  -2  -1  23   10.06    1.87
   2   1 -23    8.46    1.97
  -2  -1 -23    8.79    3.78
  -2  -1 -23    5.51    3.70
   1   0  23    0.56    2.44
  -1   0  23   -0.24    1.40
  -1   0  23    2.48    2.08
   1   0  23   -2.53    2.73
  -1   0  23    2.53    1.48
   1   0  23   -0.82    1.94
  -1   0 -23    4.07    4.95
   1   0 -23    2.46    2.47
   1   0 -23    4.05    1.90
  -1   0 -23    6.62    3.00
  -1   0 -23    0.94    3.29
   0  -1  23   22.96    2.35
   0   1  23   22.18    2.81
   0   1  23   18.64    2.56
   0   1  23   14.90    2.24
   0  -1  23   20.01    2.30
   0  -1  23   19.22    2.51
   0  -1 -23   15.80    2.36
   0   1 -23   18.75    2.50
   0  -1 -23   18.91    2.85
   0   1 -23   17.64    3.00
   0  -1 -23   15.92    2.88
  -1  -2  23   28.39    2.71
  -1  -2  23   32.56    3.52
   1   2  23   31.98    3.91
   1   2  23   22.71    2.85
  -1  -2 -23   23.19    4.00
   1   2 -23   18.49    2.33
  -1  -2 -23   23.73    3.24
  -2  -3  23    3.45    1.85
   2   3  23    1.08    3.36
   2   3 -23    1.16    1.95
  -2  -3 -23    4.15    3.51
   2   1  24    2.38    3.16
  -2  -1 -24    4.08    4.95
  -1   0  24   -3.55    1.69
   1   0  24    1.18    2.50
  -1   0 -24    0.98    2.66
   1   0 -24    4.46    2.15
   0   1  24   11.51    2.24
   0  -1 -24    7.67    2.50
  -1  -2  24   27.95    2.87
   1   2  24   31.69    4.17
  -1  -2 -24   24.33    3.41
   1   2 -24   26.02    3.25
  -2  -3  24   11.30    2.33
   2   3  24   10.27    5.28
   2   3 -24    4.37    2.32
  -2  -3 -24   10.84    3.97
   2   1  25   13.44    3.91
   2   1 -25   11.23    2.33
  -2  -1 -25   11.18    4.38
   1   0 -25    6.30    2.27
  -1   0 -25    7.91    2.89
   0   1  25    3.58    2.25
   0  -1  25   -0.26    2.06
   0   1 -25   -0.10    2.44
   0  -1 -25    3.43    2.31
  -1  -2  25    3.23    2.03
   1   2  25    3.68    3.04
   1   2 -25   -2.93    2.34
  -1  -2 -25    1.25    3.15
  -1   0  26    0.47    2.23
   1   0  26    1.65    2.90
   1   0 -26    0.08    2.32
  -1   0 -26   -0.38    3.06
   0  -1  26   -2.50    2.22
   0   1  26   -2.42    2.37
   0   1 -26    5.15    2.82
   0  -1 -26   -3.90    2.51
   1   2  26    7.09    3.21
  -1  -2  26    8.30    2.45
   1   2 -26    9.23    2.86
  -1  -2 -26    4.61    3.52
  -1   0  27    5.20    2.53
   1   0  27    5.43    3.14
   1   0 -27    0.74    2.59
  -1   0 -27    0.88    3.28
   0  -1  27   -2.48    2.50
   0   1  27    1.80    2.65
   0  -1 -27   -5.51    2.69
   0   1 -27    5.46    3.05
  -1  -2  27    2.73    2.64
   1   2  27    1.13    3.68
   1   2 -27    3.53    2.92
  -1  -2 -27    6.77    3.84
  -1   0  28    5.68    2.86
   1   0  28    6.02    3.59
  -1   0 -28   -5.36    3.70
   1   0 -28    0.59    2.94
   0   1  28   14.06    2.98
   0  -1  28   10.67    3.01
   0   1 -28   17.33    3.40
   0  -1 -28    9.11    3.49
   4   2   0    2.91    1.67
  -4  -2   0   -0.25    2.62
  -4  -2   0    5.76    1.62
  -3  -1   0   -0.13    0.93
   3   1   0    0.27    1.36
  -3  -1   0    0.96    1.25
   3   1   0    0.66    0.93
   3   1   0    0.34    1.15
   3   1   0    0.25    0.90
  -3  -1   0    1.56    1.02
  -2   0   0    1.44    0.68
  -2   0   0    0.95    0.65
  -2   0   0    0.25    0.52
   2   0   0    1.68    0.51
  -2   0   0    0.19    0.57
   2   0   0    0.63    0.67
   2   0   0   -0.15    0.71
   2   0   0    1.40    0.55
  -1   1   0  613.29   11.38
  -1   1   0  602.73   11.40
   1  -1   0  618.89   11.41
   1  -1   0  603.99   11.37
   1  -1   0  595.67   11.40
  -1   1   0  615.38   11.40
   0  -2   0  128.35    2.77
   0   2   0  129.13    2.71
   0   2   0  129.14    2.76
   0   2   0  129.08    2.79
   0  -2   0  127.56    2.70
   0  -2   0  127.64    2.77
  -1  -3   0   11.69    1.19
   1   3   0   10.97    1.04
  -1  -3   0   13.79    1.23
  -1  -3   0   12.67    1.11
   1   3   0   13.06    1.27
  -1  -3   0   12.39    1.04
   1   3   0   13.77    1.02
   1   3   0   12.10    1.23
  -2  -4   0    4.09    0.92
   2   4   0    2.50    0.84
  -2  -4   0    2.11    0.96
   2   4   0    2.73    1.21
  -2  -4   0    0.67    1.10
  -2  -4   0    1.36    1.09
   2   4   0    2.73    1.23
   2   4   0    3.03    1.05
   3   5   0   12.99    2.29
   3   5   0   17.43    2.27
  -3  -5   0   13.26    2.18
  -3  -5   0    9.91    1.77
  -3  -5   0    9.35    2.26
   3   5   0   15.57    1.72
  -4  -6   0   -2.08    2.45
   4   6   0   -0.89    2.27
   4   2   1   11.57    1.82
  -4  -2   1   12.37    1.86
  -4  -2   1    4.19    2.07
  -4  -2  -1    9.35    1.89
   3   1   1    6.83    1.16
  -3  -1   1    6.46    0.97
   3   1   1    9.29    1.12
   3   1   1    9.50    1.56
  -3  -1   1    9.98    1.33
   3   1   1    9.70    1.48
  -3  -1   1   14.98    1.66
  -3  -1   1    9.10    1.30
   3   1  -1   11.74    1.43
   3   1  -1    8.83    1.32
  -3  -1  -1    9.79    1.38
  -3  -1  -1    7.91    1.15
   3   1  -1    8.41    0.95
  -3  -1  -1    8.76    1.29
  -3  -1  -1   11.29    1.43
  -2   0   1    2.61    0.73
   2   0   1    4.07    0.64
   2   0   1    2.79    0.84
   2   0   1    2.88    0.79
  -2   0   1    3.97    0.62
   2   0   1    3.37    0.62
  -2   0  -1    1.86    0.76
  -2   0  -1    3.09    0.77
   2   0  -1    3.91    0.76
   2   0  -1    3.07    0.61
  -2   0  -1    2.40    0.77
  -2   0  -1    2.07    0.58
   1  -1   1   12.81    0.74
   1  -1   1   11.92    0.75
   1  -1   1   10.45    0.75
   1  -1   1   11.28    0.79
  -1   1  -1   11.64    0.70
  -1   1  -1   11.55    0.79
  -1   1  -1   10.53    0.73
  -1   1  -1   12.08    0.73
   0   2   1    2.96    0.38
   0  -2   1    2.49    0.45
   0  -2   1    2.85    0.46
   0   2   1    3.05    0.42
   0   2   1    2.59    0.49
   0   2   1    2.71    0.49
   0  -2   1    3.04    0.43
   0  -2  -1    1.94    0.48
   0   2  -1    3.02    0.50
   0  -2  -1    2.66    0.50
   0   2  -1    3.52    0.51
   0  -2  -1    2.73    0.44
   0  -2  -1    2.67    0.38
   0   2  -1    2.77    0.37
   1   3   1   35.15    1.65
   1   3   1   33.16    1.44
   1   3   1   33.55    1.38
  -1  -3   1   33.43    1.52
   1   3   1   34.67    1.61
  -1  -3   1   35.53    1.46
  -1  -3   1   31.30    1.48
  -1  -3   1   34.96    1.40
  -1  -3  -1   36.77    1.49
  -1  -3  -1   36.48    1.63
  -1  -3  -1   36.07    1.45
   1   3  -1   34.88    1.63
   1   3  -1   35.04    1.55
   1   3  -1   32.34    1.39
   1   3  -1   34.86    1.36
  -1  -3  -1   34.99    1.62
   2   4   1   27.40    1.68
   2   4   1   25.82    1.94
   2   4   1   30.44    2.19
   2   4   1   29.69    2.26
  -2  -4   1   29.27    1.76
  -2  -4   1   29.44    2.01
  -2  -4   1   30.78    1.72
  -2  -4   1   32.45    2.07
   2   4  -1   30.94    1.67
  -2  -4  -1   32.74    1.87
  -2  -4  -1   30.41    1.83
   2   4  -1   27.81    2.21
  -2  -4  -1   28.44    2.13
  -2  -4  -1   28.39    2.12
   2   4  -1   29.46    1.86
   3   5   1    0.54    2.01
   3   5   1    0.27    1.24
  -3  -5   1    1.78    1.52
  -3  -5   1    1.72    1.79
  -3  -5   1    1.14    2.07
   3   5  -1    2.51    1.30
   3   5  -1    2.79    2.18
  -3  -5  -1   -0.93    1.41
  -3  -5  -1   -0.13    2.10
   3   5  -1    0.95    2.00
  -3  -5  -1    0.54    1.79
  -4  -6   1    4.12    2.49
   4   6   1    5.94    2.41
   4   6  -1    2.09    2.43
  -4  -6  -1   11.04    2.72
  -4  -2   2   -0.76    1.90
  -4  -2   2   -0.47    1.56
   4   2   2    3.04    1.65
  -4  -2  -2    2.25    1.76
   4   2  -2   -0.99    1.45
   3   1   2   18.64    2.45
   3   1   2   20.67    2.01
   3   1   2   18.38    1.69
  -3  -1   2   23.07    1.56
   3   1   2   21.74    2.31
  -3  -1   2   19.91    1.79
   3   1  -2   19.55    1.56
  -3  -1  -2   21.89    2.18
  -3  -1  -2   21.09    2.12
  -3  -1  -2   17.82    1.95
   3   1  -2   17.24    1.88
  -3  -1  -2   22.34    2.13
   2   0   2    4.43    0.68
   2   0   2    3.53    0.82
   2   0   2    4.32    0.76
   2   0   2    3.94    0.90
  -2   0  -2    3.18    0.86
  -2   0  -2    3.13    0.78
   2   0  -2    1.73    0.53
  -2   0  -2    4.63    0.90
  -2   0  -2    2.94    0.58
   1  -1   2   18.92    0.92
   1  -1   2   17.73    0.91
   1  -1   2   18.57    0.95
  -1   1  -2   18.41    0.91
  -1   1  -2   17.41    0.95
  -1   1  -2   18.73    0.91
  -1   1  -2   18.06    0.85
   0   2   2   12.72    0.79
   0  -2   2   10.83    0.75
   0   2   2   12.04    0.73
   0  -2   2   12.05    0.72
   0   2   2   11.72    0.83
   0  -2   2   12.11    0.68
   0  -2   2   11.99    0.76
   0   2  -2   11.99    0.67
   0   2  -2   12.16    0.83
   0  -2  -2   11.85    0.86
   0   2  -2   11.95    0.82
   0  -2  -2   10.12    0.69
   0  -2  -2   11.48    0.82
   0   2  -2   12.44    0.66
  -1  -3   2   42.24    1.54
   1   3   2   43.67    1.78
   1   3   2   42.89    1.79
  -1  -3   2   39.89    1.51
   1   3   2   43.26    1.61
  -1  -3   2   42.07    1.63
   1   3   2   41.50    1.65
  -1  -3   2   41.96    1.65
   1   3  -2   39.22    1.47
   1   3  -2   40.86    1.54
  -1  -3  -2   41.72    1.74
   1   3  -2   41.53    1.64
   1   3  -2   45.29    1.79
  -1  -3  -2   43.88    1.66
  -1  -3  -2   42.40    1.76
  -1  -3  -2   44.24    1.69
  -2  -4   2   30.67    2.01
   2   4   2   28.61    1.75
  -2  -4   2   29.95    2.07
   2   4   2   28.29    2.06
  -2  -4   2   30.05    1.74
   2   4   2   31.68    2.16
  -2  -4   2   31.58    1.67
   2   4   2   26.92    2.19
  -2  -4  -2   31.87    2.23
  -2  -4  -2   33.02    2.14
   2   4  -2   30.27    1.81
   2   4  -2   29.56    1.62
  -2  -4  -2   30.94    2.23
   2   4  -2   31.10    2.20
  -2  -4  -2   31.54    1.87
   3   5   2   11.55    2.89
  -3  -5   2   14.23    2.25
  -3  -5   2   14.31    1.77
   3   5   2   13.73    2.33
   3   5   2   12.35    1.79
  -3  -5   2   14.02    2.06
  -3  -5  -2   12.25    2.14
  -3  -5  -2   13.68    2.55
  -3  -5  -2   10.10    1.82
   3   5  -2   18.79    2.40
   3   5  -2   15.25    1.66
   3   5  -2   11.79    2.74
   4   6   2    4.81    2.41
  -4  -6   2   -0.01    2.45
   4   6  -2   -0.62    2.43
  -4  -6  -2   -2.42    2.58
  -4  -2   3    3.24    1.62
   4   2   3    2.60    1.78
  -4  -2   3   -0.59    1.83
   4   2  -3   -0.98    1.38
   4   2  -3    0.93    2.37
  -4  -2  -3    9.71    2.02
   3   1   3   40.41    2.83
  -3  -1   3   42.26    2.08
   3   1   3   38.74    2.59
  -3  -1   3   43.98    1.88
   3   1   3   43.14    2.58
   3   1   3   40.41    2.18
  -3  -1  -3   43.17    2.51
   3   1  -3   43.48    1.84
  -3  -1  -3   42.93    2.36
   3   1  -3   39.62    2.12
  -3  -1  -3   37.18    2.51
  -3  -1  -3   39.47    2.80
   2   0   3   47.91    1.68
   2   0   3   48.80    1.93
   2   0   3   44.43    1.85
   2   0   3   44.27    1.74
  -2   0  -3   45.78    1.82
  -2   0  -3   45.89    1.89
  -2   0  -3   43.51    1.56
  -2   0  -3   45.51    1.83
   1  -1   3    4.17    0.59
   1  -1   3    5.43    0.65
  -1   1  -3    5.06    0.65
  -1   1  -3    4.72    0.54
  -1   1  -3    5.65    0.63
  -1   1  -3    4.62    0.60
   0   2   3   53.48    1.50
   0   2   3   54.34    1.40
   0  -2   3   51.98    1.40
   0  -2   3   52.56    1.48
   0   2   3   54.08    1.51
   0  -2   3   53.03    1.44
   0  -2   3   53.58    1.50
   0   2   3   54.19    1.46
   0  -2  -3   53.40    1.50
   0   2  -3   52.42    1.53
   0   2  -3   53.96    1.45
   0   2  -3   54.22    1.54
   0   2  -3   54.03    1.40
   1   3   3   27.71    1.58
   1   3   3   29.38    1.38
   1   3   3   28.78    1.51
  -1  -3   3   26.41    1.38
   1   3   3   27.79    1.52
  -1  -3   3   28.82    1.43
  -1  -3  -3   29.55    1.51
  -1  -3  -3   28.66    1.53
   1   3  -3   29.79    1.49
   1   3  -3   27.25    1.39
  -1  -3  -3   28.63    1.47
  -1  -3  -3   27.21    1.53
   1   3  -3   29.16    1.23
   2   4   3    3.59    0.97
   2   4   3    4.32    1.24
  -2  -4   3    2.43    0.76
  -2  -4   3    3.51    1.14
   2   4   3    2.02    1.23
  -2  -4   3    1.86    1.00
  -2  -4   3    2.39    0.90
   2   4   3    4.06    1.22
  -2  -4  -3    3.80    1.05
  -2  -4  -3    2.28    1.17
   2   4  -3    2.95    0.89
   2   4  -3    3.10    1.48
  -2  -4  -3    3.16    1.20
   2   4  -3    3.24    1.32
   2   4  -3    2.08    0.75
  -2  -4  -3    3.08    1.32
  -3  -5   3    5.54    2.11
  -3  -5   3    2.55    1.74
   3   5   3    3.35    2.26
   3   5   3    3.59    1.55
  -3  -5   3    4.01    1.52
   3   5   3    5.54    2.23
  -3  -5  -3    4.01    1.99
   3   5  -3    5.63    2.15
  -3  -5  -3    7.13    1.70
   3   5  -3    4.84    1.43
  -3  -5  -3    3.22    2.41
  -4  -6   3    5.89    2.18
   4   6   3   12.17    2.60
   4   6  -3    8.71    2.45
  -4  -6  -3    4.10    2.74
  -4  -2   4    7.43    1.59
   4   2   4    7.15    1.76
  -4  -2  -4    6.65    2.05
   4   2  -4    8.56    1.58
   4   2  -4    3.27    2.09
   3   1   4    4.50    1.43
   3   1   4    3.56    1.11
   3   1   4    4.17    1.59
   3   1  -4    4.30    1.12
  -3  -1  -4    3.63    1.55
   3   1  -4    4.46    0.84
  -3  -1  -4    5.59    1.36
  -3  -1  -4    5.02    1.47
   2   0   4   19.35    1.62
   2   0   4   19.92    1.38
   2   0   4   21.04    1.27
  -2   0  -4   17.16    1.45
  -2   0  -4   18.62    1.52
  -2   0  -4   19.78    1.53
  -2   0  -4   17.51    1.13
   1  -1   4   21.62    1.07
   1  -1   4   19.88    1.05
   1  -1   4   19.68    1.06
   1  -1   4   21.47    1.11
  -1   1  -4   21.12    1.12
  -1   1  -4   19.73    1.08
  -1   1  -4   19.47    1.14
  -1   1  -4   20.98    1.01
   0  -2   4   20.30    0.98
   0  -2   4   20.04    0.98
   0   2   4   20.43    0.95
   0   2   4   21.40    0.92
   0  -2   4   20.65    0.92
   0   2   4   21.53    0.97
   0  -2   4   20.77    0.87
   0   2  -4   20.10    0.92
   0   2  -4   20.66    0.91
   0   2  -4   21.00    1.03
   0  -2  -4   20.16    1.23
   0   2  -4   21.20    1.07
   0  -2  -4   19.93    0.98
   1   3   4   49.30    1.92
  -1  -3   4   49.04    1.65
  -1  -3   4   51.36    1.78
  -1  -3   4   49.44    1.54
   1   3   4   47.89    1.91
   1   3   4   50.73    1.80
   1   3   4   52.74    2.00
  -1  -3   4   52.80    1.79
  -1  -3  -4   51.02    1.90
   1   3  -4   49.55    1.82
  -1  -3  -4   52.49    1.91
   1   3  -4   52.16    1.68
  -1  -3  -4   51.98    1.95
   1   3  -4   49.72    1.59
  -1  -3  -4   47.91    1.91
   2   4   4   68.85    2.89
  -2  -4   4   69.41    2.37
  -2  -4   4   70.08    2.57
  -2  -4   4   66.85    2.65
   2   4   4   67.61    2.94
  -2  -4   4   67.83    2.26
   2   4   4   69.15    2.57
   2   4   4   72.08    2.90
  -2  -4  -4   67.25    2.99
  -2  -4  -4   71.51    2.93
  -2  -4  -4   69.74    2.70
   2   4  -4   64.82    2.32
   2   4  -4   70.56    2.66
  -2  -4  -4   64.88    2.89
   2   4  -4   67.19    2.29
  -3  -5   4   22.59    2.48
   3   5   4   22.44    3.12
   3   5   4   26.56    3.59
   3   5   4   24.41    2.84
  -3  -5   4   23.26    3.06
  -3  -5   4   26.35    2.31
   3   5  -4   29.91    2.38
  -3  -5  -4   28.32    2.88
   3   5  -4   20.41    2.46
   3   5  -4   29.54    3.32
  -3  -5  -4   29.14    3.63
  -3  -5  -4   25.72    3.51
   4   6   4    9.16    2.71
   4   6  -4    9.47    2.50
  -4  -6  -4    4.72    2.64
   4   2   5   10.68    2.00
  -4  -2  -5   10.63    2.30
   4   2  -5    2.01    2.11
   4   2  -5    7.35    1.49
   3   1   5    3.33    1.12
   3   1   5    4.09    1.67
  -3  -1  -5    6.16    1.70
   3   1  -5    5.45    0.89
  -3  -1  -5    7.74    1.46
   3   1  -5    6.48    1.12
  -3  -1  -5    5.63    1.62
   2   0   5    0.65    0.82
   2   0   5    0.27    0.75
   2   0   5    1.54    0.67
  -2   0  -5    0.38    0.94
  -2   0  -5    0.54    0.94
  -2   0  -5    0.28    0.63
  -2   0  -5    1.62    0.89
   1  -1   5    1.23    0.57
   1  -1   5    2.32    0.59
   1  -1   5    2.02    0.62
   1  -1   5    1.51    0.65
  -1   1  -5    1.67    0.67
  -1   1  -5    0.83    0.69
  -1   1  -5    1.66    0.53
  -1   1  -5    2.11    0.63
   0   2   5   13.81    0.88
   0   2   5   13.14    0.93
   0  -2   5   14.51    0.95
   0   2   5   15.11    0.98
   0  -2   5   13.92    0.94
   0  -2   5   15.09    0.77
   0   2   5   13.41    0.85
   0  -2   5   13.80    0.86
   0  -2  -5   14.17    0.97
   0  -2  -5   15.56    1.01
   0   2  -5   13.71    1.03
   0   2  -5   13.40    0.83
   0   2  -5   14.21    1.00
   0   2  -5   15.57    0.84
  -1  -3   5   46.85    1.70
  -1  -3   5   47.81    1.61
  -1  -3   5   47.45    1.46
   1   3   5   46.03    1.78
   1   3   5   48.56    1.93
   1   3   5   47.52    1.94
  -1  -3   5   48.30    1.75
   1   3  -5   46.67    1.53
   1   3  -5   44.10    1.85
  -1  -3  -5   43.56    1.93
  -1  -3  -5   48.03    1.92
   1   3  -5   48.38    1.57
  -1  -3  -5   47.89    1.93
  -2  -4   5   16.19    1.29
   2   4   5   15.22    1.72
   2   4   5   16.07    1.67
  -2  -4   5   14.96    1.72
  -2  -4   5   14.74    1.46
   2   4   5   15.69    2.15
   2   4   5   17.17    1.74
   2   4  -5   13.24    1.40
   2   4  -5   17.53    1.37
  -2  -4  -5   17.28    1.93
  -2  -4  -5   16.32    1.87
  -2  -4  -5   14.04    1.62
  -2  -4  -5   14.76    1.64
   2   4  -5   16.58    1.53
  -3  -5   5   13.68    2.01
  -3  -5   5    7.78    2.05
   3   5   5   13.64    2.53
   3   5   5   12.12    2.95
   3   5   5   13.09    2.54
   3   5  -5   12.04    2.23
  -3  -5  -5   18.27    2.85
  -3  -5  -5   14.81    2.17
  -3  -5  -5   12.45    2.40
   3   5  -5   15.74    1.69
   3   5  -5   12.13    2.31
   4   2   6    5.65    1.97
  -4  -2  -6    5.81    2.29
   4   2  -6    2.35    1.39
   4   2  -6    1.69    1.88
   3   1   6   14.76    1.54
   3   1   6   15.68    1.94
   3   1   6   16.35    1.93
  -3  -1  -6   15.03    1.87
   3   1  -6   17.24    1.36
  -3  -1  -6   15.90    2.00
  -3  -1  -6   18.09    2.30
   2   0   6  166.99    4.42
   2   0   6  179.93    4.28
   2   0   6  182.43    4.40
   2   0   6  183.30    4.44
  -2   0  -6  184.11    4.47
  -2   0  -6  180.71    4.33
  -2   0  -6  187.92    4.52
  -2   0  -6  178.42    4.42
   1  -1   6   44.46    1.63
   1  -1   6   45.14    1.63
   1  -1   6   46.33    1.62
   1  -1   6   47.07    1.62
  -1   1  -6   46.17    1.72
  -1   1  -6   43.77    1.70
  -1   1  -6   45.51    1.62
  -1   1  -6   46.25    1.65
   0  -2   6   13.62    0.98
   0   2   6   12.95    0.89
   0  -2   6   13.68    0.79
   0   2   6   12.93    0.96
   0  -2   6   14.21    0.98
   0  -2   6   13.22    1.05
   0   2   6   15.12    0.89
   0   2   6   13.16    1.02
   0   2  -6   11.79    1.05
   0  -2  -6   11.43    1.00
   0  -2  -6   13.96    0.98
   0   2  -6   13.09    1.04
   0   2  -6   13.75    1.04
   0   2  -6   12.58    0.88
  -1  -3   6   29.78    1.44
   1   3   6   29.31    1.68
   1   3   6   26.33    1.47
  -1  -3   6   28.71    1.28
  -1  -3   6   29.87    1.11
  -1  -3   6   29.23    1.41
   1   3   6   28.33    1.67
   1   3   6   27.05    1.65
  -1  -3  -6   26.63    1.73
  -1  -3  -6   30.28    1.76
   1   3  -6   28.22    1.22
  -1  -3  -6   27.79    1.65
  -1  -3  -6   28.40    1.70
   1   3  -6   27.24    1.23
   2   4   6   16.54    1.79
   2   4   6   16.04    1.83
   2   4   6   15.20    1.71
  -2  -4   6   13.75    1.77
  -2  -4   6   14.83    1.27
  -2  -4   6   14.59    1.39
  -2  -4   6   13.13    1.41
  -2  -4  -6   13.52    1.61
  -2  -4  -6   14.38    1.87
  -2  -4  -6   20.19    2.11
   2   4  -6   15.91    1.62
   2   4  -6   12.41    1.45
  -2  -4  -6   15.05    2.81
   2   4  -6   14.69    1.33
   2   4  -6   15.31    1.85
   3   5   6   12.34    2.64
  -3  -5   6   12.71    2.09
   3   5   6   13.99    2.68
  -3  -5   6   12.23    2.17
   3   5   6   13.44    3.02
   3   5  -6   14.48    2.23
   3   5  -6   18.49    2.47
  -3  -5  -6   15.12    2.54
  -3  -5  -6   12.01    2.49
   3   5  -6   13.31    2.40
  -3  -5  -6   14.86    2.79
   4   2   7    9.25    2.09
   4   2  -7    9.91    2.03
  -4  -2  -7   11.64    2.69
   3   1   7   58.72    2.77
   3   1   7   55.44    3.19
  -3  -1  -7   59.20    3.27
  -3  -1  -7   55.46    3.31
  -3  -1  -7   59.92    3.13
   2   0   7  183.47    4.49
   2   0   7  185.98    4.59
   2   0   7  188.40    4.62
   2   0   7  188.79    4.64
  -2   0  -7  192.69    4.72
  -2   0  -7  184.94    4.56
  -2   0  -7  191.85    4.69
  -2   0  -7  182.26    4.60
   1  -1   7   17.41    1.19
   1  -1   7   17.84    1.28
   1  -1   7   17.80    1.22
   1  -1   7   18.94    1.25
  -1   1  -7   18.15    1.25
  -1   1  -7   17.60    1.25
  -1   1  -7   17.56    1.33
  -1   1  -7   17.38    1.36
   0  -2   7    3.02    0.65
   0   2   7    2.73    0.63
   0  -2   7    2.45    0.48
   0   2   7    2.87    0.58
   0  -2   7    2.36    0.65
   0  -2   7    2.63    0.59
   0   2   7    2.21    0.66
   0   2   7    2.24    0.51
   0   2  -7    1.79    0.74
   0   2  -7    3.21    0.68
   0   2  -7    3.47    0.58
   0  -2  -7    2.36    0.68
   0  -2  -7    1.62    0.68
   0   2  -7    3.17    0.61
  -1  -3   7    3.99    0.81
  -1  -3   7    4.18    0.79
   1   3   7    4.46    0.95
   1   3   7    4.45    0.83
  -1  -3   7    5.06    0.74
   1   3   7    4.31    0.95
   1   3   7    5.49    1.02
  -1  -3   7    4.32    0.51
  -1  -3  -7    5.08    1.05
   1   3  -7    4.81    0.69
  -1  -3  -7    5.44    1.07
  -1  -3  -7    4.48    1.01
   1   3  -7    3.95    0.64
  -1  -3  -7    2.95    0.92
  -2  -4   7    8.19    1.23
   2   4   7    6.69    1.24
   2   4   7    7.60    1.48
   2   4   7    4.58    1.50
  -2  -4   7    7.09    0.98
  -2  -4   7    7.64    0.85
   2   4   7    7.99    1.62
  -2  -4   7    6.46    1.26
  -2  -4  -7    4.93    1.43
   2   4  -7    3.99    1.19
  -2  -4  -7    6.80    1.62
  -2  -4  -7    5.32    1.50
   2   4  -7    6.46    1.40
  -2  -4  -7    6.60    1.42
   2   4  -7    5.83    1.01
  -3  -5   7   14.37    2.26
   3   5   7   13.93    2.85
   3   5   7   15.32    3.00
  -3  -5   7   15.29    2.27
   3   5   7   11.11    3.31
  -3  -5   7   14.43    2.09
  -3  -5  -7   15.45    2.74
  -3  -5  -7   13.24    2.63
  -3  -5  -7   17.68    3.16
   3   5  -7   12.09    2.19
   3   5  -7   14.43    2.30
   4   2   8    3.85    2.15
  -4  -2  -8    2.29    2.64
   3   1   8   17.94    2.10
   3   1   8   19.40    2.20
  -3  -1  -8   16.85    2.14
  -3  -1  -8   22.53    2.69
  -3  -1  -8   17.01    2.22
   2   0   8  122.47    3.45
   2   0   8  118.73    3.37
   2   0   8  117.62    3.52
   2   0   8  116.70    3.48
  -2   0  -8  126.74    3.63
  -2   0  -8  119.66    3.45
  -2   0  -8  120.20    3.61
  -2   0  -8  115.28    3.52
   1  -1   8   34.03    1.60
   1  -1   8   33.22    1.54
   1  -1   8   32.75    1.53
   1  -1   8   33.07    1.61
  -1   1  -8   35.53    1.70
  -1   1  -8   34.74    1.71
  -1   1  -8   36.04    1.65
  -1   1  -8   33.93    1.63
   0  -2   8   90.09    2.24
   0  -2   8   87.67    2.36
   0  -2   8   89.61    2.42
   0   2   8   88.77    2.30
   0   2   8   87.67    2.39
   0  -2   8   89.28    2.36
   0   2   8   87.93    2.36
   0   2  -8   89.90    2.31
   0   2  -8   90.26    2.48
   0   2  -8   89.41    2.33
   0  -2  -8   86.85    2.44
   0  -2  -8   83.35    2.53
   0   2  -8   87.62    2.43
  -1  -3   8   30.62    1.49
   1   3   8   30.69    1.80
   1   3   8   30.50    1.63
  -1  -3   8   28.61    1.11
   1   3   8   29.84    1.76
  -1  -3   8   29.77    1.30
   1   3   8   29.59    1.82
  -1  -3   8   29.27    1.50
  -1  -3  -8   26.98    1.84
   1   3  -8   28.74    1.28
  -1  -3  -8   30.90    1.91
  -1  -3  -8   30.09    1.85
  -1  -3  -8   29.43    1.85
   1   3  -8   30.17    1.91
  -2  -4   8   18.34    1.87
   2   4   8   17.24    2.31
   2   4   8   15.94    1.97
  -2  -4   8   14.05    1.33
   2   4   8   20.40    2.08
   2   4   8   17.58    2.19
  -2  -4   8   20.11    1.88
  -2  -4   8   19.36    1.49
   2   4  -8   21.07    1.45
   2   4  -8   18.99    1.94
   2   4  -8   20.35    2.15
  -2  -4  -8   21.52    2.40
  -2  -4  -8   18.42    2.19
  -2  -4  -8   20.12    2.69
  -2  -4  -8   22.26    2.51
   2   4  -8   16.61    1.61
  -3  -5   8   11.92    1.51
  -3  -5   8   10.32    2.19
   3   5   8   15.95    2.50
   3   5   8   15.69    3.36
   3   5  -8   16.47    2.38
  -3  -5  -8   12.61    2.67
   3   5  -8   12.29    2.29
  -3  -5  -8    9.18    3.19
   4   2   9    4.52    2.19
  -4  -2  -9    7.20    2.83
   3   1   9    1.72    1.80
   3   1   9    2.94    1.86
   3   1   9    1.96    1.40
  -3  -1  -9    1.59    1.81
  -3  -1  -9    1.78    1.91
  -3  -1  -9    4.15    1.74
   2   0   9   23.44    1.92
   2   0   9   21.57    1.70
   2   0   9   23.26    2.05
   2   0   9   23.39    1.87
  -2   0  -9   20.02    1.86
  -2   0  -9   22.90    2.14
  -2   0  -9   23.16    2.06
  -2   0  -9   22.98    2.05
   1  -1   9   51.62    1.97
   1  -1   9   49.93    1.90
   1  -1   9   50.40    1.84
  -1   1  -9   48.08    1.98
  -1   1  -9   49.37    1.92
  -1   1  -9   52.97    2.08
   0   2   9   95.85    2.55
   0  -2   9   90.99    2.35
   0   2   9   91.25    2.34
   0   2   9   93.01    2.49
   0  -2   9   90.00    2.49
   0  -2   9   94.17    2.57
   0   2   9   90.26    2.40
   0  -2   9   89.40    2.46
   0  -2  -9   90.87    2.45
   0   2  -9   90.54    2.58
   0   2  -9   91.73    2.57
   0  -2  -9   86.39    2.53
   0   2  -9   91.46    2.47
   0   2  -9   92.43    2.43
   1   3   9   33.16    2.00
   1   3   9   34.43    1.95
   1   3   9   34.35    1.76
   1   3   9   33.83    1.96
  -1  -3   9   34.38    1.60
  -1  -3   9   33.73    1.23
  -1  -3   9   35.98    1.46
  -1  -3   9   34.62    1.64
  -1  -3  -9   35.12    2.06
  -1  -3  -9   37.22    2.09
  -1  -3  -9   36.95    2.03
   1   3  -9   34.11    1.79
   1   3  -9   33.08    1.38
  -1  -3  -9   30.89    3.22
   2   4   9    6.64    1.83
   2   4   9   11.14    1.83
   2   4   9    9.33    1.68
  -2  -4   9    7.80    1.03
  -2  -4   9    8.76    1.34
  -2  -4   9    6.44    0.86
   2   4   9    8.08    1.28
  -2  -4   9    9.26    1.32
   2   4  -9    6.92    1.10
   2   4  -9    7.34    1.38
   2   4  -9    8.98    1.02
   2   4  -9    8.05    1.48
  -2  -4  -9    6.59    1.70
  -2  -4  -9   10.13    1.82
  -2  -4  -9    8.79    1.52
   3   5   9   15.54    3.46
  -3  -5   9   12.81    2.13
  -3  -5   9   10.80    1.43
   3   5   9   15.87    2.51
  -3  -5  -9    5.43    4.67
   3   5  -9   13.23    2.43
  -3  -5  -9   10.30    2.28
   3   5  -9   15.72    2.02
  -3  -5  -9   16.61    2.93
   4   2  10    4.02    2.24
  -4  -2 -10    5.81    2.96
   4   2 -10    9.35    1.40
   3   1  10    5.44    2.01
   3   1  10    5.66    2.06
   3   1  10    8.45    1.68
  -3  -1 -10    7.96    2.20
  -3  -1 -10    7.42    2.08
  -3  -1 -10    6.77    1.90
   2   0  10   11.41    1.32
   2   0  10   10.40    1.46
   2   0  10   10.34    1.40
   2   0  10   10.82    1.49
  -2   0 -10    7.30    1.45
  -2   0 -10    9.05    1.50
  -2   0 -10   10.93    1.54
  -2   0 -10    8.72    1.53
   1  -1  10   52.10    1.94
   1  -1  10   51.08    2.07
   1  -1  10   48.42    1.96
   1  -1  10   51.78    2.02
  -1   1 -10   52.20    2.16
  -1   1 -10   50.69    2.03
  -1   1 -10   51.90    2.13
  -1   1 -10   51.38    2.13
   0   2  10  111.95    2.85
   0   2  10  111.18    2.88
   0   2  10  112.60    2.75
   0  -2  10  108.18    2.95
   0  -2  10  108.42    2.87
   0  -2  10  114.68    2.76
   0   2  10  113.20    2.93
   0  -2  10  109.40    2.92
   0   2 -10  108.88    2.90
   0   2 -10  114.22    3.04
   0  -2 -10  113.20    2.90
   0   2 -10  113.85    3.05
   0  -2 -10  106.26    2.96
   0   2 -10  110.56    2.89
  -1  -3  10   21.19    1.28
   1   3  10   21.63    1.61
  -1  -3  10   21.72    1.47
   1   3  10   20.10    1.72
  -1  -3  10   21.86    1.02
  -1  -3  10   22.08    1.50
   1   3  10   20.63    1.89
   1   3  10   21.67    1.81
   1   3 -10   20.89    1.26
  -1  -3 -10   24.45    1.97
   1   3 -10   22.20    1.22
  -1  -3 -10   19.84    1.94
   1   3 -10   23.02    1.65
  -1  -3 -10   21.62    1.83
  -1  -3 -10   24.40    2.01
  -2  -4  10    5.46    1.27
  -2  -4  10    4.37    1.26
   2   4  10    6.23    1.72
   2   4  10    4.77    1.48
   2   4  10    6.69    1.74
   2   4  10    5.12    1.32
  -2  -4  10    4.69    0.81
  -2  -4  10    4.95    0.91
  -2  -4 -10    4.09    2.04
   2   4 -10    4.73    1.41
   2   4 -10    4.87    0.93
   2   4 -10    2.24    1.02
   2   4 -10    6.49    1.48
  -2  -4 -10    5.86    1.72
  -2  -4 -10    4.24    1.74
  -2  -4 -10    5.61    1.56
  -3  -5  10   12.95    1.59
  -3  -5  10   12.11    2.00
   3   5  10   18.61    2.77
   3   5  10   16.34    3.80
   3   5 -10   15.94    2.84
  -3  -5 -10   11.63    2.45
  -3  -5 -10   16.96    2.93
   3   5 -10   13.18    1.50
   4   2  11    2.40    2.38
  -4  -2 -11    3.87    2.88
   4   2 -11    3.62    1.45
   3   1  11   28.10    2.68
   3   1  11   26.27    2.69
   3   1  11   27.73    3.41
  -3  -1 -11   29.45    3.25
  -3  -1 -11   26.63    3.18
  -3  -1 -11   19.65    2.60
   2   0  11    8.77    1.47
   2   0  11    7.41    1.25
   2   0  11    9.92    1.49
  -2   0 -11    9.32    1.70
  -2   0 -11   13.27    2.79
  -2   0 -11    7.97    1.63
  -2   0 -11    8.24    1.51
   1  -1  11   14.14    1.55
   1  -1  11   14.02    1.36
   1  -1  11   14.01    1.37
   1  -1  11   15.36    1.48
  -1   1 -11   11.66    1.55
  -1   1 -11   14.01    1.54
  -1   1 -11   12.79    1.36
  -1   1 -11   13.49    1.66
   1  -1 -11   12.72    0.99
   1  -1 -11   16.56    1.50
   0  -2  11    0.85    0.75
   0  -2  11    1.69    0.51
   0   2  11    2.22    0.55
   0   2  11    1.29    0.78
   0   2  11    1.66    0.71
   0  -2  11    1.58    0.71
   0  -2  11    2.43    0.82
   0   2  11    1.03    0.79
   0   2 -11    2.13    0.93
   0   2 -11    2.46    0.73
   0  -2 -11    1.88    0.81
   0   2 -11    1.70    0.71
   0  -2 -11    2.64    0.77
   0   2 -11    2.83    0.99
   1   3  11   43.95    2.32
   1   3  11   41.77    2.24
  -1  -3  11   40.91    1.89
  -1  -3  11   44.38    1.72
   1   3  11   43.01    2.24
   1   3  11   43.96    2.14
  -1  -3  11   42.99    1.87
  -1  -3 -11   42.86    2.40
   1   3 -11   42.04    1.69
   1   3 -11   44.97    2.03
   1   3 -11   42.67    1.63
  -1  -3 -11   39.24    2.20
  -1  -3 -11   44.87    2.38
  -1  -3 -11   40.68    2.34
   2   4  11   23.41    2.22
   2   4  11   21.83    2.48
   2   4  11   21.17    2.37
  -2  -4  11   22.01    2.01
  -2  -4  11   17.24    2.06
   2   4  11   21.92    2.95
  -2  -4  11   21.25    1.55
  -2  -4 -11   18.85    2.21
  -2  -4 -11   23.75    3.22
  -2  -4 -11   23.96    2.34
   2   4 -11   17.67    2.38
   2   4 -11   20.58    1.56
   2   4 -11   22.29    2.29
  -2  -4 -11   22.30    2.67
   3   5  11    2.33    2.43
  -3  -5  11    0.58    1.32
  -3  -5  11    5.93    1.93
   3   5 -11    1.80    1.30
  -3  -5 -11    3.79    2.51
  -3  -5 -11    0.12    2.38
   4   2  12    0.35    2.53
  -4  -2 -12    5.64    3.14
   3   1  12    2.96    2.17
   3   1  12    6.26    1.69
   3   1  12    4.99    2.24
  -3  -1 -12    5.59    2.18
  -3  -1 -12    2.84    2.13
  -3  -1 -12    1.62    2.36
   2   0  12    1.79    1.17
   2   0  12    2.25    1.28
   2   0  12    2.69    1.28
   2   0  12    2.19    1.37
  -2   0 -12    2.06    1.55
  -2   0 -12    1.31    1.46
  -2   0 -12    1.67    1.44
  -2   0 -12    0.90    1.45
   1  -1  12   18.18    1.61
   1  -1  12   18.43    1.84
   1  -1  12   17.31    1.73
   1  -1  12   18.41    1.52
  -1   1 -12   18.31    1.94
   1  -1 -12   16.30    1.15
   1  -1 -12   19.03    1.78
  -1   1 -12   21.77    1.92
  -1   1 -12   21.58    2.91
  -1   1 -12   17.41    1.73
   0   2  12    0.18    0.52
   0  -2  12   -0.82    0.81
   0  -2  12   -0.17    0.86
   0   2  12   -0.83    0.74
   0  -2  12   -0.59    0.68
   0   2  12    0.66    0.82
   0   2  12   -0.07    0.71
   0  -2 -12    0.68    0.71
   0   2 -12    0.51    1.12
   0  -2 -12   -1.21    0.80
   0   2 -12   -0.65    0.75
   0   2 -12   -0.45    0.92
   0   2 -12   -0.07    0.77
   1   3  12   19.11    1.94
   1   3  12   17.49    1.91
  -1  -3  12   17.44    1.50
   1   3  12   22.08    2.10
  -1  -3  12   18.97    1.59
  -1  -3  12   19.14    1.31
   1   3  12   20.58    2.07
  -1  -3 -12   16.63    1.91
  -1  -3 -12   19.93    2.28
  -1  -3 -12   22.68    2.06
  -1  -3 -12   17.44    2.13
   1   3 -12   16.25    1.85
   1   3 -12   17.83    1.31
   1   3 -12   15.07    1.25
  -2  -4  12   43.16    2.41
   2   4  12   45.46    3.49
   2   4  12   43.27    2.90
  -2  -4  12   42.99    2.47
  -2  -4  12   45.74    2.07
   2   4  12   40.57    3.39
   2   4  12   45.60    2.76
  -2  -4 -12   43.69    3.55
   2   4 -12   46.75    2.90
  -2  -4 -12   43.68    3.10
   2   4 -12   43.96    2.79
  -2  -4 -12   42.81    3.45
   2   4 -12   41.35    1.94
  -2  -4 -12   44.94    3.59
   3   5  12    3.92    3.82
  -3  -5  12    2.42    1.36
   3   5  12    6.34    2.67
  -3  -5 -12    7.38    2.82
  -3  -5 -12    3.84    2.64
   3   5 -12    3.11    1.44
   4   2  13    9.70    2.66
  -4  -2 -13   10.19    3.57
   3   1  13   24.87    2.80
   3   1  13   25.88    3.29
  -3  -1 -13   24.68    3.19
  -3  -1 -13   32.87    4.05
  -3  -1 -13   18.07    2.99
   2   0  13   23.68    2.19
   2   0  13   22.10    2.77
   2   0  13   25.67    2.57
   2   0  13   21.78    2.32
  -2   0 -13   28.20    2.75
  -2   0 -13   17.68    2.41
  -2   0 -13   21.78    2.64
  -2   0 -13   25.10    2.62
  -1   1  13   30.48    1.37
   1  -1  13   31.33    2.06
  -1   1  13   32.37    1.37
   1  -1  13   34.76    1.92
   1  -1  13   35.00    1.96
   1  -1  13   33.58    1.82
   1  -1 -13   31.69    1.46
  -1   1 -13   32.30    2.05
   1  -1 -13   37.72    2.55
  -1   1 -13   34.39    2.09
  -1   1 -13   34.76    2.35
  -1   1 -13   35.00    2.29
   0   2  13    7.50    1.03
   0   2  13   10.14    1.31
   0  -2  13    9.55    1.15
   0  -2  13    7.43    1.00
   0  -2  13    8.91    1.06
   0   2  13    9.28    0.96
   0  -2  13    7.99    1.15
   0   2  13    8.75    1.12
   0   2 -13    8.12    1.08
   0   2 -13    7.58    1.07
   0  -2 -13    7.62    1.00
   0   2 -13    7.66    1.20
   0   2 -13    9.17    1.34
   0  -2 -13    6.43    1.10
   0  -2 -13    7.13    1.42
  -1  -3  13   16.00    1.36
   1   3  13   15.06    1.65
  -1  -3  13   18.06    1.67
   1   3  13   15.28    1.62
  -1  -3  13   16.35    1.34
   1   3  13   15.56    1.90
   1   3  13   15.69    1.82
  -1  -3 -13   16.16    1.83
   1   3 -13   16.11    1.99
  -1  -3 -13   15.96    2.00
  -1  -3 -13   14.07    1.67
   1   3 -13   14.03    1.28
  -1  -3 -13   18.06    1.92
   1   3 -13   14.98    1.29
  -2  -4  13   15.93    2.03
   2   4  13   14.52    2.02
  -2  -4  13   16.55    1.73
  -2  -4  13   16.11    2.06
   2   4  13   14.43    2.29
   2   4  13   13.90    1.88
   2   4  13   16.14    2.28
  -2  -4 -13   20.27    2.64
  -2  -4 -13   16.47    2.20
  -2  -4 -13   15.24    2.25
   2   4 -13   15.62    1.84
   2   4 -13   15.89    1.96
  -2  -4 -13   15.71    2.54
   3   5  13    5.76    2.83
   3   5  13    5.87    4.30
  -3  -5  13    8.30    1.47
  -3  -5 -13    3.06    4.38
   3   5 -13    7.58    1.50
  -3  -5 -13    8.90    3.07
   4   2  14    3.78    2.64
  -4  -2 -14    8.28    3.57
   3   1  14    2.69    1.83
   3   1  14    2.39    2.21
   3   1  14    3.18    2.31
  -3  -1 -14    1.95    3.99
  -3  -1 -14    4.53    4.40
  -3  -1 -14   -0.33    2.33
   2   0  14    6.79    1.83
   2   0  14    5.21    1.53
   2   0  14    5.37    1.62
   2   0  14    5.70    1.49
  -2   0 -14    5.02    1.92
  -2   0 -14    3.75    1.80
  -2   0 -14    3.51    1.73
  -2   0 -14    1.79    1.82
   1  -1  14    2.50    1.28
   1  -1  14    2.92    1.00
   1  -1  14    4.57    1.15
  -1   1  14    3.87    0.74
   1  -1  14    2.82    0.94
  -1   1  14    1.48    0.71
   1  -1 -14    4.48    0.84
  -1   1 -14    2.22    1.23
   1  -1 -14    3.38    1.54
  -1   1 -14    4.52    1.42
  -1   1 -14    3.29    1.30
  -1   1 -14    3.55    1.52
   0   2  14    4.13    0.69
   0   2  14    1.61    0.92
   0   2  14    4.16    0.92
   0  -2  14    4.72    0.95
   0  -2  14    4.25    1.10
   0  -2  14    2.77    0.71
   0  -2  14    2.99    1.05
   0   2  14    3.22    1.06
   0  -2 -14    4.23    0.97
   0  -2 -14    2.13    1.02
   0   2 -14    3.07    0.96
   0   2 -14    4.27    1.32
   0   2 -14    3.52    1.07
   0  -2 -14    3.08    1.40
   0   2 -14    3.77    1.21
   1   3  14    0.29    1.25
  -1  -3  14   -0.74    0.92
  -1  -3  14    1.45    0.83
   1   3  14   -0.31    1.27
   1   3  14    0.48    1.32
   1   3  14    0.44    1.88
  -1  -3  14    0.81    1.03
   1   3 -14   -1.90    1.24
  -1  -3 -14    0.80    1.53
   1   3 -14    1.20    0.87
  -1  -3 -14    0.18    1.48
   1   3 -14    0.43    0.89
  -1  -3 -14   -0.98    1.32
  -1  -3 -14    1.62    1.61
   2   4  14   15.04    1.96
   2   4  14   16.05    2.10
  -2  -4  14   13.79    1.64
   2   4  14   12.65    2.30
  -2  -4  14   14.79    1.68
   2   4  14   13.37    2.40
  -2  -4  14   14.85    1.74
   2   4 -14   16.31    2.00
   2   4 -14   16.55    1.79
  -2  -4 -14   10.52    2.46
  -2  -4 -14   16.24    2.63
  -2  -4 -14   13.35    2.22
  -2  -4 -14   15.47    2.44
   2   4 -14   16.76    2.02
  -3  -5  14    1.69    1.41
   3   5  14   -2.08    2.62
   3   5 -14   -3.67    1.42
  -3  -5 -14    4.16    3.10
   3   1  15    6.27    2.40
   3   1  15    4.69    3.06
   3   1  15    4.35    2.63
  -3  -1 -15    3.06    4.20
  -3  -1 -15    4.20    2.43
  -3  -1 -15    2.81    3.51
   2   0  15    1.34    1.51
   2   0  15    2.22    1.64
   2   0  15    1.57    1.40
   2   0  15    3.08    1.88
  -2   0 -15    2.79    2.01
  -2   0 -15    1.34    1.91
  -2   0 -15    2.43    1.85
  -2   0 -15   -1.03    1.83
   1  -1  15   24.79    2.17
  -1   1  15   21.75    1.39
   1  -1  15   24.36    2.01
   1  -1  15   23.36    1.95
  -1   1  15   24.61    1.41
   1  -1  15   24.55    1.89
  -1   1 -15   25.71    3.49
   1  -1 -15   29.50    2.41
   1  -1 -15   26.21    1.62
  -1   1 -15   28.28    2.32
  -1   1 -15   23.94    2.21
  -1   1 -15   26.18    2.51
   0   2  15   17.13    1.78
   0  -2  15   17.73    1.89
   0  -2  15   17.03    1.34
   0  -2  15   17.68    1.84
   0   2  15   20.13    1.66
   0   2  15   17.43    1.25
   0  -2  15   19.01    1.53
   0   2  15   17.60    1.65
   0   2 -15   20.53    2.10
   0   2 -15   18.77    2.10
   0  -2 -15   22.33    2.52
   0  -2 -15   16.41    1.60
   0   2 -15   15.55    1.68
   0   2 -15   17.77    1.73
   0  -2 -15   18.23    2.12
   0  -2 -15   16.01    1.80
   1   3  15   18.10    2.36
  -1  -3  15   14.79    1.15
  -1  -3  15   18.91    1.97
  -1  -3  15   17.72    1.57
  -1  -3  15   19.24    1.84
   1   3  15   18.22    2.46
   1   3  15   18.73    1.90
   1   3 -15   17.75    2.31
  -1  -3 -15   19.72    2.33
  -1  -3 -15   14.39    2.03
   1   3 -15   18.62    1.52
  -1  -3 -15   17.23    2.01
   1   3 -15   20.57    1.59
  -1  -3 -15   18.04    2.37
  -2  -4  15    2.36    1.42
  -2  -4  15    4.66    1.71
   2   4  15    0.08    2.26
   2   4  15    5.55    1.80
   2   4  15    2.62    1.73
   2   4  15   -3.03    2.39
  -2  -4  15    5.23    1.17
  -2  -4 -15    3.35    2.22
   2   4 -15    3.90    1.19
  -2  -4 -15    4.56    2.93
  -2  -4 -15    0.96    1.99
   2   4 -15    3.14    1.89
  -2  -4 -15    3.26    2.49
   2   4 -15    4.84    1.85
   3   5  15   -3.29    2.57
  -3  -5  15   -1.63    1.59
  -3  -5 -15    2.23    3.25
   3   5 -15    1.11    1.62
   3   1  16    5.85    2.40
  -3  -1 -16   -0.65    3.00
  -3  -1 -16    2.63    2.62
   2   0  16    8.18    1.82
   2   0  16    9.53    1.75
   2   0  16   10.58    2.36
   2   0  16    7.80    1.94
  -2   0 -16    2.81    2.01
  -2   0 -16    6.12    2.21
  -2   0 -16    6.07    2.29
  -2   0 -16    7.78    2.22
   1  -1  16    5.59    1.28
   1  -1  16    6.00    1.55
  -1   1  16    5.89    0.94
   1  -1  16    3.84    1.23
  -1   1  16    2.78    0.91
   1  -1  16    4.30    1.28
  -1   1 -16    5.58    2.24
   1  -1 -16    6.07    1.08
  -1   1 -16    4.08    1.50
   1  -1 -16    4.38    1.65
  -1   1 -16    5.57    1.56
   1  -1 -16    2.57    0.75
  -1   1 -16    6.12    1.64
   0  -2  16    2.74    1.22
   0   2  16    3.74    0.80
   0  -2  16    3.63    1.20
   0   2  16    4.22    1.12
   0  -2  16    2.99    0.96
   0   2  16    4.39    1.09
   0  -2  16    3.12    0.85
   0   2  16    4.47    1.21
   0   2 -16    5.35    1.45
   0  -2 -16    2.43    1.32
   0   2 -16    3.70    1.51
   0  -2 -16    3.37    1.54
   0  -2 -16    1.09    1.29
   0   2 -16    2.38    1.19
   0  -2 -16    2.46    1.06
   0   2 -16    3.00    1.26
  -1  -3  16    7.97    1.14
   1   3  16    4.45    2.40
  -1  -3  16    7.73    1.45
  -1  -3  16    4.94    0.74
  -1  -3  16    7.42    1.33
   1   3  16    6.47    1.65
   1   3  16    4.67    1.67
   1   3  16    8.05    1.68
  -1  -3 -16    6.27    1.81
  -1  -3 -16    5.93    1.79
   1   3 -16    6.85    1.14
   1   3 -16    7.22    1.71
   1   3 -16    6.31    1.22
  -1  -3 -16    7.30    1.97
  -1  -3 -16    7.55    2.21
  -2  -4  16   17.70    1.93
   2   4  16   18.33    2.86
  -2  -4  16   19.78    2.87
   2   4  16   25.69    3.19
   2   4  16   16.87    2.16
   2   4  16   13.72    2.65
  -2  -4 -16   16.48    2.66
  -2  -4 -16   23.10    2.83
  -2  -4 -16   18.58    3.30
   2   4 -16   19.17    2.35
   2   4 -16   20.00    2.25
   2   4 -16   18.68    1.95
  -2  -4 -16   17.65    3.06
   3   5  16    8.24    2.82
  -3  -5  16    7.65    1.85
  -3  -5 -16    9.26    3.47
   3   5 -16    6.53    1.93
   3   1  17    6.33    2.79
   3   1  17    9.74    2.90
  -3  -1 -17    7.38    3.24
  -3  -1 -17    8.87    3.13
   2   0  17   19.96    2.24
   2   0  17   21.64    2.71
   2   0  17   19.64    2.29
   2   0  17   21.26    2.71
  -2   0 -17   22.69    2.77
  -2   0 -17   18.67    2.70
  -2   0 -17   14.09    2.59
  -2   0 -17   13.67    2.39
  -1   1  17   32.96    1.83
  -1   1  17   34.60    1.82
   1  -1  17   37.64    3.25
   1  -1  17   36.89    2.31
   1  -1  17   36.35    2.36
   1  -1  17   40.21    2.48
  -1   1 -17   37.11    2.84
  -1   1 -17   36.21    3.16
   1  -1 -17   38.45    2.38
  -1   1 -17   40.02    2.85
   1  -1 -17   33.04    2.03
   1  -1 -17   39.34    3.11
  -1   1 -17   43.38    2.87
   0   2  17   14.42    1.78
   0  -2  17   14.67    2.02
   0  -2  17   13.96    1.48
   0  -2  17   14.64    1.77
   0   2  17   15.62    1.88
   0   2  17   16.06    1.61
   0  -2  17   15.75    1.61
   0   2  17   14.08    1.36
   0   2 -17   13.64    1.65
   0   2 -17   18.15    1.92
   0   2 -17   13.49    1.56
   0  -2 -17   13.74    1.93
   0  -2 -17   11.66    1.66
   0  -2 -17   14.09    1.76
   0  -2 -17   14.50    1.85
   0   2 -17   15.72    1.97
   1   3  17   14.98    2.03
   1   3  17   18.48    2.14
  -1  -3  17   14.58    1.58
  -1  -3  17   14.13    1.77
  -1  -3  17   15.02    1.71
   1   3  17   15.09    2.06
   1   3 -17   13.62    1.56
   1   3 -17   16.87    2.00
  -1  -3 -17   14.78    2.30
  -1  -3 -17   14.45    2.14
  -1  -3 -17   20.66    2.78
  -1  -3 -17   13.52    2.23
   2   4  17    7.44    2.10
   2   4  17    8.45    2.92
  -2  -4  17    8.64    1.46
   2   4  17   13.72    2.50
  -2  -4  17    9.92    1.95
   2   4  17    8.46    2.86
   2   4 -17    6.56    1.82
  -2  -4 -17    6.10    3.02
  -2  -4 -17    7.61    2.61
  -2  -4 -17    8.00    3.26
   2   4 -17    6.93    3.01
  -2  -4 -17   15.25    2.68
   2   4 -17   10.04    2.24
  -3  -5  17    5.31    1.74
   3   5  17    0.58    2.83
   3   5 -17    6.95    1.98
  -3  -5 -17    2.47    3.67
   3   1  18    2.51    2.44
  -3  -1 -18    3.57    3.28
   2   0  18    2.50    1.87
   2   0  18    1.29    1.76
   2   0  18    3.02    2.41
   2   0  18   -0.23    1.93
  -2   0 -18    0.58    2.66
  -2   0 -18    5.37    2.48
  -2   0 -18   -3.89    2.13
  -2   0 -18    0.23    2.49
  -1   1  18   14.36    1.84
  -1   1  18   12.30    1.38
  -1   1  18   13.19    1.24
   1  -1  18   12.74    1.60
   1  -1  18   13.32    1.73
   1  -1  18   11.40    1.52
   1  -1 -18   13.16    1.45
  -1   1 -18   13.98    2.21
  -1   1 -18   11.12    2.05
   1  -1 -18   13.15    2.28
   1  -1 -18    9.60    1.78
  -1   1 -18   15.37    2.19
  -1   1 -18    9.01    1.89
   0   2  18   60.23    2.70
   0   2  18   59.31    2.69
   0  -2  18   59.30    2.89
   0  -2  18   57.69    2.82
   0   2  18   60.50    2.65
   0  -2  18   59.43    2.61
   0   2  18   54.56    2.19
   0  -2  18   55.39    2.28
   0   2 -18   56.36    2.80
   0  -2 -18   48.03    2.59
   0   2 -18   55.09    2.81
   0   2 -18   59.35    3.19
   0  -2 -18   49.24    2.90
   0   2 -18   61.65    3.18
   0  -2 -18   55.86    3.28
   1   3  18   14.89    2.57
   1   3  18   12.45    1.93
  -1  -3  18   10.74    1.71
   1   3  18   11.42    2.04
  -1  -3  18   13.35    2.06
   1   3  18   14.67    2.23
  -1  -3  18   14.70    1.66
  -1  -3 -18   10.08    2.35
   1   3 -18   14.78    2.05
  -1  -3 -18   13.76    2.32
  -1  -3 -18   15.96    2.67
   1   3 -18   15.45    1.90
  -1  -3 -18   10.09    2.29
   2   4  18   10.59    2.14
  -2  -4  18    9.53    1.45
   2   4  18    6.42    2.94
  -2  -4  18    6.74    1.65
  -2  -4  18    9.99    2.22
   2   4  18   10.25    2.71
  -2  -4 -18    6.16    3.52
  -2  -4 -18   15.65    2.82
  -2  -4 -18    7.48    3.34
  -2  -4 -18    8.14    2.79
   2   4 -18    6.48    2.33
   2   4 -18    9.37    1.58
   3   5  18    5.79    3.20
  -3  -5  18    2.86    1.89
  -3  -5 -18    7.58    4.37
   3   5 -18    9.01    2.12
   3   1  19    2.53    2.48
  -3  -1 -19    2.84    3.51
   2   0  19    6.61    2.27
   2   0  19    8.51    2.08
   2   0  19   13.88    2.99
   2   0  19    9.06    2.25
  -2   0 -19    5.52    2.76
  -2   0 -19   13.14    2.77
  -2   0 -19   10.21    2.90
  -2   0 -19    1.27    2.70
   2   0 -19    5.65    1.27
   1  -1  19   42.65    2.87
   1  -1  19   39.33    2.78
   1  -1  19   42.64    2.70
  -1   1  19   38.40    2.09
  -1   1 -19   34.94    3.39
   1  -1 -19   42.16    3.83
  -1   1 -19   44.93    3.57
   1  -1 -19   43.51    3.40
  -1   1 -19   43.06    3.30
  -1   1 -19   46.38    3.42
   0   2  19   99.32    3.51
   0  -2  19  101.79    3.50
   0  -2  19   97.33    3.59
   0   2  19   99.74    3.54
   0   2  19  102.08    3.48
   0  -2  19   91.07    3.08
   0  -2  19  100.45    3.67
   0  -2 -19   97.12    3.99
   0  -2 -19  107.02    4.08
   0  -2 -19   94.43    3.83
   0   2 -19   91.30    3.62
   0   2 -19  101.62    4.02
   0   2 -19  100.65    3.71
   0   2 -19  104.86    4.07
  -1  -3  19   38.04    2.36
  -1  -3  19   39.23    2.94
  -1  -3  19   34.69    2.67
   1   3  19   42.11    3.32
   1   3  19   41.15    3.24
   1   3  19   37.49    3.49
  -1  -3 -19   35.86    3.89
  -1  -3 -19   39.90    3.60
  -1  -3 -19   40.82    4.68
   1   3 -19   38.54    2.45
   1   3 -19   41.27    3.28
  -1  -3 -19   46.91    5.05
   2   4  19    2.83    2.18
   2   4  19    3.76    3.17
   2   4  19    4.73    2.67
  -2  -4  19    2.99    1.53
  -2  -4  19   -2.29    1.57
  -2  -4 -19    1.45    2.91
   2   4 -19    0.10    1.56
  -2  -4 -19    5.88    2.70
  -2  -4 -19    1.26    3.65
   3   1  20   10.46    2.96
  -3  -1 -20    4.61    3.78
   2   0  20   -0.97    2.04
   2   0  20   -1.53    2.15
   2   0  20   -1.53    2.36
   2   0  20   -0.90    2.78
  -2   0 -20   -5.99    2.53
  -2   0 -20   -0.32    2.97
   2   0 -20   -1.97    1.31
  -2   0 -20    6.38    2.96
  -2   0 -20    0.05    2.98
   1  -1  20    8.86    2.15
   1  -1  20    8.46    1.79
  -1   1  20   15.19    1.99
  -1   1  20   13.16    1.60
   1  -1  20   10.06    1.86
   1  -1  20   11.70    1.94
  -1   1  20   12.48    1.39
  -1   1 -20   13.57    2.33
  -1   1 -20    8.74    2.47
   1  -1 -20   11.57    1.60
  -1   1 -20   12.96    2.59
   1  -1 -20   10.94    2.63
  -1   1 -20   12.18    2.19
   0   2  20   12.88    1.77
   0   2  20   13.27    1.90
   0   2  20   14.93    1.82
   0  -2  20   11.07    1.83
   0  -2  20   12.31    1.98
   0  -2  20   16.43    2.17
   0   2 -20   11.31    2.25
   0  -2 -20    9.44    2.11
   0   2 -20   13.74    2.06
   0  -2 -20   12.04    2.16
   0  -2 -20   12.23    2.20
   0   2 -20   14.69    2.28
   1   3  20    4.06    2.00
  -1  -3  20    4.15    1.62
  -1  -3  20    4.94    1.85
  -1  -3  20    1.83    1.36
   1   3  20    2.72    2.09
   1   3  20    3.09    2.30
   1   3 -20    7.51    2.13
  -1  -3 -20    0.98    2.08
  -1  -3 -20    7.62    3.42
   1   3 -20    3.27    1.60
  -1  -3 -20    6.22    2.86
   2   4  20    1.70    2.80
  -2  -4  20   -0.15    1.48
   2   4  20    3.25    2.31
  -2  -4 -20    8.65    2.98
   2   4 -20   -1.87    1.68
  -2  -4 -20    3.46    3.26
   3   1  21    8.80    3.11
  -3  -1 -21    9.77    4.30
   2   0  21    1.57    3.16
   2   0  21    3.79    3.11
   2   0  21    1.58    2.20
   2   0  21    2.26    2.36
  -2   0 -21    2.51    3.38
  -2   0 -21    0.37    3.04
  -2   0 -21    1.60    3.38
  -2   0 -21   -6.09    2.98
   2   0 -21    1.58    1.53
   2   0 -21    1.11    1.56
   1  -1  21    2.05    2.10
   1  -1  21   -0.88    1.77
  -1   1  21    1.39    1.22
   1  -1  21    3.69    1.76
  -1   1  21    3.16    1.42
  -1   1 -21    3.25    2.46
   1  -1 -21    2.85    2.09
  -1   1 -21    0.69    2.73
  -1   1 -21    3.58    2.13
   1  -1 -21    0.53    2.45
   1  -1 -21    2.26    1.54
  -1   1 -21    4.17    2.36
   0  -2  21   36.96    3.32
   0   2  21   35.44    2.82
   0  -2  21   28.75    2.85
   0   2  21   36.05    2.94
   0  -2  21   35.31    3.07
   0   2  21   37.81    2.92
   0  -2 -21   31.62    3.53
   0   2 -21   32.59    3.54
   0  -2 -21   23.91    3.03
   0   2 -21   26.01    3.18
   0  -2 -21   36.01    3.74
   0   2 -21   33.19    3.76
  -1  -3  21    8.75    2.17
  -1  -3  21    6.91    1.77
   1   3  21   10.33    2.34
   1   3  21    9.56    2.59
  -1  -3 -21    9.82    4.73
   1   3 -21    9.23    2.44
   1   3 -21    9.71    2.12
  -1  -3 -21   10.02    3.85
   2   4  21    6.81    3.93
  -2  -4  21   -0.27    1.66
   2   4  21    2.54    5.11
   2   4 -21    0.00    1.96
  -2  -4 -21    6.96    4.27
  -2  -4 -21    4.61    3.54
   2   0  22   -0.78    2.61
   2   0  22    1.28    2.47
   2   0 -22    1.10    1.63
  -2   0 -22   -4.37    3.25
  -2   0 -22   -8.46    3.33
  -2   0 -22   -0.17    3.94
   2   0 -22   -0.44    1.69
   1  -1  22    6.00    2.46
   1  -1  22    3.97    2.04
  -1   1  22    6.26    2.03
   1  -1  22    5.53    1.92
  -1   1  22    5.56    1.78
  -1   1  22    6.54    1.47
   1  -1 -22    0.72    1.89
  -1   1 -22    3.24    2.66
  -1   1 -22    6.68    2.83
   1  -1 -22    4.54    2.18
   1  -1 -22    4.90    2.65
  -1   1 -22    5.03    2.43
   0   2  22   12.75    2.08
   0  -2  22   14.33    2.00
   0  -2  22   12.10    2.12
   0   2  22   16.18    2.15
   0   2  22   16.02    2.22
   0  -2  22   18.71    2.47
   0   2 -22   11.81    2.69
   0  -2 -22   11.49    2.70
   0  -2 -22    9.99    2.49
   0   2 -22   13.51    2.22
   0   2 -22   16.13    2.87
   0  -2 -22    8.88    2.23
   1   3  22    8.49    2.47
  -1  -3  22    9.71    2.01
   1   3  22   12.52    2.66
  -1  -3  22   10.79    1.70
  -1  -3 -22    9.77    2.68
   1   3 -22    8.72    2.06
  -2  -4  22   23.38    2.86
   2   4  22   20.06    3.72
  -2  -4 -22   24.52    3.68
   2   4 -22   30.18    3.25
   2   0  23    8.79    2.82
   2   0  23    5.92    2.94
  -2   0 -23    0.47    3.78
   2   0 -23   11.90    1.96
  -2   0 -23   -3.24    3.41
  -1   1  23    2.90    2.01
   1  -1  23    0.71    2.02
   1  -1  23    0.65    2.61
  -1   1  23    4.04    1.64
  -1   1  23    1.69    1.40
  -1   1 -23    1.59    3.45
   1  -1 -23    0.64    3.19
  -1   1 -23   -2.10    2.81
  -1   1 -23   -0.02    3.80
   1  -1 -23    0.87    1.84
   1  -1 -23    0.87    2.91
   0  -2  23    8.94    2.04
   0  -2  23    4.37    2.10
   0   2  23    6.50    2.11
   0  -2  23    3.36    2.24
   0   2  23    7.74    2.22
   0   2 -23    5.91    2.82
   0   2 -23    5.04    2.25
   0  -2 -23    5.18    2.77
   0  -2 -23    1.00    3.65
   0  -2 -23   -0.31    3.06
   0   2 -23    5.44    3.14
   1   3  23    8.32    2.69
  -1  -3  23    7.51    1.79
  -1  -3 -23    4.22    2.73
   1   3 -23    6.88    2.23
   2   4  23    2.21    4.05
  -2  -4  23    1.75    2.05
   2   4 -23    4.07    2.20
  -2  -4 -23   11.93    3.88
   2   0  24    7.97    4.78
  -2   0 -24   -4.14    4.40
   2   0 -24    6.73    2.03
   1  -1  24   13.78    3.13
  -1   1  24   17.79    2.17
   1  -1  24   14.72    2.74
  -1   1  24   18.45    2.12
   1  -1 -24   16.19    2.34
  -1   1 -24   21.71    3.22
  -1   1 -24   13.67    4.21
   0  -2  24   18.82    3.91
   0   2  24   23.64    2.67
   0  -2 -24   20.69    2.82
   1   3  24   16.49    3.04
  -1  -3  24   14.16    2.18
   1   3 -24   11.25    2.51
  -1  -3 -24   10.45    3.75
   2   4  24    6.74    4.10
  -2  -4  24    5.50    2.30
   2   4 -24    5.50    2.53
  -2  -4 -24    7.00    4.93
   2   0  25    4.26    3.32
  -2   0 -25    0.51    4.22
   2   0 -25   11.55    2.29
  -1   1  25   -0.57    1.93
   1  -1  25   -4.02    2.59
   1  -1 -25   -1.13    2.10
  -1   1 -25    0.04    3.00
   0  -2  25    1.63    2.17
   0   2  25   -4.09    2.42
   0   2 -25    1.60    2.85
   0  -2 -25   -0.87    2.61
  -1  -3  25    0.32    2.28
   1   3  25    4.97    3.07
  -1  -3 -25    2.81    3.20
   1   3 -25    1.47    2.46
   1  -1  26    1.97    2.81
  -1   1  26    4.71    2.19
  -1   1 -26    3.86    3.43
   1  -1 -26    5.30    2.33
   0  -2  26   -1.12    2.32
   0   2  26    0.75    2.71
   0   2 -26    0.41    2.96
   0  -2 -26    0.03    2.86
   1   3  26    8.19    3.47
  -1  -3  26    5.87    2.52
   1   3 -26    4.68    2.84
  -1  -3 -26    9.54    3.71
  -1   1  27   17.34    2.55
   1  -1  27   17.76    3.37
  -1   1 -27   12.31    3.84
   1  -1 -27   12.21    2.60
   0  -2  27    5.86    2.67
   0   2  27    6.12    3.04
   0  -2 -27    9.38    3.14
   0   2 -27   10.00    3.16
  -1  -3  27    2.06    2.62
   1   3  27    7.07    3.77
  -1  -3 -27    4.38    3.75
   1   3 -27   -4.78    3.01
   0   2  28    6.04    3.35
   0  -2  28    0.17    3.00
   0  -2 -28   -0.71    3.31
   0   2 -28    5.91    3.37
   4   1   0   -0.92    1.37
  -4  -1   0    3.64    1.55
  -4  -1   0    1.41    1.97
   4   1   0    0.82    1.86
   3   0   0   -0.38    0.78
  -3   0   0    1.52    1.00
  -3   0   0    0.26    1.06
   3   0   0    1.32    1.03
   2  -1   0    0.02    0.62
   2  -1   0    0.60    0.49
  -2   1   0    0.02    0.64
   1  -2   0    8.09    0.69
  -1   2   0    7.14    0.65
   1  -2   0    7.47    0.69
   1  -2   0    8.00    0.68
  -1   2   0    6.99    0.74
  -1   2   0    8.05    0.67
  -1   2   0    6.65    0.69
   1  -2   0    7.66    0.64
   0  -3   0   -0.02    0.53
   0   3   0    0.07    0.50
   0   3   0   -0.67    0.87
   0   3   0    0.26    0.54
   0  -3   0    0.13    0.93
   0  -3   0   -0.02    0.39
   0  -3   0   -0.09    0.49
  -1  -4   0  141.60    3.62
   1   4   0  134.21    3.57
   1   4   0  145.03    3.63
  -1  -4   0  139.43    3.62
   1   4   0  140.42    3.43
   1   4   0  141.00    3.70
  -1  -4   0  146.72    3.52
   2   5   0   51.17    2.90
   2   5   0   48.62    2.61
   2   5   0   48.60    2.73
  -2  -5   0   49.44    2.67
  -2  -5   0   47.59    2.51
   2   5   0   51.56    2.22
  -2  -5   0   50.19    2.39
  -2  -5   0   48.28    2.69
  -3  -6   0    4.88    1.70
  -3  -6   0    3.22    2.14
   3   6   0    6.40    1.77
   3   6   0    4.84    2.76
   3   6   0    6.70    2.66
  -3  -6   0    1.88    2.51
  -4  -1   1   13.20    1.64
   4   1   1   14.67    1.73
   4   1   1   10.06    2.76
   4   1  -1   16.47    2.27
  -4  -1  -1   13.31    2.14
   4   1  -1   16.20    2.06
  -4  -1  -1   20.46    2.76
  -3   0   1    4.96    1.03
  -3   0   1    4.44    1.10
   3   0   1    6.50    0.96
   3   0   1    4.43    1.48
   3   0   1    4.02    1.07
  -3   0  -1    4.61    2.08
  -3   0  -1    5.56    1.09
   3   0  -1    5.29    0.95
  -3   0  -1    5.89    1.22
   3   0  -1    5.10    1.07
  -3   0  -1    4.74    0.94
   2  -1   1   16.04    1.29
   2  -1   1   14.32    0.94
   2  -1   1   14.69    1.20
   2  -1   1   15.60    1.02
   2  -1  -1   14.33    0.95
  -2   1  -1   14.48    1.18
  -2   1  -1   14.07    0.97
  -2   1  -1   16.79    1.21
  -2   1  -1   13.28    1.12
   1  -2   1   38.34    1.22
   1  -2   1   37.35    1.20
  -1   2   1   38.59    1.07
  -1   2   1   37.64    1.13
  -1   2   1   36.96    1.10
   1  -2   1   37.94    1.23
  -1   2   1   36.64    1.07
   1  -2   1   38.17    1.19
  -1   2  -1   38.00    1.18
  -1   2  -1   39.07    1.22
   1  -2  -1   39.35    1.08
  -1   2  -1   36.60    1.19
   1  -2  -1   34.96    1.10
  -1   2  -1   39.30    1.30
   0  -3   1   39.62    1.41
   0  -3   1   38.43    1.27
   0   3   1   38.67    1.40
   0  -3   1   37.91    1.39
   0   3   1   36.14    1.67
   0   3   1   39.80    1.27
   0  -3   1   38.70    1.32
   0   3   1   39.61    1.38
   0   3  -1   37.48    1.44
   0   3  -1   38.82    1.28
   0  -3  -1   37.12    1.39
   0   3  -1   39.17    1.46
   0  -3  -1   39.32    1.29
   0  -3  -1   38.45    1.44
   0  -3  -1   39.15    1.35
   0   3  -1   39.03    1.33
   1   4   1    6.64    1.04
   1   4   1    7.10    0.81
  -1  -4   1    7.51    1.01
  -1  -4   1    7.51    1.01
   1   4   1    6.14    0.92
   1   4   1    7.27    1.04
  -1  -4   1    5.74    0.84
  -1  -4   1    7.52    1.04
  -1  -4  -1    6.93    1.07
   1   4  -1    7.81    1.04
   1   4  -1    7.22    1.06
  -1  -4  -1    6.89    0.92
   1   4  -1    6.76    1.04
  -1  -4  -1    7.01    0.94
  -1  -4  -1    7.85    1.06
   2   5   1    5.13    1.05
   2   5   1    3.71    1.49
   2   5   1    2.42    1.46
  -2  -5   1    4.33    1.28
   2   5   1    3.74    1.41
  -2  -5   1    2.49    1.16
  -2  -5   1    4.07    1.40
  -2  -5   1    4.89    1.11
   2   5  -1    4.62    1.35
  -2  -5  -1    2.95    1.10
  -2  -5  -1    1.38    1.41
  -2  -5  -1    2.90    1.24
  -2  -5  -1    4.77    1.30
   2   5  -1    4.90    1.45
   2   5  -1    3.77    1.48
   2   5  -1    3.37    0.97
   3   6   1   33.69    4.01
  -3  -6   1   26.40    2.80
   3   6   1   31.67    3.92
   3   6   1   28.22    2.69
  -3  -6   1   28.60    3.76
  -3  -6   1   27.30    3.55
   3   6  -1   23.93    3.12
   3   6  -1   22.32    2.69
  -3  -6  -1   31.62    4.07
  -3  -6  -1   23.74    3.06
  -3  -6  -1   27.45    3.78
  -4  -1   2   12.05    1.98
   4   1   2   18.78    2.45
  -4  -1   2   21.40    2.37
   4   1  -2   14.41    1.95
  -4  -1  -2   21.93    2.91
   4   1  -2   18.47    2.33
  -4  -1  -2   13.29    2.40
   3   0   2    0.97    0.92
   3   0   2    0.50    1.42
   3   0   2    2.65    1.06
   3   0   2    1.59    1.31
  -3   0   2    2.25    0.89
  -3   0  -2    1.82    1.07
   3   0  -2    0.86    0.95
  -3   0  -2    0.98    1.22
  -3   0  -2    0.92    1.24
  -3   0  -2    1.70    0.98
   3   0  -2    1.05    0.83
   2  -1   2   29.87    1.53
   2  -1   2   28.66    1.33
   2  -1   2   28.46    1.30
   2  -1   2   31.31    1.50
  -2   1  -2   30.49    1.24
  -2   1  -2   29.10    1.53
  -2   1  -2   29.57    1.39
  -2   1  -2   29.93    1.47
   1  -2   2    4.64    0.60
   1  -2   2    4.14    0.53
   1  -2   2    4.87    0.60
  -1   2  -2    4.05    0.53
  -1   2  -2    5.01    0.61
  -1   2  -2    4.09    0.64
  -1   2  -2    4.17    0.57
   1  -2  -2    4.60    0.59
   0   3   2    2.22    0.48
   0  -3   2    3.66    0.61
   0   3   2    4.25    0.70
   0   3   2    3.34    0.61
   0  -3   2    3.48    0.61
   0  -3   2    3.49    0.56
   0   3   2    3.74    0.59
   0  -3  -2    3.81    0.58
   0  -3  -2    3.79    0.63
   0   3  -2    5.28    0.72
   0  -3  -2    3.09    0.64
   0   3  -2    3.40    0.67
   0  -3  -2    4.14    0.63
   0   3  -2    3.32    0.57
   0   3  -2    2.67    0.65
  -1  -4   2   21.22    1.38
   1   4   2   23.21    1.65
   1   4   2   22.57    1.87
  -1  -4   2   21.10    1.55
   1   4   2   21.38    1.32
   1   4   2   21.07    1.48
  -1  -4   2   21.33    1.32
  -1  -4   2   22.77    1.52
   1   4  -2   24.00    1.55
  -1  -4  -2   19.51    1.91
  -1  -4  -2   22.57    1.53
  -1  -4  -2   20.90    1.63
  -1  -4  -2   21.63    1.50
   1   4  -2   23.45    1.69
   1   4  -2   20.01    1.48
   1   4  -2   20.98    1.27
  -2  -5   2    9.56    1.31
  -2  -5   2    8.80    1.56
  -2  -5   2   10.02    1.49
   2   5   2    9.35    1.62
   2   5   2    5.83    1.62
   2   5   2    9.20    1.57
  -2  -5   2   11.37    1.30
   2   5   2    9.34    1.28
   2   5  -2    9.21    1.17
  -2  -5  -2   11.05    1.55
  -2  -5  -2    8.02    1.68
   2   5  -2    8.50    1.40
  -2  -5  -2    6.94    1.27
  -2  -5  -2    9.24    1.52
   2   5  -2   10.13    1.64
   2   5  -2    8.75    1.53
   3   6   2    2.08    1.59
   3   6   2    2.69    2.68
  -3  -6   2    3.28    2.36
  -3  -6   2   -0.48    1.97
  -3  -6   2    3.11    2.13
   3   6   2    2.68    2.42
  -3  -6  -2    1.25    2.66
   3   6  -2    0.70    2.68
  -3  -6  -2   -0.70    1.69
   3   6  -2    4.06    2.83
  -3  -6  -2    1.76    2.15
   3   6  -2    1.67    1.59
   4   1   3   10.54    1.82
  -4  -1  -3   15.50    2.17
   4   1  -3    9.45    1.48
   4   1  -3   10.96    1.91
   3   0   3   -2.20    1.37
   3   0   3    3.72    1.25
   3   0   3   -0.04    1.27
   3   0   3    1.99    0.97
  -3   0  -3   -0.15    1.23
  -3   0  -3    0.92    1.16
   3   0  -3    0.84    0.94
  -3   0  -3    0.61    1.31
   3   0  -3    0.99    0.81
  -3   0  -3   -0.94    1.25
   2  -1   3   59.71    1.98
   2  -1   3   60.59    2.08
   2  -1   3   62.05    1.92
   2  -1   3   62.78    2.12
  -2   1  -3   63.22    2.12
  -2   1  -3   59.82    2.06
  -2   1  -3   60.31    1.83
  -2   1  -3   59.38    2.00
   1  -2   3   20.04    1.04
   1  -2   3   20.51    1.06
  -1   2  -3   21.71    0.96
  -1   2  -3   21.72    1.15
  -1   2  -3   20.46    1.04
  -1   2  -3   22.04    1.09
   0   3   3  116.29    2.76
   0  -3   3  113.67    2.68
   0   3   3  118.47    2.68
   0  -3   3  116.34    2.80
   0   3   3  117.58    2.82
   0  -3   3  119.92    2.84
   0  -3   3  117.04    2.74
   0   3   3  117.56    2.78
   0  -3  -3  122.16    2.78
   0  -3  -3  109.70    2.71
   0  -3  -3  118.06    2.80
   0   3  -3  116.09    2.84
   0   3  -3  118.91    2.71
   0   3  -3  112.32    2.70
   0  -3  -3  114.17    2.82
   0   3  -3  120.13    2.83
  -1  -4   3   65.91    2.04
   1   4   3   64.58    2.41
  -1  -4   3   63.29    2.25
   1   4   3   65.55    2.33
   1   4   3   64.94    2.36
  -1  -4   3   66.54    2.26
   1   4   3   62.22    2.13
  -1  -4  -3   67.17    2.32
   1   4  -3   66.43    2.38
   1   4  -3   69.17    2.17
  -1  -4  -3   62.54    2.32
  -1  -4  -3   62.09    2.32
  -1  -4  -3   64.50    2.21
   1   4  -3   68.03    2.31
   1   4  -3   63.31    2.01
   2   5   3   14.35    1.69
   2   5   3   15.44    1.85
  -2  -5   3   14.61    1.69
  -2  -5   3   14.58    2.00
  -2  -5   3   14.44    1.71
   2   5   3   13.12    1.76
  -2  -5   3   12.78    1.40
   2   5   3   14.05    1.42
  -2  -5  -3   16.76    2.22
   2   5  -3   17.06    1.62
  -2  -5  -3   12.02    1.43
  -2  -5  -3   15.25    1.90
   2   5  -3   17.93    1.87
   2   5  -3   15.38    1.68
  -2  -5  -3   14.28    1.82
   2   5  -3   14.04    1.52
   3   6   3   -0.53    2.36
   3   6   3    5.54    1.66
  -3  -6   3   -0.03    2.16
  -3  -6   3    0.11    2.26
   3   6   3    4.07    3.32
  -3  -6  -3    0.55    3.04
   3   6  -3    2.88    3.15
   3   6  -3    3.43    1.82
  -3  -6  -3    1.27    2.23
   3   6  -3    3.42    2.96
  -3  -6  -3    1.61    1.70
   4   1   4    2.33    1.72
   4   1  -4   -2.63    1.31
  -4  -1  -4    3.38    2.00
   4   1  -4    0.11    1.67
   3   0   4    2.83    1.42
   3   0   4    1.91    1.13
   3   0   4   -0.24    1.47
   3   0   4    0.20    1.26
  -3   0  -4   -0.42    1.36
   3   0  -4   -0.42    0.76
  -3   0  -4    0.10    1.14
  -3   0  -4    0.08    1.33
   2  -1   4   40.94    1.69
   2  -1   4   41.74    1.89
   2  -1   4   41.46    1.69
   2  -1   4   43.60    1.79
  -2   1  -4   41.25    1.51
  -2   1  -4   42.18    1.84
  -2   1  -4   45.19    1.90
  -2   1  -4   42.56    1.77
   1  -2   4    1.46    0.59
   1  -2   4    2.17    0.56
   1  -2   4    1.39    0.55
   1  -2   4    1.27    0.56
  -1   2  -4    0.94    0.47
  -1   2  -4    1.61    0.60
  -1   2  -4    2.19    0.65
  -1   2  -4    2.04    0.63
   0  -3   4   11.51    0.85
   0  -3   4   12.25    1.03
   0   3   4   11.31    0.88
   0   3   4    9.68    0.99
   0   3   4    8.72    0.92
   0   3   4   10.08    1.07
   0  -3   4   11.66    0.93
   0  -3   4   11.85    0.99
   0   3  -4   11.33    1.06
   0   3  -4   11.73    1.08
   0  -3  -4    8.51    0.91
   0   3  -4   10.03    0.91
   0  -3  -4   10.28    0.98
   0  -3  -4    9.62    1.00
   0   3  -4   12.50    0.86
   0  -3  -4   12.83    1.05
   1   4   4   40.34    1.99
  -1  -4   4   40.79    1.85
  -1  -4   4   40.81    1.81
  -1  -4   4   39.56    1.67
  -1  -4   4   39.71    1.53
   1   4   4   39.70    2.04
   1   4   4   42.16    1.76
   1   4   4   44.99    1.97
   1   4  -4   40.21    1.96
  -1  -4  -4   40.55    1.92
  -1  -4  -4   43.28    1.88
  -1  -4  -4   40.33    1.99
  -1  -4  -4   43.77    1.95
   1   4  -4   42.77    1.67
   1   4  -4   38.30    1.85
  -2  -5   4    4.86    1.12
   2   5   4    3.55    1.74
   2   5   4    2.27    1.57
  -2  -5   4    3.52    1.40
   2   5   4    2.85    1.12
  -2  -5   4    2.90    1.24
   2   5   4    6.91    1.58
   2   5  -4    3.30    1.54
  -2  -5  -4    2.07    1.53
  -2  -5  -4    4.59    1.75
   2   5  -4    3.78    1.19
  -2  -5  -4    4.86    1.28
  -2  -5  -4    2.71    2.40
   2   5  -4    5.10    0.97
  -3  -6   4    1.88    2.40
   3   6   4    4.73    2.61
  -3  -6   4    6.23    2.97
   3   6   4    6.02    1.71
  -3  -6  -4    0.94    1.81
  -3  -6  -4    5.41    2.36
  -3  -6  -4    3.65    4.47
   4   1   5    1.22    1.70
  -4  -1  -5    1.48    2.14
   3   0   5   -0.60    1.31
   3   0   5    0.45    1.45
   3   0   5    2.82    1.16
  -3   0  -5   -0.29    1.42
  -3   0  -5   -1.01    1.22
  -3   0  -5   -1.75    1.43
   2  -1   5   70.37    2.45
   2  -1   5   73.42    2.27
   2  -1   5   66.64    2.27
  -2   1  -5   75.55    2.50
  -2   1  -5   71.65    2.40
  -2   1  -5   72.75    2.16
  -2   1  -5   71.81    2.35
   1  -2   5   77.32    2.14
   1  -2   5   75.27    2.07
   1  -2   5   72.34    2.12
   1  -2   5   72.71    2.04
  -1   2  -5   74.29    2.18
  -1   2  -5   74.34    2.11
  -1   2  -5   75.05    2.14
  -1   2  -5   73.83    2.08
   0   3   5    3.90    0.71
   0   3   5    3.76    0.68
   0  -3   5    3.00    0.66
   0  -3   5    2.96    0.69
   0  -3   5    4.26    0.56
   0   3   5    3.85    0.62
   0   3   5    2.97    0.59
   0   3  -5    3.54    0.76
   0  -3  -5    3.16    0.67
   0   3  -5    3.51    0.63
   0  -3  -5    1.87    0.66
   0   3  -5    3.33    0.75
   0  -3  -5    2.60    0.67
  -1  -4   5   10.00    1.10
  -1  -4   5    7.88    1.07
   1   4   5    9.05    1.22
  -1  -4   5    8.75    1.05
   1   4   5    8.32    1.21
  -1  -4   5    9.18    0.95
   1   4   5   10.11    1.14
   1   4   5    8.92    1.23
   1   4  -5    7.87    1.04
   1   4  -5    9.22    1.05
  -1  -4  -5    8.25    1.10
  -1  -4  -5    6.98    1.12
   1   4  -5   12.39    1.18
   1   4  -5    9.45    1.18
  -1  -4  -5    9.62    1.15
  -1  -4  -5    8.73    1.06
  -2  -5   5    9.20    1.38
   2   5   5   10.84    1.80
   2   5   5    8.58    1.28
  -2  -5   5   10.87    1.24
   2   5   5   13.74    1.69
   2   5   5    7.66    1.73
  -2  -5   5    8.62    1.54
  -2  -5  -5   10.06    1.51
  -2  -5  -5   10.23    1.48
   2   5  -5    7.94    1.29
  -2  -5  -5    8.44    1.82
  -2  -5  -5    9.64    1.89
   2   5  -5    8.82    1.72
   2   5  -5    8.45    1.09
   3   6   5    8.44    1.91
   3   6   5    9.97    3.13
  -3  -6   5    9.80    3.13
   3   6  -5   10.38    1.77
  -3  -6  -5    4.75    2.44
  -3  -6  -5    4.64    1.97
   4   1   6   12.30    2.02
  -4  -1  -6    8.38    2.28
   3   0   6    1.06    1.09
   3   0   6   -0.29    1.63
  -3   0  -6   -1.14    1.39
  -3   0  -6   -2.55    1.43
  -3   0  -6   -0.23    1.48
   2  -1   6   49.47    2.08
   2  -1   6   48.71    1.98
   2  -1   6   54.53    2.02
  -2   1  -6   49.44    1.89
  -2   1  -6   53.93    2.23
  -2   1  -6   48.45    2.04
  -2   1  -6   48.49    2.12
   1  -2   6   68.10    2.12
   1  -2   6   72.37    2.06
   1  -2   6   70.21    2.11
   1  -2   6   70.00    2.05
  -1   2  -6   68.93    2.09
  -1   2  -6   71.59    2.17
  -1   2  -6   71.31    2.11
  -1   2  -6   69.63    2.20
   0   3   6    8.84    1.07
   0   3   6    9.05    0.99
   0  -3   6    9.43    1.07
   0   3   6    7.86    1.07
   0  -3   6    8.22    0.96
   0  -3   6    9.53    0.85
   0  -3   6    9.35    1.06
   0   3   6    8.91    0.97
   0  -3  -6    9.51    1.03
   0   3  -6   10.02    1.01
   0  -3  -6    9.55    1.10
   0   3  -6    9.48    0.90
   0   3  -6    9.39    1.00
   0  -3  -6    8.19    0.95
   0   3  -6   10.22    1.15
   1   4   6    5.52    1.09
  -1  -4   6    5.70    0.70
   1   4   6    5.70    0.88
  -1  -4   6    3.36    0.76
   1   4   6    4.83    1.03
  -1  -4   6    4.33    0.90
   1   4   6    4.37    1.07
  -1  -4   6    5.93    0.97
  -1  -4  -6    5.22    1.00
   1   4  -6    3.65    0.98
  -1  -4  -6    5.70    1.04
  -1  -4  -6    4.54    1.10
   1   4  -6    4.91    1.05
  -1  -4  -6    4.53    0.98
   1   4  -6    4.79    0.79
   1   4  -6    4.47    0.75
  -2  -5   6   16.80    1.71
   2   5   6   14.22    1.90
   2   5   6   18.59    2.33
  -2  -5   6   13.64    1.49
  -2  -5   6   13.94    1.30
  -2  -5   6   13.52    1.66
   2   5   6   14.97    1.97
   2   5  -6   15.69    2.40
  -2  -5  -6   14.57    1.92
   2   5  -6   17.74    1.88
  -2  -5  -6   16.52    2.25
  -2  -5  -6   16.97    2.21
   2   5  -6   13.72    1.41
  -2  -5  -6   16.31    2.27
  -3  -6   6   -0.91    1.42
   3   6   6    0.78    1.72
   3   6   6    3.09    2.40
   3   6  -6    3.55    1.39
  -3  -6  -6    5.19    1.99
  -3  -6  -6    1.95    2.90
   4   1   7    1.41    1.87
  -4  -1  -7    8.01    2.36
   3   0   7   20.40    2.71
   3   0   7   19.22    2.47
   3   0   7   20.98    2.11
  -3   0  -7   21.46    2.41
  -3   0  -7   22.96    2.61
  -3   0  -7   22.33    2.53
   2  -1   7   32.44    1.92
   2  -1   7   31.79    1.82
   2  -1   7   32.99    1.87
   2  -1   7   31.28    1.70
  -2   1  -7   29.49    1.88
  -2   1  -7   32.76    1.98
  -2   1  -7   27.83    1.66
  -2   1  -7   31.44    1.82
   1  -2   7   39.86    1.54
   1  -2   7   38.11    1.64
   1  -2   7   39.84    1.63
   1  -2   7   39.39    1.64
  -1   2  -7   37.75    1.67
  -1   2  -7   40.97    1.71
  -1   2  -7   40.43    1.72
  -1   2  -7   39.79    1.66
   0  -3   7  333.79    6.76
   0   3   7  337.20    6.82
   0   3   7  324.53    6.84
   0   3   7  331.85    6.82
   0  -3   7  331.97    6.83
   0   3   7  335.10    6.74
   0  -3   7  341.17    6.96
   0  -3   7  336.66    6.91
   0  -3  -7  324.49    6.88
   0   3  -7  341.98    6.83
   0  -3  -7  323.00    6.89
   0   3  -7  324.58    6.90
   0   3  -7  340.38    6.94
   0   3  -7  333.10    6.81
  -1  -4   7  155.28    3.90
   1   4   7  155.12    4.23
  -1  -4   7  159.25    3.91
  -1  -4   7  153.60    3.65
   1   4   7  160.39    4.14
  -1  -4   7  159.42    3.80
   1   4   7  155.59    4.17
   1   4   7  158.35    3.97
   1   4  -7  153.00    3.72
   1   4  -7  154.18    3.99
  -1  -4  -7  149.34    4.11
   1   4  -7  154.24    3.71
  -1  -4  -7  153.12    4.00
  -1  -4  -7  157.44    4.19
   1   4  -7  156.87    3.93
  -2  -5   7   26.78    2.23
   2   5   7   31.84    2.54
   2   5   7   31.47    2.20
   2   5   7   22.51    2.75
  -2  -5   7   28.00    2.28
  -2  -5   7   29.56    1.85
   2   5   7   27.79    2.85
  -2  -5   7   25.19    1.85
  -2  -5  -7   31.92    2.42
  -2  -5  -7   26.11    2.96
   2   5  -7   31.11    1.81
   2   5  -7   26.44    1.99
   2   5  -7   24.46    2.27
   2   5  -7   30.86    2.58
  -2  -5  -7   29.14    2.51
   3   6   7    0.53    1.80
   3   6   7    3.47    2.46
  -3  -6   7    4.04    1.41
  -3  -6  -7    4.98    2.18
  -3  -6  -7    2.97    2.27
   4   1   8   14.33    2.22
   3   0   8    9.28    1.74
   3   0   8    9.00    1.44
  -3   0  -8    8.48    1.82
  -3   0  -8    9.53    1.75
  -3   0  -8    6.82    1.83
   2  -1   8    2.00    1.04
   2  -1   8   -0.05    1.03
   2  -1   8    0.96    1.01
   2  -1   8    1.29    0.87
  -2   1  -8    1.25    0.93
  -2   1  -8    0.91    1.03
  -2   1  -8    1.16    1.12
  -2   1  -8    0.94    1.10
   1  -2   8    0.42    0.72
   1  -2   8    0.20    0.75
   1  -2   8    0.52    0.61
   1  -2   8    1.11    0.74
  -1   2  -8    1.53    0.85
  -1   2  -8    0.51    0.76
  -1   2  -8   -0.56    0.81
  -1   2  -8    0.34    0.82
   0  -3   8    0.21    0.64
   0   3   8   -0.16    0.70
   0  -3   8    0.27    0.51
   0   3   8   -0.08    0.69
   0   3   8   -0.57    0.64
   0  -3   8    0.24    0.74
   0   3   8   -0.05    0.53
   0  -3   8    0.34    0.58
   0   3  -8    1.05    0.85
   0   3  -8    0.04    0.55
   0  -3  -8    0.39    0.64
   0   3  -8    0.70    0.77
   0  -3  -8    1.07    0.74
   0   3  -8    0.52    0.66
   1   4   8    0.35    1.01
  -1  -4   8    0.84    0.87
   1   4   8    1.32    1.04
  -1  -4   8    0.82    0.85
   1   4   8   -0.27    0.98
   1   4   8    0.52    0.81
  -1  -4   8   -0.34    0.44
  -1  -4   8    0.46    0.69
   1   4  -8   -0.20    1.00
  -1  -4  -8    1.37    0.92
   1   4  -8    0.98    0.64
   1   4  -8   -0.60    0.93
  -1  -4  -8    0.47    1.12
  -1  -4  -8   -0.23    1.12
   1   4  -8    0.15    0.74
  -1  -4  -8    2.47    1.04
   2   5   8    8.09    1.63
  -2  -5   8    7.93    1.37
   2   5   8    7.00    1.40
   2   5   8    7.33    2.06
  -2  -5   8    7.02    1.18
   2   5   8    7.54    1.98
  -2  -5   8    5.26    1.07
  -2  -5   8    7.87    1.39
   2   5  -8    4.25    1.31
  -2  -5  -8    9.24    2.01
   2   5  -8    7.06    1.49
  -2  -5  -8    7.09    1.93
  -2  -5  -8    6.92    1.67
   2   5  -8    8.03    1.11
  -2  -5  -8    9.33    1.79
   3   6   8   -0.13    1.83
  -3  -6   8   -0.07    1.37
   3   6   8    3.97    2.55
  -3  -6  -8    4.42    2.15
   3   6  -8    4.50    1.58
  -3  -6  -8    3.33    2.54
   4   1   9   16.97    2.41
  -4  -1  -9   16.46    2.80
   3   0   9   59.95    3.32
   3   0   9   59.45    2.92
  -3   0  -9   57.63    3.38
  -3   0  -9   60.22    3.33
  -3   0  -9   56.55    3.39
   2  -1   9   33.52    2.10
   2  -1   9   35.97    1.92
   2  -1   9   36.49    2.19
   2  -1   9   35.84    2.19
  -2   1  -9   35.11    2.08
  -2   1  -9   35.14    2.24
  -2   1  -9   34.69    2.11
  -2   1  -9   32.45    2.19
   1  -2   9    5.72    0.89
   1  -2   9    3.65    0.87
   1  -2   9    5.18    0.87
  -1   2  -9    4.56    1.04
  -1   2  -9    4.57    0.95
  -1   2  -9    4.17    1.02
  -1   2  -9    5.26    1.62
   0   3   9    5.89    0.86
   0   3   9    5.44    0.67
   0  -3   9    5.61    0.89
   0   3   9    4.78    0.82
   0   3   9    3.87    0.88
   0  -3   9    4.92    0.87
   0  -3   9    5.88    0.81
   0  -3   9    4.83    0.85
   0   3  -9    5.70    0.96
   0   3  -9    5.43    0.99
   0  -3  -9    4.42    0.86
   0   3  -9    4.56    0.79
   0  -3  -9    4.55    0.83
   1   4   9   28.73    2.01
  -1  -4   9   28.29    1.33
  -1  -4   9   30.18    1.52
   1   4   9   31.89    1.82
  -1  -4   9   31.79    1.77
   1   4   9   27.57    2.09
  -1  -4   9   32.42    1.81
   1   4   9   29.97    2.00
   1   4  -9   30.39    1.46
  -1  -4  -9   32.14    2.03
  -1  -4  -9   28.88    2.03
   1   4  -9   29.19    1.55
   1   4  -9   22.34    1.85
  -1  -4  -9   33.23    2.22
  -1  -4  -9   28.88    2.24
   1   4  -9   28.19    1.96
   2   5   9   20.44    2.29
   2   5   9   21.41    2.88
   2   5   9   22.21    2.41
   2   5   9   22.51    2.66
  -2  -5   9   21.77    2.31
  -2  -5   9   20.47    2.22
  -2  -5   9   18.90    1.75
  -2  -5  -9   24.01    2.72
   2   5  -9   22.38    2.58
  -2  -5  -9   21.86    2.48
  -2  -5  -9   22.18    2.41
  -2  -5  -9   27.08    2.61
   2   5  -9   22.14    1.73
   3   6   9   41.85    5.06
   3   6   9   36.57    3.53
  -3  -6   9   40.93    2.87
   3   6  -9   39.26    2.69
  -3  -6  -9   35.10    4.74
  -3  -6  -9   43.96    4.07
   4   1  10    2.97    2.15
  -4  -1 -10    4.40    2.79
   3   0  10   24.64    2.48
   3   0  10   27.77    2.38
   3   0  10   26.47    3.08
  -3   0 -10   27.77    3.09
  -3   0 -10   24.79    3.02
  -3   0 -10   23.50    3.08
   2  -1  10   10.07    1.45
   2  -1  10    6.63    1.35
   2  -1  10    8.38    1.34
   2  -1  10    7.31    1.15
  -2   1 -10    8.98    1.40
  -2   1 -10    7.89    1.40
  -2   1 -10    8.69    1.52
  -2   1 -10    8.64    1.57
   1  -2  10   11.54    1.24
   1  -2  10   14.72    1.42
   1  -2  10   11.83    1.40
   1  -2  10   12.32    1.34
  -1   2 -10   10.76    1.42
  -1   2 -10   10.15    1.18
   1  -2 -10   11.64    1.04
  -1   2 -10   12.67    1.50
  -1   2 -10   11.72    1.67
   0  -3  10    5.59    0.93
   0   3  10    4.98    0.71
   0  -3  10    5.20    0.97
   0  -3  10    6.53    0.72
   0   3  10    5.13    0.96
   0  -3  10    5.24    0.84
   0   3  10    4.35    0.85
   0   3  10    5.59    0.88
   0   3 -10    5.43    1.02
   0   3 -10    6.18    1.15
   0   3 -10    6.32    0.92
   0   3 -10    6.07    0.87
   0  -3 -10    4.79    0.84
   0  -3 -10    4.53    0.85
  -1  -4  10    8.10    0.96
   1   4  10    6.58    1.17
  -1  -4  10    8.13    1.13
   1   4  10    6.85    1.26
  -1  -4  10    6.54    1.07
  -1  -4  10    5.49    0.74
   1   4  10    8.10    1.34
   1   4  10    9.16    1.53
  -1  -4 -10    6.90    1.41
  -1  -4 -10    8.21    1.34
  -1  -4 -10    8.58    1.52
   1   4 -10    6.92    1.24
   1   4 -10    7.20    1.55
   1   4 -10    5.32    0.90
  -1  -4 -10    6.23    1.26
   2   5  10   27.94    2.77
  -2  -5  10   28.43    2.41
  -2  -5  10   27.77    1.95
   2   5  10   28.61    2.49
   2   5  10   27.02    3.28
   2   5  10   30.62    3.30
  -2  -5  10   27.41    2.46
  -2  -5 -10   30.28    3.58
   2   5 -10   25.85    1.82
  -2  -5 -10   30.09    3.37
   2   5 -10   24.94    2.74
  -2  -5 -10   22.83    2.74
  -2  -5 -10   29.89    2.98
   3   6  10    6.80    2.16
  -3  -6  10    5.41    1.55
  -3  -6 -10    8.76    2.60
   3   6 -10    2.68    1.59
   4   1  11   14.13    2.50
  -4  -1 -11   21.40    3.42
   3   0  11   80.99    4.17
   3   0  11   82.37    3.54
   3   0  11   82.53    4.02
  -3   0 -11   83.89    4.10
  -3   0 -11   83.77    4.09
  -3   0 -11   79.38    4.09
   2  -1  11    4.67    1.20
   2  -1  11    4.49    1.26
   2  -1  11    3.33    1.36
   2  -1  11    1.43    1.36
  -2   1 -11    1.26    1.45
  -2   1 -11    3.30    1.33
  -2   1 -11    2.40    1.41
  -2   1 -11    4.03    1.53
   1  -2  11   13.02    1.56
   1  -2  11   12.54    1.24
   1  -2  11   13.64    1.46
   1  -2  11   11.29    1.30
   1  -2 -11    9.91    1.04
  -1   2 -11   12.63    1.35
  -1   2 -11   11.43    1.47
  -1   2 -11   12.03    1.62
   1  -2 -11   11.79    1.11
   0  -3  11   37.46    1.84
   0  -3  11   33.19    1.47
   0   3  11   36.55    1.68
   0  -3  11   35.20    1.85
   0   3  11   31.62    1.85
   0  -3  11   35.95    1.65
   0   3  11   35.66    1.50
   0   3  11   34.10    1.69
   0   3 -11   34.99    1.69
   0   3 -11   35.46    2.07
   0  -3 -11   36.59    1.62
   0   3 -11   33.01    1.68
   0  -3 -11   33.40    1.75
   0   3 -11   33.67    1.92
   1   4  11    8.32    1.50
  -1  -4  11    7.66    1.03
  -1  -4  11    9.72    1.24
   1   4  11    8.50    1.39
  -1  -4  11    6.86    0.95
  -1  -4  11    9.84    1.22
   1   4  11    9.17    1.42
   1   4  11    7.43    1.21
  -1  -4 -11    6.95    1.41
  -1  -4 -11    8.25    1.40
  -1  -4 -11   11.25    1.48
  -1  -4 -11    9.14    1.66
   1   4 -11    7.16    0.99
   1   4 -11    6.73    1.34
   2   5  11   20.36    2.62
  -2  -5  11   17.09    2.28
  -2  -5  11   19.18    2.44
   2   5  11   18.92    2.19
   2   5  11   15.72    2.61
   2   5  11   18.94    2.45
  -2  -5 -11   20.23    2.30
  -2  -5 -11   14.25    2.42
  -2  -5 -11   17.73    2.73
   2   5 -11   19.14    2.04
  -2  -5 -11   16.87    2.18
   2   5 -11   18.09    2.30
  -3  -6  11    6.76    1.64
   3   6  11    9.78    2.30
   3   6 -11    5.69    1.66
  -3  -6 -11    8.33    3.00
   4   1  12    4.55    2.38
  -4  -1 -12   13.08    3.16
   3   0  12   12.52    2.22
   3   0  12   13.83    2.48
   3   0  12   16.81    2.03
  -3   0 -12   18.27    2.57
  -3   0 -12   18.07    3.10
  -3   0 -12   20.46    2.70
   2  -1  12    5.53    1.56
   2  -1  12    5.25    1.27
   2  -1  12    7.67    1.49
   2  -1  12    4.72    1.38
  -2   1 -12    5.80    1.62
  -2   1 -12    3.38    1.73
  -2   1 -12    6.41    1.62
  -2   1 -12    7.53    1.61
   1  -2  12   33.54    2.40
   1  -2  12   37.50    1.93
   1  -2  12   36.23    2.39
   1  -2  12   34.86    1.89
   1  -2 -12   32.67    1.52
   1  -2 -12   36.91    1.53
  -1   2 -12   33.00    3.08
  -1   2 -12   36.28    2.06
  -1   2 -12   33.33    2.82
  -1   2 -12   34.04    2.12
   0   3  12    7.59    1.05
   0   3  12   10.37    1.37
   0  -3  12    8.88    1.10
   0   3  12    8.57    1.02
   0  -3  12    9.94    1.10
   0  -3  12   10.23    1.21
   0   3  12    9.61    1.18
   0  -3  12   10.02    1.20
   0  -3 -12    8.12    1.45
   0   3 -12   10.55    1.37
   0  -3 -12    9.01    1.13
   0   3 -12   10.07    1.12
   0   3 -12    8.70    1.29
   0  -3 -12    9.53    1.08
   0   3 -12    9.10    1.12
   1   4  12   -1.19    1.46
   1   4  12    1.84    1.28
   1   4  12    0.04    1.06
   1   4  12    1.91    1.16
  -1  -4  12   -0.20    0.98
  -1  -4  12    0.79    1.04
  -1  -4  12    0.96    0.81
  -1  -4  12    0.69    0.64
  -1  -4 -12    2.65    1.28
  -1  -4 -12    0.15    1.49
  -1  -4 -12    2.12    1.39
   1   4 -12    1.46    1.25
   1   4 -12    0.69    0.82
   1   4 -12    0.63    0.91
  -1  -4 -12    3.01    1.43
  -2  -5  12   11.86    1.81
  -2  -5  12   13.60    1.74
   2   5  12   11.49    2.08
   2   5  12   13.32    1.90
  -2  -5  12   11.19    1.75
   2   5  12   16.84    2.57
   2   5  12   16.13    2.68
   2   5 -12   11.98    2.13
  -2  -5 -12   13.80    2.28
  -2  -5 -12   14.34    2.24
  -2  -5 -12    7.97    2.59
  -2  -5 -12   13.93    2.47
   2   5 -12   14.57    1.97
   2   5 -12   11.07    1.37
  -3  -6  12    3.24    1.58
   3   6  12    5.13    2.20
  -3  -6 -12    5.66    3.06
   3   6 -12    2.59    1.70
   4   1  13   -0.58    2.34
  -4  -1 -13    4.42    3.23
   3   0  13    3.33    1.90
   3   0  13    6.94    2.24
   3   0  13   -0.49    2.22
  -3   0 -13    2.69    3.80
  -3   0 -13    0.79    2.37
  -3   0 -13    0.09    2.39
   2  -1  13   14.93    1.74
   2  -1  13   13.72    1.90
   2  -1  13   13.75    1.89
   2  -1  13   15.85    1.66
  -2   1 -13   13.20    1.83
  -2   1 -13   19.78    2.55
  -2   1 -13   15.78    2.05
  -2   1 -13   10.38    1.75
   1  -2  13   46.76    2.05
   1  -2  13   47.01    2.22
  -1   2  13   46.52    1.72
   1  -2  13   48.48    2.18
  -1   2  13   42.85    1.64
  -1   2 -13   45.41    2.48
  -1   2 -13   44.42    2.74
  -1   2 -13   48.11    2.40
   1  -2 -13   43.31    1.76
  -1   2 -13   47.01    2.35
   1  -2 -13   49.43    1.80
   0  -3  13   18.03    1.80
   0  -3  13   18.00    1.30
   0  -3  13   16.08    1.47
   0  -3  13   18.50    1.74
   0   3  13   17.55    1.73
   0   3  13   16.96    1.56
   0   3  13   18.55    1.28
   0   3  13   16.62    1.58
   0  -3 -13   20.09    1.93
   0   3 -13   18.15    1.84
   0   3 -13   18.15    1.59
   0  -3 -13   16.28    1.66
   0   3 -13   16.06    2.06
   0  -3 -13   18.29    1.59
   0   3 -13   19.50    1.59
  -1  -4  13   37.31    1.87
  -1  -4  13   34.94    1.61
   1   4  13   42.52    2.49
   1   4  13   32.93    2.65
   1   4  13   37.77    2.67
   1   4  13   38.12    2.64
  -1  -4  13   34.76    2.24
  -1  -4  13   36.32    2.12
   1   4 -13   37.30    1.90
   1   4 -13   36.13    1.88
  -1  -4 -13   36.49    2.77
  -1  -4 -13   42.15    2.66
  -1  -4 -13   36.79    2.74
  -1  -4 -13   36.70    2.77
   1   4 -13   33.82    2.44
   2   5  13   10.81    1.87
   2   5  13   14.22    2.79
  -2  -5  13   14.01    1.82
  -2  -5  13   10.67    1.87
   2   5  13   12.41    2.34
   2   5  13   15.12    2.89
  -2  -5  13   11.81    1.43
   2   5 -13   12.22    2.14
   2   5 -13   12.61    1.43
  -2  -5 -13   12.99    2.82
  -2  -5 -13   15.66    2.35
   2   5 -13   10.54    2.11
  -2  -5 -13   13.42    2.87
  -2  -5 -13   10.09    2.11
  -3  -6  13    9.15    1.81
   3   6  13    8.38    2.41
  -3  -6 -13    7.20    2.94
   3   6 -13   10.62    1.84
   4   1  14    3.32    2.59
  -4  -1 -14    8.50    3.59
   3   0  14    2.33    2.20
  -3   0 -14    1.14    3.70
  -3   0 -14    0.30    2.66
  -3   0 -14    1.08    3.35
   2  -1  14   15.94    1.98
   2  -1  14   14.69    1.86
   2  -1  14   14.62    1.75
   2  -1  14   15.19    1.89
  -2   1 -14   13.95    2.02
  -2   1 -14   17.77    2.08
  -2   1 -14   19.20    3.63
  -2   1 -14   13.75    1.95
  -1   2  14    0.71    0.74
   1  -2  14    0.57    1.05
   1  -2  14    1.82    1.08
   1  -2  14    1.33    0.95
  -1   2  14    1.44    0.79
   1  -2  14    0.64    2.25
  -1   2 -14    1.14    1.50
   1  -2 -14    0.26    0.85
  -1   2 -14   -0.09    1.28
  -1   2 -14    0.27    1.12
   1  -2 -14   -1.32    0.83
  -1   2 -14   -0.13    1.36
   0   3  14    2.34    0.73
   0   3  14    2.28    1.00
   0  -3  14    2.89    1.10
   0  -3  14    2.48    0.96
   0  -3  14    3.57    1.14
   0   3  14    1.90    1.11
   0   3  14    3.09    1.10
   0  -3  14    3.31    0.81
   0  -3 -14    2.08    1.04
   0  -3 -14    3.38    1.14
   0  -3 -14    2.05    1.28
   0   3 -14    4.93    1.37
   0   3 -14    3.40    1.44
   0   3 -14    3.33    1.15
   0   3 -14    3.78    1.07
   1   4  14   10.60    1.71
   1   4  14   12.17    1.87
  -1  -4  14   12.10    1.58
   1   4  14   14.00    1.80
  -1  -4  14   11.75    1.45
   1   4  14   10.99    2.40
  -1  -4  14   11.21    1.38
  -1  -4 -14   16.06    2.04
   1   4 -14   12.50    1.67
  -1  -4 -14   11.70    1.95
  -1  -4 -14   14.91    1.99
  -1  -4 -14    9.52    1.86
   1   4 -14   11.08    1.33
   1   4 -14   12.50    1.47
   2   5  14   15.22    2.82
  -2  -5  14   15.87    2.03
  -2  -5  14   17.44    1.93
   2   5  14   19.95    3.09
  -2  -5  14   18.83    2.15
   2   5  14   20.62    2.61
   2   5  14   15.62    2.12
   2   5 -14   17.49    2.05
  -2  -5 -14   18.89    3.11
   2   5 -14   17.43    2.42
  -2  -5 -14   18.62    2.56
  -2  -5 -14   17.10    3.01
   2   5 -14   19.94    2.33
  -2  -5 -14   19.63    2.53
  -3  -6  14    9.35    1.83
   3   6  14    9.97    2.69
   3   6 -14    3.57    1.77
  -3  -6 -14    9.80    3.28
   3   0  15    8.16    2.94
   3   0  15    9.80    2.49
  -3   0 -15   11.76    3.41
  -3   0 -15    9.93    2.73
  -3   0 -15   11.12    4.19
   2  -1  15   13.65    1.84
   2  -1  15   14.97    1.87
   2  -1  15   13.14    1.90
   2  -1  15   18.42    2.29
  -2   1 -15   12.38    2.10
  -2   1 -15   16.08    2.28
  -2   1 -15   17.58    2.28
  -2   1 -15   17.43    2.17
  -1   2  15   39.26    1.73
   1  -2  15   41.65    2.33
  -1   2  15   42.16    1.80
   1  -2  15   42.14    2.15
   1  -2  15   42.54    2.31
   1  -2  15   38.96    2.81
   1  -2 -15   43.45    1.97
   1  -2 -15   37.32    1.86
  -1   2 -15   38.33    2.54
  -1   2 -15   42.49    2.84
  -1   2 -15   44.77    2.60
  -1   2 -15   46.02    2.81
   0  -3  15    6.24    1.30
   0   3  15    4.23    1.22
   0  -3  15    5.25    0.98
   0  -3  15    4.90    1.09
   0   3  15    5.57    1.19
   0  -3  15    6.20    1.29
   0   3  15    5.38    1.15
   0   3  15    5.24    0.84
   0   3 -15    5.59    1.25
   0   3 -15    4.48    1.37
   0  -3 -15    3.01    1.34
   0  -3 -15    6.84    1.36
   0   3 -15    6.14    1.29
   0  -3 -15    6.35    1.21
   0   3 -15    5.42    1.63
  -1  -4  15   11.96    1.58
  -1  -4  15   11.19    1.46
  -1  -4  15   10.70    1.31
   1   4  15   12.59    1.78
   1   4  15   11.22    1.91
   1   4  15    9.76    1.88
   1   4 -15    9.39    1.30
  -1  -4 -15   11.83    1.91
   1   4 -15   11.00    2.43
  -1  -4 -15   10.24    2.13
  -1  -4 -15   10.16    1.97
   1   4 -15    7.01    1.28
   1   4 -15    7.64    1.63
  -1  -4 -15    8.82    1.94
   2   5  15    6.85    2.74
   2   5  15    9.68    2.11
  -2  -5  15   11.10    1.97
  -2  -5  15   14.63    2.01
   2   5  15    6.75    2.96
   2   5  15   12.60    2.40
  -2  -5  15   11.17    2.09
  -2  -5 -15   11.74    2.57
  -2  -5 -15   11.18    2.91
  -2  -5 -15   12.30    2.49
   2   5 -15   11.54    1.77
  -2  -5 -15   16.08    3.14
   2   5 -15   11.79    2.34
   2   5 -15   12.59    2.29
   3   6  15   14.87    2.96
  -3  -6  15   11.38    1.99
   3   6 -15    9.49    2.12
  -3  -6 -15   18.77    3.76
   3   0  16    2.03    2.55
   3   0  16    0.74    2.13
  -3   0 -16    5.76    2.87
  -3   0 -16    0.68    2.88
   2  -1  16   10.36    1.88
   2  -1  16   12.24    1.96
   2  -1  16   14.08    1.88
   2  -1  16   11.96    2.15
  -2   1 -16   11.76    2.18
  -2   1 -16   14.13    2.32
  -2   1 -16   14.36    2.31
  -2   1 -16   14.70    2.44
   1  -2  16   29.76    2.06
   1  -2  16   28.16    2.46
   1  -2  16   29.30    2.15
   1  -2  16   31.15    2.21
  -1   2  16   27.88    1.68
  -1   2  16   27.94    1.73
  -1   2 -16   32.84    2.74
  -1   2 -16   29.65    2.84
   1  -2 -16   33.11    1.85
   1  -2 -16   25.27    1.78
  -1   2 -16   32.17    2.65
  -1   2 -16   28.60    2.56
   0  -3  16   16.83    2.06
   0   3  16   17.48    1.46
   0   3  16   19.88    1.99
   0  -3  16   16.40    1.62
   0   3  16   17.38    1.69
   0   3  16   14.30    1.94
   0  -3  16   16.94    1.70
   0  -3  16   18.15    1.82
   0  -3 -16   18.94    2.17
   0  -3 -16   14.30    1.78
   0   3 -16   17.42    2.01
   0   3 -16   17.01    2.29
   0  -3 -16   13.90    1.86
   0   3 -16   19.91    2.58
   0  -3 -16   18.75    2.63
   0   3 -16   16.21    1.93
  -1  -4  16   17.91    2.13
  -1  -4  16   20.31    1.85
   1   4  16   19.67    2.20
   1   4  16   19.31    2.17
  -1  -4  16   20.64    2.39
   1   4  16   16.32    2.72
   1   4  16   17.04    2.10
  -1  -4 -16   23.90    3.17
  -1  -4 -16   19.58    2.29
   1   4 -16   20.11    1.88
  -1  -4 -16   16.39    2.46
   1   4 -16   18.32    2.01
   1   4 -16   18.46    2.24
  -1  -4 -16   18.59    2.62
   2   5  16    2.55    3.03
  -2  -5  16    0.77    1.84
   2   5  16    1.66    2.31
  -2  -5  16    1.09    1.93
   2   5  16   -0.73    2.98
  -2  -5  16    3.36    1.46
   2   5  16    1.28    1.92
   2   5 -16   -0.18    2.64
  -2  -5 -16    3.00    2.32
  -2  -5 -16    3.64    2.98
   2   5 -16    4.34    2.28
  -2  -5 -16   -0.85    3.22
  -2  -5 -16    2.34    2.53
   2   5 -16    2.37    1.57
   3   6  16    0.57    2.90
  -3  -6  16    0.08    1.90
  -3  -6 -16    9.03    3.91
   3   6 -16    1.25    2.14
   3   0  17    0.95    2.28
   3   0  17    1.23    3.02
  -3   0 -17    7.00    3.87
  -3   0 -17    3.09    3.03
   2  -1  17    9.99    2.27
   2  -1  17   13.85    2.24
   2  -1  17   15.59    2.13
   2  -1  17   14.79    2.01
  -2   1 -17   12.33    2.50
  -2   1 -17   12.07    2.41
  -2   1 -17   16.42    2.63
  -2   1 -17   13.70    2.44
   1  -2  17   24.84    2.13
   1  -2  17   25.00    2.50
  -1   2  17   24.41    1.80
   1  -2  17   27.43    2.26
   1  -2  17   27.56    2.29
  -1   2  17   23.42    1.75
  -1   2 -17   25.61    2.80
   1  -2 -17   30.95    1.99
  -1   2 -17   22.23    2.67
  -1   2 -17   27.12    2.88
  -1   2 -17   24.45    2.99
   1  -2 -17   21.34    1.92
   0  -3  17   10.57    1.74
   0   3  17   10.27    1.54
   0   3  17   14.91    1.49
   0   3  17   11.53    1.51
   0  -3  17   13.28    1.62
   0   3  17   14.48    1.67
   0  -3  17   13.46    1.50
   0  -3  17   12.58    1.38
   0   3 -17   17.08    2.21
   0  -3 -17   11.73    1.52
   0  -3 -17   10.12    1.81
   0   3 -17   12.78    1.97
   0   3 -17   15.18    2.00
   0  -3 -17   15.96    1.80
   0  -3 -17   11.34    2.38
   0   3 -17   11.96    1.55
   1   4  17   29.90    2.91
  -1  -4  17   27.76    2.70
  -1  -4  17   30.30    2.11
  -1  -4  17   28.62    2.38
   1   4  17   27.34    3.15
   1   4  17   25.19    3.24
   1   4  17   30.53    3.16
  -1  -4 -17   26.50    3.02
   1   4 -17   25.31    2.96
  -1  -4 -17   25.05    3.42
  -1  -4 -17   29.95    3.91
   1   4 -17   30.54    2.14
   1   4 -17   26.92    2.93
  -1  -4 -17   28.64    3.64
   2   5  17    5.60    3.11
  -2  -5  17    2.65    1.44
  -2  -5  17    2.24    1.88
   2   5  17    0.45    2.00
   2   5  17   -1.21    3.13
   2   5 -17    5.03    1.59
  -2  -5 -17    3.82    2.70
  -2  -5 -17    0.25    3.78
  -2  -5 -17    4.49    2.60
  -2  -5 -17   -2.81    3.39
   3   0  18   -1.61    2.21
  -3   0 -18    4.93    3.42
   2  -1  18   13.70    2.18
   2  -1  18   11.59    2.52
   2  -1  18   14.52    2.10
   2  -1  18   12.32    2.10
  -2   1 -18   12.18    2.77
  -2   1 -18    8.73    2.63
  -2   1 -18   11.68    2.46
  -2   1 -18   11.32    2.82
   1  -2  18   -1.33    1.59
  -1   2  18    0.35    1.14
   1  -2  18   -0.29    1.32
   1  -2  18    0.99    1.37
  -1   2  18   -0.31    1.06
   1  -2  18    0.93    1.39
  -1   2 -18    0.04    1.99
  -1   2 -18   -0.07    1.87
   1  -2 -18   -1.68    1.65
  -1   2 -18   -0.72    1.90
   1  -2 -18   -0.97    1.25
  -1   2 -18    3.19    2.00
   1  -2 -18    3.64    1.27
   0   3  18   -0.61    1.31
   0   3  18    1.23    1.44
   0   3  18    2.43    1.43
   0  -3  18    0.58    1.12
   0  -3  18    0.74    1.39
   0  -3  18    2.27    1.17
   0  -3  18    1.24    1.42
   0   3 -18   -1.35    1.30
   0   3 -18    1.58    1.79
   0  -3 -18    2.51    1.64
   0  -3 -18   -0.01    1.82
   0   3 -18    0.92    1.74
   0   3 -18    1.50    1.70
   0  -3 -18   -0.99    1.73
  -1  -4  18    2.55    1.65
   1   4  18    3.12    1.86
   1   4  18    2.00    2.09
  -1  -4  18    1.31    1.27
  -1  -4  18   -0.55    1.36
   1   4  18    2.22    1.81
  -1  -4 -18    1.48    3.15
  -1  -4 -18    2.52    2.39
  -1  -4 -18   -1.45    1.92
   1   4 -18   -2.62    1.61
   1   4 -18    0.93    1.94
   1   4 -18    2.53    2.07
  -2  -5  18    1.89    1.49
   2   5  18    3.32    2.58
   2   5  18   -0.05    2.21
  -2  -5 -18    8.32    3.12
  -2  -5 -18    1.13    2.70
   2   5 -18    1.10    1.56
  -2  -5 -18    6.97    3.99
   3   0  19   10.76    2.58
  -3   0 -19    6.00    3.57
   2  -1  19    3.70    2.16
   2  -1  19    7.05    2.59
   2  -1  19    6.46    2.05
   2  -1  19    8.84    2.08
  -2   1 -19    7.39    2.93
  -2   1 -19    7.54    3.07
  -2   1 -19    4.85    2.64
  -2   1 -19    3.85    2.82
   1  -2  19   15.06    1.91
  -1   2  19   15.06    1.43
   1  -2  19   12.06    1.69
   1  -2  19   13.01    2.01
  -1   2  19   13.79    1.44
   1  -2  19   16.36    2.01
  -1   2 -19   14.63    2.38
  -1   2 -19   13.23    2.38
   1  -2 -19   12.91    1.59
   1  -2 -19   14.12    1.63
  -1   2 -19   17.54    2.33
  -1   2 -19   17.54    2.62
   0   3  19   13.25    1.82
   0  -3  19   13.08    1.92
   0  -3  19   17.48    1.93
   0   3  19   15.20    1.83
   0  -3  19   13.02    1.62
   0   3  19   15.02    1.89
   0   3 -19   15.48    2.23
   0   3 -19   12.41    1.84
   0  -3 -19   18.48    2.17
   0  -3 -19   16.80    2.62
   0  -3 -19   13.92    2.22
   0   3 -19   16.33    2.18
   0   3 -19   14.50    2.21
   1   4  19    3.39    2.03
  -1  -4  19    2.97    1.59
   1   4  19   -2.25    2.34
  -1  -4  19    2.39    1.89
   1   4  19    4.65    2.17
  -1  -4  19    4.70    1.41
  -1  -4 -19    3.03    1.99
  -1  -4 -19    5.12    2.64
   1   4 -19    6.03    2.43
   1   4 -19    1.89    1.53
   1   4 -19    0.73    2.21
   2   5  19    7.99    2.50
  -2  -5  19   11.51    1.87
   2   5  19   12.46    3.00
  -2  -5 -19   11.87    3.05
  -2  -5 -19   14.33    3.34
   2   5 -19   12.34    1.96
   3   0  20    2.21    2.63
  -3   0 -20    3.19    3.79
   2  -1  20    0.96    2.41
   2  -1  20    3.22    2.09
   2  -1  20    3.14    2.80
   2  -1  20    6.37    2.27
  -2   1 -20    1.71    2.90
  -2   1 -20    1.41    2.71
  -2   1 -20    3.99    3.07
  -2   1 -20    6.70    3.05
   1  -2  20   22.63    2.31
  -1   2  20   21.45    2.14
   1  -2  20   20.28    2.60
  -1   2  20   23.54    1.98
   1  -2  20   23.52    2.65
   1  -2  20   19.25    2.36
  -1   2 -20   24.67    3.33
   1  -2 -20   15.85    2.01
  -1   2 -20   26.86    2.87
  -1   2 -20   19.63    2.74
  -1   2 -20   22.16    2.51
   1  -2 -20   25.11    2.38
   1  -2 -20   18.57    1.91
   0  -3  20    0.95    1.61
   0  -3  20    1.90    1.80
   0   3  20    3.16    1.81
   0  -3  20    1.20    1.37
   0   3  20    2.18    1.72
   0   3  20   -0.25    1.67
   0   3 -20    4.39    2.13
   0  -3 -20    4.12    2.25
   0   3 -20    1.15    1.70
   0  -3 -20    1.40    2.13
   0   3 -20    4.63    2.14
   0  -3 -20    1.84    1.85
  -1  -4  20    3.15    2.08
   1   4  20    4.80    2.19
  -1  -4  20    3.59    1.77
  -1  -4  20    4.33    1.53
   1   4  20    2.96    2.51
   1   4 -20    4.77    2.45
  -1  -4 -20    5.70    3.31
   1   4 -20    1.55    2.30
   1   4 -20    6.81    1.81
   2   5  20   11.32    3.31
  -2  -5  20   15.90    2.02
   2   5 -20   12.47    2.17
   3   0  21    8.53    3.04
  -3   0 -21    8.05    4.41
   2  -1  21    5.94    2.69
   2  -1  21   10.54    3.40
   2  -1  21    5.88    2.56
   2  -1  21    4.80    2.28
  -2   1 -21    3.05    3.22
  -2   1 -21   10.58    3.59
  -2   1 -21    5.67    2.94
  -2   1 -21    7.64    3.61
   1  -2  21   -0.83    1.76
  -1   2  21   -3.71    1.61
   1  -2  21    1.65    2.14
  -1   2  21    2.84    1.23
   1  -2  21   -0.65    1.76
  -1   2 -21    1.34    2.09
   1  -2 -21   -4.59    1.93
   1  -2 -21   -0.97    1.60
   1  -2 -21   -2.08    1.87
  -1   2 -21   -0.12    2.72
  -1   2 -21   -0.28    2.66
  -1   2 -21   -1.96    2.35
   0  -3  21   10.25    1.94
   0   3  21   12.28    2.10
   0  -3  21    7.40    2.06
   0   3  21   13.75    2.08
   0   3  21    9.12    2.01
   0  -3 -21    6.33    2.38
   0   3 -21   12.79    2.56
   0   3 -21    9.22    2.51
   0   3 -21   14.14    3.41
   0  -3 -21   12.58    2.28
   0  -3 -21   13.03    2.75
  -1  -4  21    2.27    1.71
   1   4  21    0.58    2.34
   1   4  21    1.47    2.38
  -1  -4  21   -1.30    2.02
  -1  -4 -21    4.07    5.15
  -1  -4 -21    0.66    2.24
   1   4 -21   -1.03    2.20
  -2  -5  21    2.18    1.92
   2   5  21    2.50    3.14
  -2  -5 -21    7.25    3.44
   2   5 -21   -0.17    2.01
   3   0  22   15.69    3.54
  -3   0 -22   15.03    9.19
   2  -1  22   12.60    2.58
   2  -1  22    9.84    4.21
   2  -1  22   12.19    2.84
  -2   1 -22   14.41    3.80
  -2   1 -22   18.22    6.16
  -2   1 -22   14.99    3.41
  -2   1 -22    9.25    4.03
  -1   2  22   34.09    2.38
   1  -2  22   35.45    3.68
  -1   2  22   27.35    2.63
   1  -2  22   41.04    3.33
   1  -2  22   31.79    3.28
  -1   2 -22   27.97    3.57
   1  -2 -22   23.24    2.93
   1  -2 -22   29.08    3.06
   1  -2 -22   26.91    3.58
  -1   2 -22   40.84    4.03
  -1   2 -22   35.74    4.03
   0  -3  22   28.75    3.29
   0   3  22   26.85    3.23
   0  -3  22   25.95    2.43
   0   3  22   37.73    4.34
   0  -3  22   24.58    3.35
   0   3  22   26.68    3.33
   0   3 -22   24.73    3.06
   0   3 -22   26.32    3.09
   0  -3 -22   27.00    3.19
   0   3 -22   24.30    3.13
   0  -3 -22   24.04    3.03
   0  -3 -22   33.89    3.79
  -1  -4  22    4.17    1.81
   1   4  22    3.71    2.56
  -1  -4 -22    3.25    2.65
   1   4 -22    3.03    2.14
  -2  -5  22    8.09    2.17
   2   5 -22    6.90    2.60
  -2  -5 -22   10.62    3.86
   2  -1  23    8.57    3.09
   2  -1  23    8.30    2.77
  -2   1 -23   12.66    3.45
  -2   1 -23    6.34    3.97
   1  -2  23   24.73    3.37
  -1   2  23   23.11    2.61
  -1   2  23   24.24    2.26
  -1   2 -23   30.09    3.64
  -1   2 -23   28.18    3.38
   1  -2 -23   26.63    3.20
   1  -2 -23   15.59    2.36
   0  -3  23   41.38    5.08
   0  -3  23   31.42    3.14
   0   3  23   40.00    3.55
   0   3 -23   33.77    5.03
   0   3 -23   28.39    3.44
   0  -3 -23   37.33    3.79
   1   4  23    7.30    2.94
  -1  -4  23    8.32    2.02
  -1  -4 -23    7.51    3.66
   1   4 -23    9.62    2.28
  -2  -5  23    8.88    2.42
   2   5  23    9.61    3.87
  -2  -5 -23   13.60    4.33
   2   5 -23    8.80    2.68
  -2   1 -24   14.44    3.65
   2  -1 -24    8.62    2.02
  -1   2  24   24.65    2.43
   1  -2  24   26.10    3.08
   1  -2 -24   21.95    2.56
  -1   2 -24   21.40    3.32
   0   3  24    5.48    2.31
   0  -3  24    5.12    2.24
   0   3 -24   -0.96    3.24
   0  -3 -24    4.83    2.65
  -1  -4  24    8.80    2.23
   1   4  24    8.30    3.01
  -1  -4 -24    3.97    3.16
   1   4 -24    3.45    2.53
   2  -1  25   13.69    3.55
  -2   1 -25    8.77    4.25
   2  -1 -25   12.23    2.22
  -1   2  25    6.00    2.30
   1  -2  25   -1.19    2.65
   1  -2 -25    0.27    2.35
  -1   2 -25    5.65    3.16
   0   3  25    0.62    2.58
   0  -3  25    1.86    2.29
   0   3 -25   -1.15    2.68
   0  -3 -25    2.93    2.71
  -1  -4  25    4.97    2.33
   1   4  25    4.69    3.13
   1   4 -25    1.88    2.68
  -1  -4 -25    2.76    3.26
   1  -2  26    3.79    2.84
  -1   2  26    7.39    2.56
  -1   2 -26   12.00    3.96
   1  -2 -26    5.25    2.61
   0  -3  26    8.06    2.68
   0   3  26    9.69    2.88
   0   3 -26    9.74    3.20
   0  -3 -26   12.52    3.11
   1   4  26   14.69    3.54
  -1  -4  26   12.35    2.77
  -1  -4 -26    6.55    3.61
   1   4 -26    6.10    3.02
  -1   2  27    3.17    2.65
   1  -2  27   -0.02    2.99
  -1   2 -27    2.75    3.68
   1  -2 -27   -1.66    2.67
   0   3  27   11.20    3.09
   0  -3  27    4.29    2.83
   0   3 -27    9.85    3.53
   0  -3 -27    9.93    3.34
   4   0   0    2.18    1.76
  -4   0   0    3.74    1.57
   4   0   0    2.44    1.40
  -4   0   0    1.56    1.79
  -3   1   0    1.36    1.01
   3  -1   0    0.71    0.87
  -3   1   0    1.05    0.97
   3  -1   0   -0.88    0.97
  -2   2   0    1.15    0.60
   2  -2   0    1.91    0.70
   2  -2   0    1.71    0.57
   1  -3   0   13.19    0.83
   1  -3   0   11.96    1.06
   1  -3   0   11.63    0.88
  -1   3   0   12.99    0.89
  -1   3   0   11.26    0.88
  -1   3   0   10.87    0.80
  -1   3   0   11.79    0.91
   1  -3   0   13.47    0.91
   0   4   0   97.99    2.66
   0  -4   0  101.83    2.67
   0   4   0   97.68    2.52
   0   4   0   99.05    2.59
   0  -4   0   99.34    2.54
   0  -4   0  100.00    2.66
   0   4   0   99.53    2.68
   0  -4   0   98.08    2.57
  -1  -5   0   24.98    1.61
   1   5   0   26.56    2.04
  -1  -5   0   26.79    1.94
  -1  -5   0   26.43    1.70
   1   5   0   27.88    1.82
  -1  -5   0   25.27    1.68
   1   5   0   26.22    1.54
   1   5   0   25.80    1.78
   2   6   0    1.96    1.66
   2   6   0    2.64    1.18
  -2  -6   0    3.24    1.34
  -2  -6   0    3.54    1.50
   2   6   0    1.58    1.82
  -2  -6   0    1.11    1.66
  -2  -6   0    2.70    1.71
   2   6   0    3.42    1.66
  -3  -7   0    3.76    2.14
  -4   0   1    1.11    1.73
   4   0   1    3.92    1.85
   4   0   1    1.28    1.42
   4   0  -1    0.98    1.71
   4   0  -1    2.41    1.43
  -4   0  -1    1.60    1.93
  -4   0  -1    1.77    1.72
   3  -1   1    7.08    1.14
   3  -1   1   10.56    1.30
   3  -1   1    8.27    1.12
   3  -1  -1    9.38    1.11
  -3   1  -1   10.24    1.24
  -3   1  -1    6.86    1.19
   2  -2   1    5.11    0.64
  -2   2   1    5.71    0.64
   2  -2   1    6.12    0.86
   2  -2   1    5.22    0.68
   2  -2   1    4.64    0.81
   2  -2  -1    5.10    0.63
  -2   2  -1    5.88    0.77
   2  -2  -1    7.06    0.83
  -2   2  -1    7.16    0.88
  -2   2  -1    5.19    0.60
  -2   2  -1    5.51    0.75
  -1   3   1   34.38    1.24
   1  -3   1   33.31    1.27
  -1   3   1   32.83    1.18
   1  -3   1   35.80    1.27
  -1   3   1   32.74    1.20
   1  -3   1   31.67    1.44
  -1   3   1   33.60    1.11
   1  -3   1   29.40    1.16
  -1   3  -1   34.34    1.25
   1  -3  -1   35.37    1.17
   1  -3  -1   34.61    1.21
  -1   3  -1   32.49    1.23
   1  -3  -1   35.09    1.17
  -1   3  -1   32.19    1.28
   1  -3  -1   33.54    1.19
  -1   3  -1   31.25    1.37
   0  -4   1   59.88    1.84
   0   4   1   63.34    1.96
   0  -4   1   61.25    1.98
   0   4   1   61.40    2.00
   0  -4   1   60.09    1.96
   0   4   1   58.70    1.97
   0  -4   1   61.59    1.89
   0   4  -1   60.12    1.91
   0  -4  -1   60.18    1.85
   0   4  -1   63.33    1.86
   0   4  -1   61.11    2.02
   0  -4  -1   61.92    1.98
   0   4  -1   62.22    2.02
   0  -4  -1   59.42    1.99
  -1  -5   1    0.69    0.83
   1   5   1   -0.18    0.87
   1   5   1   -0.61    1.13
  -1  -5   1    1.31    1.01
   1   5   1    0.90    1.00
   1   5   1    0.74    0.80
  -1  -5   1   -0.12    0.77
   1   5  -1   -0.44    1.60
   1   5  -1   -0.07    1.02
  -1  -5  -1    0.40    0.77
  -1  -5  -1   -0.13    1.07
   1   5  -1   -1.15    0.90
  -1  -5  -1    0.39    0.85
  -1  -5  -1   -0.02    0.87
   1   5  -1    1.49    0.69
   2   6   1   12.79    1.47
   2   6   1   12.45    2.00
  -2  -6   1   16.81    1.80
   2   6   1   13.88    2.08
  -2  -6   1   14.89    1.86
  -2  -6   1   12.95    1.61
  -2  -6   1   11.82    1.98
   2   6  -1   15.66    2.11
   2   6  -1   14.76    1.97
  -2  -6  -1   14.91    1.62
  -2  -6  -1   15.45    1.97
  -2  -6  -1   16.14    2.11
   2   6  -1   16.51    2.00
   2   6  -1   16.43    1.91
  -2  -6  -1   13.57    1.90
   3   7   1    7.59    2.49
  -3  -7   1    4.81    2.02
   3   7  -1    9.11    2.35
  -3  -7  -1    5.57    3.43
   4   0   2    1.55    2.07
   4   0   2    2.43    1.46
   4   0  -2    0.92    1.64
  -4   0  -2    1.65    1.94
  -4   0  -2    3.37    1.83
   4   0  -2   -0.84    1.32
   3  -1   2   18.86    1.72
   3  -1   2   19.00    2.21
   3  -1   2   21.69    2.22
   3  -1   2   20.98    1.81
  -3   1  -2   23.62    1.83
  -3   1  -2   19.11    1.84
  -3   1  -2   19.76    1.65
   3  -1  -2   20.05    1.48
  -3   1  -2   17.49    2.40
   2  -2   2   68.14    2.10
   2  -2   2   68.42    1.94
   2  -2   2   71.28    2.15
   2  -2   2   65.24    2.02
  -2   2  -2   71.08    2.13
  -2   2  -2   66.04    1.91
  -2   2  -2   66.67    2.08
  -2   2  -2   68.69    2.09
  -1   3   2   39.76    1.26
  -1   3   2   40.43    1.16
  -1   3   2   40.47    1.29
   1  -3   2   39.22    1.43
  -1   3   2   40.31    1.26
  -1   3  -2   39.37    1.40
   1  -3  -2   41.69    1.26
  -1   3  -2   42.29    1.51
   1  -3  -2   41.11    1.25
   1  -3  -2   38.76    1.26
  -1   3  -2   36.89    1.50
   1  -3  -2   39.07    1.27
  -1   3  -2   42.15    1.43
   0  -4   2    5.97    0.68
   0  -4   2    5.93    0.84
   0   4   2    5.07    0.83
   0   4   2    7.53    0.85
   0   4   2    7.39    0.88
   0   4   2    6.06    0.72
   0  -4   2    6.53    0.83
   0  -4   2    7.48    1.00
   0  -4  -2    7.47    0.86
   0   4  -2    7.08    0.88
   0  -4  -2    6.14    0.77
   0   4  -2    5.11    0.76
   0  -4  -2    6.05    0.80
   0   4  -2    6.67    0.88
   0   4  -2    6.96    0.92
   0  -4  -2    5.91    0.83
  -1  -5   2    9.97    1.33
   1   5   2    8.59    1.06
   1   5   2    9.33    1.25
  -1  -5   2    9.79    1.11
  -1  -5   2    7.67    1.14
   1   5   2    8.99    1.32
  -1  -5  -2    9.19    1.36
  -1  -5  -2    8.77    1.33
   1   5  -2    9.22    1.19
  -1  -5  -2    8.31    1.11
   1   5  -2    7.62    1.21
  -1  -5  -2    8.59    1.17
   1   5  -2    8.56    1.24
   1   5  -2    8.57    1.29
  -2  -6   2    0.98    1.45
   2   6   2    1.39    1.84
  -2  -6   2    2.74    1.44
   2   6   2    4.34    1.85
   2   6   2    2.99    1.44
  -2  -6   2    2.74    1.15
   2   6   2    2.97    1.12
  -2  -6   2    4.45    1.74
   2   6  -2    4.08    1.19
   2   6  -2    4.66    1.67
   2   6  -2    3.34    1.56
  -2  -6  -2    1.04    1.71
  -2  -6  -2    4.02    1.71
  -2  -6  -2    1.13    1.20
  -2  -6  -2    3.64    1.57
   2   6  -2    4.05    1.72
   3   7   2   -0.96    1.86
  -3  -7   2    0.07    1.77
  -3  -7  -2    3.01    3.78
   3   7  -2    0.73    1.84
   4   0   3    7.91    1.66
  -4   0  -3    8.25    2.21
  -4   0  -3    9.12    1.89
   3  -1   3   43.20    2.43
   3  -1   3   39.06    2.57
   3  -1   3   39.19    2.08
  -3   1  -3   41.97    3.14
  -3   1  -3   36.25    2.21
  -3   1  -3   33.82    2.42
  -3   1  -3   40.24    2.33
   2  -2   3   19.13    1.43
   2  -2   3   16.20    1.37
   2  -2   3   15.98    1.19
   2  -2   3   16.45    1.16
  -2   2  -3   15.18    1.08
  -2   2  -3   18.64    1.47
  -2   2  -3   17.09    1.31
  -2   2  -3   17.31    1.33
  -1   3   3   28.83    0.94
   1  -3   3   27.74    1.26
   1  -3   3   31.86    1.43
  -1   3   3   27.45    1.06
  -1   3   3   28.03    1.09
   1  -3   3   25.04    1.83
  -1   3  -3   29.55    1.27
   1  -3  -3   28.42    1.02
  -1   3  -3   26.52    1.33
  -1   3  -3   25.09    1.30
   1  -3  -3   27.38    1.06
  -1   3  -3   28.51    1.29
   1  -3  -3   28.52    1.02
   0   4   3  149.80    3.40
   0  -4   3  145.25    3.53
   0  -4   3  153.73    3.50
   0   4   3  145.24    3.49
   0   4   3  150.08    3.56
   0   4   3  144.76    3.81
   0  -4   3  142.89    3.54
   0   4  -3  146.63    3.54
   0  -4  -3  143.46    3.55
   0  -4  -3  145.76    3.57
   0  -4  -3  149.90    3.48
   0   4  -3  148.21    3.61
   0  -4  -3  151.56    3.48
   0   4  -3  149.05    3.43
  -1  -5   3   20.56    1.47
   1   5   3   18.37    1.89
  -1  -5   3   20.52    1.71
  -1  -5   3   20.31    1.80
   1   5   3   20.73    1.44
   1   5   3   21.40    1.75
   1   5   3   19.93    1.81
  -1  -5   3   19.01    1.48
  -1  -5  -3   17.59    1.54
   1   5  -3   21.14    1.85
   1   5  -3   21.48    1.69
  -1  -5  -3   21.90    1.94
   1   5  -3   17.54    1.92
  -1  -5  -3   22.07    1.64
  -2  -6   3   25.33    2.62
   2   6   3   27.90    3.03
   2   6   3   26.13    2.15
   2   6   3   27.42    3.04
  -2  -6   3   27.19    2.51
  -2  -6   3   25.80    2.75
   2   6   3   30.29    2.61
  -2  -6  -3   28.85    2.48
   2   6  -3   22.61    2.43
  -2  -6  -3   22.95    2.27
   2   6  -3   31.14    2.79
   2   6  -3   31.87    1.99
   2   6  -3   28.95    2.91
  -2  -6  -3   26.97    2.93
  -2  -6  -3   29.14    3.03
   3   7   3   23.62    3.06
  -3  -7  -3   22.40    3.48
   3   7  -3   25.17    2.76
   4   0   4   -1.16    1.59
  -4   0  -4    2.68    1.89
   3  -1   4    4.79    1.41
   3  -1   4    3.80    1.59
   3  -1   4    5.13    1.15
  -3   1  -4    2.41    1.31
  -3   1  -4    2.95    1.36
  -3   1  -4    5.25    1.50
   2  -2   4    2.11    0.75
   2  -2   4    2.07    0.73
   2  -2   4    2.06    0.94
   2  -2   4    1.30    0.80
  -2   2  -4    1.98    0.96
  -2   2  -4    2.11    0.63
  -2   2  -4    2.26    0.84
  -2   2  -4    3.10    0.87
   1  -3   4   46.48    1.66
   1  -3   4   46.02    2.33
   1  -3   4   51.30    1.63
  -1   3   4   47.94    1.42
   1  -3   4   48.81    1.67
  -1   3  -4   48.34    1.68
   1  -3  -4   49.50    1.43
  -1   3  -4   48.36    1.72
  -1   3  -4   47.70    1.66
  -1   3  -4   49.71    1.77
   1  -3  -4   48.80    1.35
   0   4   4   -0.33    0.67
   0  -4   4    0.82    0.72
   0   4   4   -0.24    0.72
   0  -4   4   -0.16    0.58
   0   4   4   -0.57    0.64
   0   4   4   -0.13    0.59
   0  -4  -4   -0.29    0.97
   0  -4  -4    0.21    0.68
   0   4  -4    0.50    0.71
   0   4  -4   -0.64    0.61
   0  -4  -4    0.40    0.64
   0  -4  -4   -0.56    0.65
   0   4  -4   -0.35    0.67
  -1  -5   4    5.53    1.11
  -1  -5   4    5.86    0.95
  -1  -5   4    5.18    0.82
   1   5   4    6.65    0.90
   1   5   4    4.83    1.14
  -1  -5   4    5.87    1.24
   1   5   4    6.14    1.25
  -1  -5  -4    5.96    1.06
  -1  -5  -4    6.38    1.13
   1   5  -4    6.52    1.22
   1   5  -4    8.54    1.15
   1   5  -4    6.87    1.06
  -1  -5  -4    5.60    1.54
   1   5  -4    6.24    1.30
  -1  -5  -4    6.68    1.48
   2   6   4   19.12    2.09
  -2  -6   4   20.26    2.54
   2   6   4   22.35    2.37
  -2  -6   4   20.29    2.12
   2   6   4   18.61    2.26
  -2  -6   4   20.26    2.30
   2   6   4   21.90    2.55
  -2  -6  -4   24.42    2.93
   2   6  -4   19.63    1.93
   2   6  -4   22.35    2.13
  -2  -6  -4   22.59    2.54
  -2  -6  -4   20.11    2.24
   2   6  -4   21.06    2.91
  -2  -6  -4   18.21    2.27
   2   6  -4   18.92    1.91
   3   7   4    0.13    1.80
  -3  -7  -4    2.03    2.17
   3   7  -4    2.64    1.68
   4   0   5    2.11    1.67
  -4   0  -5    7.49    2.02
   3  -1   5    6.19    1.46
   3  -1   5    7.48    1.28
   3  -1   5    4.80    1.70
  -3   1  -5    6.67    1.58
  -3   1  -5    3.96    1.36
  -3   1  -5    5.19    1.52
   2  -2   5    3.75    1.01
   2  -2   5    2.74    0.79
   2  -2   5    3.78    0.79
  -2   2  -5    4.50    1.03
  -2   2  -5    3.63    0.96
  -2   2  -5    3.77    0.71
  -2   2  -5    2.99    0.86
  -1   3   5   44.55    1.36
   1  -3   5   44.73    1.93
   1  -3   5   44.60    1.66
   1  -3   5   45.01    1.61
   1  -3   5   47.14    1.71
   1  -3  -5   43.91    1.38
  -1   3  -5   46.94    1.74
  -1   3  -5   43.92    1.78
  -1   3  -5   43.99    1.65
  -1   3  -5   46.25    1.78
   1  -3  -5   47.88    1.35
   0  -4   5   61.66    1.96
   0   4   5   57.69    1.99
   0  -4   5   62.22    2.04
   0   4   5   59.35    2.01
   0  -4   5   58.62    2.04
   0  -4   5   58.00    1.85
   0   4   5   60.56    1.99
   0  -4  -5   56.81    1.99
   0   4  -5   59.51    1.97
   0  -4  -5   59.29    1.96
   0  -4  -5   62.11    2.05
   0   4  -5   59.92    1.87
   0   4  -5   60.64    2.15
   0  -4  -5   54.60    1.93
   0   4  -5   62.43    2.08
   1   5   5   17.97    1.99
  -1  -5   5   17.84    1.40
   1   5   5   15.39    1.56
   1   5   5   19.63    1.77
   1   5   5   16.21    1.46
  -1  -5   5   16.83    1.68
  -1  -5   5   17.56    1.38
  -1  -5   5   17.10    1.76
  -1  -5  -5   18.79    1.72
  -1  -5  -5   15.20    1.59
   1   5  -5   17.06    1.34
   1   5  -5   18.09    1.83
  -1  -5  -5   16.79    1.97
   1   5  -5   18.64    1.67
  -1  -5  -5   15.85    1.93
   1   5  -5   15.31    1.93
  -2  -6   5    4.17    1.51
   2   6   5    6.11    1.86
   2   6   5    5.39    1.98
  -2  -6   5    2.53    1.66
   2   6   5    3.19    1.18
   2   6   5    3.44    1.59
  -2  -6   5    2.99    1.38
  -2  -6   5    3.48    1.19
  -2  -6  -5    2.15    1.38
  -2  -6  -5    2.18    2.01
   2   6  -5    1.02    1.66
  -2  -6  -5    3.50    1.61
   2   6  -5    2.77    1.76
   2   6  -5    1.33    1.55
  -2  -6  -5    6.94    1.97
  -3  -7   5   -2.44    1.71
   3   7   5    4.40    1.99
  -3  -7  -5   -3.21    2.02
   4   0   6    1.83    1.60
  -4   0  -6    6.28    2.19
   3  -1   6   19.75    2.28
   3  -1   6   15.69    1.56
   3  -1   6   13.84    1.91
  -3   1  -6   15.73    1.70
  -3   1  -6   14.62    1.83
  -3   1  -6   16.37    1.86
   2  -2   6   28.16    1.61
   2  -2   6   29.41    1.77
   2  -2   6   27.83    1.59
  -2   2  -6   30.33    1.93
  -2   2  -6   29.61    1.56
  -2   2  -6   29.50    1.76
  -2   2  -6   27.78    1.70
   1  -3   6   26.53    1.37
   1  -3   6   25.10    1.39
   1  -3   6   26.81    1.70
   1  -3   6   26.84    1.46
   1  -3  -6   28.07    1.13
  -1   3  -6   27.71    1.57
  -1   3  -6   27.55    1.49
   1  -3  -6   27.98    1.11
  -1   3  -6   27.25    1.49
  -1   3  -6   27.87    1.47
   0  -4   6  105.59    2.96
   0   4   6  105.43    2.74
   0   4   6  101.97    2.81
   0   4   6  102.91    2.79
   0  -4   6   99.96    2.74
   0  -4   6  108.16    2.89
   0  -4   6  102.50    2.68
   0   4   6  103.74    2.66
   0   4  -6  102.33    3.05
   0   4  -6  103.65    2.93
   0   4  -6  104.14    2.78
   0  -4  -6   97.59    2.77
   0  -4  -6   94.38    2.88
   0  -4  -6  101.17    2.77
   0  -4  -6  105.20    2.82
   0   4  -6  103.50    2.72
   1   5   6    4.13    1.31
  -1  -5   6    4.16    1.07
   1   5   6    4.95    1.13
  -1  -5   6    3.94    1.08
   1   5   6    3.52    1.30
   1   5   6    3.91    1.00
  -1  -5   6    4.44    0.82
  -1  -5   6    3.82    0.87
   1   5  -6    3.00    0.85
   1   5  -6    2.52    1.22
  -1  -5  -6    4.09    1.08
  -1  -5  -6    5.56    1.09
  -1  -5  -6    2.77    1.24
  -1  -5  -6    3.07    1.15
   1   5  -6    3.47    1.02
   1   5  -6    3.06    1.12
   2   6   6   19.81    2.62
   2   6   6   26.63    3.03
  -2  -6   6   23.09    2.44
  -2  -6   6   24.87    2.59
   2   6   6   22.04    2.35
  -2  -6   6   28.30    2.06
   2   6   6   28.42    2.67
  -2  -6  -6   25.75    2.48
   2   6  -6   24.16    2.91
   2   6  -6   24.34    2.74
  -2  -6  -6   23.46    2.56
  -2  -6  -6   29.53    3.44
   2   6  -6   30.16    2.99
  -2  -6  -6   26.17    2.72
   3   7   6   11.72    2.25
  -3  -7   6   13.20    2.03
  -3  -7  -6    6.52    2.22
   4   0   7    2.35    1.84
  -4   0  -7    8.55    2.36
   3  -1   7   58.00    3.27
   3  -1   7   55.43    2.71
  -3   1  -7   59.39    3.03
  -3   1  -7   58.96    3.02
  -3   1  -7   56.26    3.13
   2  -2   7   14.59    1.50
   2  -2   7   11.12    1.45
   2  -2   7   17.08    1.63
   2  -2   7   15.66    1.49
  -2   2  -7   15.23    1.50
  -2   2  -7   15.97    1.81
  -2   2  -7   15.85    1.60
  -2   2  -7   17.29    1.64
   1  -3   7    5.07    0.88
   1  -3   7    3.77    0.87
   1  -3   7    3.91    0.80
   1  -3   7    4.11    0.80
  -1   3  -7    4.20    0.87
   1  -3  -7    4.03    1.01
   1  -3  -7    3.56    0.62
  -1   3  -7    3.49    0.91
  -1   3  -7    4.08    0.81
  -1   3  -7    4.27    0.97
   0   4   7    2.99    0.80
   0   4   7    1.91    0.73
   0  -4   7    2.40    0.94
   0  -4   7    1.86    0.62
   0  -4   7    1.61    0.80
   0  -4   7    2.13    0.86
   0   4   7    2.59    0.88
   0   4   7    2.19    0.66
   0  -4  -7    2.46    0.85
   0  -4  -7    1.99    0.75
   0   4  -7    2.20    0.70
   0   4  -7    2.25    0.88
   0   4  -7    1.20    1.08
   0  -4  -7    1.15    0.68
   0   4  -7    1.34    0.88
   1   5   7   15.83    1.87
   1   5   7   17.02    2.00
  -1  -5   7   18.29    1.76
   1   5   7   15.94    1.58
   1   5   7   17.22    2.16
  -1  -5   7   17.81    1.33
  -1  -5   7   19.87    1.77
  -1  -5   7   15.35    1.45
  -1  -5  -7   19.98    2.13
   1   5  -7   16.10    2.10
  -1  -5  -7   19.42    1.74
  -1  -5  -7   19.94    2.09
   1   5  -7   17.73    1.92
   1   5  -7   17.66    1.62
  -1  -5  -7   16.47    1.78
   1   5  -7   18.10    1.38
   2   6   7   21.73    2.50
  -2  -6   7   18.73    1.92
   2   6   7   17.94    1.82
  -2  -6   7   17.10    1.94
   2   6   7   18.14    2.39
   2   6   7   21.78    2.75
  -2  -6   7   15.46    1.96
  -2  -6  -7   18.30    2.63
  -2  -6  -7   20.78    2.60
  -2  -6  -7   22.18    2.57
   2   6  -7   22.36    1.94
  -2  -6  -7   20.47    2.53
   2   6  -7   14.30    2.14
   2   6  -7   19.14    2.27
   3   7   7    5.36    2.11
  -3  -7   7    3.53    1.70
  -3  -7  -7    2.93    2.28
   3   7  -7    5.67    1.90
   4   0   8   -1.81    1.87
  -4   0  -8    3.76    2.28
   3  -1   8   19.16    2.17
   3  -1   8   21.33    2.72
   3  -1   8   19.65    2.59
  -3   1  -8   14.97    2.00
  -3   1  -8   24.12    2.63
  -3   1  -8   19.09    2.17
   2  -2   8    3.23    1.08
   2  -2   8    2.77    0.92
   2  -2   8    3.55    1.05
   2  -2   8    3.93    1.22
  -2   2  -8    4.25    1.18
  -2   2  -8    3.77    1.16
  -2   2  -8    1.72    1.05
  -2   2  -8    4.79    1.28
   1  -3   8   26.55    1.64
   1  -3   8   29.60    1.65
   1  -3   8   28.48    1.46
   1  -3   8   28.51    1.60
  -1   3  -8   29.33    1.70
  -1   3  -8   28.23    1.63
  -1   3  -8   29.41    1.78
  -1   3  -8   28.24    1.65
   1  -3  -8   28.70    1.89
   0   4   8   12.50    1.34
   0   4   8    9.16    1.10
   0   4   8   10.61    1.14
   0   4   8   11.99    1.22
   0  -4   8   10.04    1.21
   0  -4   8    9.70    1.12
   0  -4  -8   10.83    1.30
   0   4  -8    9.97    1.21
   0  -4  -8    9.57    1.23
   0  -4  -8   10.68    1.43
   0   4  -8    9.97    1.11
   1   5   8    2.30    0.98
  -1  -5   8    1.84    1.09
   1   5   8    1.49    1.36
  -1  -5   8    1.86    0.75
  -1  -5   8    1.96    0.81
   1   5   8    2.70    1.29
   1   5   8    2.42    1.12
  -1  -5   8    2.49    1.11
  -1  -5  -8    1.71    1.09
  -1  -5  -8    2.64    1.24
   1   5  -8    1.39    1.28
   1   5  -8    2.06    1.19
   1   5  -8    2.27    0.85
  -1  -5  -8    1.30    1.32
  -1  -5  -8    2.72    1.07
   1   5  -8    2.72    1.00
   2   6   8    8.10    2.31
  -2  -6   8    8.18    1.83
   2   6   8    8.28    1.88
   2   6   8    5.64    1.47
  -2  -6   8    8.26    1.61
   2   6   8    3.94    2.11
  -2  -6   8    6.69    1.35
  -2  -6  -8    7.28    2.34
  -2  -6  -8   10.00    1.73
  -2  -6  -8    5.34    2.40
   2   6  -8    7.73    1.34
   2   6  -8    9.30    2.09
  -2  -6  -8    8.74    1.88
  -3  -7   8    8.73    2.00
   3   7   8   10.54    2.48
  -3  -7  -8    5.10    2.37
   3   7  -8   11.10    1.94
   4   0   9    1.44    2.07
  -4   0  -9    5.63    2.71
   3  -1   9    3.80    1.74
   3  -1   9    2.03    1.29
  -3   1  -9    2.86    1.95
  -3   1  -9    5.37    1.89
  -3   1  -9    1.00    1.92
   2  -2   9    7.62    1.32
   2  -2   9    3.96    1.07
   2  -2   9    4.63    1.07
   2  -2   9    4.18    1.24
  -2   2  -9    3.67    1.21
  -2   2  -9    4.46    1.26
  -2   2  -9    4.05    1.43
  -2   2  -9    5.28    1.32
   1  -3   9   34.50    1.77
   1  -3   9   33.83    1.83
   1  -3   9   32.62    1.60
  -1   3  -9   35.36    1.89
  -1   3  -9   33.82    1.91
   1  -3  -9   33.47    1.34
  -1   3  -9   32.60    1.80
   0   4   9   42.91    1.69
   0  -4   9   43.84    1.81
   0   4   9   42.82    2.05
   0   4   9   43.43    1.90
   0  -4   9   44.48    2.03
   0  -4   9   46.35    1.74
   0   4   9   43.09    1.87
   0  -4  -9   42.89    2.02
   0   4  -9   39.29    2.15
   0  -4  -9   41.45    1.82
   0   4  -9   45.26    1.90
   0   4  -9   44.33    1.78
   0  -4  -9   40.68    1.91
   0   4  -9   45.72    2.74
  -1  -5   9   22.37    1.49
  -1  -5   9   25.22    2.01
  -1  -5   9   27.13    1.60
   1   5   9   26.55    2.19
   1   5   9   28.54    2.33
  -1  -5   9   25.40    1.98
   1   5   9   22.32    2.34
   1   5   9   24.56    1.79
  -1  -5  -9   23.67    2.48
  -1  -5  -9   23.61    2.15
   1   5  -9   25.02    1.58
   1   5  -9   27.79    2.27
  -1  -5  -9   25.03    2.49
   1   5  -9   24.41    1.86
  -1  -5  -9   28.67    2.09
   1   5  -9   25.38    2.22
   2   6   9    0.67    2.12
   2   6   9    0.14    1.50
  -2  -6   9    2.19    1.57
  -2  -6   9    2.55    1.64
   2   6   9   -0.59    2.18
   2   6   9    3.19    1.79
  -2  -6  -9   -1.47    2.21
   2   6  -9    1.56    1.30
  -2  -6  -9    4.90    1.63
  -2  -6  -9    2.53    2.31
  -2  -6  -9    4.48    1.76
   2   6  -9    1.83    2.05
  -3  -7   9    9.50    1.95
   3   7   9    8.09    2.51
   3   7  -9   14.61    2.13
  -3  -7  -9    8.97    2.62
   4   0  10    7.76    2.30
  -4   0 -10   13.52    2.82
   3  -1  10    6.50    1.90
   3  -1  10    7.15    1.62
   3  -1  10    8.79    2.20
  -3   1 -10    6.98    2.11
  -3   1 -10   10.99    2.54
  -3   1 -10    6.75    2.10
   2  -2  10    7.52    1.35
   2  -2  10    8.43    1.23
   2  -2  10    8.35    1.51
   2  -2  10    7.57    1.35
  -2   2 -10    8.93    1.45
  -2   2 -10    8.15    1.50
  -2   2 -10    5.94    1.49
  -2   2 -10    5.03    1.35
   1  -3  10   18.24    1.76
   1  -3  10   20.21    1.61
   1  -3  10   22.78    1.47
   1  -3  10   21.67    1.57
   1  -3 -10   23.03    1.23
  -1   3 -10   17.39    1.65
  -1   3 -10   19.91    1.80
  -1   3 -10   19.18    1.78
  -1   3 -10   19.27    1.67
   1  -3 -10   20.16    1.31
   0  -4  10    6.43    0.95
   0   4  10    6.66    1.00
   0  -4  10    6.48    0.82
   0   4  10    6.48    1.11
   0  -4  10    7.50    1.20
   0   4  10    9.20    1.13
   0   4  10    7.55    1.05
   0   4 -10    6.59    0.91
   0   4 -10    7.19    1.22
   0  -4 -10    7.45    1.18
   0   4 -10    6.64    1.15
   0  -4 -10    5.21    1.01
   0  -4 -10    6.45    1.01
   1   5  10   14.64    1.77
  -1  -5  10   12.94    1.48
  -1  -5  10   13.67    1.45
  -1  -5  10   11.77    1.44
   1   5  10   16.09    1.68
   1   5  10   13.45    1.63
  -1  -5  10   12.71    1.37
   1   5  10   14.42    1.67
  -1  -5 -10   14.00    1.93
   1   5 -10   12.45    1.40
  -1  -5 -10   13.06    1.58
   1   5 -10   12.20    1.41
  -1  -5 -10   17.42    2.33
  -1  -5 -10   11.84    1.63
   1   5 -10   14.28    1.65
   1   5 -10   14.21    1.65
  -2  -6  10    5.04    1.73
   2   6  10    4.90    1.58
  -2  -6  10    4.62    1.74
  -2  -6  10    5.58    1.43
   2   6  10    4.26    2.45
   2   6  10    3.58    1.93
   2   6  10    6.96    2.38
   2   6 -10    5.34    1.93
   2   6 -10    0.49    2.27
  -2  -6 -10    5.47    2.56
  -2  -6 -10    6.16    1.90
   2   6 -10    4.50    2.11
  -2  -6 -10    5.72    2.54
  -2  -6 -10    5.13    1.90
  -3  -7  10   10.55    1.93
   3   7  10    3.13    2.34
  -3  -7 -10   11.08    2.77
   3   7 -10    6.54    1.98
  -4   0 -11    3.33    2.84
   3  -1  11   31.70    3.22
   3  -1  11   27.35    3.04
   3  -1  11   29.83    3.10
  -3   1 -11   26.55    3.31
  -3   1 -11   31.36    4.29
  -3   1 -11   24.53    3.29
   2  -2  11    4.70    1.13
   2  -2  11    5.30    1.39
   2  -2  11    4.15    1.44
   2  -2  11    4.65    1.24
  -2   2 -11    6.12    1.58
  -2   2 -11    5.20    1.45
  -2   2 -11    6.08    1.52
  -2   2 -11    4.87    1.62
   1  -3  11   41.95    1.99
   1  -3  11   41.93    1.88
  -1   3  11   42.39    1.55
  -1   3  11   39.41    1.64
   1  -3  11   41.84    2.19
   1  -3  11   42.87    2.06
  -1   3 -11   40.78    2.19
   1  -3 -11   43.31    1.65
  -1   3 -11   41.34    2.27
  -1   3 -11   43.55    2.17
   1  -3 -11   40.72    1.62
  -1   3 -11   43.37    2.19
   0  -4  11  127.94    3.56
   0   4  11  126.08    3.30
   0   4  11  124.12    3.41
   0   4  11  121.22    3.46
   0  -4  11  121.18    3.24
   0  -4  11  122.53    3.98
   0  -4  11  123.83    3.39
   0   4  11  122.67    3.24
   0   4 -11  121.94    3.38
   0   4 -11  126.53    3.44
   0  -4 -11  118.45    3.41
   0  -4 -11  121.23    3.47
   0   4 -11  121.07    3.66
   0  -4 -11  117.24    3.94
   0   4 -11  128.65    4.49
  -1  -5  11   35.57    2.27
   1   5  11   33.96    2.69
  -1  -5  11   32.95    1.78
   1   5  11   35.73    2.46
  -1  -5  11   34.86    2.17
   1   5  11   35.70    2.15
   1   5  11   35.62    2.70
  -1  -5  11   33.08    1.91
  -1  -5 -11   32.32    2.46
  -1  -5 -11   38.87    2.46
  -1  -5 -11   32.17    2.82
   1   5 -11   34.16    2.49
  -1  -5 -11   30.82    2.80
   1   5 -11   35.60    2.49
   1   5 -11   31.53    1.90
  -2  -6  11    3.33    1.70
   2   6  11    5.27    2.59
   2   6  11    7.49    2.70
  -2  -6  11    2.15    1.79
  -2  -6  11    4.85    1.36
   2   6  11    3.77    1.92
   2   6  11    2.81    1.65
  -2  -6 -11    4.55    2.66
  -2  -6 -11    3.24    1.94
   2   6 -11    4.11    1.30
  -2  -6 -11    4.21    1.95
   2   6 -11    2.56    2.10
  -2  -6 -11    2.79    2.72
   2   6 -11    4.66    2.27
  -3  -7  11    4.48    1.94
   3   7  11    2.79    2.50
   3   7 -11    6.36    2.16
  -3  -7 -11    7.69    2.84
   4   0  12   -1.60    2.23
  -4   0 -12    2.01    3.14
   3  -1  12    5.78    2.85
   3  -1  12    4.89    1.98
   3  -1  12    4.27    2.07
  -3   1 -12    7.55    2.41
  -3   1 -12    6.59    3.75
  -3   1 -12    2.13    2.28
   2  -2  12   32.02    2.56
   2  -2  12   30.45    2.15
   2  -2  12   30.74    3.60
   2  -2  12   32.40    2.33
  -2   2 -12   29.07    2.72
  -2   2 -12   33.90    2.70
  -2   2 -12   35.38    4.18
  -2   2 -12   36.01    2.65
   1  -3  12   18.47    1.82
   1  -3  12   17.87    1.60
  -1   3  12   17.84    1.22
  -1   3  12   18.04    1.30
   1  -3  12   17.38    1.97
   1  -3  12   17.80    1.66
   1  -3 -12   15.38    1.25
  -1   3 -12   15.27    1.61
  -1   3 -12   15.48    2.10
  -1   3 -12   17.80    1.81
   1  -3 -12   18.18    1.43
   0   4  12    5.65    1.21
   0  -4  12    4.94    1.22
   0  -4  12    6.19    0.98
   0  -4  12    6.99    1.08
   0   4  12    6.42    0.89
   0   4  12    6.23    1.05
   0   4  12    6.43    1.09
   0  -4  12    6.30    1.17
   0   4 -12    7.42    2.31
   0  -4 -12    5.84    1.08
   0   4 -12    7.76    1.43
   0  -4 -12    6.21    1.13
   0   4 -12    6.67    1.04
   0   4 -12    5.41    1.20
   0  -4 -12    5.60    1.91
   0  -4 -12    4.07    1.32
   1   5  12   20.89    2.49
  -1  -5  12   22.08    1.66
   1   5  12   26.41    2.13
  -1  -5  12   23.07    1.82
  -1  -5  12   25.14    2.27
   1   5  12   30.08    2.66
   1   5  12   25.14    2.75
  -1  -5  12   27.32    2.19
  -1  -5 -12   24.41    2.39
  -1  -5 -12   26.34    3.06
  -1  -5 -12   33.36    2.39
   1   5 -12   22.73    1.80
   1   5 -12   23.32    2.56
  -1  -5 -12   25.16    2.76
   1   5 -12   25.19    2.47
   2   6  12   11.58    2.31
   2   6  12   10.30    1.90
  -2  -6  12   12.39    2.14
  -2  -6  12   11.87    2.07
   2   6  12    6.20    2.92
   2   6  12   15.85    2.92
  -2  -6  12   14.71    1.99
  -2  -6 -12   10.39    3.21
   2   6 -12   10.97    1.50
  -2  -6 -12    8.23    2.20
   2   6 -12   11.54    2.39
   2   6 -12   11.38    2.35
  -2  -6 -12   13.02    2.96
  -2  -6 -12   12.67    2.25
   3   7  12    3.84    2.72
  -3  -7  12    6.57    1.94
   3   7 -12    5.08    2.08
  -3  -7 -12   14.88    3.35
   4   0  13   20.78    2.93
  -4   0 -13   23.36    3.57
   3  -1  13   25.98    3.55
   3  -1  13   17.78    3.56
   3  -1  13   21.08    2.55
  -3   1 -13   30.08    3.83
  -3   1 -13   23.70    2.88
  -3   1 -13   32.27    3.68
   2  -2  13   24.20    2.29
   2  -2  13   28.08    2.42
   2  -2  13   30.11    2.81
   2  -2  13   25.44    2.19
  -2   2 -13   29.37    2.85
  -2   2 -13   29.55    2.69
  -2   2 -13   32.08    2.59
  -2   2 -13   25.84    2.82
   1  -3  13   14.91    1.65
   1  -3  13   14.69    1.64
   1  -3  13   18.26    1.94
   1  -3  13   15.82    1.59
  -1   3 -13   16.18    1.91
  -1   3 -13   14.99    1.86
  -1   3 -13   12.81    1.60
  -1   3 -13   14.65    1.95
   1  -3 -13   13.56    1.33
   1  -3 -13   14.02    1.46
   0  -4  13    3.49    1.16
   0  -4  13    4.87    1.28
   0   4  13    3.52    0.93
   0   4  13    1.94    1.00
   0  -4  13    3.18    0.96
   0   4  13    2.27    1.26
   0   4  13    5.47    1.12
   0  -4  13    3.18    0.94
   0  -4 -13    6.42    1.09
   0  -4 -13    1.29    1.28
   0  -4 -13    2.33    1.43
   0   4 -13    3.56    1.03
   0   4 -13    4.70    1.26
   0  -4 -13    6.78    1.28
   0   4 -13    4.76    1.92
   0   4 -13    2.93    1.38
   1   5  13   34.33    2.85
  -1  -5  13   37.72    2.55
  -1  -5  13   34.91    2.39
  -1  -5  13   33.36    2.08
   1   5  13   31.90    3.00
   1   5  13   35.42    2.74
   1   5  13   36.04    2.43
  -1  -5  13   31.61    1.91
  -1  -5 -13   35.09    3.15
   1   5 -13   35.44    2.81
  -1  -5 -13   30.20    3.25
  -1  -5 -13   40.39    2.78
  -1  -5 -13   34.31    2.65
   1   5 -13   36.82    2.70
   1   5 -13   34.33    2.08
   2   6  13   18.59    2.73
  -2  -6  13   20.09    2.38
   2   6  13   21.46    3.35
   2   6  13   21.07    2.26
   2   6  13   22.50    3.31
  -2  -6  13   19.32    2.33
  -2  -6  13   18.37    2.17
  -2  -6 -13   19.45    2.70
  -2  -6 -13   15.57    3.12
   2   6 -13   21.23    2.59
   2   6 -13   18.57    2.21
  -2  -6 -13   11.41    3.42
  -2  -6 -13   17.10    2.41
   2   6 -13   20.70    2.63
  -3  -7  13   36.63    3.23
   3   7  13   35.34    3.40
   3   7 -13   42.22    3.31
  -3  -7 -13   54.51    5.87
   4   0  14   13.25    2.72
  -4   0 -14   14.14    3.67
   3  -1  14    1.33    2.92
   3  -1  14    3.30    2.51
   3  -1  14    4.11    2.14
  -3   1 -14    1.80    2.70
  -3   1 -14    5.11    2.51
  -3   1 -14    2.63    2.64
   2  -2  14    6.92    1.62
   2  -2  14    8.42    2.05
   2  -2  14    8.00    1.67
   2  -2  14    6.05    1.41
  -2   2 -14   12.74    3.11
  -2   2 -14    8.63    1.81
  -2   2 -14    4.91    1.95
  -2   2 -14    6.27    1.89
   1  -3  14    1.28    0.95
   1  -3  14    0.93    1.08
  -1   3  14   -0.21    0.88
  -1   3  14    0.39    0.89
   1  -3  14    1.32    1.21
   1  -3  14    1.32    1.37
  -1   3 -14    0.31    1.41
  -1   3 -14    0.11    1.28
   1  -3 -14   -0.34    0.91
  -1   3 -14   -1.53    1.54
  -1   3 -14   -0.78    1.38
   1  -3 -14    0.97    0.88
   0   4  14    2.77    1.12
   0  -4  14   -0.77    0.92
   0  -4  14    0.21    0.96
   0   4  14    0.01    0.93
   0   4  14   -1.70    1.06
   0   4  14    0.56    1.22
   0  -4  14   -0.52    1.16
   0  -4  14    0.15    1.19
   0   4 -14    1.98    1.45
   0   4 -14   -1.76    0.99
   0  -4 -14    1.91    1.21
   0   4 -14   -0.19    1.87
   0  -4 -14    0.22    1.77
   0  -4 -14   -1.53    1.21
   0  -4 -14    1.74    1.16
   0   4 -14   -0.51    1.23
   1   5  14   35.60    3.12
  -1  -5  14   30.82    2.59
   1   5  14   32.14    3.23
   1   5  14   36.71    3.16
  -1  -5  14   30.02    2.42
   1   5  14   34.18    2.77
  -1  -5  14   32.40    2.04
  -1  -5  14   34.50    2.16
  -1  -5 -14   33.21    3.29
  -1  -5 -14   32.92    2.81
  -1  -5 -14   33.70    2.95
  -1  -5 -14   31.98    3.32
   1   5 -14   35.31    2.15
   1   5 -14   31.68    2.88
   1   5 -14   34.61    2.82
  -2  -6  14    4.98    2.13
   2   6  14   10.36    3.04
   2   6  14    4.54    3.03
   2   6  14    5.91    2.05
   2   6  14    8.85    2.48
  -2  -6  14    4.33    1.99
   2   6 -14    7.90    3.66
  -2  -6 -14    5.91    3.50
  -2  -6 -14    8.54    2.32
   2   6 -14    7.45    2.62
  -2  -6 -14    8.51    3.06
  -2  -6 -14    4.12    2.22
   3   7  14    5.15    3.08
  -3  -7  14    4.88    2.07
  -3  -7 -14    6.80    4.34
   3   7 -14    1.37    2.10
   3  -1  15   10.22    2.08
   3  -1  15    3.88    2.21
  -3   1 -15    8.68    2.76
  -3   1 -15    5.14    4.55
   2  -2  15   17.98    1.99
   2  -2  15   20.56    2.37
   2  -2  15   19.28    2.31
   2  -2  15   17.98    2.07
  -2   2 -15   23.95    2.93
  -2   2 -15   18.92    2.35
  -2   2 -15   15.70    2.31
  -2   2 -15   22.66    2.59
  -1   3  15   18.24    1.61
   1  -3  15   18.16    1.90
   1  -3  15   19.38    2.01
   1  -3  15   20.18    2.42
   1  -3  15   16.40    1.96
  -1   3  15   18.92    1.56
   1  -3 -15   14.02    1.71
  -1   3 -15   18.14    2.38
  -1   3 -15   17.52    1.84
  -1   3 -15   16.93    2.23
  -1   3 -15   14.89    1.99
   1  -3 -15   18.16    1.61
   0  -4  15   15.56    1.73
   0   4  15   15.63    1.91
   0  -4  15   17.07    1.69
   0   4  15   17.39    2.22
   0  -4  15   14.64    1.69
   0   4  15   21.91    2.02
   0   4  15   15.47    1.59
   0  -4  15   16.22    1.75
   0  -4 -15   15.47    1.75
   0   4 -15   18.10    2.00
   0   4 -15   16.34    2.50
   0   4 -15   16.87    1.93
   0  -4 -15   15.79    1.62
   0   4 -15   16.86    1.89
   0  -4 -15   17.50    1.78
   0  -4 -15   20.63    2.70
   1   5  15   18.15    2.11
  -1  -5  15   17.95    2.01
   1   5  15   23.46    2.53
  -1  -5  15   21.00    2.48
  -1  -5  15   19.58    1.85
   1   5  15   18.85    2.23
   1   5 -15   22.34    2.88
   1   5 -15   17.26    1.90
  -1  -5 -15   25.94    3.43
  -1  -5 -15   24.09    3.03
  -1  -5 -15   20.07    2.50
   1   5 -15   15.50    2.20
  -1  -5 -15   18.00    2.06
   2   6  15   10.90    3.45
   2   6  15    9.59    2.69
   2   6  15    8.77    2.22
  -2  -6  15    7.43    1.68
  -2  -6 -15    2.72    3.72
  -2  -6 -15    6.01    3.27
   2   6 -15    8.58    1.80
  -2  -6 -15    5.43    2.50
  -2  -6 -15   13.34    2.64
   3  -1  16    3.92    1.98
   3  -1  16   -0.77    2.26
  -3   1 -16    3.56    2.76
  -3   1 -16    6.91    2.94
   2  -2  16   12.36    2.32
   2  -2  16    9.35    1.81
   2  -2  16   10.97    1.92
   2  -2  16    9.42    1.82
  -2   2 -16   11.16    2.23
  -2   2 -16   15.36    2.34
  -2   2 -16   11.56    2.42
  -2   2 -16   10.92    2.48
  -1   3  16    6.27    1.13
   1  -3  16    6.08    1.37
   1  -3  16    5.47    1.35
   1  -3  16    5.32    1.39
   1  -3  16    7.04    1.74
  -1   3  16    7.47    1.21
   1  -3 -16    4.04    1.18
  -1   3 -16    4.09    1.84
   1  -3 -16    7.34    1.24
  -1   3 -16    5.13    1.64
  -1   3 -16    5.49    1.83
  -1   3 -16    4.82    1.76
   0   4  16    1.28    1.39
   0  -4  16    1.19    1.17
   0  -4  16    0.43    1.35
   0  -4  16   -0.85    1.38
   0   4  16    0.12    1.27
   0  -4  16   -0.32    1.05
   0   4  16   -1.07    0.96
   0   4  16   -1.29    1.34
   0  -4 -16   -1.37    1.31
   0  -4 -16   -1.97    1.44
   0   4 -16    2.33    2.16
   0   4 -16    1.51    1.29
   0  -4 -16    0.77    1.38
   0  -4 -16    0.27    1.97
   0   4 -16    1.08    1.46
   0   4 -16    2.55    1.78
   1   5  16   22.74    3.30
  -1  -5  16   25.42    2.72
  -1  -5  16   18.74    2.53
   1   5  16   23.94    3.32
   1   5  16   27.31    3.52
   1   5  16   26.50    2.82
  -1  -5  16   22.82    2.20
   1   5 -16   24.43    2.10
  -1  -5 -16   26.69    3.52
  -1  -5 -16   20.16    2.59
  -1  -5 -16   27.82    2.81
  -1  -5 -16   26.10    3.02
   1   5 -16   25.53    3.17
   1   5 -16   21.73    2.89
   2   6  16    7.79    3.51
  -2  -6  16    4.35    1.71
   2   6  16    2.29    2.31
   2   6  16    2.11    2.77
  -2  -6 -16    4.97    2.64
  -2  -6 -16    4.08    3.57
   2   6 -16    5.35    1.77
  -2  -6 -16    4.77    2.75
   3  -1  17    9.80    2.40
  -3   1 -17   12.56    3.26
   2  -2  17   29.68    2.99
   2  -2  17   24.95    2.86
   2  -2  17   26.88    2.81
   2  -2  17   25.07    2.72
  -2   2 -17   27.38    3.35
  -2   2 -17   30.68    3.16
  -2   2 -17   30.58    3.67
  -2   2 -17   17.45    2.76
  -1   3  17   15.59    1.79
   1  -3  17   14.58    1.75
   1  -3  17   12.38    1.59
   1  -3  17   14.65    1.78
  -1   3  17   13.11    1.37
   1  -3  17   15.64    2.04
   1  -3 -17   14.54    1.59
  -1   3 -17   13.15    2.19
  -1   3 -17   12.88    2.09
  -1   3 -17   14.76    2.08
  -1   3 -17   13.60    2.36
   1  -3 -17   15.31    1.84
   0   4  17    8.50    1.64
   0   4  17    7.45    1.57
   0  -4  17    6.61    1.59
   0  -4  17    6.62    1.39
   0  -4  17    7.57    1.78
   0   4  17    6.37    1.64
   0  -4  17    6.74    1.38
   0   4 -17    8.33    2.29
   0  -4 -17    6.95    1.62
   0   4 -17    5.56    1.74
   0   4 -17    7.65    1.95
   0  -4 -17    7.45    1.85
   0  -4 -17    8.81    2.48
   0   4 -17    7.06    1.64
   1   5  17   10.63    2.19
   1   5  17   11.45    2.16
   1   5  17   10.36    2.32
  -1  -5  17   11.38    1.95
  -1  -5  17   10.38    1.84
  -1  -5  17   10.97    1.72
  -1  -5 -17   10.76    2.18
   1   5 -17    9.18    2.25
  -1  -5 -17   10.41    2.59
   1   5 -17   12.01    2.15
  -1  -5 -17   11.86    2.76
   2   6  17   19.08    2.78
   2   6  17   14.36    3.03
  -2  -6  17   20.73    2.62
   2   6 -17   19.68    2.69
  -2  -6 -17   15.26    3.00
  -2  -6 -17   21.35    3.20
   3  -1  18   -0.08    2.31
  -3   1 -18    6.69    3.36
   2  -2  18    0.77    1.88
   2  -2  18    2.63    1.87
   2  -2  18    2.71    1.96
   2  -2  18   -0.63    2.35
  -2   2 -18   -1.44    2.54
  -2   2 -18   -2.23    2.87
  -2   2 -18    3.61    2.58
  -2   2 -18    0.32    2.42
   1  -3  18   12.51    1.79
  -1   3  18   12.70    1.59
   1  -3  18   11.82    1.71
   1  -3  18   11.71    2.09
   1  -3  18   13.83    1.81
  -1   3  18   12.21    1.39
   1  -3 -18   15.69    2.04
  -1   3 -18   12.04    2.26
  -1   3 -18   11.36    2.01
   1  -3 -18    8.34    1.54
   1  -3 -18   11.32    1.66
  -1   3 -18   10.50    2.37
  -1   3 -18   13.77    2.24
   0  -4  18    6.32    1.87
   0  -4  18    6.78    1.56
   0  -4  18    4.26    1.72
   0   4  18    6.89    1.71
   0   4  18    5.55    1.60
   0   4  18    7.86    1.66
   0  -4  18    6.25    1.43
   0   4 -18    7.06    2.12
   0  -4 -18    4.47    1.69
   0  -4 -18    5.05    1.90
   0   4 -18    8.84    2.44
   0   4 -18    6.47    2.01
   0  -4 -18    4.09    2.09
   0   4 -18    6.63    1.67
   1   5  18   16.34    2.67
  -1  -5  18   19.32    2.31
   1   5  18   15.70    2.30
  -1  -5  18   20.36    2.34
  -1  -5  18   16.04    2.05
   1   5  18   21.65    2.48
  -1  -5 -18   16.47    3.35
   1   5 -18   19.30    2.33
   1   5 -18   14.73    2.51
  -1  -5 -18   20.63    2.53
  -1  -5 -18   22.30    3.95
  -2  -6  18   12.03    2.07
   2   6  18   12.36    2.91
  -2  -6 -18   10.45    3.26
  -2  -6 -18   16.60    3.44
   2   6 -18   13.54    2.11
   3  -1  19    1.54    2.39
  -3   1 -19    2.60    3.48
   2  -2  19    0.79    1.89
   2  -2  19   -0.21    1.88
   2  -2  19    2.56    2.11
   2  -2  19    3.90    2.59
  -2   2 -19    1.96    2.73
  -2   2 -19    2.82    3.07
  -2   2 -19    0.65    3.11
  -2   2 -19    0.53    2.73
  -1   3  19   40.88    2.43
  -1   3  19   33.16    2.18
   1  -3  19   29.30    2.78
   1  -3  19   33.60    3.47
   1  -3  19   38.52    2.77
   1  -3  19   35.82    2.82
  -1   3 -19   33.01    3.53
   1  -3 -19   43.08    2.58
  -1   3 -19   33.24    3.25
   1  -3 -19   34.75    2.59
  -1   3 -19   38.93    3.58
  -1   3 -19   32.67    3.90
   0  -4  19   18.71    2.45
   0   4  19   19.97    2.18
   0   4  19   20.71    2.65
   0  -4  19   19.43    2.30
   0   4  19   20.33    2.71
   0  -4  19   22.52    2.35
   0   4 -19   21.54    2.58
   0   4 -19   21.56    2.61
   0  -4 -19   21.72    2.28
   0  -4 -19   19.89    2.48
   0   4 -19   24.34    2.95
   0  -4 -19   17.63    2.70
  -1  -5  19    5.88    1.66
  -1  -5  19    4.66    1.85
  -1  -5  19    6.44    2.17
   1   5  19    1.64    2.64
   1   5  19    7.44    2.37
   1   5  19    6.55    2.28
   1   5 -19    3.53    1.77
  -1  -5 -19    1.45    4.13
  -1  -5 -19    6.09    3.22
   1   5 -19    3.32    2.48
   2   6  19    7.80    3.64
  -2  -6  19    7.23    2.03
   2   6 -19   10.07    2.20
  -2  -6 -19    7.00    3.56
   3  -1  20   10.59    3.00
  -3   1 -20    8.31    4.26
   2  -2  20   -2.01    1.99
   2  -2  20   -3.53    2.04
   2  -2  20    1.46    2.32
   2  -2  20   -0.28    2.75
  -2   2 -20    0.37    3.49
  -2   2 -20   -1.99    2.71
  -2   2 -20   -2.91    3.30
  -2   2 -20    3.59    2.97
  -1   3  20    3.86    1.50
   1  -3  20    0.03    1.75
   1  -3  20    0.34    2.16
   1  -3  20    3.85    1.75
   1  -3  20    1.41    1.55
  -1   3  20    1.30    1.31
   1  -3 -20    5.63    1.60
  -1   3 -20    2.48    2.35
   1  -3 -20    2.63    1.65
  -1   3 -20    5.23    2.20
   1  -3 -20   -0.09    1.69
  -1   3 -20   -0.65    2.49
  -1   3 -20   -2.14    2.79
   0  -4  20   11.04    2.24
   0   4  20   11.54    2.04
   0  -4  20    9.40    2.11
   0   4  20   12.45    2.11
   0   4  20   12.08    2.00
   0  -4  20   10.85    1.82
   0  -4 -20   11.71    2.79
   0   4 -20   10.77    1.97
   0   4 -20   15.86    2.75
   0  -4 -20   10.37    2.37
   0   4 -20   11.82    2.71
   0  -4 -20   12.93    2.14
  -1  -5  20   21.66    2.72
   1   5  20   33.27    3.67
   1   5  20   29.95    3.73
  -1  -5 -20   32.32    5.87
   1   5 -20   23.55    3.97
  -1  -5 -20   33.81    3.99
   2   6  20    3.04    3.81
  -2  -6  20    7.07    2.18
  -2  -6 -20    7.87    3.24
   2   6 -20    6.84    2.32
   3  -1  21    9.66    3.20
   2  -2  21    4.33    2.58
   2  -2  21    2.34    2.28
   2  -2  21    2.68    2.38
   2  -2  21    1.98    3.03
  -2   2 -21    0.17    3.63
  -2   2 -21   -1.79    5.37
  -2   2 -21    1.87    2.94
  -2   2 -21    6.47    3.36
   1  -3  21    8.33    1.92
   1  -3  21    7.63    2.01
  -1   3  21    4.56    1.53
  -1   3  21    9.51    1.76
   1  -3  21    4.84    2.45
   1  -3 -21    8.12    1.80
  -1   3 -21    3.08    2.93
  -1   3 -21   12.43    2.78
   1  -3 -21    9.55    1.98
  -1   3 -21   10.75    2.89
  -1   3 -21    6.04    4.27
   0   4  21   17.97    2.81
   0   4  21   15.00    2.28
   0  -4  21   16.56    2.13
   0   4  21   14.37    2.37
   0  -4  21   11.89    2.37
   0  -4  21   11.89    2.35
   0  -4 -21   14.81    2.39
   0  -4 -21   14.44    2.73
   0   4 -21   13.03    2.86
   0   4 -21   12.78    2.87
   0  -4 -21   15.90    3.08
   0   4 -21   14.36    2.88
   1   5  21   10.58    2.84
  -1  -5  21    7.55    1.82
  -1  -5 -21   10.19    2.84
   1   5 -21    7.02    2.19
   2   6  21    4.72    4.89
  -2  -6  21    3.85    2.22
  -2  -6 -21    3.38    4.33
   2   6 -21    1.81    2.30
   2  -2  22    3.22    2.66
   2  -2  22   10.94    2.75
  -2   2 -22   10.16    3.61
  -2   2 -22    5.74    6.22
  -2   2 -22   10.56    3.64
   1  -3  22    8.96    2.79
   1  -3  22   10.09    2.20
  -1   3  22   10.66    1.85
   1  -3  22   10.48    2.32
  -1   3  22    8.13    1.73
  -1   3 -22   12.71    2.78
  -1   3 -22    8.36    2.96
   1  -3 -22    5.81    2.25
   1  -3 -22   13.38    2.26
  -1   3 -22    5.42    3.38
   1  -3 -22   12.05    2.05
   0   4  22    0.80    2.07
   0  -4  22    0.63    1.88
   0  -4  22    0.56    2.27
   0   4  22    1.43    3.38
   0  -4 -22   -0.05    2.12
   0   4 -22   -1.87    2.10
   0   4 -22    1.74    2.82
  -1  -5  22   15.39    2.23
   1   5  22   17.33    2.96
  -1  -5 -22   15.09    3.47
   1   5 -22   15.62    2.49
   2  -2  23    3.39    2.61
   2  -2  23   -2.31    2.88
  -2   2 -23   -0.03    3.88
  -2   2 -23    7.04    3.62
   1  -3  23    4.45    2.29
  -1   3  23    9.89    1.95
  -1   3  23    4.14    1.75
  -1   3 -23    7.04    3.59
   1  -3 -23    7.84    2.08
  -1   3 -23    9.59    3.31
   0   4  23   -2.81    2.17
   0  -4  23   -0.50    2.55
   0   4 -23   -2.04    2.37
   0  -4 -23    1.03    2.36
  -1  -5  23    5.83    2.27
   1   5  23    7.76    2.90
  -1  -5 -23   12.22    3.22
   1   5 -23    7.04    2.39
   2  -2  24    9.92    3.58
  -2   2 -24    3.81    4.11
  -1   3  24   14.97    2.30
   1  -3  24   15.80    2.90
  -1   3 -24   12.65    3.12
   1  -3 -24   18.50    2.44
   0   4  24    2.45    2.38
   0  -4  24   -1.52    2.15
   0   4 -24   -0.69    2.65
   0  -4 -24    2.60    2.56
   1   5  24   13.23    3.17
  -1  -5  24    9.08    2.53
   1   5 -24   11.86    2.74
  -1  -5 -24   18.40    3.76
   2  -2  25    7.21    3.78
  -2   2 -25   -2.73    5.14
  -1   3  25   -1.62    2.33
   1  -3  25   -0.13    3.41
   1  -3 -25    1.91    2.36
  -1   3 -25    2.51    3.30
   0   4  25    2.55    2.57
   0  -4  25    1.00    2.44
   0  -4 -25    3.19    2.79
   0   4 -25    1.31    2.96
   1   5  25   15.65    3.49
  -1  -5  25    8.95    2.61
   1   5 -25    6.21    2.98
  -1  -5 -25   16.78    3.98
   1  -3  26    3.85    2.95
  -1   3  26    7.94    2.58
  -1   3 -26   10.11    3.72
   1  -3 -26    5.04    2.67
   0  -4  26    4.77    2.73
   0   4  26    2.89    2.84
   0   4 -26    0.24    3.26
   0  -4 -26    0.75    3.03
   1  -3  27    2.10    3.36
  -1   3  27    3.55    2.86
  -1   3 -27   -2.71    3.82
   1  -3 -27    0.82    2.88
   0  -4  27    2.54    3.06
   0   4  27    1.57    3.01
   0   4 -27   -7.91    3.31
   0  -4 -27   -0.84    3.30
   4  -1   0   -1.52    1.39
   4  -1   0   -0.87    1.69
  -4   1   0    0.43    1.66
  -3   2   0   16.94    1.62
  -3   2   0   19.41    1.75
   3  -2   0   19.51    1.57
   3  -2   0   18.75    1.69
  -2   3   0  127.07    3.66
   2  -3   0  120.61    2.95
  -2   3   0  116.70    2.95
   2  -3   0  119.73    3.00
   2  -3   0  125.33    2.95
   2  -3   0  120.32    2.78
  -1   4   0  133.68    3.15
   1  -4   0  115.30    3.07
  -1   4   0  138.46    3.21
   1  -4   0  131.22    3.19
  -1   4   0  140.27    3.11
  -1   4   0  142.52    3.20
   1  -4   0  139.15    3.16
   1  -4   0  139.66    3.20
   0  -5   0   -0.25    0.88
   0   5   0    0.12    0.84
   0  -5   0    0.18    0.59
   0  -5   0    0.44    0.75
   0   5   0   -0.33    0.82
   0   5   0    0.78    0.87
   0   5   0    0.53    0.74
   0  -5   0   -0.29    0.73
   1   6   0   27.86    1.69
  -1  -6   0   26.52    2.00
  -1  -6   0   30.88    1.95
   1   6   0   27.80    2.21
  -1  -6   0   27.47    2.29
  -1  -6   0   27.58    1.88
   1   6   0   25.38    2.07
   2   7   0    1.55    1.24
  -2  -7   0    1.76    1.87
  -2  -7   0   -0.36    2.00
   2   7   0   -0.23    1.79
  -2  -7   0    0.08    1.42
   2   7   0   -0.77    2.13
  -2  -7   0    0.65    1.38
   3   8   0   12.92    2.33
  -3  -8   0    7.43    2.31
   4  -1   1    6.80    1.45
   4  -1   1   10.10    1.92
  -4   1  -1   12.51    1.96
   4  -1  -1    6.80    1.71
   4  -1  -1   11.86    1.54
   3  -2   1   11.89    1.54
   3  -2   1   11.81    1.26
   3  -2  -1   11.40    1.45
   3  -2  -1   11.34    1.13
  -3   2  -1   11.08    1.25
  -3   2  -1   13.25    1.74
  -2   3   1    3.54    0.69
   2  -3   1    3.17    0.91
   2  -3   1    4.54    0.69
  -2   3   1    2.50    0.67
   2  -3   1    3.27    0.63
   2  -3   1    3.69    0.82
  -2   3  -1    3.98    0.67
   2  -3  -1    2.59    0.60
  -2   3  -1    4.01    0.84
  -2   3  -1    2.96    0.72
  -2   3  -1    3.41    0.89
   2  -3  -1    4.33    0.64
  -1   4   1    6.13    0.77
   1  -4   1    7.43    0.98
   1  -4   1    5.09    0.72
  -1   4   1    5.73    0.65
   1  -4   1    6.00    0.77
  -1   4   1    6.08    0.72
  -1   4   1    6.50    0.87
  -1   4  -1    6.09    0.67
   1  -4  -1    5.24    0.77
  -1   4  -1    5.42    0.80
  -1   4  -1    7.08    0.93
   1  -4  -1    7.62    0.88
   1  -4  -1    7.33    0.99
  -1   4  -1    6.18    0.80
   1  -4  -1    4.79    0.70
   0   5   1    6.10    0.97
   0  -5   1    5.95    0.93
   0   5   1    4.87    0.88
   0  -5   1    4.63    0.76
   0  -5   1    5.98    0.90
   0   5   1    4.92    0.93
   0   5   1    7.27    0.95
   0   5  -1    6.41    0.97
   0   5  -1    6.71    0.92
   0  -5  -1    4.18    0.76
   0   5  -1    6.45    1.13
   0  -5  -1    6.14    0.94
   0  -5  -1    6.08    1.01
   0   5  -1    5.78    0.93
   0  -5  -1    6.83    0.93
   1   6   1    1.38    1.21
   1   6   1    1.80    1.31
  -1  -6   1    0.47    1.28
  -1  -6   1    2.73    1.01
   1   6   1    3.60    1.34
   1   6   1    2.40    0.90
  -1  -6   1    2.29    1.07
   1   6  -1   -0.68    1.17
   1   6  -1    2.70    1.13
  -1  -6  -1    1.00    1.04
  -1  -6  -1    0.94    1.11
   1   6  -1    2.02    0.84
   1   6  -1    1.28    1.39
  -1  -6  -1    0.86    0.99
   2   7   1   18.01    2.30
   2   7   1   15.45    2.34
   2   7   1   15.85    2.45
  -2  -7   1   16.07    2.53
   2   7   1   16.13    2.15
  -2  -7   1   16.23    1.81
  -2  -7   1   13.78    2.29
  -2  -7   1   14.14    2.30
   2   7  -1   14.18    2.17
  -2  -7  -1   16.16    1.89
  -2  -7  -1   15.29    1.89
  -2  -7  -1   15.72    2.30
   2   7  -1   20.22    2.23
   2   7  -1   18.41    2.48
   2   7  -1   15.25    2.11
   3   8   1   34.22    3.80
   3   8  -1   37.55    3.56
  -3  -8  -1   23.58    2.84
   4  -1   2   10.69    2.05
   4  -1   2    9.15    1.66
  -4   1  -2   15.22    1.91
  -4   1  -2   13.24    2.13
   4  -1  -2   18.12    2.16
   3  -2   2    4.91    1.15
   3  -2   2    3.22    1.00
  -3   2  -2    3.99    1.22
  -3   2  -2    4.83    1.19
   2  -3   2    1.79    0.83
   2  -3   2    1.94    0.91
   2  -3   2    1.43    0.67
   2  -3   2    2.18    0.71
  -2   3  -2    3.13    0.67
  -2   3  -2    1.77    0.93
  -2   3  -2    0.95    0.79
  -2   3  -2    1.30    0.75
   2  -3  -2    2.35    0.56
   1  -4   2   20.11    1.22
  -1   4   2   22.66    1.16
   1  -4   2   19.37    1.22
  -1   4   2   22.86    1.08
  -1   4   2   20.41    1.16
  -1   4  -2   21.16    1.31
  -1   4  -2   20.97    1.26
   1  -4  -2   22.00    1.17
  -1   4  -2   20.16    1.17
   1  -4  -2   20.22    1.12
  -1   4  -2   20.19    1.28
   1  -4  -2   20.80    1.21
   0  -5   2    2.23    0.80
   0   5   2    3.24    0.93
   0  -5   2    2.35    0.68
   0  -5   2    2.05    0.77
   0   5   2    2.29    0.83
   0   5   2    1.82    0.82
   0  -5   2    2.55    1.43
   0  -5  -2    0.72    0.68
   0   5  -2    2.40    0.80
   0   5  -2    3.04    0.91
   0  -5  -2    1.97    0.82
   0   5  -2    1.40    0.86
   0  -5  -2    1.82    0.86
   1   6   2   38.00    2.24
   1   6   2   37.60    2.36
  -1  -6   2   38.67    2.03
  -1  -6   2   38.38    2.47
   1   6   2   43.17    2.03
  -1  -6   2   42.68    2.21
  -1  -6   2   42.94    2.16
   1   6   2   41.21    2.58
   1   6  -2   39.34    2.36
   1   6  -2   36.82    2.30
  -1  -6  -2   40.08    2.51
  -1  -6  -2   39.05    2.23
  -1  -6  -2   38.97    2.35
  -1  -6  -2   40.92    2.08
   1   6  -2   42.95    2.64
   2   7   2    5.81    1.57
  -2  -7   2    4.72    2.17
   2   7   2    3.63    1.78
   2   7   2    2.53    2.33
   2   7   2    2.91    2.23
  -2  -7   2    6.88    2.90
  -2  -7   2    3.24    1.79
  -2  -7  -2    2.44    2.12
   2   7  -2    5.85    2.19
  -2  -7  -2    6.48    1.71
  -2  -7  -2    4.92    1.53
   2   7  -2    1.86    2.03
  -2  -7  -2    6.51    2.14
   2   7  -2    6.77    1.39
   3   8   2    5.84    2.28
   3   8  -2    4.96    2.03
  -3  -8  -2    2.14    2.41
   4  -1   3    8.44    1.64
  -4   1  -3   10.58    2.12
   3  -2   3   10.73    1.69
   3  -2   3   11.45    1.31
   3  -2   3   14.18    1.55
  -3   2  -3   10.42    1.63
  -3   2  -3   12.60    1.46
  -3   2  -3   15.54    2.39
   2  -3   3    0.74    0.77
   2  -3   3    0.27    0.64
   2  -3   3    0.25    0.73
   2  -3   3   -0.42    0.92
  -2   3  -3   -0.44    0.79
  -2   3  -3    1.56    0.86
  -2   3  -3    1.28    0.63
  -2   3  -3    0.55    0.97
  -1   4   3   63.14    1.89
  -1   4   3   64.81    1.73
   1  -4   3   61.06    1.96
  -1   4   3   62.97    1.87
   1  -4   3   62.66    1.99
   1  -4   3   66.39    1.98
  -1   4   3   63.81    1.83
   1  -4   3   51.00    2.15
  -1   4  -3   61.18    1.98
  -1   4  -3   63.33    2.07
   1  -4  -3   61.60    1.84
   1  -4  -3   63.64    1.83
   1  -4  -3   62.71    1.85
   1  -4  -3   63.88    1.78
  -1   4  -3   63.25    2.00
  -1   4  -3   63.90    1.99
   0  -5   3    6.58    0.90
   0   5   3    7.54    0.96
   0  -5   3    8.82    1.17
   0  -5   3    7.80    1.13
   0  -5   3    8.07    1.09
   0   5   3    6.63    0.87
   0   5   3    5.67    0.98
   0   5   3    4.28    1.04
   0   5  -3    6.38    1.84
   0  -5  -3    7.13    0.96
   0  -5  -3    7.70    0.97
   0  -5  -3    7.78    1.02
   0  -5  -3    7.63    0.99
   0   5  -3   10.54    1.36
   0   5  -3    6.27    0.97
  -1  -6   3   13.29    1.72
   1   6   3   12.73    1.45
  -1  -6   3   11.72    1.31
  -1  -6   3   14.69    1.61
   1   6   3   11.85    1.32
   1   6   3   10.85    1.60
   1   6   3   14.60    1.63
  -1  -6   3   13.45    1.57
   1   6  -3   14.88    2.00
  -1  -6  -3   12.68    1.68
  -1  -6  -3   13.04    1.42
  -1  -6  -3   12.01    1.41
  -1  -6  -3   12.73    1.75
   1   6  -3   12.95    1.70
   1   6  -3   13.40    1.46
   2   7   3   11.55    2.44
   2   7   3   16.25    1.85
   2   7   3   10.19    2.54
  -2  -7   3   11.76    2.08
   2   7   3    9.46    1.95
  -2  -7   3   11.96    2.30
  -2  -7  -3    9.75    2.51
  -2  -7  -3   14.43    1.91
   2   7  -3   15.98    2.34
  -2  -7  -3   14.35    1.91
  -2  -7  -3   13.28    2.27
   2   7  -3   12.88    1.57
   2   7  -3   10.99    2.34
   2   7  -3    9.95    2.66
   3   8   3   13.28    2.73
  -3  -8   3   10.95    2.35
   3   8  -3   13.32    2.29
  -3  -8  -3   12.76    2.55
   4  -1   4    0.79    1.65
  -4   1  -4    4.82    1.89
  -4   1  -4    3.73    3.42
   3  -2   4    7.12    1.28
   3  -2   4    6.22    1.42
   3  -2   4    8.29    1.64
  -3   2  -4    6.92    1.51
  -3   2  -4    8.41    1.46
  -3   2  -4    5.37    1.37
   2  -3   4   34.13    1.60
   2  -3   4   33.83    1.82
   2  -3   4   35.75    1.69
   2  -3   4   35.78    1.71
  -2   3  -4   36.44    1.93
  -2   3  -4   31.62    1.71
  -2   3  -4   34.27    1.45
  -2   3  -4   36.79    1.77
   1  -4   4   42.50    1.61
  -1   4   4   41.39    1.32
   1  -4   4   39.48    1.63
  -1   4   4   41.16    1.46
  -1   4   4   43.92    1.59
  -1   4   4   39.53    1.47
   1  -4   4   42.01    1.68
   1  -4   4   40.57    1.66
   1  -4  -4   39.23    1.43
  -1   4  -4   40.01    1.68
   1  -4  -4   40.10    1.46
   1  -4  -4   41.86    1.42
  -1   4  -4   40.36    1.74
   1  -4  -4   38.49    1.42
  -1   4  -4   39.69    1.64
  -1   4  -4   39.13    1.64
   0   5   4   26.58    1.44
   0  -5   4   27.52    1.52
   0   5   4   26.49    1.63
   0  -5   4   27.17    1.48
   0   5   4   25.06    1.71
   0   5   4   29.06    1.64
   0  -5   4   28.17    1.61
   0  -5   4   28.30    1.71
   0  -5  -4   30.38    1.66
   0   5  -4   27.18    1.63
   0   5  -4   28.09    1.42
   0   5  -4   26.82    2.19
   0  -5  -4   28.84    1.64
   0  -5  -4   27.41    1.59
   0  -5  -4   27.41    1.64
   1   6   4    9.82    1.39
  -1  -6   4    8.64    1.52
   1   6   4   11.11    1.71
   1   6   4    7.41    1.52
  -1  -6   4    9.63    1.18
   1   6   4    8.04    1.15
  -1  -6   4   11.31    1.29
  -1  -6   4    9.55    1.20
  -1  -6  -4   11.37    1.54
   1   6  -4    9.31    1.31
   1   6  -4   13.31    1.63
  -1  -6  -4    8.79    1.35
   1   6  -4   10.37    1.69
  -1  -6  -4   11.42    1.64
  -1  -6  -4    8.63    1.32
   1   6  -4   10.52    1.45
   2   7   4   -1.07    2.09
  -2  -7   4    0.89    1.34
  -2  -7   4    1.56    1.68
   2   7   4    3.51    1.84
  -2  -7   4   -0.28    2.07
   2   7   4   -0.77    1.37
   2   7   4    1.58    2.37
   2   7  -4   -1.21    1.93
  -2  -7  -4    0.67    2.06
   2   7  -4   -0.80    2.12
  -2  -7  -4    0.38    1.69
  -2  -7  -4    1.31    2.31
  -2  -7  -4    4.50    1.70
   3   8   4    1.61    2.52
  -3  -8   4    1.40    2.13
  -3  -8  -4    5.77    2.46
   4  -1   5   -0.50    1.66
  -4   1  -5    1.97    2.01
   3  -2   5   -1.64    1.04
   3  -2   5    3.82    1.54
   3  -2   5    0.64    1.37
  -3   2  -5    0.73    1.32
  -3   2  -5    1.44    1.45
  -3   2  -5    0.28    1.53
   2  -3   5   -0.26    0.86
   2  -3   5    0.43    0.97
   2  -3   5   -0.44    0.77
  -2   3  -5    0.38    0.68
  -2   3  -5    1.03    0.92
  -2   3  -5    1.10    1.03
  -2   3  -5   -0.23    0.86
   1  -4   5    9.10    1.17
  -1   4   5    9.51    1.17
  -1   4   5    7.41    0.96
   1  -4   5    8.44    1.09
  -1   4   5    7.46    0.76
  -1   4   5    8.67    0.81
   1  -4   5   10.38    1.17
   1  -4   5    6.80    0.96
   1  -4  -5    8.39    0.97
  -1   4  -5    9.56    1.28
  -1   4  -5    7.26    0.98
  -1   4  -5    7.64    0.93
   1  -4  -5    7.23    0.94
   1  -4  -5    8.66    0.91
  -1   4  -5    6.32    0.98
   1  -4  -5    9.14    0.92
   0  -5   5    8.36    0.93
   0   5   5    5.21    1.01
   0  -5   5    7.70    1.17
   0   5   5    7.15    0.99
   0   5   5    5.96    0.97
   0  -5   5    5.38    0.88
   0   5   5    5.24    0.84
   0  -5  -5    6.66    1.02
   0   5  -5    6.54    1.18
   0   5  -5    6.44    0.85
   0  -5  -5    5.70    0.96
   0  -5  -5    5.00    0.96
   0  -5  -5    6.21    0.99
   0   5  -5    6.20    1.01
   0   5  -5    5.74    1.05
  -1  -6   5   26.76    2.40
   1   6   5   24.25    2.45
  -1  -6   5   25.52    2.34
   1   6   5   27.44    1.85
  -1  -6   5   26.93    1.81
   1   6   5   25.75    3.26
   1   6   5   28.08    2.28
  -1  -6   5   27.13    1.82
   1   6  -5   28.35    2.51
  -1  -6  -5   26.40    1.99
  -1  -6  -5   20.80    2.27
  -1  -6  -5   25.86    2.08
  -1  -6  -5   28.32    2.41
   1   6  -5   26.82    1.75
   1   6  -5   27.98    2.27
   1   6  -5   32.01    2.24
  -2  -7   5   51.88    2.83
   2   7   5   46.22    3.22
   2   7   5   49.25    2.84
  -2  -7   5   45.06    3.50
   2   7   5   49.38    3.77
  -2  -7   5   45.68    3.26
   2   7   5   38.39    3.95
  -2  -7  -5   49.31    3.26
  -2  -7  -5   44.75    3.15
   2   7  -5   49.92    3.91
  -2  -7  -5   50.12    3.95
   2   7  -5   50.40    3.47
  -2  -7  -5   51.83    4.11
   3   8   5   26.98    4.11
  -3  -8   5   35.18    3.60
  -3  -8  -5   32.63    4.26
   4  -1   6    7.75    1.91
  -4   1  -6    6.57    2.15
   3  -2   6    5.95    1.65
   3  -2   6    4.55    1.25
   3  -2   6    6.80    1.58
  -3   2  -6    5.74    1.76
  -3   2  -6    6.37    1.71
  -3   2  -6    9.88    1.71
   2  -3   6   22.88    1.64
   2  -3   6   19.61    1.56
   2  -3   6   21.40    1.67
  -2   3  -6   19.02    1.66
  -2   3  -6   19.32    1.67
  -2   3  -6   21.59    1.42
  -2   3  -6   22.77    1.92
   1  -4   6    4.59    0.92
  -1   4   6    3.50    0.67
  -1   4   6    5.00    0.63
  -1   4   6    4.61    0.61
   1  -4   6    3.40    0.78
   1  -4   6    5.05    1.00
  -1   4   6    3.89    0.81
   1  -4   6    4.88    0.84
   1  -4  -6    2.47    0.60
   1  -4  -6    4.07    0.66
  -1   4  -6    3.53    0.92
  -1   4  -6    5.53    0.92
   1  -4  -6    4.36    0.69
  -1   4  -6    4.00    0.96
   1  -4  -6    4.46    0.68
  -1   4  -6    5.18    0.97
   0   5   6    3.95    0.89
   0   5   6    4.39    1.02
   0   5   6    3.39    0.92
   0  -5   6    4.60    0.89
   0  -5   6    5.65    1.09
   0  -5   6    4.21    0.87
   0   5   6    3.63    0.94
   0  -5  -6    3.83    0.98
   0   5  -6    4.34    1.07
   0  -5  -6    3.65    0.98
   0  -5  -6    4.90    0.96
   0   5  -6    5.19    1.00
   0   5  -6    6.86    1.11
   0  -5  -6    4.15    0.96
   0   5  -6    4.65    0.84
  -1  -6   6   18.13    1.64
  -1  -6   6   17.94    1.70
   1   6   6   15.40    1.86
   1   6   6   20.79    3.49
   1   6   6   16.69    1.75
  -1  -6   6   15.62    2.13
   1   6   6   13.97    1.70
  -1  -6   6   13.77    1.83
   1   6  -6   17.19    2.37
  -1  -6  -6   15.01    1.72
  -1  -6  -6   14.60    1.90
   1   6  -6   15.16    1.52
   1   6  -6   15.58    1.78
  -1  -6  -6   14.85    1.84
  -1  -6  -6   17.00    1.84
   1   6  -6   17.09    2.01
   2   7   6    2.39    1.86
  -2  -7   6   -0.14    1.60
  -2  -7   6    1.09    1.26
   2   7   6    2.07    2.52
   2   7   6    1.49    1.40
   2   7   6    1.80    2.24
  -2  -7   6   -0.01    1.96
  -2  -7  -6    5.81    2.31
  -2  -7  -6    3.07    2.46
   2   7  -6   -0.19    1.96
   2   7  -6    1.95    1.36
  -2  -7  -6    0.87    1.50
  -2  -7  -6    2.28    1.73
   2   7  -6    0.48    2.19
   3   8   6   -3.27    3.60
  -3  -8   6    0.69    1.96
  -3  -8  -6   -5.02    2.71
   3   8  -6    7.04    2.29
   4  -1   7    0.12    1.77
  -4   1  -7    1.37    2.22
   3  -2   7    1.90    1.36
   3  -2   7    4.22    1.73
  -3   2  -7    4.61    1.65
  -3   2  -7    3.89    1.75
  -3   2  -7    2.33    2.60
   2  -3   7    2.95    1.00
   2  -3   7    1.35    0.96
   2  -3   7    2.63    1.05
  -2   3  -7    0.95    1.09
  -2   3  -7    0.76    1.07
  -2   3  -7    1.33    1.19
  -2   3  -7    2.28    0.95
   1  -4   7  150.65    3.77
   1  -4   7  153.64    3.89
  -1   4   7  151.81    3.48
   1  -4   7  154.22    3.88
   1  -4   7  151.41    3.89
  -1   4   7  157.20    3.64
  -1   4  -7  151.99    3.95
  -1   4  -7  147.48    3.90
  -1   4  -7  158.05    3.93
  -1   4  -7  149.76    3.82
   1  -4  -7  155.21    3.55
   1  -4  -7  155.76    3.52
   0   5   7   50.28    1.91
   0  -5   7   45.40    1.96
   0   5   7   48.56    2.03
   0   5   7   53.28    1.97
   0  -5   7   50.56    2.17
   0  -5   7   49.05    2.05
   0   5   7   50.00    2.22
   0  -5   7   48.68    2.15
   0   5  -7   47.20    1.94
   0   5  -7   41.79    2.99
   0  -5  -7   44.08    1.99
   0  -5  -7   52.02    2.21
   0  -5  -7   47.66    2.05
   0  -5  -7   46.54    2.02
   0   5  -7   47.50    2.30
   0   5  -7   48.26    2.21
   1   6   7   29.86    1.92
   1   6   7   29.05    2.25
   1   6   7   24.41    3.11
   1   6   7   29.56    2.43
  -1  -6   7   26.22    1.85
  -1  -6   7   26.74    1.94
  -1  -6   7   29.09    2.35
  -1  -6   7   32.09    2.22
  -1  -6  -7   25.49    2.56
  -1  -6  -7   23.70    2.92
   1   6  -7   25.31    2.62
  -1  -6  -7   25.52    2.13
   1   6  -7   25.20    2.73
   1   6  -7   26.27    1.82
  -1  -6  -7   25.77    2.16
   1   6  -7   24.82    2.16
   2   7   7   13.74    1.79
  -2  -7   7   10.60    2.06
   2   7   7    9.66    2.04
   2   7   7   11.60    2.63
   2   7   7   11.08    2.60
  -2  -7   7   13.23    2.31
   2   7  -7   14.63    2.04
  -2  -7  -7   12.32    2.83
   2   7  -7    8.77    2.13
  -2  -7  -7    8.80    1.83
  -2  -7  -7   10.80    2.62
   2   7  -7   11.31    2.53
  -2  -7  -7   11.80    2.12
  -3  -8   7    4.06    2.10
  -3  -8  -7    1.18    2.86
   3   8  -7    7.94    2.26
   4  -1   8   25.99    3.22
  -4   1  -8   16.68    2.57
   3  -2   8   14.66    2.14
   3  -2   8   15.48    2.09
   3  -2   8   14.60    2.27
  -3   2  -8   14.71    2.06
  -3   2  -8   13.84    1.93
   2  -3   8    0.91    1.06
   2  -3   8    3.83    1.06
   2  -3   8    2.16    1.17
   2  -3   8    1.92    1.10
  -2   3  -8    0.37    1.03
  -2   3  -8    0.04    1.13
  -2   3  -8    0.16    1.16
  -2   3  -8    2.31    1.31
  -1   4   8    0.82    0.71
   1  -4   8    0.53    0.77
   1  -4   8    0.53    0.87
  -1   4   8    0.41    1.24
   1  -4   8   -0.32    0.96
   1  -4   8    0.51    0.77
   1  -4  -8    0.51    0.65
   1  -4  -8   -0.90    0.76
  -1   4  -8    1.16    0.97
  -1   4  -8    0.12    0.93
  -1   4  -8    0.30    1.00
  -1   4  -8   -0.84    1.02
   0   5   8    9.36    1.06
   0   5   8    9.63    1.02
   0   5   8    9.68    1.26
   0  -5   8    9.49    1.10
   0  -5   8   10.09    1.07
   0  -5   8   10.31    1.15
   0   5   8   11.43    1.46
   0  -5   8   10.40    1.29
   0   5  -8   11.49    1.53
   0  -5  -8   10.76    1.29
   0  -5  -8    9.21    1.18
   0  -5  -8    9.18    1.28
   0   5  -8   10.77    1.31
   0   5  -8   10.72    1.29
   0  -5  -8   10.17    1.37
   0   5  -8    8.90    1.28
  -1  -6   8   12.00    1.58
  -1  -6   8   12.25    1.62
   1   6   8   11.01    1.85
   1   6   8   11.51    1.37
  -1  -6   8   12.34    1.62
  -1  -6   8   10.74    1.27
   1   6   8   12.37    1.55
   1   6   8   10.66    1.79
  -1  -6  -8    8.53    2.41
  -1  -6  -8   12.47    1.66
   1   6  -8   12.60    1.79
   1   6  -8   12.19    1.58
  -1  -6  -8   10.26    1.81
   1   6  -8   11.75    1.54
   1   6  -8   11.59    1.89
  -1  -6  -8    8.76    1.45
   2   7   8   15.83    2.81
  -2  -7   8   15.64    2.10
  -2  -7   8   15.80    2.44
   2   7   8   13.34    2.76
   2   7   8    9.94    1.76
  -2  -7   8   12.20    1.72
   2   7   8   13.19    2.22
  -2  -7  -8    9.19    2.02
  -2  -7  -8    8.88    2.11
   2   7  -8   14.38    2.63
   2   7  -8   14.00    2.20
   2   7  -8   12.60    2.34
  -2  -7  -8   10.34    2.86
  -2  -7  -8    7.28    2.94
  -3  -8   8   -0.53    2.18
   3   8   8   -1.60    3.93
  -3  -8  -8   -4.60    2.76
   3   8  -8    2.09    2.11
   4  -1   9   25.39    3.34
  -4   1  -9   15.77    2.79
   3  -2   9    8.03    1.86
   3  -2   9    8.64    1.92
  -3   2  -9    9.61    1.94
  -3   2  -9    9.15    2.07
   2  -3   9    6.17    1.16
   2  -3   9    5.15    1.33
   2  -3   9    5.15    1.30
   2  -3   9    6.17    1.26
  -2   3  -9    4.31    1.33
  -2   3  -9    4.11    1.44
  -2   3  -9    4.00    1.38
  -2   3  -9    2.25    1.32
   1  -4   9   29.06    1.74
  -1   4   9   29.83    1.87
   1  -4   9   28.37    1.72
   1  -4   9   30.37    2.01
   1  -4   9   31.47    1.72
  -1   4   9   28.03    1.38
  -1   4  -9   30.32    2.02
  -1   4  -9   30.87    2.05
  -1   4  -9   26.29    2.21
  -1   4  -9   29.28    1.91
   1  -4  -9   29.47    1.36
   1  -4  -9   28.52    2.02
   1  -4  -9   27.75    1.25
   0  -5   9   17.43    1.83
   0   5   9   18.67    1.61
   0   5   9   16.14    1.48
   0  -5   9   16.13    1.42
   0  -5   9   16.74    1.62
   0   5   9   13.74    1.46
   0  -5   9   16.38    1.52
   0   5   9   15.71    1.88
   0   5  -9   19.02    1.48
   0   5  -9   17.44    1.86
   0  -5  -9   14.84    1.61
   0   5  -9   16.83    1.74
   0   5  -9   18.84    2.03
   0  -5  -9   18.82    1.65
   0  -5  -9   17.43    1.85
  -1  -6   9   -0.04    1.34
   1   6   9    0.95    1.56
  -1  -6   9    0.12    0.90
  -1  -6   9    0.62    1.24
  -1  -6   9    1.38    0.98
   1   6   9    0.98    1.21
   1   6   9    0.96    1.67
   1   6   9   -0.89    1.08
   1   6  -9    0.58    0.98
  -1  -6  -9    2.07    1.31
  -1  -6  -9    1.04    1.76
   1   6  -9   -2.03    1.33
  -1  -6  -9    1.43    1.22
   1   6  -9    1.77    1.67
   1   6  -9   -0.49    1.52
   2   7   9   12.04    2.93
  -2  -7   9   11.05    2.34
   2   7   9    6.69    2.81
  -2  -7   9   10.56    1.71
   2   7   9    8.45    2.23
  -2  -7   9   10.76    2.19
   2   7   9    9.95    1.90
  -2  -7  -9    9.48    2.92
   2   7  -9    7.91    2.42
   2   7  -9    9.35    1.63
  -2  -7  -9    9.94    2.24
   2   7  -9   11.14    2.74
  -2  -7  -9    6.43    3.08
  -2  -7  -9    6.54    1.94
   3   8   9   32.13    4.56
  -3  -8   9   22.76    2.61
  -3  -8  -9   21.17    3.55
   3   8  -9   28.13    3.36
   4  -1  10    8.85    2.26
  -4   1 -10    3.96    2.75
   3  -2  10   24.90    3.11
   3  -2  10   28.89    2.94
  -3   2 -10   32.34    3.36
  -3   2 -10   29.05    3.09
  -3   2 -10   30.94    3.14
   2  -3  10   32.13    2.13
   2  -3  10   33.97    2.10
   2  -3  10   32.80    2.36
   2  -3  10   32.13    2.35
  -2   3 -10   32.38    2.54
  -2   3 -10   27.28    2.38
  -2   3 -10   30.47    2.40
  -2   3 -10   28.86    2.50
   1  -4  10    6.25    1.06
  -1   4  10    6.68    1.00
   1  -4  10    8.57    1.27
  -1   4  10    6.98    0.85
   1  -4  10    6.07    1.04
   1  -4  10    5.00    1.11
  -1   4 -10    6.43    1.26
  -1   4 -10    6.76    1.22
  -1   4 -10    5.37    1.24
   1  -4 -10    4.04    0.78
  -1   4 -10    8.15    1.30
   1  -4 -10    6.35    1.68
   0   5  10    2.14    0.95
   0  -5  10    0.46    0.88
   0  -5  10    1.66    0.80
   0  -5  10    1.25    1.13
   0   5  10    1.02    0.85
   0   5  10   -0.06    0.90
   0  -5  10    1.38    0.86
   0   5  10    1.23    1.20
   0   5 -10   -1.16    1.20
   0   5 -10    1.31    0.84
   0  -5 -10   -0.32    0.93
   0  -5 -10   -0.59    1.03
   0   5 -10    0.50    1.15
   0   5 -10    1.00    1.16
   0  -5 -10    1.30    1.10
   1   6  10   13.24    2.04
  -1  -6  10   11.10    1.34
  -1  -6  10   11.65    1.39
  -1  -6  10   11.37    1.70
   1   6  10   10.17    1.37
   1   6  10   11.29    1.66
   1   6  10   13.15    1.99
  -1  -6  10   11.43    1.60
  -1  -6 -10   14.70    3.54
   1   6 -10   11.43    1.69
  -1  -6 -10   11.31    1.59
   1   6 -10   12.50    1.87
   1   6 -10   11.77    1.41
  -1  -6 -10   10.60    2.16
   1   6 -10   13.80    2.04
  -1  -6 -10   10.70    1.62
   2   7  10   42.13    3.62
   2   7  10   41.18    4.41
   2   7  10   39.90    3.17
   2   7  10   38.62    4.56
  -2  -7  10   46.82    3.63
  -2  -7  10   46.26    3.67
  -2  -7  10   44.62    2.71
  -2  -7 -10   44.18    3.51
  -2  -7 -10   33.25    3.59
  -2  -7 -10   46.73    4.83
   2   7 -10   45.46    2.71
  -2  -7 -10   35.22    3.47
   2   7 -10   43.28    4.38
   2   7 -10   40.57    3.85
  -3  -8  10    3.23    2.21
   3   8  10   16.99    4.38
  -3  -8 -10    3.23    3.23
   3   8 -10    5.06    2.27
   4  -1  11   21.58    2.62
  -4   1 -11   13.74    3.18
   3  -2  11    3.07    1.99
   3  -2  11    2.33    2.08
   3  -2  11   -0.69    1.63
  -3   2 -11    5.02    2.37
  -3   2 -11    1.35    2.14
  -3   2 -11    1.09    2.12
   2  -3  11   -1.19    1.18
   2  -3  11    0.42    1.41
   2  -3  11    1.15    1.44
   2  -3  11   -0.22    1.13
  -2   3 -11    0.30    1.57
  -2   3 -11   -0.62    1.54
  -2   3 -11   -2.03    1.44
  -2   3 -11    0.41    1.58
   1  -4  11    7.52    1.24
   1  -4  11    7.99    1.46
  -1   4  11    8.73    1.07
   1  -4  11    7.20    1.67
  -1   4  11   10.96    1.16
   1  -4  11    8.48    1.18
  -1   4 -11    9.92    1.43
  -1   4 -11    9.25    1.41
  -1   4 -11    6.81    1.45
  -1   4 -11    9.56    1.34
   1  -4 -11    5.73    1.16
   1  -4 -11    7.44    0.96
   0   5  11    0.05    1.05
   0  -5  11   -0.23    1.08
   0   5  11    0.52    1.19
   0   5  11    1.49    0.98
   0  -5  11   -0.61    0.87
   0  -5  11    0.27    0.89
   0  -5  11    0.55    0.83
   0   5 -11   -1.11    1.19
   0   5 -11   -0.23    0.90
   0  -5 -11    0.41    1.05
   0  -5 -11    2.10    1.19
   0  -5 -11    2.65    1.12
   0   5 -11   -2.03    1.27
   0   5 -11    0.42    1.26
   1   6  11   12.93    1.74
   1   6  11   11.75    1.96
  -1  -6  11   10.04    1.32
  -1  -6  11   12.13    1.73
  -1  -6  11   11.73    1.46
  -1  -6  11   12.06    1.73
   1   6  11   10.10    1.55
   1   6  11   13.32    2.08
   1   6 -11   11.43    2.04
   1   6 -11   12.50    1.44
  -1  -6 -11   14.99    2.22
  -1  -6 -11   10.65    1.71
   1   6 -11   12.06    2.01
   1   6 -11   11.61    1.76
  -1  -6 -11   10.82    3.75
  -1  -6 -11   13.01    1.68
   2   7  11    9.91    2.43
   2   7  11    5.47    2.94
  -2  -7  11   10.25    1.59
   2   7  11    6.87    1.93
  -2  -7  11   10.81    2.39
  -2  -7  11    9.10    2.25
   2   7  11    8.02    2.97
  -2  -7 -11    8.45    3.09
  -2  -7 -11   11.42    2.16
  -2  -7 -11   14.71    3.34
   2   7 -11   10.74    1.74
   2   7 -11    4.49    3.20
  -2  -7 -11    7.41    2.31
   2   7 -11    7.75    3.21
   3   8  11    5.81    4.55
  -3  -8 -11    0.16    3.29
  -4   1 -12    5.51    3.20
   3  -2  12    5.31    2.03
   3  -2  12    5.10    2.21
   3  -2  12    1.23    1.63
  -3   2 -12    3.26    2.32
  -3   2 -12    0.52    2.18
  -3   2 -12    5.78    2.51
   2  -3  12   16.20    1.90
   2  -3  12   13.05    1.64
   2  -3  12   15.22    2.03
  -2   3 -12   15.50    1.94
  -2   3 -12   11.86    1.87
  -2   3 -12   15.00    2.05
  -2   3 -12   12.51    1.97
   1  -4  12    2.15    1.07
  -1   4  12    2.39    0.86
  -1   4  12    0.61    0.92
   1  -4  12    1.94    0.99
   1  -4  12    1.35    1.35
   1  -4  12    2.79    1.07
  -1   4 -12    2.92    1.22
  -1   4 -12   -0.78    1.34
   1  -4 -12    1.12    0.92
  -1   4 -12    1.58    1.39
  -1   4 -12   -1.09    1.28
   1  -4 -12    2.38    0.86
   0  -5  12   26.33    2.22
   0  -5  12   28.33    1.85
   0  -5  12   28.88    2.00
   0   5  12   30.69    2.06
   0  -5  12   29.79    1.81
   0   5  12   27.92    2.35
   0   5  12   29.26    1.91
   0   5  12   31.75    1.87
   0  -5 -12   28.98    2.16
   0   5 -12   27.33    1.94
   0   5 -12   26.32    2.33
   0  -5 -12   24.97    2.06
   0   5 -12   30.73    2.16
   0  -5 -12   31.43    2.46
   0   5 -12   25.28    2.44
  -1  -6  12   14.43    1.90
  -1  -6  12   18.41    1.97
   1   6  12   17.24    2.32
  -1  -6  12   15.54    1.62
  -1  -6  12   15.78    1.85
   1   6  12   16.63    2.01
   1   6  12   13.17    1.65
   1   6  12   16.12    2.20
  -1  -6 -12   11.08    4.11
  -1  -6 -12   19.45    2.47
   1   6 -12   13.89    1.84
   1   6 -12   13.06    2.05
  -1  -6 -12   17.02    2.37
  -1  -6 -12   16.03    2.03
   1   6 -12   15.89    2.10
   1   6 -12   13.94    1.55
   2   7  12    0.02    1.87
   2   7  12    0.00    3.19
   2   7  12    5.50    2.46
   2   7  12    3.23    3.22
  -2  -7 -12    3.42    3.40
  -2  -7 -12    4.48    2.24
  -2  -7 -12    5.33    2.36
   2   7 -12    2.21    1.92
  -2  -7 -12    2.20    3.25
   4  -1  13    6.62    2.43
  -4   1 -13   -0.17    3.27
   3  -2  13    1.01    2.21
   3  -2  13    2.26    2.34
   3  -2  13    2.21    1.77
  -3   2 -13   -4.91    2.33
  -3   2 -13    3.47    2.53
  -3   2 -13    6.11    2.62
   2  -3  13   37.25    2.90
   2  -3  13   31.90    2.45
   2  -3  13   31.13    2.42
   2  -3  13   30.44    2.48
  -2   3 -13   32.87    2.84
  -2   3 -13   34.07    3.19
  -2   3 -13   34.74    2.65
  -2   3 -13   34.28    2.96
  -1   4  13   38.03    1.79
   1  -4  13   35.06    2.50
  -1   4  13   36.37    1.94
   1  -4  13   33.64    2.11
   1  -4  13   37.89    2.22
   1  -4  13   34.84    2.32
   1  -4 -13   38.14    1.82
  -1   4 -13   34.94    2.73
  -1   4 -13   37.81    2.56
  -1   4 -13   35.58    2.37
   1  -4 -13   38.25    1.95
  -1   4 -13   35.98    2.60
   0   5  13   64.69    2.57
   0   5  13   62.33    2.98
   0   5  13   65.30    2.71
   0  -5  13   64.53    2.50
   0   5  13   66.64    2.73
   0  -5  13   63.05    2.63
   0  -5  13   67.66    3.01
   0  -5  13   66.22    2.79
   0   5 -13   68.18    3.09
   0  -5 -13   64.58    3.08
   0  -5 -13   56.21    2.73
   0  -5 -13   65.40    2.77
   0   5 -13   61.82    3.26
   0   5 -13   64.87    2.64
   0  -5 -13   59.69    3.28
   0   5 -13   64.14    2.86
  -1  -6  13    2.20    1.21
  -1  -6  13    4.96    1.64
  -1  -6  13    5.45    1.62
   1   6  13    3.98    1.78
   1   6  13    3.68    1.43
   1   6  13    3.87    2.08
   1   6  13    5.02    2.08
   1   6 -13    4.73    1.83
   1   6 -13    3.51    2.01
   1   6 -13    4.27    1.32
  -1  -6 -13    7.71    1.67
  -1  -6 -13   -0.59    3.89
  -1  -6 -13    5.56    2.40
   1   6 -13    3.96    1.95
  -1  -6 -13    0.58    1.65
  -2  -7  13    7.86    1.74
   2   7  13    4.71    2.01
   2   7  13    9.10    2.66
   2   7  13    1.13    3.38
  -2  -7 -13    9.97    2.52
  -2  -7 -13    9.22    2.56
  -2  -7 -13   10.33    3.95
   2   7 -13    9.21    1.97
  -2  -7 -13    7.96    3.70
   4  -1  14    9.17    2.64
  -4   1 -14    2.73    3.51
   3  -2  14   11.21    3.17
   3  -2  14   10.15    2.62
   3  -2  14   13.58    2.21
  -3   2 -14    8.11    2.70
  -3   2 -14   18.88    3.16
  -3   2 -14   16.07    3.42
   2  -3  14   12.32    2.04
   2  -3  14   10.51    1.82
   2  -3  14    9.29    1.67
   2  -3  14   10.62    1.65
  -2   3 -14    7.81    2.19
  -2   3 -14   12.46    1.98
  -2   3 -14    8.70    2.01
   1  -4  14   11.69    1.57
  -1   4  14   11.07    1.49
  -1   4  14   10.97    1.28
   1  -4  14   12.84    1.49
   1  -4  14   12.50    1.76
   1  -4  14   11.59    1.55
  -1   4 -14   10.70    1.71
   1  -4 -14   14.75    1.53
  -1   4 -14   10.54    1.75
  -1   4 -14   10.84    1.86
  -1   4 -14   10.48    1.79
   1  -4 -14   10.24    1.28
   0   5  14   -0.69    1.31
   0  -5  14    0.49    1.12
   0  -5  14    1.27    1.49
   0   5  14    0.19    1.42
   0  -5  14    0.51    1.02
   0  -5  14    0.49    1.06
   0   5  14   -0.23    1.11
   0   5  14    0.33    1.15
   0  -5 -14   -0.84    1.43
   0  -5 -14   -0.59    1.34
   0  -5 -14    2.72    1.36
   0   5 -14    0.30    1.13
   0  -5 -14    0.27    1.34
   0   5 -14   -1.35    1.71
   0   5 -14   -0.68    1.56
   0   5 -14   -0.77    1.48
  -1  -6  14   13.74    1.99
  -1  -6  14   11.30    1.55
   1   6  14    8.67    2.24
  -1  -6  14   11.73    1.94
   1   6  14    9.45    1.68
   1   6  14   13.07    2.09
   1   6  14   12.22    2.50
   1   6 -14   10.79    1.60
  -1  -6 -14    8.52    1.87
  -1  -6 -14   14.03    2.08
  -1  -6 -14    7.39    2.59
   1   6 -14    8.02    2.13
  -1  -6 -14   10.40    4.12
   1   6 -14   13.05    2.28
  -2  -7  14    2.80    1.67
   2   7  14   -5.80    4.56
   2   7  14    6.09    2.82
   2   7  14   -0.18    2.30
   2   7 -14    4.79    1.88
  -2  -7 -14    4.99    4.01
  -2  -7 -14    7.49    2.57
  -2  -7 -14    1.61    2.43
   3  -2  15    4.88    2.00
   3  -2  15    4.45    2.84
  -3   2 -15    9.40    3.41
  -3   2 -15    3.43    2.75
   2  -3  15   24.78    3.12
   2  -3  15   21.34    2.65
   2  -3  15   20.02    2.51
   2  -3  15   17.28    1.99
  -2   3 -15   24.52    2.99
  -2   3 -15   17.06    2.49
  -2   3 -15   24.94    2.68
  -2   3 -15   22.93    2.55
   1  -4  15   12.19    1.54
  -1   4  15   10.16    1.31
  -1   4  15   11.99    1.32
   1  -4  15   12.37    1.63
   1  -4  15    9.78    1.78
   1  -4  15   10.27    1.63
   1  -4 -15   10.38    1.44
  -1   4 -15   10.33    1.78
  -1   4 -15   11.99    2.09
  -1   4 -15    6.70    1.81
   1  -4 -15   14.00    1.75
  -1   4 -15   12.60    2.03
   0  -5  15   -0.69    1.06
   0   5  15    1.85    1.43
   0  -5  15   -0.28    1.13
   0  -5  15    0.70    1.52
   0   5  15    0.70    1.59
   0  -5  15   -0.93    1.25
   0   5  15    1.32    1.29
   0   5 -15    1.36    2.26
   0   5 -15   -1.94    1.73
   0  -5 -15   -0.33    1.64
   0   5 -15    1.74    1.70
   0  -5 -15   -1.87    1.46
   0   5 -15    0.27    1.33
   0  -5 -15    4.44    1.55
   0  -5 -15   -0.01    1.42
   1   6  15    7.46    2.39
   1   6  15    1.21    2.40
   1   6  15    8.09    2.03
  -1  -6  15    5.55    1.89
  -1  -6  15    7.37    1.53
  -1  -6  15    8.44    1.95
  -1  -6 -15    5.54    4.38
   1   6 -15    8.57    2.25
   1   6 -15    8.88    1.64
  -1  -6 -15    7.43    2.03
   1   6 -15    6.14    2.20
  -1  -6 -15    7.86    2.13
   2   7  15   36.14    3.87
  -2  -7  15   29.35    3.17
   2   7  15   46.90    4.65
   2   7 -15   37.00    3.23
  -2  -7 -15   39.78    4.47
  -2  -7 -15   47.60    4.63
   3  -2  16    2.35    2.08
  -3   2 -16    2.35    3.08
   2  -3  16   27.91    2.93
   2  -3  16   33.66    2.73
   2  -3  16   32.88    3.45
   2  -3  16   27.39    2.86
  -2   3 -16   42.26    3.41
  -2   3 -16   29.23    4.04
  -2   3 -16   32.91    3.50
  -2   3 -16   30.32    3.72
   1  -4  16   21.14    2.23
   1  -4  16   23.43    2.56
   1  -4  16   16.30    1.76
   1  -4  16   18.73    2.11
  -1   4  16   19.57    1.93
  -1   4  16   21.24    1.99
   1  -4 -16   16.97    2.13
  -1   4 -16   17.85    2.03
   1  -4 -16   19.41    2.15
  -1   4 -16   19.51    2.27
   1  -4 -16   26.15    2.09
  -1   4 -16   20.78    2.43
  -1   4 -16   13.67    2.09
   0   5  16   34.53    2.51
   0  -5  16   35.41    2.66
   0  -5  16   33.42    2.36
   0   5  16   33.39    2.56
   0   5  16   35.90    2.87
   0  -5  16   31.28    2.38
   0  -5  16   38.00    2.88
   0   5 -16   33.51    2.98
   0   5 -16   36.39    2.52
   0   5 -16   41.64    3.04
   0   5 -16   42.59    5.12
   0  -5 -16   36.92    2.76
   0  -5 -16   38.63    2.67
   0  -5 -16   33.26    3.24
  -1  -6  16    2.94    1.94
   1   6  16    3.34    2.53
  -1  -6  16    4.06    1.89
  -1  -6  16    2.10    1.55
   1   6  16    2.69    2.05
  -1  -6 -16    7.01    1.98
   1   6 -16    3.02    2.28
  -1  -6 -16    6.99    2.13
   1   6 -16    1.63    1.90
   1   6 -16    1.17    2.40
   2   7  16    5.76    3.40
  -2  -7  16    5.64    2.02
   2   7  16    2.87    2.58
   2   7 -16    4.93    2.09
  -2  -7 -16    6.78    3.03
  -2  -7 -16    4.65    2.84
   3  -2  17    0.31    2.40
  -3   2 -17   -0.96    3.14
   2  -3  17   14.77    2.03
   2  -3  17   15.52    2.21
   2  -3  17   13.99    2.13
   2  -3  17   18.01    2.65
  -2   3 -17   19.81    2.82
  -2   3 -17   16.61    2.75
  -2   3 -17   19.30    2.78
  -2   3 -17   13.62    3.03
   1  -4  17   26.73    2.99
   1  -4  17   26.92    2.50
  -1   4  17   27.79    2.25
  -1   4  17   33.28    2.06
   1  -4  17   34.76    2.81
   1  -4  17   28.67    2.54
  -1   4 -17   30.16    3.28
   1  -4 -17   25.07    2.36
  -1   4 -17   23.58    3.07
  -1   4 -17   20.53    2.71
   1  -4 -17   35.24    2.26
  -1   4 -17   29.08    3.28
   0  -5  17  133.35    4.40
   0  -5  17  132.63    4.24
   0  -5  17  128.17    4.54
   0   5  17  133.55    4.18
   0   5  17  130.32    4.50
   0  -5  17  121.41    4.05
   0   5 -17  133.51    4.66
   0  -5 -17  131.55    4.38
   0   5 -17  147.25    6.61
   0   5 -17  133.57    4.36
   0   5 -17  130.90    4.66
   0  -5 -17  124.31    4.90
  -1  -6  17   41.35    3.45
   1   6  17   45.64    4.58
   1   6  17   42.21    3.72
  -1  -6  17   42.43    2.90
  -1  -6  17   45.98    3.61
   1   6 -17   43.22    4.14
   1   6 -17   42.49    2.79
   1   6 -17   38.80    4.12
  -1  -6 -17   48.21    5.06
  -1  -6 -17   46.36    3.76
  -1  -6 -17   48.12    6.24
   2   7  17    8.06    3.19
  -2  -7  17    5.14    2.07
  -2  -7 -17    2.59    5.70
   2   7 -17    2.46    2.02
   3  -2  18    6.86    2.44
  -3   2 -18   10.44    4.29
   2  -3  18    2.73    1.96
   2  -3  18    3.27    1.86
   2  -3  18    3.66    2.03
   2  -3  18    6.40    2.59
  -2   3 -18    2.31    3.02
  -2   3 -18    6.78    2.78
  -2   3 -18    2.60    2.72
  -2   3 -18   -0.17    2.46
  -1   4  18    2.13    1.32
   1  -4  18    5.07    1.63
  -1   4  18    2.15    1.31
   1  -4  18   -0.80    1.46
   1  -4  18    1.39    1.62
   1  -4  18    2.74    1.94
  -1   4 -18    1.90    2.22
   1  -4 -18    3.28    1.43
   1  -4 -18   -0.16    1.45
  -1   4 -18    3.37    1.89
  -1   4 -18    2.10    2.39
  -1   4 -18   -1.38    2.00
   0  -5  18    4.36    1.53
   0   5  18    6.00    1.77
   0   5  18    5.83    1.87
   0  -5  18    4.39    1.66
   0   5  18    2.81    1.96
   0  -5  18    5.32    2.07
   0   5 -18    7.54    3.18
   0  -5 -18    2.59    1.95
   0   5 -18    2.60    2.17
   0  -5 -18    3.21    2.12
   0   5 -18    5.66    3.43
   0   5 -18    5.28    1.83
   0  -5 -18    7.15    1.85
  -1  -6  18    5.64    1.68
   1   6  18    7.62    4.00
   1   6  18    4.27    2.51
  -1  -6  18    3.69    2.35
   1   6  18    5.39    2.21
  -1  -6 -18    7.42    2.78
   1   6 -18    3.68    1.80
   1   6 -18    3.61    3.20
  -1  -6 -18    5.07    2.36
   2   7  18    2.56    3.61
  -2  -7  18    1.11    2.05
  -2  -7 -18    4.97    3.27
   2   7 -18    3.11    2.20
   3  -2  19   11.73    2.93
   2  -3  19   10.08    2.50
   2  -3  19   14.98    3.04
   2  -3  19    9.27    2.39
   2  -3  19   12.93    2.25
  -2   3 -19   11.69    3.16
  -2   3 -19   11.64    3.03
  -2   3 -19    9.34    5.61
  -2   3 -19   13.34    3.25
   1  -4  19    5.42    1.86
  -1   4  19    6.12    1.42
  -1   4  19    3.35    1.48
   1  -4  19    3.90    2.19
   1  -4  19    3.05    1.71
   1  -4  19    2.56    1.93
  -1   4 -19    1.78    2.54
  -1   4 -19    2.56    2.14
  -1   4 -19    4.62    2.67
  -1   4 -19    0.31    2.30
   1  -4 -19    1.42    1.67
   1  -4 -19    4.17    1.56
   0  -5  19   -0.15    2.10
   0   5  19    0.38    2.01
   0  -5  19    1.68    1.84
   0  -5  19    2.26    1.52
   0   5  19   -0.91    1.82
   0   5  19    1.39    1.78
   0  -5 -19    3.46    1.95
   0   5 -19    0.68    1.80
   0   5 -19    5.26    3.02
   0  -5 -19   -1.88    1.95
   0   5 -19   -2.53    2.24
   0  -5 -19    2.87    2.33
  -1  -6  19    2.48    2.56
   1   6  19   -0.46    2.44
  -1  -6 -19    2.51    2.36
  -2  -7  19   24.22    2.71
  -2  -7 -19   15.01    3.77
   2   7 -19   24.28    2.67
   3  -2  20    4.95    4.41
  -3   2 -20    2.51    5.31
   2  -3  20   15.89    2.52
   2  -3  20   15.43    3.26
   2  -3  20   16.65    2.68
   2  -3  20   12.26    2.67
  -2   3 -20   19.61    3.15
  -2   3 -20   16.06    3.33
  -2   3 -20   19.81    3.60
   1  -4  20    5.35    1.81
  -1   4  20    0.51    1.56
   1  -4  20    4.12    2.37
  -1   4  20    9.25    1.65
   1  -4  20    2.10    2.31
   1  -4  20    2.03    1.89
  -1   4 -20    5.41    2.86
  -1   4 -20    6.66    2.90
   1  -4 -20    4.39    1.95
  -1   4 -20    2.82    2.35
   1  -4 -20   -1.43    1.72
  -1   4 -20   -1.06    2.42
   0  -5  20   16.82    2.97
   0   5  20   17.55    2.32
   0   5  20   17.30    2.49
   0  -5  20   17.68    2.68
   0  -5 -20   13.21    2.52
   0   5 -20   21.24    3.22
   0   5 -20   15.04    3.58
   0   5 -20   16.38    2.68
   0  -5 -20   27.69    3.48
   0  -5 -20   17.40    3.15
  -1  -6  20    0.62    1.81
   1   6 -20    0.31    2.02
  -1  -6 -20    0.67    3.05
   3  -2  21    5.20    5.16
  -3   2 -21    5.83    4.63
   2  -3  21   -2.08    2.43
   2  -3  21    3.27    2.45
   2  -3  21    4.45    5.57
   2  -3  21    3.51    2.72
  -2   3 -21    9.23    6.30
  -2   3 -21    3.18    3.25
  -2   3 -21    4.93    3.36
  -1   4  21   -2.82    1.54
   1  -4  21    0.25    2.05
  -1   4  21    4.86    1.65
   1  -4  21    0.28    2.56
   1  -4  21    3.03    2.00
  -1   4 -21   -1.03    2.55
  -1   4 -21    3.05    3.21
   1  -4 -21   -1.30    1.69
  -1   4 -21    0.57    2.55
   1  -4 -21   -0.42    1.97
   0  -5  21   18.72    2.34
   0   5  21   18.96    2.38
   0   5 -21   11.82    2.82
   0  -5 -21   27.07    3.49
   0   5 -21   17.85    2.58
  -1  -6  21   12.04    2.21
   1   6  21   14.85    3.09
   1   6 -21    8.11    2.45
  -1  -6 -21    8.71    2.96
   2  -3  22    4.81    2.75
   2  -3  22    0.00    2.70
  -2   3 -22   12.91    3.94
  -2   3 -22    9.28    3.55
   1  -4  22    5.25    2.25
  -1   4  22    8.46    1.87
  -1   4  22    1.99    1.74
   1  -4  22    7.87    2.28
   1  -4 -22    0.07    2.48
  -1   4 -22    3.11    2.59
  -1   4 -22    8.76    3.18
   1  -4 -22    4.38    1.94
   0   5  22   18.80    2.57
   0  -5  22   15.51    2.33
   0   5 -22   14.83    2.83
   0  -5 -22   19.13    2.80
  -1  -6  22   16.82    2.55
   1   6  22   15.33    3.31
   1   6 -22   17.17    2.87
  -1  -6 -22   15.76    3.28
   2  -3  23   -1.21    2.91
   2  -3  23   -2.23    2.72
  -2   3 -23    2.52    3.73
  -2   3 -23    2.91    4.10
  -1   4  23   12.90    2.07
   1  -4  23   10.72    2.65
   1  -4  23    7.82    2.67
  -1   4 -23    5.37    3.78
   1  -4 -23    7.45    2.16
   0   5  23    4.24    2.38
   0  -5  23   -0.31    2.11
   0  -5 -23    5.67    2.67
  -1  -6  23    4.52    2.43
   1   6  23    6.70    3.36
   1   6 -23    9.88    2.83
  -1  -6 -23    4.61    3.31
  -2   3 -24   21.91    5.69
  -1   4  24   10.83    2.11
   1  -4  24    4.41    2.59
  -1   4 -24    6.51    3.52
   1  -4 -24   10.46    2.38
   0  -5  24    1.47    2.39
   0   5  24    1.26    2.52
   0   5 -24   -1.69    2.67
   0  -5 -24   10.28    2.96
  -1  -6  24    2.31    2.65
   1   6  24    3.86    3.51
   1   6 -24    3.70    2.97
  -1  -6 -24    1.11    3.33
  -1   4  25   11.46    2.41
   1  -4 -25    3.20    2.56
  -1   4 -25    6.85    4.05
   0   5  25   16.17    2.97
   0  -5  25    8.34    2.91
   0   5 -25    4.17    3.15
  -1   4  26   17.93    2.61
   1  -4  26    9.48    3.16
  -1   4 -26    4.86    4.11
   1  -4 -26    4.06    2.83
   0   5  26    9.85    3.03
   0  -5  26    6.25    3.08
   0  -5 -26   19.87    3.57
   0   5 -26    7.51    3.59
   4  -2   0    1.86    1.66
   4  -2   0    3.03    1.45
  -3   3   0    2.52    1.10
   3  -3   0    1.15    1.10
  -3   3   0    3.42    1.73
   3  -3   0    0.78    0.93
  -2   4   0    2.64    0.83
  -2   4   0    2.14    0.90
  -2   4   0    2.64    1.06
   2  -4   0    2.08    0.80
   2  -4   0    2.63    0.65
  -2   4   0    2.20    0.71
   2  -4   0    2.25    0.95
   2  -4   0    0.07    0.65
  -1   5   0   25.26    1.36
  -1   5   0   25.98    1.46
   1  -5   0   27.30    1.48
   1  -5   0   26.43    1.40
   1  -5   0   27.17    1.46
  -1   5   0   25.65    1.37
   0   6   0   82.32    2.99
   0   6   0   86.58    2.86
   0  -6   0   85.83    2.70
   0   6   0   85.58    2.67
   0  -6   0   86.69    3.00
   0  -6   0   83.68    2.78
   0  -6   0   86.40    2.75
   0   6   0   85.90    2.94
   1   7   0   76.54    3.34
   1   7   0   79.60    2.82
   1   7   0   70.11    3.53
  -1  -7   0   76.71    3.51
  -1  -7   0   76.73    3.11
   1   7   0   74.65    3.11
  -1  -7   0   78.90    3.24
   2   8   0   30.77    3.51
  -2  -8   0   37.61    3.33
   2   8   0   38.43    2.76
   2   8   0   36.71    3.64
  -2  -8   0   37.03    4.14
   3   9   0    1.13    2.25
   4  -2   1    8.30    1.58
   4  -2   1    7.05    1.72
  -4   2  -1    9.05    1.85
   3  -3   1   10.81    1.24
  -3   3  -1   10.70    2.08
   3  -3  -1   12.13    1.40
   3  -3  -1   11.72    1.35
  -3   3  -1   11.32    1.36
  -2   4   1   28.73    1.40
  -2   4   1   29.91    1.44
   2  -4   1   29.63    1.58
   2  -4   1   26.65    1.41
   2  -4   1   27.31    1.45
   2  -4   1   29.69    1.67
   2  -4  -1   27.81    1.35
  -2   4  -1   31.72    1.73
  -2   4  -1   27.29    1.45
  -2   4  -1   28.39    1.56
  -2   4  -1   30.41    1.55
  -1   5   1    0.29    0.68
  -1   5   1    0.86    0.65
   1  -5   1   -0.40    0.64
   1  -5   1    1.87    0.73
  -1   5   1    0.39    0.71
   1  -5   1    0.85    0.79
  -1   5  -1    1.76    0.72
   1  -5  -1    1.28    0.80
  -1   5  -1    2.26    0.76
  -1   5  -1    1.00    0.76
  -1   5  -1    0.22    0.83
   1  -5  -1    0.37    0.75
   1  -5  -1    0.93    0.65
   0   6   1    3.45    1.26
   0   6   1    2.21    1.11
   0  -6   1    1.79    0.87
   0   6   1    1.16    0.92
   0  -6   1    1.49    1.14
   0   6   1   -0.18    1.00
   0  -6   1    2.00    0.92
   0   6  -1    0.91    0.90
   0  -6  -1    1.66    0.92
   0   6  -1    0.21    1.05
   0   6  -1    2.26    1.10
   0  -6  -1    0.61    0.85
   0  -6  -1    1.43    1.16
   0   6  -1    1.60    1.10
   0  -6  -1    1.42    0.92
  -1  -7   1   12.95    1.75
  -1  -7   1   11.70    1.52
   1   7   1   12.83    1.72
   1   7   1   11.87    1.69
  -1  -7   1   10.06    1.47
   1   7   1   12.45    1.88
   1   7   1    9.77    1.75
  -1  -7   1   10.40    1.93
   1   7  -1   10.65    1.93
   1   7  -1   10.90    1.81
  -1  -7  -1   10.90    1.59
  -1  -7  -1   11.51    1.95
  -1  -7  -1   10.33    1.61
   1   7  -1    8.94    1.58
   2   8   1   30.69    2.87
   2   8   1   28.26    5.16
   2   8   1   24.43    3.02
   2   8   1   27.53    2.70
  -2  -8   1   28.88    3.38
  -2  -8   1   26.94    3.00
   2   8  -1   24.97    2.66
   2   8  -1   23.91    2.68
  -2  -8  -1   23.82    2.91
  -2  -8  -1   23.43    2.49
  -2  -8  -1   26.26    3.16
   2   8  -1   25.81    3.06
   3   9   1   10.61    2.59
   3   9  -1    5.41    2.51
   4  -2   2    5.03    1.59
   4  -2   2   -1.50    2.01
  -4   2  -2    2.82    1.91
  -4   2  -2    0.05    1.69
   3  -3   2   23.45    1.82
  -3   3  -2   23.85    1.87
   3  -3  -2   24.24    1.50
  -2   4   2   29.89    1.37
   2  -4   2   31.16    1.61
   2  -4   2   27.32    1.47
   2  -4   2   28.05    1.52
  -2   4   2   31.01    1.42
   2  -4   2   29.24    1.78
   2  -4  -2   29.82    1.33
  -2   4  -2   30.14    1.66
  -2   4  -2   28.68    1.49
  -2   4  -2   30.50    1.61
  -2   4  -2   29.99    1.81
   2  -4  -2   30.94    1.31
   1  -5   2    7.77    0.95
  -1   5   2   10.77    1.14
   1  -5   2    9.39    1.23
  -1   5   2    7.63    1.01
  -1   5   2    6.95    0.97
  -1   5   2    8.69    1.10
   1  -5   2    7.09    0.90
  -1   5  -2    8.06    1.03
   1  -5  -2    8.09    1.06
   1  -5  -2    7.29    0.87
  -1   5  -2    8.03    0.94
  -1   5  -2    9.29    1.19
   1  -5  -2    6.01    0.88
  -1   5  -2    6.96    0.96
   1  -5  -2    7.88    0.92
   0  -6   2   23.08    1.60
   0   6   2   24.17    1.64
   0   6   2   25.57    1.95
   0   6   2   21.40    1.74
   0  -6   2   23.85    2.03
   0   6   2   25.59    2.03
   0  -6   2   25.66    1.73
   0  -6   2   24.90    1.63
   0  -6  -2   26.29    1.73
   0  -6  -2   25.23    1.69
   0  -6  -2   22.32    1.66
   0   6  -2   25.05    1.92
   0   6  -2   23.70    2.11
   0   6  -2   25.00    2.08
   0   6  -2   26.38    1.87
   0  -6  -2   24.57    1.97
  -1  -7   2   17.28    2.19
   1   7   2   14.50    2.00
   1   7   2   18.84    1.80
   1   7   2   13.86    1.67
  -1  -7   2   15.30    1.87
  -1  -7   2   17.03    2.02
   1   7   2   16.43    1.96
  -1  -7   2   12.64    1.90
   1   7  -2   13.08    1.69
  -1  -7  -2   14.07    1.51
  -1  -7  -2   15.13    1.72
  -1  -7  -2   16.09    2.02
   1   7  -2   19.01    1.85
   1   7  -2   13.17    1.90
  -1  -7  -2   13.34    1.75
   1   7  -2   14.62    2.05
   2   8   2    2.99    2.11
   2   8   2    7.53    3.11
  -2  -8   2    6.34    1.86
  -2  -8   2    4.72    2.70
  -2  -8   2    5.71    1.70
   2   8   2    3.52    2.65
   2   8   2    4.53    1.66
  -2  -8  -2   -0.18    2.65
   2   8  -2    3.31    2.75
   2   8  -2    4.74    2.21
  -2  -8  -2    3.30    1.89
  -2  -8  -2    4.39    1.83
   3   9   2   13.28    2.89
  -3  -9   2    4.94    2.77
  -3  -9  -2    5.79    2.80
   4  -2   3    3.05    1.65
  -4   2  -3    1.96    2.00
  -4   2  -3    0.73    1.75
   3  -3   3    6.97    1.70
   3  -3   3    6.08    1.66
  -3   3  -3    5.48    1.89
  -3   3  -3    4.74    1.31
  -3   3  -3    6.86    1.98
   2  -4   3    3.23    0.93
   2  -4   3    2.84    1.06
   2  -4   3    3.08    0.82
   2  -4   3    2.65    0.95
   2  -4  -3    2.73    0.64
   2  -4  -3    3.75    0.65
  -2   4  -3    2.23    0.73
  -2   4  -3    4.18    1.13
  -2   4  -3    2.62    1.04
  -2   4  -3    3.18    0.87
  -1   5   3   20.06    1.25
   1  -5   3   17.58    1.37
   1  -5   3   19.38    1.47
   1  -5   3   21.60    1.43
  -1   5   3   18.41    1.16
  -1   5   3   18.47    1.53
   1  -5   3   20.58    1.46
  -1   5   3   21.01    1.36
   1  -5  -3   18.77    1.32
  -1   5  -3   17.20    1.43
  -1   5  -3   19.12    1.41
  -1   5  -3   20.92    1.51
   1  -5  -3   19.09    1.32
   1  -5  -3   21.03    1.27
   1  -5  -3   19.31    1.39
  -1   5  -3   19.80    1.54
   0  -6   3   30.16    1.72
   0   6   3   27.11    2.04
   0  -6   3   31.34    2.07
   0  -6   3   31.44    1.82
   0  -6   3   28.19    1.79
   0   6   3   31.70    2.03
   0   6   3   27.93    1.86
   0  -6  -3   32.55    1.89
   0  -6  -3   31.47    2.00
   0   6  -3   26.44    2.13
   0   6  -3   32.92    1.92
   0  -6  -3   25.13    1.78
   0   6  -3   31.94    1.67
   0   6  -3   31.88    2.00
  -1  -7   3   40.10    2.44
   1   7   3   36.74    2.22
   1   7   3   36.17    3.02
  -1  -7   3   40.19    2.27
   1   7   3   31.44    2.55
   1   7   3   35.73    2.71
  -1  -7   3   40.54    2.43
  -1  -7   3   35.83    2.94
  -1  -7  -3   34.65    2.33
  -1  -7  -3   35.83    2.70
   1   7  -3   37.51    2.61
   1   7  -3   37.21    2.15
  -1  -7  -3   35.94    2.47
   1   7  -3   36.61    2.87
  -1  -7  -3   33.62    3.01
   1   7  -3   37.95    3.09
   2   8   3   14.59    3.18
   2   8   3   19.70    2.63
   2   8   3   21.31    2.72
  -2  -8   3   18.03    2.23
   2   8   3   12.86    2.95
  -2  -8   3   17.04    2.04
  -2  -8  -3   18.59    2.22
  -2  -8  -3   13.56    3.10
  -2  -8  -3   17.48    2.27
   2   8  -3   19.96    2.96
   2   8  -3   28.92    3.52
  -3  -9   3    1.12    2.58
   3   9   3    4.49    2.87
  -3  -9  -3    0.21    2.77
   4  -2   4    8.21    1.74
  -4   2  -4    5.69    1.94
   3  -3   4   16.64    2.17
   3  -3   4   10.88    2.22
   3  -3   4   14.76    1.91
  -3   3  -4   12.69    1.73
  -3   3  -4   15.79    2.43
  -3   3  -4   14.49    1.75
   2  -4   4   61.69    2.21
   2  -4   4   65.86    2.46
   2  -4   4   65.61    2.32
   2  -4   4   62.43    2.25
  -2   4  -4   64.73    2.39
  -2   4  -4   63.88    2.48
  -2   4  -4   60.65    2.35
  -2   4  -4   59.10    2.09
  -1   5   4    5.15    0.83
   1  -5   4    5.02    0.86
  -1   5   4    6.54    0.82
   1  -5   4    4.05    1.03
  -1   5   4    5.20    0.78
  -1   5   4    7.21    1.01
   1  -5   4    6.45    1.01
   1  -5   4    4.36    0.85
  -1   5  -4    4.81    0.97
  -1   5  -4    5.66    1.06
   1  -5  -4    5.43    0.88
  -1   5  -4    5.63    1.02
   1  -5  -4    5.72    0.79
  -1   5  -4    6.37    1.03
   1  -5  -4    4.74    0.81
   1  -5  -4    4.46    0.83
   0   6   4    0.68    1.03
   0  -6   4    0.28    0.81
   0   6   4   -0.56    0.99
   0  -6   4   -0.29    0.77
   0   6   4    0.08    1.18
   0  -6   4    0.51    0.87
   0   6   4    0.32    0.92
   0  -6   4    0.51    1.12
   0  -6  -4    0.23    1.00
   0  -6  -4   -0.03    1.11
   0   6  -4   -0.07    0.88
   0   6  -4    0.56    0.76
   0   6  -4    0.86    1.33
   0   6  -4    0.50    1.08
   0  -6  -4    1.08    0.88
  -1  -7   4   15.07    2.45
   1   7   4   14.91    2.11
   1   7   4   17.26    1.90
   1   7   4   12.88    1.71
   1   7   4   14.87    1.95
  -1  -7   4   13.74    1.49
  -1  -7   4   15.46    2.06
  -1  -7   4   15.71    2.10
   1   7  -4   15.99    2.14
  -1  -7  -4   16.47    1.99
  -1  -7  -4   14.06    1.87
  -1  -7  -4   14.21    2.05
  -1  -7  -4   14.79    1.78
   1   7  -4   13.99    1.76
   1   7  -4   13.71    1.81
   1   7  -4   19.66    2.67
  -2  -8   4   38.23    4.51
   2   8   4   36.69    3.54
  -2  -8   4   36.44    3.34
  -2  -8   4   51.50    4.52
   2   8   4   30.94    3.63
   2   8   4   36.27    4.70
   2   8   4   40.33    3.20
   2   8  -4   39.94    3.65
   2   8  -4   46.08    3.06
  -2  -8  -4   46.15    4.55
  -2  -8  -4   42.12    3.63
  -2  -8  -4   50.12    6.69
  -2  -8  -4   41.16    3.31
   2   8  -4   36.14    4.48
  -3  -9   4   17.81    2.84
   3   9   4   15.99    2.93
  -3  -9  -4   10.78    3.08
   4  -2   5    8.15    1.81
  -4   2  -5    6.71    2.15
   3  -3   5    0.37    1.41
   3  -3   5   -0.69    1.33
   3  -3   5   -2.67    1.67
  -3   3  -5    2.03    1.53
  -3   3  -5   -0.70    1.49
  -3   3  -5    1.62    1.66
   2  -4   5   13.41    1.43
   2  -4   5   12.53    1.50
   2  -4   5   13.39    1.52
  -2   4  -5   13.16    1.34
  -2   4  -5   13.41    1.66
  -2   4  -5   18.07    1.40
  -2   4  -5   16.10    1.83
   1  -5   5   17.16    1.56
   1  -5   5   18.50    1.53
  -1   5   5   16.57    1.21
  -1   5   5   19.76    1.59
   1  -5   5   18.01    1.47
   1  -5   5   16.23    1.45
  -1   5   5   15.75    1.31
  -1   5   5   17.66    1.28
   1  -5  -5   15.18    1.36
  -1   5  -5   17.77    1.67
   1  -5  -5   18.80    1.30
  -1   5  -5   17.05    1.60
  -1   5  -5   16.53    1.60
  -1   5  -5   17.07    1.57
   1  -5  -5   15.65    1.29
   1  -5  -5   17.71    1.21
   0  -6   5   15.65    2.01
   0  -6   5   11.20    1.48
   0   6   5   13.40    1.46
   0   6   5   15.50    1.53
   0   6   5   12.87    1.64
   0   6   5   13.07    1.76
   0  -6   5   14.34    1.46
   0  -6  -5   16.01    1.71
   0  -6  -5   14.40    1.82
   0  -6  -5   13.35    1.79
   0  -6  -5   17.25    1.59
   0   6  -5   12.92    1.39
   0   6  -5   13.60    1.76
   0   6  -5   15.02    2.06
   1   7   5   13.92    2.11
   1   7   5   14.41    1.77
  -1  -7   5   15.09    1.59
   1   7   5   11.97    2.06
  -1  -7   5   14.02    1.57
   1   7   5   15.77    1.63
  -1  -7   5   18.31    1.98
   1   7  -5   17.66    2.26
  -1  -7  -5   15.98    2.20
   1   7  -5   15.40    1.84
   1   7  -5   16.33    2.27
  -1  -7  -5   14.49    2.00
  -1  -7  -5   15.51    1.73
   1   7  -5   17.58    2.09
  -1  -7  -5   12.08    2.02
  -2  -8   5    1.43    2.22
   2   8   5    1.16    3.06
  -2  -8   5    6.23    2.61
   2   8   5    7.32    2.02
   2   8   5    4.38    2.23
   2   8   5    6.68    2.87
   2   8  -5    4.15    2.19
   2   8  -5   10.14    3.72
  -2  -8  -5    6.55    3.63
  -2  -8  -5    7.91    2.09
  -2  -8  -5    7.24    3.23
  -2  -8  -5    6.17    2.09
   3   9   5    5.22    3.10
   4  -2   6    4.46    1.95
  -4   2  -6    2.70    2.15
   3  -3   6   10.18    1.57
   3  -3   6   10.05    2.02
   3  -3   6   11.44    1.68
  -3   3  -6   11.09    1.72
  -3   3  -6   10.05    1.86
  -3   3  -6   16.00    1.99
   2  -4   6   14.85    1.72
   2  -4   6   13.61    1.60
   2  -4   6   15.15    1.63
  -2   4  -6   13.57    1.75
  -2   4  -6   15.37    1.98
  -2   4  -6   16.04    1.61
  -2   4  -6   14.08    1.80
  -1   5   6    2.83    0.80
   1  -5   6    2.62    0.89
   1  -5   6    3.92    0.99
  -1   5   6    1.86    0.81
   1  -5   6    4.46    0.89
  -1   5   6    3.59    0.76
   1  -5   6    1.08    1.02
  -1   5   6    2.36    0.92
   1  -5  -6    4.20    0.78
  -1   5  -6    3.37    1.11
   1  -5  -6    4.66    0.87
  -1   5  -6    1.70    1.06
   1  -5  -6    3.49    0.83
  -1   5  -6    3.48    1.04
  -1   5  -6    1.37    1.04
   1  -5  -6    4.37    0.83
   0   6   6   13.93    1.85
   0  -6   6   12.60    1.29
   0  -6   6   14.06    1.59
   0  -6   6   12.88    1.50
   0   6   6   15.05    1.70
   0   6   6   11.82    1.38
   0  -6   6   17.75    2.02
   0   6   6   12.66    1.24
   0  -6  -6   14.05    1.66
   0  -6  -6   13.84    1.77
   0   6  -6   14.45    1.51
   0   6  -6   15.31    1.71
   0   6  -6   15.07    1.77
   0  -6  -6   15.17    1.77
   0  -6  -6   12.81    1.43
  -1  -7   6   40.62    2.47
   1   7   6   38.23    2.36
   1   7   6   35.04    2.67
   1   7   6   26.72    2.95
  -1  -7   6   35.91    3.49
  -1  -7   6   36.43    2.27
   1   7   6   37.71    3.05
  -1  -7   6   34.58    2.38
   1   7  -6   35.23    2.20
  -1  -7  -6   31.30    3.01
   1   7  -6   35.36    2.60
   1   7  -6   35.89    3.42
  -1  -7  -6   39.31    2.54
  -1  -7  -6   37.00    3.11
   1   7  -6   39.98    2.86
  -1  -7  -6   34.88    2.68
  -2  -8   6   -0.22    2.03
   2   8   6    3.67    3.00
   2   8   6    4.40    1.81
  -2  -8   6    2.06    1.64
   2   8   6    4.54    2.29
   2   8   6    5.38    2.88
  -2  -8   6    4.54    2.59
   2   8  -6    3.28    3.26
  -2  -8  -6    6.11    2.03
  -2  -8  -6    6.36    3.22
   2   8  -6    4.18    1.82
  -2  -8  -6    6.46    2.02
   2   8  -6    4.30    4.66
  -2  -8  -6    5.85    3.07
   4  -2   7   11.61    2.14
  -4   2  -7   10.76    2.52
   3  -3   7    3.22    1.54
   3  -3   7    1.99    1.82
   3  -3   7    0.22    1.21
  -3   3  -7    4.88    1.91
  -3   3  -7    0.10    1.71
  -3   3  -7    1.37    1.48
   2  -4   7    6.11    1.19
   2  -4   7    7.44    1.28
   2  -4   7    6.39    1.15
  -2   4  -7    5.04    1.13
  -2   4  -7    4.17    1.22
  -2   4  -7    6.51    1.36
  -2   4  -7    5.97    1.37
  -1   5   7   15.03    1.52
   1  -5   7   15.57    1.49
  -1   5   7   14.89    1.26
  -1   5   7   19.13    1.27
  -1   5   7   16.79    1.23
   1  -5   7   14.16    1.71
   1  -5   7   16.98    1.68
   1  -5   7   17.65    1.59
  -1   5  -7   14.03    1.70
  -1   5  -7   14.01    1.66
  -1   5  -7   18.76    1.77
   1  -5  -7   17.69    1.55
   1  -5  -7   16.36    1.34
   1  -5  -7   12.75    1.23
  -1   5  -7   12.65    1.38
   1  -5  -7   18.52    1.28
   0   6   7    2.63    1.21
   0  -6   7    4.03    1.33
   0  -6   7    3.59    1.03
   0  -6   7    2.35    0.99
   0   6   7    3.21    1.02
   0   6   7    3.54    1.15
   0   6   7    0.80    1.08
   0   6  -7    4.03    1.03
   0  -6  -7    3.58    1.11
   0   6  -7    1.03    1.14
   0   6  -7    3.70    1.34
   0   6  -7    2.49    1.35
   0  -6  -7    1.95    1.17
   0  -6  -7    3.60    1.23
   0  -6  -7    1.92    1.13
  -1  -7   7   50.26    2.63
  -1  -7   7   47.92    2.66
   1   7   7   52.29    3.49
   1   7   7   56.48    3.40
  -1  -7   7   53.77    2.70
   1   7   7   52.45    2.96
  -1  -7   7   53.73    3.26
   1   7   7   52.69    2.62
   1   7  -7   51.12    2.84
   1   7  -7   38.67    5.27
  -1  -7  -7   53.82    3.04
  -1  -7  -7   55.28    3.42
  -1  -7  -7   51.67    2.86
   1   7  -7   53.62    2.54
   1   7  -7   54.70    3.11
  -1  -7  -7   55.06    3.41
   2   8   7   18.11    3.59
   2   8   7   25.24    2.44
   2   8   7   24.66    2.78
  -2  -8   7   22.11    2.84
  -2  -8   7   24.31    4.31
  -2  -8   7   19.11    2.66
   2   8   7   18.99    3.31
   2   8  -7   18.78    2.10
   2   8  -7   23.54    3.04
  -2  -8  -7   21.62    2.75
  -2  -8  -7   27.50    3.76
  -2  -8  -7   17.63    2.45
  -2  -8  -7   21.90    3.77
   4  -2   8    2.99    2.10
  -4   2  -8    2.70    2.50
   3  -3   8   17.52    2.19
   3  -3   8   17.65    2.11
  -3   3  -8   23.22    2.64
  -3   3  -8   17.23    2.23
  -3   3  -8   14.69    2.11
   2  -4   8   19.46    1.84
   2  -4   8   18.87    2.02
   2  -4   8   18.78    1.87
   2  -4   8   20.54    2.07
  -2   4  -8   15.16    1.98
  -2   4  -8   18.62    2.02
  -2   4  -8   17.92    2.19
  -2   4  -8   15.55    1.64
   1  -5   8    1.92    0.93
  -1   5   8    3.02    0.77
   1  -5   8    3.55    1.23
  -1   5   8    1.11    0.81
  -1   5   8    1.18    0.79
   1  -5   8    2.27    0.94
  -1   5   8    1.60    0.97
  -1   5  -8    2.38    1.21
   1  -5  -8    1.20    0.82
   1  -5  -8    1.21    0.82
  -1   5  -8   -0.28    1.10
   1  -5  -8    1.93    0.76
  -1   5  -8    3.54    1.34
  -1   5  -8    1.39    1.16
   1  -5  -8    1.17    0.97
   0  -6   8   26.62    1.93
   0   6   8   26.99    1.90
   0   6   8   22.01    1.77
   0  -6   8   24.11    1.76
   0  -6   8   27.11    2.20
   0   6   8   24.18    2.19
   0   6   8   21.37    1.89
   0   6  -8   27.22    2.06
   0   6  -8   25.56    2.33
   0   6  -8   22.26    2.09
   0  -6  -8   26.32    2.01
   0   6  -8   23.64    1.78
   0  -6  -8   24.17    1.90
   0  -6  -8   25.19    2.17
   0  -6  -8   20.53    1.91
   1   7   8    4.75    1.28
   1   7   8    2.16    1.55
   1   7   8    3.62    2.04
   1   7   8    8.01    1.92
  -1  -7   8    3.53    1.34
  -1  -7   8    3.43    1.73
  -1  -7   8    4.84    1.27
  -1  -7   8    4.15    1.38
   1   7  -8    4.80    1.67
  -1  -7  -8    2.43    2.06
  -1  -7  -8    3.02    1.49
   1   7  -8    5.63    1.36
   1   7  -8    4.45    1.82
  -1  -7  -8    4.10    1.85
  -1  -7  -8    2.02    1.36
   2   8   8    4.67    2.36
   2   8   8    3.46    1.93
  -2  -8   8    3.12    1.75
   2   8   8    0.49    3.08
  -2  -8   8    4.26    2.22
   2   8   8    3.06    3.15
  -2  -8  -8    2.07    3.42
  -2  -8  -8    1.36    3.37
   2   8  -8    0.98    1.59
  -2  -8  -8    6.28    2.32
   2   8  -8    1.65    2.59
  -2  -8  -8    3.10    2.13
   4  -2   9    4.50    2.20
  -4   2  -9    6.97    2.68
   3  -3   9   -0.80    1.93
   3  -3   9    1.32    1.35
   3  -3   9    1.65    1.73
  -3   3  -9   -1.18    1.94
  -3   3  -9    3.46    1.79
  -3   3  -9    3.49    2.04
   2  -4   9    6.95    1.43
   2  -4   9    6.64    1.51
   2  -4   9    6.11    1.27
   2  -4   9    7.26    1.37
  -2   4  -9    8.34    1.59
  -2   4  -9    6.79    1.51
  -2   4  -9    5.41    1.51
  -2   4  -9    6.00    1.54
  -1   5   9   24.30    2.19
   1  -5   9   26.36    1.83
  -1   5   9   25.77    1.41
   1  -5   9   26.40    2.16
   1  -5   9   22.64    1.79
  -1   5   9   25.01    1.40
   1  -5   9   23.25    1.71
  -1   5   9   21.61    1.49
   1  -5  -9   21.91    1.46
   1  -5  -9   24.65    1.54
  -1   5  -9   24.04    1.85
  -1   5  -9   25.19    1.99
  -1   5  -9   25.91    2.17
   1  -5  -9   25.97    1.84
  -1   5  -9   21.02    2.27
   0   6   9    0.04    1.06
   0   6   9    0.89    1.18
   0  -6   9    0.03    1.04
   0  -6   9    1.63    1.00
   0   6   9   -1.53    1.31
   0   6   9    1.06    1.06
   0  -6   9   -0.25    0.99
   0  -6   9    0.85    1.34
   0  -6  -9    1.25    1.28
   0  -6  -9    0.11    1.27
   0   6  -9    0.08    1.35
   0   6  -9    0.78    1.26
   0  -6  -9    0.90    1.18
   0  -6  -9   -0.52    1.05
   0   6  -9   -1.13    1.28
   0   6  -9   -0.82    0.93
  -1  -7   9    4.04    1.25
   1   7   9    4.32    2.00
  -1  -7   9    6.71    1.47
   1   7   9    1.68    2.30
   1   7   9    2.14    1.59
  -1  -7   9    0.01    1.32
   1   7   9    2.69    1.26
  -1  -7   9    4.80    1.75
   1   7  -9    3.23    1.23
   1   7  -9    4.12    2.77
   1   7  -9    5.21    1.65
  -1  -7  -9    3.10    1.50
   1   7  -9    2.57    1.87
  -1  -7  -9    4.97    1.45
  -1  -7  -9    2.85    1.86
  -1  -7  -9    2.45    2.22
   2   8   9   11.14    2.62
   2   8   9   10.29    2.18
  -2  -8   9    9.45    1.97
   2   8   9    2.63    3.50
   2   8   9    9.63    3.28
  -2  -8  -9    8.62    3.68
  -2  -8  -9   13.08    2.56
  -2  -8  -9    4.80    2.26
  -2  -8  -9    7.69    3.81
   2   8  -9    9.35    1.90
   4  -2  10    4.36    2.38
  -4   2 -10    6.10    2.88
   3  -3  10    7.09    1.64
   3  -3  10   11.44    2.05
  -3   3 -10    8.90    2.22
  -3   3 -10    9.84    2.04
  -3   3 -10    4.02    2.16
   2  -4  10    4.70    1.27
   2  -4  10    6.00    1.51
   2  -4  10    4.35    1.31
   2  -4  10    4.79    1.47
  -2   4 -10    5.41    1.63
  -2   4 -10    2.24    1.59
  -2   4 -10    3.19    1.59
  -2   4 -10    2.81    1.43
   1  -5  10   11.56    1.34
   1  -5  10   13.26    1.40
  -1   5  10   11.41    2.10
   1  -5  10   12.87    1.65
   1  -5  10   10.00    1.24
  -1   5  10   11.67    1.35
  -1   5 -10   10.38    1.49
   1  -5 -10   12.67    1.38
  -1   5 -10   15.42    1.86
  -1   5 -10   12.06    1.56
   1  -5 -10   15.83    1.29
  -1   5 -10   14.73    1.77
   1  -5 -10   13.02    1.35
   0  -6  10   58.29    2.81
   0   6  10   55.30    2.37
   0  -6  10   56.16    2.45
   0   6  10   54.97    2.51
   0  -6  10   53.75    2.45
   0  -6  10   61.13    2.64
   0   6  10   53.38    2.59
   0   6  10   57.05    2.92
   0  -6 -10   57.58    2.55
   0   6 -10   53.52    3.04
   0   6 -10   54.03    2.68
   0   6 -10   57.22    2.46
   0  -6 -10   57.53    2.85
   0   6 -10   59.58    2.85
   0  -6 -10   52.84    2.73
  -1  -7  10   33.67    2.75
  -1  -7  10   34.75    2.55
   1   7  10   37.07    2.86
   1   7  10   36.51    2.46
  -1  -7  10   43.19    3.16
   1   7  10   28.42    3.39
  -1  -7  10   35.46    2.38
   1   7  10   30.66    3.92
  -1  -7 -10   35.74    3.69
   1   7 -10   30.57    2.87
  -1  -7 -10   36.91    2.79
   1   7 -10   35.82    4.00
  -1  -7 -10   40.21    3.50
  -1  -7 -10   33.31    2.81
   1   7 -10   37.13    2.37
   1   7 -10   33.18    3.13
   2   8  10    1.08    3.40
   2   8  10    1.63    2.53
   2   8  10   -2.57    4.18
   2   8  10    3.02    2.01
  -2  -8 -10   -0.75    3.82
  -2  -8 -10    1.69    2.13
  -2  -8 -10    0.79    2.37
  -2  -8 -10    1.70    3.58
   2   8 -10    2.63    2.45
   4  -2  11    0.39    2.29
  -4   2 -11    1.76    3.06
   3  -3  11    7.26    1.74
   3  -3  11    9.42    2.05
   3  -3  11    3.44    2.51
  -3   3 -11    7.51    2.34
  -3   3 -11    7.80    2.47
  -3   3 -11   11.44    2.18
   2  -4  11   25.33    2.58
   2  -4  11   17.63    2.32
   2  -4  11   21.88    2.20
  -2   4 -11   18.09    2.03
  -2   4 -11   18.56    2.53
  -2   4 -11   16.20    1.95
  -2   4 -11   19.88    2.59
   1  -5  11   33.75    2.18
   1  -5  11   36.01    2.58
   1  -5  11   33.92    2.21
  -1   5  11   36.35    1.62
  -1   5  11   36.23    2.13
  -1   5  11   32.98    1.75
   1  -5  11   32.14    2.13
  -1   5 -11   38.25    2.33
   1  -5 -11   33.51    2.72
  -1   5 -11   32.84    2.48
   1  -5 -11   34.70    1.79
  -1   5 -11   37.69    2.69
   0  -6  11    5.47    1.67
   0   6  11    6.28    1.31
   0  -6  11    4.09    1.12
   0  -6  11    4.76    1.28
   0   6  11    5.07    1.20
   0   6  11    6.76    1.29
   0   6  11    4.64    1.56
   0  -6  11    4.18    1.16
   0  -6 -11    3.93    1.46
   0  -6 -11    8.10    1.57
   0   6 -11    4.84    1.52
   0   6 -11    7.07    1.65
   0  -6 -11    6.64    1.32
   0   6 -11    4.31    1.68
   0   6 -11    6.54    1.21
   1   7  11   14.25    2.05
  -1  -7  11   12.44    1.64
  -1  -7  11   15.70    2.32
  -1  -7  11   12.20    2.14
   1   7  11   16.22    2.21
   1   7  11   11.88    2.38
   1   7 -11   16.63    2.73
  -1  -7 -11   12.81    1.96
   1   7 -11   10.13    2.13
  -1  -7 -11   14.95    2.40
   1   7 -11   13.25    1.72
   1   7 -11   12.06    2.12
  -1  -7 -11   11.49    2.71
  -1  -7 -11   12.48    2.02
  -2  -8  11    1.87    1.70
   2   8  11   -0.51    3.83
   2   8  11    5.64    2.06
   2   8  11    2.74    2.66
   2   8 -11    5.96    2.07
  -2  -8 -11   10.63    4.24
  -2  -8 -11    0.01    2.36
  -2  -8 -11    0.44    2.46
  -2  -8 -11   -2.78    3.90
   4  -2  12    3.85    2.54
  -4   2 -12    0.44    3.15
   3  -3  12   19.56    2.60
   3  -3  12   19.07    2.42
   3  -3  12   21.13    2.81
  -3   3 -12   25.75    2.97
  -3   3 -12   21.76    2.76
  -3   3 -12   26.96    3.57
   2  -4  12   41.32    2.58
   2  -4  12   45.75    2.75
   2  -4  12   42.46    3.11
  -2   4 -12   42.20    2.98
  -2   4 -12   40.63    3.22
  -2   4 -12   38.33    3.35
  -2   4 -12   37.95    3.02
  -1   5  12   22.63    1.98
   1  -5  12   25.84    2.55
   1  -5  12   24.70    2.11
  -1   5  12   25.26    1.60
   1  -5  12   20.42    2.03
   1  -5  12   21.42    2.16
  -1   5  12   24.12    1.52
  -1   5 -12   25.77    2.24
   1  -5 -12   26.16    1.88
   1  -5 -12   21.09    1.56
  -1   5 -12   26.23    2.79
  -1   5 -12   27.96    2.43
  -1   5 -12   21.43    2.36
   1  -5 -12   24.78    1.65
   0  -6  12    3.02    1.19
   0   6  12    6.42    1.35
   0  -6  12    5.22    1.67
   0   6  12    5.37    1.67
   0  -6  12    5.49    1.32
   0   6  12    5.19    1.37
   0  -6  12    3.27    1.23
   0   6  12    5.00    1.28
   0   6 -12    4.24    1.71
   0  -6 -12    7.11    1.49
   0  -6 -12    6.06    1.49
   0   6 -12    9.28    1.80
   0   6 -12    5.72    1.31
   0   6 -12    2.19    1.61
   0  -6 -12    8.09    1.61
   1   7  12   10.63    1.96
  -1  -7  12   11.13    2.25
   1   7  12   10.41    1.66
  -1  -7  12    7.64    1.58
  -1  -7  12   11.58    2.09
   1   7 -12    8.13    2.40
   1   7 -12    6.86    2.69
  -1  -7 -12   11.28    2.53
  -1  -7 -12   11.31    2.05
  -1  -7 -12    7.16    1.84
  -1  -7 -12   11.67    2.67
   1   7 -12   10.92    1.74
   2   8  12    8.28    2.22
  -2  -8  12    4.58    1.86
   2   8  12    3.67    2.84
   2   8 -12    1.40    1.73
  -2  -8 -12    0.80    2.63
  -2  -8 -12    5.28    2.52
   4  -2  13   -0.99    2.54
  -4   2 -13    1.95    3.47
   3  -3  13    1.97    1.82
   3  -3  13    4.40    2.34
  -3   3 -13    1.39    3.84
  -3   3 -13    6.44    2.36
  -3   3 -13    3.26    2.57
   2  -4  13   14.08    2.11
   2  -4  13   14.08    1.94
   2  -4  13   14.63    1.82
   2  -4  13   18.05    2.32
  -2   4 -13   13.46    2.13
  -2   4 -13   13.41    2.08
  -2   4 -13   15.41    2.06
  -2   4 -13    9.19    2.17
   1  -5  13   35.29    2.38
  -1   5  13   36.38    2.18
   1  -5  13   33.52    2.75
   1  -5  13   33.42    2.48
  -1   5  13   31.23    1.61
  -1   5  13   34.38    1.91
   1  -5  13   31.60    2.23
   1  -5 -13   34.22    2.23
   1  -5 -13   34.04    1.99
  -1   5 -13   33.32    3.13
  -1   5 -13   31.97    2.73
   1  -5 -13   29.89    2.37
   1  -5 -13   37.21    1.87
  -1   5 -13   33.96    2.68
  -1   5 -13   35.51    2.50
   0  -6  13   30.45    2.40
   0  -6  13   26.28    2.16
   0   6  13   32.92    2.40
   0   6  13   28.49    2.89
   0   6  13   26.12    2.13
   0  -6  13   23.95    2.19
   0  -6  13   27.95    2.74
   0  -6 -13   33.30    2.86
   0   6 -13   26.19    2.70
   0  -6 -13   30.42    2.43
   0  -6 -13   30.20    2.99
   0   6 -13   28.62    2.30
   0   6 -13   21.27    2.61
   0   6 -13   28.71    3.01
   1   7  13    1.40    1.53
   1   7  13    6.43    2.03
  -1  -7  13   -0.67    1.96
  -1  -7  13    4.38    2.17
  -1  -7  13    2.72    1.61
  -1  -7 -13    4.35    1.87
   1   7 -13    2.86    1.51
  -1  -7 -13    0.60    2.42
   1   7 -13    5.96    2.47
  -1  -7 -13    4.17    1.90
   2   8  13   21.78    2.89
   2   8  13   19.85    3.35
  -2  -8  13   18.85    2.32
   2   8 -13   15.05    2.27
  -2  -8 -13   18.75    3.32
  -2  -8 -13   12.54    3.01
   4  -2  14    0.60    2.81
  -4   2 -14   -0.71    3.54
   3  -3  14   17.65    2.26
   3  -3  14   13.52    4.52
  -3   3 -14   19.97    4.85
  -3   3 -14   13.77    2.78
   2  -4  14   13.47    2.29
   2  -4  14   13.44    1.83
   2  -4  14   14.25    1.88
   2  -4  14   14.63    1.84
  -2   4 -14    9.48    2.35
  -2   4 -14   11.93    2.34
  -2   4 -14   13.55    2.18
  -1   5  14   34.76    1.92
   1  -5  14   31.25    2.92
  -1   5  14   32.19    2.29
   1  -5  14   34.76    2.62
   1  -5  14   32.84    2.40
   1  -5  14   32.63    2.43
  -1   5 -14   31.89    3.24
  -1   5 -14   28.86    2.78
   1  -5 -14   33.45    2.24
  -1   5 -14   30.26    2.72
  -1   5 -14   32.10    2.89
   1  -5 -14   32.20    2.03
   0   6  14   16.65    1.72
   0  -6  14   22.37    2.42
   0  -6  14   17.31    2.13
   0   6  14   16.78    2.12
   0  -6  14   16.02    1.73
   0  -6  14   19.32    2.25
   0   6  14   20.17    2.26
   0   6 -14   19.58    2.26
   0  -6 -14   16.67    1.91
   0   6 -14   16.81    2.08
   0  -6 -14   18.43    2.14
   0  -6 -14   20.00    2.64
   0   6 -14   16.21    2.33
   0   6 -14   22.53    2.85
  -1  -7  14    2.64    2.04
   1   7  14    4.56    2.07
   1   7  14    3.24    1.70
  -1  -7  14    4.54    2.06
   1   7  14    2.04    3.30
   1   7 -14    1.97    1.60
  -1  -7 -14    1.85    2.11
  -1  -7 -14    5.84    2.01
  -1  -7 -14   -2.73    2.49
   1   7 -14    4.29    2.59
   1   7 -14    0.19    3.38
  -2  -8  14   -0.15    2.07
   2   8  14    2.94    4.82
   2   8 -14    1.94    2.11
  -2  -8 -14    3.76    3.05
   3  -3  15   14.84    2.38
  -3   3 -15   13.25    3.03
   2  -4  15    2.92    1.54
   2  -4  15    2.73    1.74
   2  -4  15    2.97    1.70
   2  -4  15    2.40    2.20
  -2   4 -15   -0.53    2.21
  -2   4 -15    1.98    2.04
  -2   4 -15   -1.85    2.14
  -2   4 -15    4.82    2.57
  -1   5  15   19.92    2.43
  -1   5  15   17.80    2.16
   1  -5  15   18.96    2.32
   1  -5  15   19.41    2.56
   1  -5  15   19.32    2.44
   1  -5  15   17.84    2.18
  -1   5 -15   19.73    2.26
   1  -5 -15   22.93    2.15
   1  -5 -15   15.51    2.29
  -1   5 -15   21.16    2.61
  -1   5 -15   20.13    2.36
   1  -5 -15   19.14    2.27
  -1   5 -15   17.77    2.36
   0  -6  15    5.31    1.98
   0  -6  15    3.79    1.49
   0  -6  15    5.12    1.53
   0  -6  15    6.37    1.53
   0   6  15    5.79    1.97
   0   6  15    3.69    1.47
   0   6  15    5.45    2.39
   0   6 -15    6.70    1.66
   0   6 -15    8.56    2.11
   0  -6 -15    3.39    1.76
   0  -6 -15    3.84    1.82
   0  -6 -15    2.89    1.91
   0   6 -15    2.66    2.17
   0   6 -15    6.40    2.16
  -1  -7  15   10.43    2.36
   1   7  15   10.67    2.11
   1   7  15   11.22    3.64
  -1  -7  15   11.67    1.89
  -1  -7  15   11.70    2.36
   1   7 -15   10.14    2.88
  -1  -7 -15    9.84    3.00
   1   7 -15   13.10    2.92
  -1  -7 -15   11.23    2.19
   1   7 -15   12.09    2.06
  -1  -7 -15    9.86    2.59
   2   8  15    4.71    3.29
  -2  -8  15    0.13    2.09
   2   8 -15    0.24    2.24
   3  -3  16   17.89    2.50
  -3   3 -16   18.72    4.95
   2  -4  16   14.09    2.10
   2  -4  16   16.16    2.11
   2  -4  16   17.94    2.32
   2  -4  16   13.75    2.65
  -2   4 -16   21.03    2.99
  -2   4 -16   16.39    2.69
  -2   4 -16   15.34    4.06
  -2   4 -16   15.42    2.61
   1  -5  16   21.58    2.67
   1  -5  16   23.16    2.60
   1  -5  16   21.07    2.38
  -1   5  16   27.95    2.01
  -1   5  16   18.55    2.25
   1  -5  16   23.39    2.73
   1  -5 -16   24.00    2.46
  -1   5 -16   25.93    2.66
  -1   5 -16   21.32    2.85
  -1   5 -16   23.97    2.75
   1  -5 -16   23.97    2.07
  -1   5 -16   19.93    2.46
   0   6  16    7.24    1.78
   0  -6  16    4.30    1.90
   0  -6  16    6.39    1.59
   0  -6  16    4.55    1.60
   0   6  16    3.77    1.64
   0   6  16    2.47    2.08
   0  -6  16    7.03    1.60
   0   6 -16    4.47    2.11
   0   6 -16    3.43    2.43
   0  -6 -16    3.06    1.86
   0  -6 -16    6.08    2.13
   0  -6 -16    5.60    1.73
   0   6 -16    4.56    1.66
   0   6 -16    2.45    2.26
  -1  -7  16   15.03    2.57
   1   7  16   18.18    2.61
  -1  -7  16   17.59    2.19
   1   7 -16   17.04    2.08
  -1  -7 -16   14.15    2.59
   1   7 -16   22.28    3.09
  -1  -7 -16   17.17    2.42
   2   8  16   12.22    3.63
  -2  -8  16   11.92    2.46
  -2  -8 -16   14.04    3.33
   2   8 -16    9.68    2.48
   3  -3  17    5.47    2.98
  -3   3 -17   10.66    5.16
   2  -4  17    8.46    2.12
   2  -4  17   10.18    2.11
   2  -4  17    7.40    1.90
   2  -4  17    8.87    2.84
  -2   4 -17    7.93    2.84
  -2   4 -17    8.04    2.54
  -2   4 -17    7.47    2.79
  -1   5  17   10.88    1.59
   1  -5  17   10.85    1.83
   1  -5  17   10.34    2.00
  -1   5  17   15.70    2.05
   1  -5  17   11.19    1.98
   1  -5  17    8.57    2.31
  -1   5 -17   10.12    2.37
  -1   5 -17   12.12    2.75
   1  -5 -17    8.21    1.71
   1  -5 -17   12.25    1.65
  -1   5 -17    7.56    2.28
  -1   5 -17    8.49    2.22
   1  -5 -17   12.86    1.71
   0   6  17    8.29    1.86
   0  -6  17    4.36    1.73
   0   6  17    6.87    2.22
   0  -6  17    3.44    1.62
   0  -6  17    0.50    1.99
   0   6  17    5.37    1.81
   0  -6 -17    6.36    2.37
   0   6 -17    3.87    2.23
   0   6 -17    3.53    1.77
   0   6 -17    2.76    2.85
   0  -6 -17    6.70    1.84
   0  -6 -17    2.38    2.05
   0   6 -17    1.86    2.31
   1   7  17    5.58    2.46
  -1  -7  17    2.91    1.92
  -1  -7 -17    0.77    2.24
   1   7 -17    2.64    1.97
  -2  -8  17   23.03    2.80
   2   8 -17   20.12    2.68
  -2  -8 -17   20.75    3.61
  -3   3 -18   12.66    3.82
   2  -4  18    6.17    2.14
   2  -4  18    7.06    2.32
   2  -4  18   11.05    4.38
   2  -4  18    7.22    2.08
  -2   4 -18    5.84    3.03
  -2   4 -18    5.21    2.79
  -2   4 -18    7.19    3.05
   1  -5  18   15.77    2.31
   1  -5  18   16.34    2.06
  -1   5  18   18.62    2.47
   1  -5  18   19.60    2.32
   1  -5  18   13.73    2.74
  -1   5 -18   12.90    2.61
  -1   5 -18   12.63    2.56
   1  -5 -18   16.32    1.98
   1  -5 -18   18.28    2.42
  -1   5 -18   12.59    2.67
  -1   5 -18   17.71    2.97
   0  -6  18    2.06    1.84
   0  -6  18   -1.30    2.03
   0   6  18    5.00    2.34
   0   6  18    2.76    1.80
   0  -6  18    1.16    1.61
   0   6  18    1.51    2.04
   0   6 -18    2.68    1.89
   0  -6 -18    0.97    2.08
   0  -6 -18    1.60    1.87
   0   6 -18   -4.42    2.56
   0  -6 -18    2.16    2.37
   0   6 -18    7.95    2.36
  -1  -7  18    8.33    2.11
  -1  -7 -18    5.84    2.55
   1   7 -18    6.58    3.30
   3  -3  19    2.23    2.98
  -3   3 -19    0.76    3.72
   2  -4  19   -0.06    2.15
   2  -4  19    2.28    2.10
   2  -4  19   -0.86    2.36
  -2   4 -19   -1.09    2.72
  -2   4 -19    2.74    3.45
  -2   4 -19    1.84    3.03
   1  -5  19    4.09    2.64
  -1   5  19    5.10    1.80
   1  -5  19    4.12    1.78
   1  -5  19    8.71    2.05
   1  -5  19    6.29    2.18
  -1   5  19    5.05    1.69
  -1   5 -19   11.49    3.09
  -1   5 -19    4.76    2.74
  -1   5 -19    3.49    2.55
  -1   5 -19    3.31    2.41
   1  -5 -19    6.91    1.61
   1  -5 -19    3.29    1.91
   0   6  19    5.83    2.67
   0  -6  19    1.35    2.36
   0  -6  19    3.08    2.00
   0   6  19    2.29    2.14
   0  -6 -19    4.53    2.35
   0   6 -19    2.91    2.55
   0   6 -19   -2.98    2.79
   0   6 -19    4.52    2.09
  -1  -7  19   10.39    2.14
   1   7  19    9.35    3.00
   1   7 -19   11.53    2.35
  -1  -7 -19    4.38    2.79
   3  -3  20    1.83    2.88
  -3   3 -20   -0.71    4.22
   2  -4  20    0.21    2.24
   2  -4  20    1.76    2.36
  -2   4 -20    0.35    3.07
  -2   4 -20    0.95    3.35
  -1   5  20   28.42    2.75
   1  -5  20   24.88    3.23
  -1   5  20   31.93    2.96
   1  -5  20   25.82    3.02
   1  -5  20   30.81    3.44
   1  -5 -20   25.50    3.19
   1  -5 -20   28.37    2.73
  -1   5 -20   26.33    3.14
  -1   5 -20   27.08    3.66
  -1   5 -20   27.48    3.25
  -1   5 -20   28.13    3.79
   0   6  20   28.70    3.54
   0  -6  20   34.26    3.34
   0  -6  20   31.36    3.60
   0   6 -20   29.35    3.33
   0  -6 -20   37.43    3.54
   0   6 -20   30.73    3.40
  -1  -7  20    8.46    2.30
   1   7  20    9.17    3.16
   1   7 -20    5.42    2.50
  -1  -7 -20    3.38    2.90
   2  -4  21   -1.46    2.42
   2  -4  21    0.99    2.64
  -2   4 -21    0.77    3.83
  -2   4 -21   13.25    3.62
  -1   5  21    3.99    1.88
  -1   5  21    5.37    2.04
   1  -5  21    8.02    2.34
   1  -5  21    6.00    2.37
   1  -5 -21    6.06    1.94
  -1   5 -21    6.46    5.83
  -1   5 -21    1.97    2.91
  -1   5 -21    5.35    2.85
   0  -6  21    0.44    1.97
   0   6  21    1.55    2.34
   0  -6 -21    2.86    2.42
   0   6 -21    4.40    2.38
  -1  -7  21   -0.63    2.32
   1   7  21    7.00    3.33
   1   7 -21   -0.78    2.45
  -1  -7 -21   -3.34    2.94
   2  -4  22   20.04    3.27
   2  -4  22   20.69    3.12
  -2   4 -22   28.10    4.33
  -2   4 -22   26.43    4.33
   1  -5  22   12.78    2.65
   1  -5  22   13.45    3.02
  -1   5  22   11.69    2.23
  -1   5 -22    5.06    3.41
   1  -5 -22   15.65    2.26
  -1   5 -22   13.96    3.17
   0   6  22    0.17    2.73
   0  -6 -22   -1.38    2.47
   1   7  22    9.97    3.56
  -1  -7  22    4.49    2.70
  -1  -7 -22    5.58    3.35
   1   7 -22    6.99    2.84
   2  -4  23   -2.30    3.32
  -2   4 -23    1.94    4.67
  -1   5  23    3.75    2.17
   1  -5  23    6.91    2.78
   1  -5 -23    8.85    2.31
  -1   5 -23    4.98    3.31
   0   6  23   -5.61    2.62
   0  -6  23    0.26    2.45
   0  -6 -23    1.57    2.63
   0   6 -23    3.41    2.83
   1  -5  24    8.77    2.98
  -1   5  24    4.18    2.40
   1  -5 -24    5.89    2.45
  -1   5 -24    1.93    3.44
   0   6  24   13.36    3.24
   0  -6  24   12.36    2.89
   0   6 -24   10.80    3.46
   0  -6 -24   11.49    3.28
   1  -5  25    8.39    3.11
  -1   5  25    5.64    2.67
   1  -5 -25   11.95    2.78
   4  -3   0    6.54    1.66
   3  -4   0   64.23    2.37
   3  -4   0   69.95    2.53
   2  -5   0   49.43    2.13
   2  -5   0   47.81    1.95
  -2   5   0   50.04    2.14
  -2   5   0   46.02    2.01
  -2   5   0   48.83    1.97
   2  -5   0   50.27    2.03
  -2   5   0   47.32    2.08
   2  -5   0   50.82    1.89
  -1   6   0   27.67    1.68
   1  -6   0   28.62    1.72
  -1   6   0   26.63    1.70
   1  -6   0   28.43    1.65
  -1   6   0   28.15    1.91
   1  -6   0   28.78    1.83
  -1   6   0   28.78    1.67
   0   7   0   -0.03    1.38
   0  -7   0   -0.70    0.99
   0   7   0    3.07    1.43
   0   7   0   -0.35    1.36
   0   7   0    1.29    1.24
   0  -7   0    0.86    1.37
   0  -7   0   -0.48    1.03
  -1  -8   0   13.07    2.43
  -1  -8   0    9.62    1.70
   1   8   0    9.01    1.97
  -1  -8   0    9.87    1.58
  -1  -8   0   10.55    1.96
   1   8   0   10.31    2.27
   1   8   0    8.49    2.32
  -2  -9   0   22.46    2.62
   2   9   0   25.80    3.16
  -2  -9   0   20.29    2.61
   2   9   0   17.11    3.01
   4  -3   1    1.77    1.57
   4  -3   1    3.65    2.06
   3  -4   1    1.04    0.99
   3  -4   1    1.08    1.05
  -3   4  -1    0.74    1.27
  -3   4  -1    0.42    1.19
   3  -4  -1    2.31    1.02
   3  -4  -1    0.88    0.95
  -2   5   1    3.99    0.90
  -2   5   1    3.14    1.40
   2  -5   1    2.73    0.85
   2  -5   1    2.34    1.00
   2  -5   1    2.98    1.16
  -2   5   1    2.20    0.90
   2  -5   1    2.33    0.94
  -2   5  -1    3.67    1.14
  -2   5  -1    4.61    1.07
   2  -5  -1    4.41    0.84
  -2   5  -1    4.14    1.16
   2  -5  -1    3.64    0.97
   2  -5  -1    3.91    1.10
  -2   5  -1    3.65    0.92
  -1   6   1    2.51    0.89
  -1   6   1    3.23    0.89
   1  -6   1    1.45    0.77
  -1   6   1    2.48    1.07
  -1   6   1    1.74    0.91
   1  -6   1    2.86    1.01
   1  -6  -1    2.09    0.98
  -1   6  -1    2.37    0.96
   1  -6  -1    3.11    0.80
  -1   6  -1    1.58    0.92
   1  -6  -1    1.76    0.96
  -1   6  -1    2.58    0.96
   0   7   1   27.05    1.97
   0   7   1   28.30    2.20
   0  -7   1   27.05    1.99
   0  -7   1   28.14    2.52
   0   7   1   30.69    2.55
   0  -7   1   26.44    1.92
   0   7   1   22.37    2.47
   0  -7   1   27.20    2.00
   0   7  -1   24.22    2.12
   0   7  -1   30.55    2.42
   0  -7  -1   24.81    1.99
   0   7  -1   26.25    2.60
   0  -7  -1   26.67    2.01
   0  -7  -1   30.97    2.03
   0  -7  -1   23.98    2.45
   0   7  -1   26.21    1.96
  -1  -8   1   29.21    2.41
   1   8   1   30.81    3.44
   1   8   1   24.55    3.11
  -1  -8   1   27.44    2.95
  -1  -8   1   29.05    2.64
   1   8   1   22.65    2.71
  -1  -8   1   25.68    3.44
   1   8  -1   33.28    2.41
  -1  -8  -1   26.81    3.10
   1   8  -1   23.18    3.08
  -1  -8  -1   25.89    3.45
   1   8  -1   27.07    2.88
  -1  -8  -1   26.47    2.61
   1   8  -1   31.50    3.66
  -1  -8  -1   26.32    2.42
  -2  -9   1    5.40    2.36
   2   9   1    1.34    2.54
   2   9   1    6.50    1.89
  -2  -9  -1    7.01    2.33
   2   9  -1    5.28    2.58
   4  -3   2    4.17    1.72
  -4   3  -2    7.61    1.98
   3  -4   2   20.09    1.86
   3  -4   2   17.66    1.78
   3  -4  -2   15.33    1.48
  -3   4  -2   16.99    2.02
  -3   4  -2   15.95    1.98
   2  -5   2    7.41    1.10
   2  -5   2    7.63    1.29
   2  -5   2    9.00    1.10
  -2   5   2    8.85    1.04
   2  -5   2    9.12    1.03
  -2   5  -2    8.97    1.19
  -2   5  -2    8.50    1.22
   2  -5  -2    7.61    0.97
  -2   5  -2    8.80    0.99
   2  -5  -2    9.58    1.20
  -2   5  -2    9.80    1.34
   1  -6   2   41.29    2.10
   1  -6   2   39.31    2.01
   1  -6   2   36.44    1.93
  -1   6   2   38.08    2.11
  -1   6   2   40.82    1.82
   1  -6   2   39.29    1.94
  -1   6   2   40.19    1.74
  -1   6   2   41.86    1.89
  -1   6  -2   37.99    1.90
  -1   6  -2   40.01    2.03
   1  -6  -2   38.79    1.89
  -1   6  -2   41.74    2.04
  -1   6  -2   37.85    2.08
   1  -6  -2   39.13    1.85
   1  -6  -2   39.77    1.94
   0  -7   2  120.63    3.61
   0  -7   2  123.24    4.01
   0   7   2  120.55    3.51
   0   7   2  117.15    3.78
   0  -7   2  123.91    3.77
   0  -7   2  125.34    3.65
   0   7   2  113.69    3.88
   0   7   2  117.26    3.94
   0  -7  -2  124.35    3.64
   0  -7  -2  121.40    3.67
   0   7  -2  115.74    3.79
   0   7  -2  122.32    3.75
   0  -7  -2  117.81    3.90
   0   7  -2  118.17    4.00
   0   7  -2  122.05    3.48
   0  -7  -2  119.86    3.66
  -1  -8   2   35.48    3.02
  -1  -8   2   32.16    3.49
   1   8   2   37.93    2.41
   1   8   2   37.24    3.57
   1   8   2   33.56    2.83
  -1  -8   2   37.44    2.56
   1   8   2   31.27    3.18
  -1  -8   2   38.52    2.83
   1   8  -2   38.55    2.44
   1   8  -2   40.33    2.97
   1   8  -2   31.47    3.30
  -1  -8  -2   30.70    2.69
  -1  -8  -2   27.33    3.14
   1   8  -2   27.48    3.64
  -1  -8  -2   40.57    3.59
   2   9   2    6.64    2.03
  -2  -9   2    6.21    2.42
  -2  -9   2    4.53    2.38
   2   9   2    3.27    2.56
   2   9  -2    6.63    2.59
  -2  -9  -2    0.65    2.19
   4  -3   3   20.20    2.78
  -4   3  -3   14.23    2.16
   3  -4   3    5.35    1.21
  -3   4  -3    3.30    1.32
  -3   4  -3    8.60    1.79
  -3   4  -3    4.85    1.39
   2  -5   3   13.04    1.57
   2  -5   3   11.07    1.43
  -2   5   3   12.33    1.38
   2  -5   3   10.25    1.19
   2  -5   3   13.19    1.49
  -2   5  -3   12.60    1.68
  -2   5  -3   12.69    1.72
  -2   5  -3   12.28    1.45
  -2   5  -3   11.74    1.40
   2  -5  -3   11.65    1.19
   2  -5  -3   15.00    1.28
  -1   6   3   10.97    1.31
   1  -6   3   12.03    1.33
  -1   6   3   13.86    1.78
  -1   6   3   11.12    1.39
   1  -6   3    9.67    1.14
   1  -6   3   13.97    1.75
   1  -6   3   11.37    1.27
  -1   6   3   12.54    1.51
  -1   6  -3   11.02    1.30
   1  -6  -3   12.99    1.39
   1  -6  -3   10.85    1.18
   1  -6  -3   13.47    1.50
  -1   6  -3   11.07    1.53
  -1   6  -3   13.45    1.64
   1  -6  -3   10.72    1.43
  -1   6  -3    9.05    1.27
   0   7   3   -0.28    1.39
   0  -7   3    2.35    1.86
   0  -7   3    0.20    1.43
   0  -7   3    0.80    1.02
   0   7   3   -0.75    1.42
   0   7   3    0.63    1.16
   0  -7   3    1.57    1.00
   0   7   3    0.91    1.18
   0  -7  -3    1.54    1.17
   0  -7  -3    1.17    1.43
   0   7  -3    1.13    1.44
   0   7  -3    1.46    0.99
   0  -7  -3    1.91    1.17
   0   7  -3    2.70    1.25
   0  -7  -3   -0.33    1.06
   0   7  -3   -0.65    1.48
   1   8   3    0.85    1.66
  -1  -8   3    1.27    1.39
   1   8   3    2.07    1.32
   1   8   3   -0.19    2.12
  -1  -8   3   -0.89    2.12
  -1  -8   3    0.81    1.65
  -1  -8   3    2.68    1.49
   1   8   3   -2.71    1.95
   1   8  -3   -0.65    2.12
  -1  -8  -3    3.33    1.87
   1   8  -3    1.98    1.69
   1   8  -3    4.92    2.32
  -1  -8  -3    0.28    2.24
  -1  -8  -3    2.38    1.50
   1   8  -3    2.45    1.41
   2   9   3    2.43    2.58
  -2  -9   3    4.09    1.98
  -2  -9   3    2.39    2.23
   2   9   3   10.16    1.92
  -2  -9  -3    3.32    2.13
   2   9  -3    8.20    2.38
   2   9  -3    3.47    2.68
  -2  -9  -3    4.20    2.44
   4  -3   4    2.17    1.84
  -4   3  -4   -1.04    2.04
   3  -4   4    6.94    1.39
   3  -4   4    8.75    1.60
   3  -4   4   10.88    1.81
  -3   4  -4    7.28    1.45
  -3   4  -4    6.84    2.55
  -3   4  -4    7.72    3.25
  -2   5   4    3.65    0.83
  -2   5   4    2.75    0.94
   2  -5   4    1.20    1.20
   2  -5   4    3.09    0.93
   2  -5   4    0.70    0.98
   2  -5   4    3.34    1.30
  -2   5  -4    2.73    1.19
   2  -5  -4    2.74    0.71
  -2   5  -4    3.31    0.93
  -2   5  -4    3.37    1.19
  -2   5  -4    3.23    1.30
  -1   6   4   11.40    1.39
   1  -6   4    8.91    1.17
   1  -6   4    8.72    1.16
   1  -6   4    8.25    1.21
  -1   6   4    9.76    1.16
  -1   6   4    9.06    1.04
   1  -6   4   14.50    1.86
  -1   6   4   10.97    1.30
  -1   6  -4    9.49    1.34
   1  -6  -4    8.41    1.03
   1  -6  -4   10.11    1.19
   1  -6  -4    9.04    1.14
  -1   6  -4    9.54    1.24
  -1   6  -4    8.29    1.24
  -1   6  -4    9.06    1.34
   1  -6  -4    7.97    1.13
   0  -7   4   60.92    2.57
   0  -7   4   65.85    3.05
   0   7   4   61.04    3.01
   0   7   4   57.41    2.61
   0   7   4   59.51    2.94
   0  -7   4   58.47    2.59
   0  -7   4   57.81    2.65
   0   7  -4   56.55    3.07
   0  -7  -4   57.36    2.81
   0  -7  -4   56.21    2.92
   0   7  -4   58.50    2.69
   0   7  -4   55.77    2.37
   0  -7  -4   59.17    2.63
   0  -7  -4   60.28    2.66
  -1  -8   4   26.82    2.59
   1   8   4   27.05    2.30
  -1  -8   4   25.23    2.51
  -1  -8   4   27.14    3.34
   1   8   4   25.16    2.67
  -1  -8   4   26.27    2.78
   1   8   4   20.58    2.76
   1   8   4   25.40    3.45
   1   8  -4   24.25    2.66
  -1  -8  -4   27.56    3.49
  -1  -8  -4   23.87    3.21
   1   8  -4   25.16    2.63
  -1  -8  -4   24.47    2.68
   1   8  -4   23.13    2.27
  -1  -8  -4   24.05    2.48
   1   8  -4   26.31    2.75
   2   9   4   12.27    2.79
  -2  -9   4   10.89    2.07
   2   9   4   13.01    2.28
   2   9   4    2.08    6.03
  -2  -9  -4   12.85    2.71
   2   9  -4   14.26    2.16
   2   9  -4   11.72    4.41
  -2  -9  -4   14.39    2.52
   4  -3   5    0.36    1.74
  -4   3  -5   -0.11    2.09
   3  -4   5    0.97    1.24
   3  -4   5    1.37    1.50
   3  -4   5    3.97    1.74
  -3   4  -5    1.89    1.59
  -3   4  -5   -0.37    1.73
  -3   4  -5   -0.39    1.47
   2  -5   5    7.63    1.17
   2  -5   5    8.80    1.21
   2  -5   5    8.22    1.41
  -2   5  -5    6.14    1.36
  -2   5  -5    9.41    1.49
   2  -5  -5    7.54    0.90
  -2   5  -5    6.18    1.09
  -1   6   5   26.43    1.74
   1  -6   5   24.85    1.83
  -1   6   5   27.52    1.60
   1  -6   5   27.61    2.08
   1  -6   5   28.79    1.90
  -1   6   5   26.98    1.63
  -1   6   5   25.90    2.03
   1  -6   5   25.02    1.90
  -1   6  -5   26.08    1.98
  -1   6  -5   26.76    2.18
   1  -6  -5   26.88    1.70
   1  -6  -5   25.87    1.73
  -1   6  -5   26.63    2.09
  -1   6  -5   28.50    1.94
   1  -6  -5   26.48    1.64
   1  -6  -5   22.87    1.70
   0  -7   5   -1.93    1.04
   0   7   5    0.56    1.18
   0  -7   5    1.19    1.11
   0   7   5   -1.55    1.37
   0   7   5   -0.99    1.45
   0  -7   5   -0.15    1.05
   0  -7   5    1.87    1.46
   0   7  -5   -0.17    1.54
   0   7  -5    0.45    1.65
   0  -7  -5   -1.41    1.47
   0  -7  -5    1.16    1.12
   0  -7  -5    0.51    1.26
   0   7  -5    0.11    1.31
   0   7  -5    0.33    1.07
  -1  -8   5   12.09    1.65
   1   8   5   14.11    2.51
  -1  -8   5   14.41    1.96
  -1  -8   5   20.12    2.42
   1   8   5    8.51    2.60
   1   8   5   12.54    2.02
   1   8   5   13.58    1.69
  -1  -8   5   18.06    2.59
   1   8  -5   15.56    2.49
   1   8  -5   21.72    2.70
  -1  -8  -5   15.07    1.99
  -1  -8  -5   11.67    1.84
  -1  -8  -5   10.59    2.37
  -1  -8  -5   12.18    2.20
   1   8  -5   11.33    1.56
   1   8  -5   14.06    2.51
   2   9   5   13.86    2.34
   2   9   5   13.66    3.01
  -2  -9   5   15.06    2.21
   2   9  -5   15.73    2.32
  -2  -9  -5    9.63    2.54
  -2  -9  -5   11.45    2.86
   4  -3   6   12.21    2.06
  -4   3  -6   11.67    2.41
   3  -4   6   23.70    2.56
   3  -4   6   27.32    2.72
   3  -4   6   19.97    2.21
  -3   4  -6   19.18    2.56
  -3   4  -6   26.66    3.06
  -3   4  -6   24.68    2.61
   2  -5   6   11.21    1.39
   2  -5   6   14.28    1.86
   2  -5   6   13.11    1.38
   2  -5  -6   13.55    1.25
  -2   5  -6    8.23    1.25
  -2   5  -6   15.06    1.89
  -2   5  -6   16.12    2.09
  -2   5  -6   12.46    1.57
  -1   6   6   13.61    1.55
   1  -6   6   17.65    1.70
   1  -6   6   15.36    1.99
  -1   6   6   14.43    1.48
  -1   6   6   12.99    1.57
   1  -6   6   18.26    1.72
   1  -6   6   20.70    1.91
  -1   6   6   15.01    1.86
   1  -6  -6   17.35    1.68
   1  -6  -6   15.14    1.65
   1  -6  -6   16.31    1.59
   1  -6  -6   15.64    1.46
  -1   6  -6   12.64    1.61
  -1   6  -6   17.06    1.92
  -1   6  -6   16.91    1.83
  -1   6  -6   13.06    1.57
   0  -7   6   58.70    2.61
   0  -7   6   63.82    3.11
   0   7   6   51.45    2.88
   0   7   6   54.06    2.65
   0   7   6   57.84    2.46
   0  -7   6   55.65    2.58
   0  -7   6   58.05    2.70
   0   7   6   53.55    3.06
   0   7  -6   58.52    2.81
   0  -7  -6   56.81    2.96
   0  -7  -6   56.16    2.94
   0   7  -6   60.70    2.89
   0   7  -6   58.87    2.50
   0  -7  -6   60.81    2.62
   0   7  -6   59.24    3.38
  -1  -8   6    4.75    1.52
  -1  -8   6    7.65    2.25
   1   8   6    6.72    2.42
   1   8   6    1.44    2.36
  -1  -8   6    5.72    1.74
  -1  -8   6    6.85    1.68
   1   8   6    6.13    1.86
   1   8   6    8.07    1.56
  -1  -8  -6    6.41    2.20
   1   8  -6    6.49    2.56
  -1  -8  -6    5.46    1.62
  -1  -8  -6    3.67    2.29
   1   8  -6    8.15    1.61
  -1  -8  -6    9.10    1.68
   1   8  -6    9.88    2.39
   1   8  -6    5.75    1.79
   2   9   6    5.05    2.76
   2   9   6    9.53    2.24
  -2  -9   6    8.14    2.09
   2   9  -6    7.18    2.17
  -2  -9  -6    7.30    2.48
  -2  -9  -6    9.09    2.78
   4  -3   7    4.30    1.99
  -4   3  -7    7.75    2.40
   3  -4   7    3.70    1.88
   3  -4   7    0.95    1.61
   3  -4   7   -0.27    1.38
  -3   4  -7    2.41    1.72
  -3   4  -7    2.29    2.08
  -3   4  -7    0.02    1.82
   2  -5   7   29.05    2.20
   2  -5   7   25.90    2.10
   2  -5   7   27.71    2.36
  -2   5  -7   25.22    2.29
  -2   5  -7   26.96    2.23
  -2   5  -7   30.19    2.36
   2  -5  -7   26.71    1.44
  -2   5  -7   27.92    2.22
   1  -6   7   25.68    1.90
  -1   6   7   26.37    1.73
  -1   6   7   22.75    1.65
  -1   6   7   25.09    2.00
   1  -6   7   28.76    1.99
   1  -6   7   28.32    2.22
  -1   6   7   27.64    1.68
   1  -6   7   26.57    2.01
   1  -6  -7   21.44    1.71
   1  -6  -7   26.68    2.04
  -1   6  -7   23.84    2.20
   1  -6  -7   25.43    1.73
  -1   6  -7   26.28    2.19
   1  -6  -7   27.42    1.78
  -1   6  -7   25.04    2.34
  -1   6  -7   30.03    2.15
   0  -7   7    0.69    1.07
   0   7   7   -3.64    1.51
   0   7   7    0.24    1.50
   0  -7   7    0.22    1.08
   0   7   7   -0.53    1.12
   0   7   7    0.04    1.21
   0  -7   7   -0.22    1.54
   0  -7   7    0.50    1.15
   0  -7  -7    0.03    1.38
   0   7  -7    2.82    1.15
   0  -7  -7    0.24    1.12
   0   7  -7    0.70    1.38
   0   7  -7    0.51    1.75
   0  -7  -7   -1.11    1.44
   0  -7  -7    0.44    1.24
  -1  -8   7   36.22    3.02
  -1  -8   7   38.53    2.79
  -1  -8   7   41.63    3.75
   1   8   7   39.35    3.95
  -1  -8   7   41.09    2.73
   1   8   7   40.77    3.18
   1   8   7   46.35    2.75
   1   8   7   40.28    3.78
   1   8  -7   39.63    3.10
   1   8  -7   48.97    3.71
   1   8  -7   37.54    3.94
  -1  -8  -7   42.75    3.04
   1   8  -7   43.00    2.61
  -1  -8  -7   40.18    2.91
  -1  -8  -7   42.74    3.98
  -1  -8  -7   36.60    3.84
   2   9   7    8.70    2.53
   2   9   7    8.31    2.94
   2   9  -7    6.14    2.12
  -2  -9  -7    7.51    2.58
  -2  -9  -7   10.93    2.56
   4  -3   8    1.95    2.13
  -4   3  -8    6.28    2.65
   3  -4   8    8.33    2.10
   3  -4   8    5.12    1.55
  -3   4  -8    4.06    2.07
  -3   4  -8    6.04    1.93
  -3   4  -8    6.30    2.28
   2  -5   8    6.87    1.40
   2  -5   8    6.25    1.47
   2  -5   8    6.46    1.41
   2  -5   8    6.17    1.60
  -2   5  -8    4.88    1.48
  -2   5  -8    8.60    1.68
  -2   5  -8    7.28    1.59
  -2   5  -8    9.04    1.66
   1  -6   8    8.49    1.60
   1  -6   8   10.24    1.33
   1  -6   8   11.88    1.37
  -1   6   8    8.18    1.36
  -1   6   8   12.02    1.52
   1  -6   8    8.52    1.27
  -1   6   8    9.84    1.14
  -1   6   8    9.16    1.20
  -1   6  -8    7.70    1.49
   1  -6  -8   10.12    1.20
  -1   6  -8    9.06    1.60
   1  -6  -8    9.34    1.32
   1  -6  -8   10.19    1.20
   1  -6  -8   10.20    1.15
  -1   6  -8    9.75    1.72
   0   7   8   43.41    2.48
   0  -7   8   47.23    2.97
   0   7   8   41.34    2.33
   0  -7   8   47.43    2.59
   0  -7   8   45.80    2.53
   0   7   8   44.05    2.92
   0   7   8   45.38    2.80
   0  -7   8   43.63    2.39
   0   7  -8   44.16    2.67
   0   7  -8   43.68    2.40
   0  -7  -8   43.70    2.84
   0   7  -8   43.32    3.17
   0  -7  -8   47.13    2.57
   0  -7  -8   46.13    2.62
   0  -7  -8   40.12    2.83
   1   8   8    8.74    2.52
   1   8   8    8.19    2.04
  -1  -8   8    9.15    1.61
  -1  -8   8    8.16    1.90
  -1  -8   8    9.18    2.48
   1   8   8    6.21    2.68
   1   8   8    9.50    1.74
  -1  -8   8   10.73    1.85
   1   8  -8   10.14    2.45
   1   8  -8    7.94    2.06
  -1  -8  -8   11.93    2.08
  -1  -8  -8    7.71    2.60
  -1  -8  -8    8.59    1.86
   1   8  -8    9.16    2.70
  -1  -8  -8   10.13    2.38
   1   8  -8   10.01    1.61
   2   9   8   -0.30    2.23
   2   9   8    0.58    2.81
  -2  -9   8   -0.34    2.07
  -2  -9  -8    2.94    2.69
  -2  -9  -8    0.48    2.50
   2   9  -8   -0.51    3.28
   4  -3   9    1.41    2.33
  -4   3  -9    8.18    2.75
   3  -4   9   16.12    1.86
   3  -4   9   17.69    2.20
   3  -4   9   22.75    3.09
  -3   4  -9   16.24    2.43
  -3   4  -9   21.05    2.32
  -3   4  -9   17.43    2.61
   2  -5   9   21.10    2.24
   2  -5   9   22.22    2.27
   2  -5   9   19.42    2.52
   2  -5   9   21.41    2.38
  -2   5  -9   18.85    2.43
  -2   5  -9   20.65    2.61
  -2   5  -9   22.58    2.62
  -2   5  -9   21.65    2.56
  -1   6   9   -1.61    1.02
   1  -6   9    0.66    1.09
   1  -6   9    0.49    1.46
   1  -6   9   -0.83    1.12
  -1   6   9    0.98    1.02
   1  -6   9   -0.25    1.05
  -1   6   9    1.59    1.31
  -1   6   9   -0.45    1.00
  -1   6  -9   -0.30    1.56
   1  -6  -9   -0.11    1.06
   1  -6  -9   -0.59    1.03
   1  -6  -9    0.63    0.95
  -1   6  -9    0.26    1.23
   1  -6  -9   -0.67    1.18
  -1   6  -9   -0.86    1.55
  -1   6  -9   -2.22    1.46
   0   7   9    1.80    1.65
   0  -7   9   -1.26    1.11
   0  -7   9   -0.58    1.22
   0  -7   9    0.34    1.64
   0   7   9   -0.26    1.49
   0   7   9   -1.09    1.14
   0   7   9    1.19    1.36
   0  -7   9    0.73    1.20
   0  -7  -9    1.23    1.31
   0   7  -9   -0.21    1.68
   0  -7  -9    0.58    1.27
   0   7  -9    0.02    1.50
   0  -7  -9   -0.65    1.49
   0   7  -9   -0.64    1.30
   0  -7  -9    0.46    1.64
   1   8   9    3.75    1.92
   1   8   9    3.70    1.61
  -1  -8   9    6.71    2.32
  -1  -8   9    6.54    1.55
   1   8   9    4.77    2.63
  -1  -8   9    4.94    3.29
  -1  -8   9    2.75    1.74
  -1  -8  -9    5.10    2.71
  -1  -8  -9    6.10    1.76
   1   8  -9    4.74    1.52
  -1  -8  -9    6.75    2.43
   1   8  -9    7.94    2.02
  -1  -8  -9    6.31    1.94
   1   8  -9    3.78    2.71
   1   8  -9    5.49    2.45
   2   9   9    7.80    2.57
   2   9   9    5.86    3.02
  -2  -9   9   10.98    2.24
   2   9  -9   10.57    2.26
  -2  -9  -9   11.73    2.86
  -2  -9  -9   14.51    2.97
   4  -3  10   11.34    2.64
  -4   3 -10   19.53    3.21
   3  -4  10   38.69    3.30
   3  -4  10   35.73    2.87
   3  -4  10   34.94    3.43
  -3   4 -10   36.89    3.48
  -3   4 -10   40.35    3.93
  -3   4 -10   37.12    3.52
   2  -5  10   26.14    2.52
   2  -5  10   22.08    2.41
   2  -5  10   24.67    2.59
   2  -5  10   20.98    2.17
  -2   5 -10   26.46    2.74
  -2   5 -10   27.61    2.83
  -2   5 -10   24.94    2.50
  -2   5 -10   27.20    2.96
  -1   6  10   12.06    1.58
  -1   6  10    9.46    1.27
   1  -6  10   13.35    1.54
   1  -6  10   10.44    1.42
   1  -6  10    8.54    1.44
  -1   6  10   10.03    1.19
  -1   6  10   12.01    1.60
   1  -6  10    7.74    1.68
  -1   6 -10   15.34    1.85
  -1   6 -10    9.64    1.60
  -1   6 -10   12.47    2.35
   1  -6 -10   11.66    1.51
   1  -6 -10   12.14    1.39
  -1   6 -10    8.22    1.78
   1  -6 -10    6.26    1.27
   1  -6 -10   13.03    1.63
   0  -7  10    3.94    1.38
   0   7  10    2.67    1.97
   0  -7  10    4.93    1.35
   0   7  10    4.00    1.50
   0   7  10    4.84    1.37
   0  -7  10    9.46    1.99
   0   7  10    3.34    1.81
   0  -7 -10    3.28    1.52
   0   7 -10    5.08    1.75
   0  -7 -10    2.76    1.72
   0   7 -10    4.66    1.56
   0  -7 -10    4.75    1.53
   0   7 -10    3.69    1.80
   0   7 -10    4.26    1.35
   0  -7 -10    2.82    1.85
   1   8  10    4.11    2.70
   1   8  10    2.08    1.57
  -1  -8  10    4.90    2.49
  -1  -8  10    4.72    1.70
   1   8  10    4.89    2.12
  -1  -8  10    3.72    1.61
  -1  -8 -10    0.91    1.82
   1   8 -10    4.43    1.73
   1   8 -10    4.23    2.10
   1   8 -10    1.34    2.57
  -1  -8 -10    6.60    2.52
  -1  -8 -10    5.97    2.00
  -2  -9  10    4.59    2.13
   2   9  10    4.27    2.42
   2   9  10    8.87    3.28
  -2  -9 -10    6.68    3.11
   2   9 -10   11.67    2.41
  -2  -9 -10    4.46    2.79
   4  -3  11    2.64    2.45
  -4   3 -11   11.05    3.28
   3  -4  11    1.23    2.49
   3  -4  11    0.41    1.62
  -3   4 -11    1.69    2.55
  -3   4 -11    2.30    2.58
  -3   4 -11    0.17    2.25
   2  -5  11   12.31    2.19
   2  -5  11   18.98    2.54
   2  -5  11   15.07    1.95
   2  -5  11   16.60    2.04
  -2   5 -11   13.02    2.02
  -2   5 -11   15.12    2.16
  -2   5 -11   16.22    2.90
  -2   5 -11   16.80    2.21
   1  -6  11   11.44    1.56
  -1   6  11    9.76    1.32
  -1   6  11   11.18    1.28
   1  -6  11   10.01    1.63
   1  -6  11    6.98    1.76
   1  -6  11    9.97    1.52
  -1   6 -11    6.93    1.94
   1  -6 -11   12.26    1.60
  -1   6 -11   10.84    1.88
  -1   6 -11   10.56    1.67
   1  -6 -11    9.10    1.30
  -1   6 -11    9.95    1.91
   0   7  11    1.25    1.32
   0   7  11    0.23    1.87
   0  -7  11    1.49    1.33
   0   7  11   -0.74    1.49
   0  -7  11    4.17    1.44
   0  -7  11    1.77    1.84
   0   7 -11    1.78    1.63
   0   7 -11    2.14    1.85
   0   7 -11    1.15    1.37
   0   7 -11    1.19    2.00
   0  -7 -11    0.10    1.72
   0  -7 -11    2.48    1.37
   1   8  11    9.49    1.81
  -1  -8  11   10.93    1.78
   1   8  11   11.25    2.95
  -1  -8  11   13.68    2.55
  -1  -8  11   12.55    1.92
   1   8  11   10.32    2.31
  -1  -8 -11   10.50    2.13
  -1  -8 -11   11.84    2.27
   1   8 -11   11.91    2.03
  -1  -8 -11   14.26    2.86
   1   8 -11   12.00    3.13
   1   8 -11   12.23    2.35
   2   9  11   14.57    3.45
  -2  -9  11   13.46    2.36
  -2  -9 -11   17.35    3.37
   2   9 -11   13.37    2.33
   4  -3  12   -3.11    2.43
  -4   3 -12   13.48    3.53
   3  -4  12   11.18    1.96
  -3   4 -12    6.45    3.36
  -3   4 -12    9.37    4.87
   2  -5  12    9.32    1.84
   2  -5  12   10.20    2.24
   2  -5  12   11.85    1.92
  -2   5 -12   12.52    2.25
  -2   5 -12   13.53    2.29
  -2   5 -12    6.40    2.02
   1  -6  12   12.63    1.67
  -1   6  12   17.27    1.86
  -1   6  12   15.03    1.65
   1  -6  12   12.73    1.67
   1  -6  12   16.31    2.16
   1  -6  12   13.77    1.83
   1  -6 -12   13.36    1.74
  -1   6 -12   13.10    2.00
  -1   6 -12    8.51    2.14
   1  -6 -12   12.57    1.50
  -1   6 -12   15.85    2.02
  -1   6 -12   20.69    2.53
   0  -7  12   47.21    2.92
   0  -7  12   45.48    2.74
   0   7  12   45.04    2.73
   0  -7  12   43.73    3.35
   0   7  12   41.60    3.44
   0   7  12   42.12    2.72
   0   7 -12   42.63    2.59
   0  -7 -12   44.12    2.76
   0  -7 -12   47.80    3.34
   0   7 -12   39.83    3.15
   0   7 -12   40.88    3.50
   0   7 -12   40.81    3.12
  -1  -8  12   14.63    2.07
   1   8  12   17.47    2.12
   1   8  12   15.01    2.58
  -1  -8  12   22.38    2.83
   1   8  12   18.91    3.11
  -1  -8  12   18.22    2.34
   1   8 -12   16.96    2.58
   1   8 -12   17.64    3.39
  -1  -8 -12   14.25    2.31
  -1  -8 -12   17.20    3.15
   1   8 -12   17.30    2.07
  -1  -8 -12   20.28    2.48
  -2  -9  12   10.33    2.39
  -2  -9 -12    8.76    3.68
   2   9 -12    5.29    2.40
   4  -3  13    4.21    2.72
  -4   3 -13   12.27    3.82
   3  -4  13    6.49    2.30
   2  -5  13   11.86    2.95
   2  -5  13   13.25    2.00
   2  -5  13   10.97    1.84
  -2   5 -13    8.58    2.10
  -2   5 -13   13.27    2.43
  -2   5 -13    7.69    2.17
   1  -6  13    4.14    1.95
   1  -6  13    4.15    1.46
  -1   6  13    2.69    1.49
   1  -6  13    3.47    1.51
   1  -6  13    4.32    1.50
  -1   6  13    4.34    1.35
  -1   6 -13    5.38    1.88
  -1   6 -13    2.52    1.99
   1  -6 -13    4.70    1.33
  -1   6 -13    2.58    1.94
  -1   6 -13    1.00    2.02
   1  -6 -13    5.52    2.21
   0   7  13   10.82    2.14
   0   7  13    8.48    1.68
   0  -7  13    6.75    1.74
   0  -7  13    5.69    1.65
   0  -7  13    6.85    1.59
   0  -7  13    6.15    2.12
   0   7 -13    6.80    2.27
   0  -7 -13   10.80    2.07
   0   7 -13    8.77    2.48
   0   7 -13    6.05    2.01
   0   7 -13    6.57    1.67
   1   8  13   13.93    4.17
   1   8  13    5.27    2.89
  -1  -8  13   12.20    2.08
   1   8  13    8.32    1.94
  -1  -8  13   16.05    4.12
  -1  -8  13    9.55    2.24
   1   8 -13    9.29    2.52
   1   8 -13    8.49    4.25
  -1  -8 -13    7.44    2.12
  -1  -8 -13    9.32    3.96
   1   8 -13    8.49    3.11
   2   9  13    2.04    3.44
  -2  -9  13    7.70    2.37
   2   9 -13    2.34    2.49
  -2  -9 -13    8.36    3.50
  -3   4 -14    7.92    3.64
   2  -5  14   24.51    3.09
   2  -5  14   12.95    2.04
   2  -5  14   12.54    2.23
  -2   5 -14   12.34    3.27
  -2   5 -14   14.09    2.38
  -2   5 -14   13.45    2.31
   1  -6  14    7.01    1.66
   1  -6  14    9.35    2.31
  -1   6  14   10.80    1.69
   1  -6  14    9.46    1.67
  -1   6  14    9.58    1.51
   1  -6  14    7.97    1.77
   1  -6 -14    6.78    2.65
  -1   6 -14    6.22    2.22
   1  -6 -14   10.68    1.42
  -1   6 -14   11.39    2.00
  -1   6 -14    8.09    2.30
  -1   6 -14   13.71    2.10
   0  -7  14   -0.66    1.61
   0   7  14    2.35    1.65
   0   7  14    2.89    2.21
   0  -7  14    1.78    1.62
   0   7  14    2.15    1.73
   0  -7  14    1.57    1.41
   0  -7  14   -0.20    2.10
   0  -7 -14    2.38    2.11
   0   7 -14   -1.98    2.08
   0   7 -14    1.59    2.30
   0  -7 -14    2.81    2.27
   0  -7 -14    3.37    1.66
   0   7 -14   -0.07    2.18
   0   7 -14    1.33    1.60
   1   8  14    7.57    2.52
   1   8  14    5.99    1.96
  -1  -8  14    8.50    2.08
  -1  -8  14   10.87    2.28
   1   8 -14    9.11    2.69
  -1  -8 -14    7.37    2.20
   1   8 -14    8.64    2.01
  -1  -8 -14    7.64    2.27
   2   9  14    3.22    3.71
  -2  -9  14    8.36    2.63
   2   9 -14    6.51    2.66
  -2  -9 -14    5.70    3.50
   3  -4  15    9.38    2.73
  -3   4 -15    4.81    3.09
   2  -5  15   12.68    2.14
   2  -5  15    9.13    2.21
   2  -5  15    7.22    1.98
  -2   5 -15    8.21    2.38
  -2   5 -15    8.04    2.45
  -2   5 -15   13.92    2.91
   1  -6  15    5.96    2.26
  -1   6  15    7.49    1.49
   1  -6  15    7.22    1.67
   1  -6  15    6.13    1.92
  -1   6  15    5.43    1.71
   1  -6  15    4.88    1.93
  -1   6 -15    7.06    2.35
   1  -6 -15    8.27    1.47
  -1   6 -15    8.02    2.18
  -1   6 -15    5.82    2.46
   1  -6 -15    7.69    1.69
   1  -6 -15    8.57    1.70
  -1   6 -15    7.54    2.04
   0  -7  15    1.19    1.68
   0  -7  15   -1.10    1.78
   0  -7  15    0.07    1.61
   0   7  15    0.94    1.76
   0   7  15   -0.68    2.22
   0  -7  15   -2.37    2.26
   0   7  15    3.82    1.76
   0   7 -15   -0.74    2.38
   0   7 -15   -3.62    2.25
   0  -7 -15   -0.38    2.13
   0   7 -15    3.66    2.27
   0  -7 -15    1.45    1.68
   0   7 -15    2.20    1.67
   0  -7 -15    1.79    1.78
  -1  -8  15   18.42    2.33
   1   8  15   18.44    2.80
   1   8 -15   24.82    3.06
  -1  -8 -15   15.15    2.71
   3  -4  16    0.16    2.20
  -3   4 -16    3.25    3.08
   2  -5  16    2.52    2.16
   2  -5  16    4.09    1.92
   2  -5  16    4.77    2.02
  -2   5 -16    2.88    2.86
  -2   5 -16   -1.21    2.53
  -2   5 -16    2.18    2.46
   1  -6  16    4.64    1.87
  -1   6  16    5.75    1.74
  -1   6  16    4.69    1.77
   1  -6  16    4.59    1.69
   1  -6  16    2.73    2.45
   1  -6  16    3.37    1.84
  -1   6 -16    5.10    2.20
  -1   6 -16    4.95    2.53
  -1   6 -16    8.00    2.78
   1  -6 -16    6.08    1.75
  -1   6 -16    0.05    2.26
   1  -6 -16    3.86    1.60
   1  -6 -16    3.44    1.52
   0  -7  16   -1.21    2.36
   0  -7  16   -0.49    1.62
   0  -7  16    0.03    1.69
   0   7  16    2.22    1.88
   0   7  16   -0.19    1.85
   0   7  16   -0.02    2.42
   0  -7 -16   -3.39    2.24
   0   7 -16   -0.96    1.77
   0   7 -16   -1.12    2.47
   0   7 -16    1.61    2.42
   0  -7 -16    2.03    1.98
   0  -7 -16   -0.02    1.76
  -1  -8 -16   12.73    2.96
   1   8 -16   11.77    2.46
   3  -4  17   -1.35    2.36
  -3   4 -17    7.23    3.21
   2  -5  17    4.36    2.54
   2  -5  17    0.45    2.04
   2  -5  17    4.41    2.12
  -2   5 -17    6.38    3.28
  -2   5 -17   -2.13    2.86
  -2   5 -17    4.83    2.86
  -1   6  17   46.07    2.65
   1  -6  17   42.06    4.24
  -1   6  17   38.99    2.95
   1  -6  17   38.39    3.46
   1  -6  17   40.06    3.47
   1  -6  17   38.82    3.31
  -1   6 -17   45.47    3.60
  -1   6 -17   37.78    4.02
   1  -6 -17   44.10    3.01
  -1   6 -17   50.31    4.50
   1  -6 -17   44.50    2.70
  -1   6 -17   40.94    4.01
   1  -6 -17   41.51    3.19
   0  -7  17    7.15    2.57
   0  -7  17    8.25    1.90
   0   7  17    5.43    3.59
   0   7  17    9.31    2.43
   0  -7  17    9.49    2.07
   0   7 -17    7.81    2.61
   0   7 -17    5.79    2.91
   0   7 -17   10.81    2.19
   0  -7 -17    9.12    3.55
   1   8  17    4.86    2.78
  -1  -8  17    1.20    2.15
   1   8 -17    5.28    2.38
  -1  -8 -17    7.47    2.86
   3  -4  18    2.17    2.60
  -3   4 -18   14.54    3.75
   2  -5  18    3.57    2.26
   2  -5  18   -0.27    2.11
  -2   5 -18    1.86    2.99
  -2   5 -18   -4.04    2.97
  -1   6  18    2.80    1.89
   1  -6  18    4.91    2.38
   1  -6  18    3.80    2.02
   1  -6  18    6.53    2.21
   1  -6  18    0.74    2.98
  -1   6  18    4.49    1.67
   1  -6 -18    5.64    2.02
  -1   6 -18    6.48    2.96
  -1   6 -18    1.64    2.50
  -1   6 -18    1.10    2.71
  -1   6 -18    8.38    3.08
   1  -6 -18    6.04    1.79
   0  -7  18    1.70    2.48
   0   7  18    2.03    2.09
   0  -7  18   -1.26    2.07
   0   7 -18    3.17    2.83
   0   7 -18   -1.57    2.13
   0  -7 -18    1.67    2.12
  -1  -8  18    3.32    2.20
   1   8  18    3.88    3.02
   1   8 -18    5.60    2.40
  -1  -8 -18    7.98    2.80
   3  -4  19    1.31    2.80
  -3   4 -19    5.15    4.04
   2  -5  19    6.11    2.44
   2  -5  19    7.91    2.51
  -2   5 -19    7.92    3.30
  -2   5 -19    9.30    3.53
   1  -6  19    2.71    2.27
   1  -6  19    0.79    2.03
  -1   6  19    2.63    1.96
   1  -6  19   -0.71    3.06
  -1   6  19    2.16    1.63
  -1   6 -19    8.26    3.67
  -1   6 -19   -2.32    2.85
   1  -6 -19    1.59    2.20
   1  -6 -19   -1.08    1.68
  -1   6 -19    0.69    3.01
  -1   6 -19    0.00    2.57
   0   7  19    3.21    2.34
   0  -7  19    0.47    3.01
   0  -7  19    0.47    1.95
   0  -7 -19    4.45    2.33
   0   7 -19    4.20    3.92
   0   7 -19    4.83    2.37
  -1  -8  19    4.03    2.52
   1   8  19    5.03    3.14
  -1  -8 -19    0.07    2.79
   1   8 -19    5.99    2.52
   2  -5  20   10.31    2.80
   2  -5  20    7.54    2.70
  -2   5 -20   16.99    4.88
  -2   5 -20    9.47    4.05
   1  -6  20    1.96    2.19
   1  -6  20    3.15    2.59
  -1   6  20    0.76    1.75
  -1   6 -20   -0.32    2.83
   1  -6 -20   -1.11    1.78
  -1   6 -20   -5.36    2.97
   0  -7  20    2.63    2.32
   0   7  20    5.39    2.49
   0   7 -20    1.92    2.46
   0  -7 -20   -1.44    2.30
  -1  -8  20    1.05    2.63
   1   8  20    4.43    3.46
   1   8 -20    2.36    2.56
  -1  -8 -20    4.57    3.31
   2  -5  21   -1.35    2.85
   1  -6  21   16.43    2.93
   1  -6  21    8.71    2.59
  -1   6  21   15.06    2.16
   1  -6 -21   10.02    2.11
  -1   6 -21   10.04    3.13
  -1   6 -21    6.13    3.48
   0   7  21    4.14    2.57
   0  -7 -21   -4.05    2.55
   0   7 -21    1.71    3.05
   2  -5  22    5.68    3.70
  -2   5 -22    4.67    5.51
   1  -6  22   12.29    3.29
  -1   6  22   16.29    2.29
  -1   6 -22   15.33    5.02
   1  -6 -22   15.83    2.44
   0   7  22   41.55    4.25
   0  -7  22   35.40    4.32
   0  -7 -22   30.15    3.34
   0   7 -22   37.39    4.66
  -1   6  23    5.25    2.30
   1  -6  23    5.62    2.99
  -1   6 -23   -0.28    3.53
   1  -6 -23    7.00    2.39
   0  -7  23    0.52    2.90
   0   7  23    5.75    2.89
   0  -7 -23   -0.37    2.97
   0   7 -23    4.22    3.52
  -1   6  24    0.34    2.63
  -1   6 -24   -0.35    4.06
   1  -6 -24   -0.73    2.66
   4  -4   0    3.36    1.68
  -3   5   0    7.89    1.45
  -3   5   0    7.01    1.39
   3  -5   0    8.03    1.22
   3  -5   0    8.60    1.30
  -2   6   0    1.88    1.19
   2  -6   0    1.74    1.30
  -2   6   0    0.66    1.25
  -2   6   0    0.63    1.36
   2  -6   0    2.85    1.16
   2  -6   0    2.60    0.95
  -1   7   0   75.81    2.74
   1  -7   0   72.33    3.01
   1  -7   0   75.24    2.75
  -1   7   0   77.09    3.06
  -1   7   0   75.08    2.82
   1  -7   0   74.90    2.78
  -1   7   0   72.56    2.93
   0   8   0   15.44    2.26
   0   8   0   14.96    1.80
   0  -8   0   17.19    2.08
   0   8   0   24.17    3.10
   0  -8   0   15.45    2.09
   0  -8   0   12.34    1.62
   0   8   0   17.70    1.93
   0  -8   0   12.45    2.16
   1   9   0   20.58    3.00
   1   9   0   22.47    3.03
  -1  -9   0   19.13    3.07
  -1  -9   0   21.92    2.36
   1   9   0   22.69    2.58
  -1  -9   0   20.79    2.65
   1   9   0   25.13    2.60
  -1  -9   0   23.50    2.71
  -2 -10   0    1.43    2.64
   4  -4   1    3.91    1.73
   4  -4  -1    6.36    1.67
   3  -5   1    1.17    1.23
   3  -5   1   -0.47    1.20
   3  -5  -1    2.22    1.11
  -3   5  -1   -2.08    1.31
   3  -5  -1    1.37    1.06
  -3   5  -1    1.65    1.37
   2  -6   1   12.61    1.50
   2  -6   1   14.08    1.65
   2  -6   1   15.33    1.78
  -2   6   1   12.20    1.33
  -2   6   1   13.17    1.98
  -2   6   1   12.78    1.49
  -2   6  -1   14.09    1.63
   2  -6  -1   12.51    1.44
   2  -6  -1   13.68    1.55
   2  -6  -1   11.87    1.37
  -2   6  -1   14.57    1.94
  -2   6  -1   10.71    1.35
  -1   7   1   10.57    1.36
   1  -7   1    9.23    1.25
   1  -7   1   12.12    1.63
  -1   7   1    9.50    1.32
   1  -7   1    9.46    1.36
  -1   7   1   11.09    1.61
   1  -7   1   11.13    1.42
  -1   7   1   11.60    1.35
   1  -7  -1   11.15    1.37
  -1   7  -1   10.73    1.39
   1  -7  -1   13.06    1.56
  -1   7  -1   10.47    1.40
  -1   7  -1   10.05    1.52
  -1   7  -1   10.84    1.54
   1  -7  -1   10.29    1.44
   0  -8   1    9.74    2.02
   0  -8   1    6.79    1.46
   0   8   1    8.16    1.63
   0  -8   1    7.00    1.42
   0   8   1    7.21    2.00
   0   8   1    8.88    2.11
   0  -8  -1    7.57    1.48
   0   8  -1    8.25    2.05
   0   8  -1    6.27    1.30
   0  -8  -1    3.75    1.99
   0  -8  -1    5.26    1.48
   0   8  -1    7.79    1.67
   0  -8  -1    6.64    1.47
   0   8  -1    7.03    1.89
  -1  -9   1   10.06    2.00
   1   9   1    7.56    2.82
  -1  -9   1    9.91    2.41
   1   9   1    5.71    2.66
  -1  -9   1   11.17    2.84
   1   9   1   10.48    1.87
   1   9   1    5.47    2.20
  -1  -9   1    6.75    1.76
  -1  -9  -1    9.25    1.84
   1   9  -1    6.63    2.90
   1   9  -1   10.84    2.24
  -1  -9  -1    9.23    2.06
   1   9  -1   10.75    1.75
   1   9  -1    9.87    2.85
  -1  -9  -1   10.67    2.85
  -1  -9  -1    7.01    2.37
  -2 -10   1    4.01    2.44
  -2 -10  -1   -3.55    2.33
   2  10  -1    3.61    2.54
   4  -4   2    9.43    1.90
  -4   4  -2    9.13    2.15
   3  -5   2   11.50    1.47
   3  -5   2   12.95    1.52
   3  -5   2   10.58    2.08
   3  -5  -2   13.54    1.65
  -3   5  -2   10.73    1.58
  -3   5  -2   15.83    2.05
  -2   6   2    2.32    1.05
   2  -6   2    1.23    1.20
   2  -6   2    2.52    1.33
   2  -6   2    3.03    1.08
   2  -6  -2    3.47    0.93
  -2   6  -2   -0.26    1.43
  -2   6  -2    2.99    1.26
  -2   6  -2    1.42    1.42
   2  -6  -2    2.83    1.29
   1  -7   2   16.03    2.00
   1  -7   2   18.67    2.31
  -1   7   2   16.46    1.81
  -1   7   2   19.55    1.85
  -1   7   2   12.63    1.37
  -1   7   2   14.58    1.66
   1  -7   2   14.92    1.86
   1  -7   2   14.39    1.72
  -1   7  -2   13.11    1.62
   1  -7  -2   15.39    1.73
   1  -7  -2   17.22    1.94
   1  -7  -2   15.00    1.81
  -1   7  -2   12.68    1.48
   1  -7  -2   16.26    2.16
  -1   7  -2   16.23    1.92
   0   8   2   19.51    2.49
   0  -8   2   21.68    2.24
   0   8   2   19.37    2.32
   0  -8   2   20.60    2.23
   0   8   2   24.38    2.29
   0  -8   2   24.52    3.14
   0   8   2   19.09    2.31
   0  -8   2   18.85    2.36
   0   8  -2   21.82    2.07
   0  -8  -2   24.87    2.49
   0  -8  -2   22.97    2.21
   0   8  -2   25.65    2.51
   0   8  -2   20.88    2.43
   0  -8  -2   23.01    2.36
   1   9   2    5.39    2.94
   1   9   2   -0.02    2.59
   1   9   2    5.57    2.24
  -1  -9   2    6.45    1.74
  -1  -9   2    6.65    2.78
  -1  -9   2    5.93    2.39
  -1  -9   2    5.46    1.86
   1   9  -2    4.08    1.98
  -1  -9  -2    6.69    1.88
   1   9  -2    7.28    1.65
   1   9  -2    8.56    2.81
  -1  -9  -2    4.99    2.38
  -1  -9  -2    2.24    1.70
   1   9  -2    2.97    2.70
  -1  -9  -2    4.64    2.92
  -2 -10   2   12.32    2.55
   2  10  -2   16.09    2.58
  -2 -10  -2   10.16    2.95
   4  -4   3    3.43    1.81
  -4   4  -3    4.05    2.07
   3  -5   3    5.27    1.43
  -3   5  -3    1.68    1.55
  -3   5  -3    3.50    1.89
   3  -5  -3    3.20    1.06
  -3   5  -3    4.07    1.58
   2  -6   3   23.30    2.00
   2  -6   3   23.88    1.89
  -2   6   3   25.09    1.79
  -2   6   3   27.15    2.03
   2  -6   3   27.65    2.24
   2  -6  -3   26.41    1.65
  -2   6  -3   25.01    2.18
  -2   6  -3   22.75    2.42
  -2   6  -3   25.91    2.56
   1  -7   3   36.14    2.28
   1  -7   3   37.90    2.18
   1  -7   3   36.90    2.63
  -1   7   3   37.94    2.16
  -1   7   3   38.74    2.06
  -1   7   3   35.98    2.05
  -1   7   3   39.52    2.49
  -1   7  -3   33.97    2.24
   1  -7  -3   31.76    2.17
  -1   7  -3   35.15    2.67
  -1   7  -3   31.33    2.28
   1  -7  -3   37.02    2.05
   1  -7  -3   37.03    2.15
   0  -8   3   28.79    2.30
   0   8   3   19.21    2.55
   0  -8   3   27.27    2.43
   0  -8   3   30.94    2.28
   0   8   3   25.54    2.34
   0   8   3   20.97    2.85
   0   8   3   26.77    3.24
   0  -8   3   24.48    3.16
   0   8  -3   27.01    2.51
   0   8  -3   23.65    3.19
   0  -8  -3   25.23    2.34
   0  -8  -3   25.98    2.76
   0   8  -3   26.05    2.08
   0  -8  -3   23.92    3.07
   0  -8  -3   26.78    2.35
   0   8  -3   23.85    2.98
   1   9   3    9.10    3.14
   1   9   3   12.56    2.33
  -1  -9   3   13.62    2.07
  -1  -9   3   13.63    2.96
   1   9   3    9.17    2.72
  -1  -9   3   13.74    2.11
  -1  -9   3   12.67    2.50
  -1  -9  -3   15.06    2.67
   1   9  -3   13.92    2.34
  -1  -9  -3   11.50    2.10
   1   9  -3   12.03    1.87
   1   9  -3   10.75    3.03
  -1  -9  -3   13.78    3.12
   1   9  -3    9.66    2.82
  -2 -10   3    0.57    2.50
   2  10   3   -0.27    2.44
   2  10  -3   -1.15    2.31
   4  -4   4    6.68    2.02
  -4   4  -4    9.26    2.25
   3  -5   4   24.15    2.47
   3  -5   4   19.02    2.39
  -3   5  -4   22.90    2.46
  -3   5  -4   16.38    2.73
  -2   6   4   19.03    1.66
  -2   6   4   20.31    1.89
   2  -6   4   17.89    2.21
   2  -6   4   21.60    1.90
  -2   6  -4   20.82    2.23
  -2   6  -4   16.83    2.21
   2  -6  -4   22.28    1.57
   2  -6  -4   19.26    1.52
  -2   6  -4   17.06    1.89
  -1   7   4   13.53    1.53
  -1   7   4   16.64    1.74
   1  -7   4   16.20    1.86
  -1   7   4   16.77    1.75
   1  -7   4   13.66    1.78
   1  -7   4   13.18    1.57
  -1   7   4   19.36    2.41
  -1   7  -4   14.44    1.75
   1  -7  -4   10.84    1.36
  -1   7  -4   15.42    1.72
   1  -7  -4   14.03    1.71
  -1   7  -4   11.62    1.79
  -1   7  -4   14.82    2.01
   1  -7  -4   14.79    1.54
   0   8   4   10.05    2.10
   0  -8   4    9.87    2.21
   0  -8   4   13.29    1.79
   0   8   4   12.07    1.77
   0   8   4   11.25    1.66
   0  -8   4   12.50    1.70
   0   8   4   11.32    2.21
   0  -8   4   11.88    1.55
   0   8  -4   10.63    1.42
   0  -8  -4   10.50    2.09
   0   8  -4   10.10    2.04
   0  -8  -4   10.25    1.65
   0  -8  -4   11.71    1.72
   0   8  -4   10.81    2.28
   0   8  -4   11.60    1.73
   0  -8  -4   12.22    1.91
  -1  -9   4    1.03    1.64
  -1  -9   4   -1.89    2.75
  -1  -9   4    3.37    2.30
   1   9   4   -0.07    1.56
   1   9   4    0.14    2.80
   1   9   4    0.80    1.99
  -1  -9   4    2.24    1.79
   1   9   4   -0.06    2.63
  -1  -9  -4    2.33    2.52
  -1  -9  -4    0.26    1.77
   1   9  -4    3.07    3.00
   1   9  -4    0.68    1.58
   1   9  -4   -1.59    2.77
   1   9  -4    5.29    2.07
  -1  -9  -4   -0.50    2.92
   2  10   4    7.71    2.63
   2  10  -4    8.70    2.55
   4  -4   5   15.77    2.17
  -4   4  -5   19.30    2.50
   3  -5   5   10.66    1.89
   3  -5   5   11.03    2.25
  -3   5  -5    8.51    2.18
  -3   5  -5   11.26    2.41
  -3   5  -5   12.22    2.05
   2  -6   5    4.04    1.37
  -2   6   5    2.45    1.18
   2  -6   5    1.42    1.46
   2  -6   5    4.51    1.17
  -2   6  -5    3.58    1.57
  -2   6  -5    2.80    1.49
   2  -6  -5    3.29    0.89
   2  -6  -5    1.56    0.88
  -2   6  -5    2.84    1.64
  -1   7   5   18.27    1.81
  -1   7   5   15.12    1.77
   1  -7   5   18.98    2.52
  -1   7   5   15.51    1.71
   1  -7   5   15.68    1.95
  -1   7   5   12.42    1.25
   1  -7   5   10.93    1.50
   1  -7   5   15.05    1.66
  -1   7  -5   17.29    2.00
  -1   7  -5   13.39    1.76
   1  -7  -5   13.93    1.46
   1  -7  -5   10.42    1.35
  -1   7  -5   14.90    1.73
   1  -7  -5   14.25    1.94
   1  -7  -5   18.37    1.72
  -1   7  -5   13.72    1.94
   0  -8   5   23.25    2.37
   0   8   5   22.43    2.37
   0   8   5   26.81    2.45
   0   8   5   24.12    2.87
   0  -8   5   27.68    2.26
   0   8   5   23.67    3.19
   0  -8   5   23.51    2.47
   0  -8   5   27.53    3.25
   0   8  -5   28.45    3.00
   0  -8  -5   32.52    2.53
   0   8  -5   24.72    2.61
   0  -8  -5   24.41    2.87
   0   8  -5   25.18    2.62
   0  -8  -5   27.26    2.41
   0  -8  -5   21.13    2.41
   0   8  -5   26.37    2.28
   1   9   5    7.72    2.25
  -1  -9   5    8.79    2.34
   1   9   5    7.96    1.80
  -1  -9   5    8.28    2.96
   1   9   5    8.29    2.97
   1   9   5    4.07    4.73
  -1  -9   5   10.60    2.11
  -1  -9   5    8.83    1.87
   1   9  -5    7.45    2.97
   1   9  -5    9.41    1.97
   1   9  -5    9.14    2.24
  -1  -9  -5    5.48    2.07
  -1  -9  -5    7.21    2.62
   1   9  -5    8.41    3.12
  -1  -9  -5    3.43    3.01
  -2 -10   5   -1.51    2.39
   2  10   5    2.21    2.37
  -2 -10  -5   -0.93    2.82
   4  -4   6    4.08    2.17
  -4   4  -6    7.35    2.51
   3  -5   6   10.33    2.33
   3  -5   6   14.69    2.04
   3  -5   6    9.52    1.93
  -3   5  -6    9.40    2.30
  -3   5  -6   12.00    2.14
  -3   5  -6    4.60    3.17
   2  -6   6   25.87    2.25
  -2   6   6   23.34    2.06
  -2   6   6   24.10    2.64
   2  -6   6   22.55    2.00
  -2   6  -6   27.08    2.75
  -2   6  -6   22.55    2.40
  -2   6  -6   24.10    2.46
   2  -6  -6   23.93    2.06
   2  -6  -6   23.30    1.65
   1  -7   6   38.33    2.39
   1  -7   6   41.39    2.84
   1  -7   6   31.37    2.37
  -1   7   6   40.98    2.91
   1  -7   6   32.14    2.32
  -1   7   6   34.73    2.21
  -1   7   6   32.16    2.52
  -1   7   6   35.05    2.08
   1  -7  -6   38.16    2.34
   1  -7  -6   36.56    2.09
  -1   7  -6   35.16    2.48
  -1   7  -6   35.13    2.94
  -1   7  -6   32.00    2.56
  -1   7  -6   35.77    2.63
   1  -7  -6   37.31    2.23
   1  -7  -6   38.41    2.31
   0   8   6   29.32    3.06
   0   8   6   36.33    2.63
   0  -8   6   32.42    2.60
   0  -8   6   36.29    2.55
   0   8   6   36.41    3.61
   0  -8   6   36.98    3.32
   0  -8   6   34.54    2.64
   0   8  -6   36.05    2.87
   0   8  -6   33.02    2.48
   0  -8  -6   30.34    3.22
   0   8  -6   28.74    3.44
   0   8  -6   41.23    3.16
   0  -8  -6   37.01    2.70
   0  -8  -6   33.76    2.64
   0  -8  -6   33.05    3.10
  -1  -9   6    4.52    1.76
  -1  -9   6    6.01    2.41
  -1  -9   6    2.88    1.93
  -1  -9   6    5.54    2.93
   1   9   6    4.92    1.71
   1   9   6    4.41    3.09
   1   9   6    3.04    2.23
   1   9  -6    7.36    3.07
  -1  -9  -6   -3.69    3.25
  -1  -9  -6    3.56    1.86
  -1  -9  -6    3.67    1.99
  -1  -9  -6    1.84    2.54
   1   9  -6    3.77    2.18
   1   9  -6    5.93    1.84
   1   9  -6    0.97    3.17
  -2 -10   6    3.68    2.36
   2  10   6   15.09    2.61
  -2 -10  -6    7.09    2.88
   2  10  -6    6.01    2.75
   4  -4   7    7.05    2.28
   3  -5   7    8.47    1.96
   3  -5   7   10.54    2.28
   3  -5   7   18.27    2.72
  -3   5  -7    6.11    2.40
  -3   5  -7   10.72    2.20
   2  -6   7   11.55    2.91
   2  -6   7   19.42    2.10
   2  -6   7   21.53    2.20
  -2   6  -7   19.86    2.66
  -2   6  -7   16.41    1.99
   2  -6  -7   19.51    1.61
  -2   6  -7   20.40    2.46
  -1   7   7   50.32    2.55
  -1   7   7   52.21    2.37
   1  -7   7   40.96    3.95
   1  -7   7   55.87    3.14
   1  -7   7   55.04    2.69
  -1   7   7   52.44    2.71
   1  -7   7   53.39    2.77
  -1   7  -7   49.57    3.26
   1  -7  -7   56.26    2.76
  -1   7  -7   55.13    3.34
  -1   7  -7   51.88    2.92
   1  -7  -7   56.03    2.53
   1  -7  -7   52.19    2.41
  -1   7  -7   50.98    2.93
   0  -8   7   11.70    2.19
   0  -8   7   12.05    1.71
   0  -8   7   11.14    1.89
   0   8   7   10.79    2.08
   0   8   7   15.08    1.89
   0  -8   7   13.13    1.74
   0   8  -7   11.12    2.56
   0  -8  -7   11.46    1.99
   0   8  -7   13.03    1.95
   0  -8  -7   12.15    3.36
   0  -8  -7   14.13    1.75
   0   8  -7   14.30    2.32
   0   8  -7   12.72    1.74
  -1  -9   7    8.61    2.04
   1   9   7   12.41    3.35
  -1  -9   7   12.03    2.94
   1   9   7   20.64    2.70
   1   9   7    8.69    2.45
  -1  -9   7   10.20    1.95
  -1  -9  -7    9.65    3.02
  -1  -9  -7   10.79    2.22
   1   9  -7   14.34    3.48
   1   9  -7   11.98    2.55
  -1  -9  -7   14.02    2.22
   1   9  -7    9.31    3.43
   1   9  -7   14.20    1.97
  -2 -10   7    6.81    2.60
   2  10  -7   11.36    2.75
  -2 -10  -7    9.19    3.98
   4  -4   8    1.54    2.28
  -4   4  -8    0.51    2.75
   3  -5   8   10.20    2.57
  -3   5  -8   13.07    2.40
  -3   5  -8    8.35    3.61
  -3   5  -8   10.26    2.61
   2  -6   8    4.91    1.58
   2  -6   8    5.39    1.45
   2  -6   8    3.97    1.70
  -2   6  -8    8.55    1.68
  -2   6  -8    5.78    1.90
  -2   6  -8    4.92    1.77
   2  -6  -8    7.87    1.04
   2  -6  -8    5.51    1.07
  -1   7   8    2.98    1.28
   1  -7   8    3.97    1.45
   1  -7   8    5.02    1.45
  -1   7   8    4.65    1.23
   1  -7   8    2.30    1.78
   1  -7   8    3.60    1.35
  -1   7   8    2.60    1.61
   1  -7  -8    5.04    1.20
   1  -7  -8    3.13    1.45
   1  -7  -8    4.47    1.43
  -1   7  -8    4.14    1.41
  -1   7  -8    2.04    1.61
  -1   7  -8    2.05    1.82
  -1   7  -8    5.18    1.87
   0  -8   8   -0.68    1.46
   0  -8   8   -0.79    1.31
   0   8   8   -1.66    2.00
   0   8   8   -1.22    1.58
   0  -8   8   -1.13    1.41
   0  -8   8    0.11    1.96
   0   8  -8    0.40    2.50
   0   8  -8   -0.01    2.00
   0  -8  -8    0.98    1.42
   0  -8  -8    0.43    1.84
   0   8  -8    0.55    1.78
   0   8  -8    0.50    1.45
   1   9   8    0.34    3.20
  -1  -9   8    0.24    1.83
   1   9   8   -0.82    2.20
  -1  -9   8    0.64    3.03
  -1  -9   8    1.13    1.64
   1   9   8    3.68    1.81
   1   9  -8    2.26    1.77
   1   9  -8    1.22    3.11
  -1  -9  -8    2.35    2.73
  -1  -9  -8    3.12    2.00
   1   9  -8    2.71    2.25
  -1  -9  -8   -1.65    1.93
  -2 -10   8   10.69    2.60
   2  10  -8   13.14    2.68
   4  -4   9   13.68    2.65
  -4   4  -9   16.29    3.19
   3  -5   9    8.02    3.04
  -3   5  -9    8.96    2.76
  -3   5  -9    6.83    3.82
  -3   5  -9    9.35    2.87
   2  -6   9    0.14    1.64
   2  -6   9    0.92    1.33
   2  -6   9    2.86    1.58
  -2   6  -9    1.70    2.02
  -2   6  -9    0.06    1.80
  -2   6  -9    1.25    1.75
   2  -6  -9    4.08    0.96
   2  -6  -9   -0.64    1.02
  -1   7   9    2.54    1.93
  -1   7   9    4.30    1.33
   1  -7   9    5.67    1.46
   1  -7   9    4.38    1.47
  -1   7   9    3.75    1.64
   1  -7   9    4.47    1.46
   1  -7   9    4.51    1.94
  -1   7  -9    1.15    1.69
  -1   7  -9    4.68    2.42
   1  -7  -9    3.42    1.36
  -1   7  -9    4.76    1.53
  -1   7  -9    2.70    1.93
   1  -7  -9    4.12    1.51
   1  -7  -9    5.36    1.62
   0  -8   9   16.19    1.90
   0   8   9   16.52    2.05
   0  -8   9   19.42    2.42
   0   8   9   17.67    2.38
   0  -8   9   13.16    1.81
   0  -8   9   20.14    2.67
   0   8   9   17.53    1.86
   0   8  -9   17.91    2.28
   0   8  -9   16.98    2.40
   0  -8  -9   17.25    2.37
   0  -8  -9   19.27    2.33
   0  -8  -9   16.75    2.05
   0   8  -9   17.55    2.84
   0   8  -9   18.13    2.02
   1   9   9   24.31    2.83
  -1  -9   9   28.98    3.54
   1   9   9   28.54    3.07
  -1  -9   9   27.23    3.51
  -1  -9   9   28.34    3.04
   1   9   9   32.26    4.54
   1   9  -9   27.10    3.81
   1   9  -9   25.67    2.94
   1   9  -9   35.54    3.85
  -1  -9  -9   29.73    3.43
  -1  -9  -9   24.33    2.54
  -1  -9  -9   29.51    3.91
  -2 -10   9    1.79    2.56
   2  10  -9    6.05    2.61
   4  -4  10   -0.51    2.41
  -4   4 -10    0.05    3.20
   3  -5  10   12.55    2.40
  -3   5 -10    9.72    2.41
   2  -6  10    2.40    1.63
   2  -6  10    6.70    1.80
   2  -6  10    3.83    1.71
  -2   6 -10    2.09    1.86
  -2   6 -10    2.17    1.98
  -2   6 -10    6.21    2.12
  -1   7  10   34.57    2.39
   1  -7  10   34.61    2.62
   1  -7  10   33.34    3.29
   1  -7  10   33.43    2.62
   1  -7  10   35.96    2.74
  -1   7  10   38.24    2.84
  -1   7  10   36.97    2.21
  -1   7 -10   32.90    3.48
  -1   7 -10   32.37    3.04
  -1   7 -10   28.35    2.96
   1  -7 -10   38.21    2.50
   1  -7 -10   39.51    2.79
  -1   7 -10   33.43    2.59
   1  -7 -10   34.69    2.41
   0  -8  10   59.20    3.98
   0  -8  10   56.62    3.36
   0   8  10   56.82    3.08
   0  -8  10   54.36    3.32
   0   8  10   54.62    3.90
   0  -8  10   59.11    3.10
   0   8 -10   59.39    4.29
   0   8 -10   51.06    2.99
   0   8 -10   57.93    3.53
   0  -8 -10   55.83    3.26
   0  -8 -10   57.24    3.88
   1   9  10    1.54    2.90
  -1  -9  10    7.21    2.04
  -1  -9  10    8.54    2.28
   1   9  10    6.87    1.99
  -1  -9 -10    6.92    2.11
   1   9 -10    2.43    2.54
   1   9 -10    6.80    2.07
   2  10 -10   -1.97    2.62
   4  -4  11   -3.44    2.47
  -4   4 -11   -5.62    3.20
   3  -5  11   -0.36    1.89
  -3   5 -11    1.50    2.45
   2  -6  11    4.15    1.88
   2  -6  11    5.09    1.69
   2  -6  11    3.57    1.91
  -2   6 -11    2.48    2.15
   2  -6 -11    3.97    1.04
  -2   6 -11    0.06    1.97
  -2   6 -11    4.44    2.20
   2  -6 -11    2.83    1.21
   1  -7  11   11.60    1.70
  -1   7  11   11.75    2.04
   1  -7  11   10.95    1.73
   1  -7  11   12.97    2.31
  -1   7  11   10.54    1.58
  -1   7  11   14.26    1.71
   1  -7  11   12.09    1.81
  -1   7 -11   14.51    2.16
   1  -7 -11   13.27    1.95
  -1   7 -11    9.25    2.32
  -1   7 -11   11.12    1.95
   1  -7 -11   13.39    1.53
   1  -7 -11   11.51    1.69
  -1   7 -11    6.49    2.20
   0  -8  11   10.40    1.96
   0   8  11   13.02    2.07
   0   8  11    8.68    1.74
   0  -8  11   10.42    1.95
   0  -8  11   13.14    1.84
   0   8  11   12.95    2.56
   0  -8  11   11.85    2.50
   0   8 -11   13.02    2.28
   0   8 -11   11.78    1.90
   0   8 -11   10.81    2.76
   0  -8 -11   14.43    2.30
   0  -8 -11   14.55    2.41
   0  -8 -11   11.86    1.86
   1   9  11    4.32    2.46
  -1  -9  11    3.99    2.21
   1   9  11    6.48    2.21
   1   9 -11    0.73    2.55
  -1  -9 -11    3.31    2.26
   1   9 -11    0.65    2.52
  -1  -9 -11   -0.27    2.37
   3  -5  12    1.61    2.00
  -3   5 -12   -0.61    2.57
   2  -6  12    9.42    2.21
   2  -6  12    8.08    2.29
   2  -6  12    9.20    1.88
  -2   6 -12   11.99    2.66
  -2   6 -12    9.81    2.57
  -2   6 -12    9.01    2.31
   1  -7  12    8.73    1.70
   1  -7  12    5.94    2.31
   1  -7  12    7.71    1.77
  -1   7  12    8.36    1.53
   1  -7  12    6.80    1.71
  -1   7 -12    8.91    2.25
  -1   7 -12    7.90    2.45
   1  -7 -12    8.13    1.63
   1  -7 -12    9.55    1.47
  -1   7 -12    9.31    1.90
   1  -7 -12    9.36    1.94
  -1   7 -12    9.24    2.21
   0  -8  12    8.18    2.59
   0  -8  12    6.28    1.97
   0   8  12    5.06    2.50
   0  -8  12   10.29    2.07
   0  -8  12    7.97    1.86
   0   8  12    7.88    1.94
   0   8  12    3.53    1.80
   0  -8 -12    8.04    2.33
   0   8 -12    5.90    1.82
   0  -8 -12    9.08    1.98
   0   8 -12    6.95    2.19
   0   8 -12    5.98    2.78
  -1  -9  12    0.82    1.93
   1   9  12    4.36    2.57
  -1  -9 -12    3.75    2.36
   1   9 -12    1.11    2.19
   3  -5  13    2.03    2.01
  -3   5 -13    3.88    2.77
   2  -6  13   15.68    2.30
   2  -6  13   16.47    2.25
   2  -6  13   23.00    2.45
  -2   6 -13   17.79    3.56
  -2   6 -13   13.99    2.38
  -2   6 -13   14.56    2.62
   1  -7  13    1.15    1.62
  -1   7  13    1.94    1.44
  -1   7  13    3.57    2.04
   1  -7  13    2.80    1.60
   1  -7  13    2.00    1.59
   1  -7  13    2.46    2.44
  -1   7  13    2.51    1.48
  -1   7 -13    7.64    2.00
  -1   7 -13    1.12    2.17
  -1   7 -13    0.00    2.56
   1  -7 -13    4.89    1.85
   1  -7 -13    2.80    1.34
  -1   7 -13    4.55    2.33
   0  -8  13    0.99    2.58
   0  -8  13   -1.51    1.78
   0  -8  13   -0.37    2.01
   0   8  13   -0.23    1.72
   0  -8  13   -0.48    1.61
   0   8  13    0.54    1.88
   0   8  13   -0.78    2.60
   0   8 -13    0.33    2.68
   0   8 -13   -0.39    1.71
   0   8 -13   -3.88    2.15
   0  -8 -13   -0.23    1.78
   0  -8 -13    3.70    2.44
  -1  -9  13    3.27    2.21
   1   9  13    7.53    2.83
  -1  -9 -13    6.80    2.75
   1   9 -13    9.23    2.33
   3  -5  14   -0.50    2.17
  -3   5 -14    1.74    2.88
   2  -6  14    5.30    2.08
   2  -6  14    7.08    2.19
   2  -6  14    6.21    2.28
  -2   6 -14    6.90    2.86
  -2   6 -14    4.74    2.24
  -2   6 -14    3.05    3.21
   1  -7  14    2.49    1.75
   1  -7  14    0.57    1.86
  -1   7  14   -0.55    1.44
   1  -7  14    2.19    1.71
  -1   7  14    3.05    1.92
   1  -7  14    0.37    2.40
   1  -7 -14    4.60    2.04
  -1   7 -14    0.13    2.39
  -1   7 -14    2.19    2.09
  -1   7 -14    3.45    2.50
  -1   7 -14   -0.93    2.75
   0  -8  14    6.44    1.84
   0  -8  14   10.05    2.28
   0  -8  14   13.77    3.04
   0   8  14   12.24    3.32
   0   8  14   11.35    2.33
   0   8 -14    9.82    2.09
   0   8 -14    6.97    2.84
   0   8 -14   10.74    3.15
   0   8 -14    5.47    2.56
   0  -8 -14   10.02    2.31
   1   9  14   15.86    3.46
  -1  -9  14   19.48    2.98
   1   9 -14   18.67    2.62
   3  -5  15   -2.07    2.27
  -3   5 -15    1.09    3.10
   2  -6  15   11.58    3.18
   2  -6  15    6.79    2.22
   2  -6  15    7.83    2.41
  -2   6 -15    4.40    2.47
   1  -7  15    6.98    2.02
   1  -7  15    7.12    2.03
  -1   7  15    9.60    2.12
   1  -7  15    4.75    2.53
   1  -7  15    7.46    1.90
  -1   7  15    7.79    1.71
  -1   7 -15   10.76    2.47
  -1   7 -15   11.25    2.58
  -1   7 -15    6.04    2.98
  -1   7 -15    9.69    3.06
   1  -7 -15    7.20    1.66
   0  -8  15    4.24    2.13
   0  -8  15    3.99    3.02
   0  -8  15    3.98    1.91
   0   8  15   -0.44    2.02
   0   8 -15    2.75    2.03
   0   8 -15   -3.46    2.53
   0   8 -15   -1.38    2.95
   0  -8 -15    3.91    1.95
   1   9  15    1.16    2.89
  -1  -9  15    5.78    2.40
   1   9 -15    9.64    3.84
  -1  -9 -15   -0.42    2.83
   3  -5  16    8.80    2.47
  -3   5 -16    3.59    3.35
   2  -6  16    2.06    2.22
   2  -6  16    7.75    3.70
  -2   6 -16    2.77    2.66
   2  -6 -16    2.29    1.64
  -2   6 -16   -0.25    4.26
  -1   7  16   16.19    2.26
  -1   7  16   20.92    2.47
   1  -7  16   16.44    2.48
   1  -7  16   16.16    2.31
   1  -7  16   12.07    2.24
   1  -7  16    7.98    2.81
  -1   7 -16   18.66    2.92
  -1   7 -16   13.43    3.35
   1  -7 -16   15.01    1.90
   1  -7 -16   14.91    2.30
  -1   7 -16   18.82    2.80
  -1   7 -16    7.67    3.19
   0  -8  16   12.67    2.30
   0  -8  16    8.19    2.27
   0   8  16    7.64    2.17
   0   8 -16   13.00    3.03
   0  -8 -16    9.19    2.29
   0   8 -16   10.87    2.32
  -1  -9  16    8.97    2.61
   1   9  16    4.63    3.14
  -1  -9 -16    6.52    2.88
   1   9 -16    8.65    2.65
   3  -5  17    0.25    2.74
  -3   5 -17    2.70    3.75
   2  -6  17   11.16    2.66
  -2   6 -17   10.07    3.56
  -2   6 -17   10.97    3.05
  -1   7  17    1.38    1.73
   1  -7  17    0.65    2.03
  -1   7  17    4.40    2.27
   1  -7  17    5.30    2.07
   1  -7  17    0.28    2.83
   1  -7  17    1.71    2.34
  -1   7 -17    3.46    3.29
  -1   7 -17    0.53    2.75
  -1   7 -17    4.06    2.55
   1  -7 -17    6.18    1.69
  -1   7 -17   -2.26    4.21
   0   8  17   -0.81    2.26
   0  -8  17    1.61    2.34
   0  -8 -17    2.86    2.24
   0   8 -17    1.00    2.31
   0   8 -17    1.83    3.05
  -1  -9  17   12.66    2.88
   1   9  17   11.03    3.61
   1   9 -17   17.56    2.82
  -1  -9 -17   13.70    3.25
   3  -5  18    0.46    2.93
  -3   5 -18    7.89    3.97
   2  -6  18   14.10    3.60
  -2   6 -18    3.74    3.33
  -1   7  18    7.51    1.99
   1  -7  18    7.34    2.30
   1  -7  18    8.33    2.43
   1  -7  18    3.36    3.28
   1  -7 -18    8.06    1.88
  -1   7 -18   14.06    2.79
  -1   7 -18    5.97    3.01
  -1   7 -18    6.50    3.73
   0   8  18    9.88    2.63
   0  -8  18   13.55    2.62
   0  -8 -18   14.15    2.56
   0   8 -18   11.92    2.89
   1   9  18    9.23    3.54
   1   9 -18    5.26    2.89
  -1  -9 -18   15.81    3.73
   2  -6  19    9.03    2.70
  -2   6 -19    7.22    3.75
   1  -7  19    4.86    2.46
  -1   7  19    7.45    2.10
   1  -7  19    5.68    2.49
  -1   7 -19    4.26    3.47
   1  -7 -19   10.42    2.01
  -1   7 -19    9.85    2.99
   0  -8  19    7.85    2.50
   0   8  19   10.41    2.79
   0   8 -19    8.33    3.02
   0  -8 -19   12.60    2.68
   2  -6  20    5.82    2.84
  -2   6 -20    0.27    3.93
   1  -7  20    6.14    2.67
  -1   7  20    2.94    2.05
   1  -7  20    5.19    2.88
   1  -7 -20   10.70    2.09
  -1   7 -20   -1.63    3.18
  -1   7 -20    4.34    3.68
   0   8  20   23.45    3.10
   0  -8 -20   24.16    3.09
   0   8 -20   22.86    4.09
   2  -6  21    3.25    3.03
  -2   6 -21   -0.51    4.32
  -1   7  21    3.76    2.19
  -1   7 -21   -0.29    3.41
   1  -7 -21    4.13    2.21
   0  -8  21   -2.04    2.67
   0   8  21    5.96    3.00
   0  -8 -21    2.86    2.74
   0   8 -21    1.82    3.30
  -1   7  22    7.45    2.46
   1  -7  22    0.39    2.90
   1  -7 -22    7.36    2.38
  -1   7 -22    0.33    3.57
   4  -5   0   13.30    2.07
   3  -6   0    3.32    1.38
   3  -6   0    3.71    1.32
  -3   6   0   -0.30    1.48
  -3   6   0    2.19    1.71
   2  -7   0   -0.14    1.10
   2  -7   0    0.98    1.55
  -2   7   0    0.43    1.55
  -2   7   0   -0.50    1.33
   1  -8   0    8.71    1.54
  -1   8   0   12.58    1.99
  -1   8   0   10.27    1.60
  -1   8   0    9.60    1.67
   1  -8   0   14.00    1.92
   1  -8   0    9.07    1.86
   0   9   0   -0.66    1.48
   0   9   0    0.33    1.87
   0   9   0   -3.01    3.83
   0  -9   0    2.82    1.75
   0  -9   0    1.94    2.51
   0  -9   0    2.70    1.52
   0  -9   0   -0.67    1.57
  -1 -10   0   14.10    2.39
   1  10   0   17.70    2.25
   1  10   0   23.97    3.11
  -1 -10   0   15.02    3.44
   1  10   0    8.20    3.45
  -1 -10   0   12.14    2.33
  -1 -10   0   13.12    3.73
   4  -5   1    1.15    1.93
   4  -5  -1    2.46    1.81
   3  -6   1   24.60    2.29
  -3   6   1   17.16    2.20
   3  -6   1   26.47    2.39
  -3   6   1   25.33    2.40
   3  -6  -1   19.47    2.09
  -3   6  -1   20.91    1.95
   3  -6  -1   24.17    2.29
  -3   6  -1   19.91    2.49
   2  -7   1   17.25    1.95
   2  -7   1   13.67    1.70
   2  -7   1   17.78    1.94
  -2   7   1   17.53    2.13
  -2   7   1   14.77    1.76
  -2   7  -1   16.47    1.95
   2  -7  -1   15.58    1.80
   2  -7  -1   12.88    1.77
  -2   7  -1   15.33    1.92
  -2   7  -1   13.33    1.68
   1  -8   1   28.17    2.50
  -1   8   1   31.13    3.02
  -1   8   1   26.49    2.40
   1  -8   1   23.92    2.14
   1  -8   1   28.87    2.44
  -1   8   1   24.56    2.34
  -1   8  -1   27.94    2.41
   1  -8  -1   29.52    2.56
   1  -8  -1   31.67    2.17
  -1   8  -1   30.31    3.04
  -1   8  -1   29.88    2.44
   0  -9   1    2.38    1.47
   0  -9   1   -1.14    1.75
   0  -9   1   -0.36    2.49
   0   9   1   -1.56    2.44
   0   9   1    2.08    1.87
   0   9   1    0.48    1.50
   0  -9   1   -0.79    1.61
   0   9  -1   -3.74    2.54
   0   9  -1    1.58    1.45
   0   9  -1    2.91    1.92
   0  -9  -1   -0.83    2.53
   0  -9  -1   -1.55    1.57
   0   9  -1    4.70    2.50
   0  -9  -1    3.26    1.98
   0  -9  -1    0.67    1.49
  -1 -10   1    2.67    2.15
   1  10   1   -2.43    3.30
  -1 -10   1    0.52    2.91
  -1 -10   1    1.49    3.56
   1  10   1    5.40    2.15
   1  10   1    9.74    2.68
  -1 -10   1    2.74    2.08
  -1 -10  -1   -2.91    3.05
   1  10  -1    2.56    2.12
  -1 -10  -1    5.17    2.30
  -1 -10  -1    6.73    4.66
   1  10  -1    0.25    3.37
  -1 -10  -1    4.58    2.07
   1  10  -1    2.12    2.59
   4  -5   2    1.07    1.92
  -4   5  -2   -2.31    2.09
   3  -6   2    1.16    1.38
   3  -6   2    3.87    1.47
  -3   6   2    0.78    1.32
  -3   6  -2    1.77    1.69
   3  -6  -2   -0.76    1.27
  -3   6  -2   -0.79    1.53
   3  -6  -2    0.24    1.24
  -3   6  -2    2.22    2.12
  -2   7   2    3.62    2.24
   2  -7   2    4.89    1.32
   2  -7   2    4.14    1.45
   2  -7   2    3.99    1.62
  -2   7   2    2.35    1.32
   2  -7  -2    3.41    1.61
   2  -7  -2    2.83    1.13
   2  -7  -2    4.47    1.39
  -2   7  -2    1.90    1.52
  -2   7  -2    4.61    1.71
  -2   7  -2    3.02    1.71
   1  -8   2   34.52    2.65
   1  -8   2   29.28    2.55
   1  -8   2   34.25    2.41
  -1   8   2   35.42    2.48
   1  -8   2   43.39    5.00
  -1   8   2   36.69    2.56
  -1   8   2   42.70    3.12
  -1   8  -2   37.05    3.17
   1  -8  -2   38.00    2.61
  -1   8  -2   34.39    2.55
   1  -8  -2   34.55    2.62
  -1   8  -2   36.99    2.64
   1  -8  -2   40.70    2.33
   0   9   2   33.06    3.04
   0   9   2   22.88    2.88
   0  -9   2   36.02    3.95
   0  -9   2   33.69    2.71
   0  -9   2   27.54    3.12
   0  -9   2   33.20    2.79
   0   9  -2   23.63    3.00
   0  -9  -2   28.46    2.85
   0   9  -2   31.12    2.53
   0  -9  -2   27.19    2.73
   0   9  -2   33.54    3.90
   0   9  -2   32.46    3.01
   0  -9  -2   31.47    3.63
  -1 -10   2   -1.08    3.34
  -1 -10   2    0.63    2.05
   1  10   2    0.57    3.46
   1  10   2    3.91    1.99
  -1 -10   2    4.57    3.08
   1  10   2    0.01    2.57
  -1 -10   2   -0.49    2.08
  -1 -10  -2    2.55    2.04
  -1 -10  -2    0.08    2.98
   1  10  -2    0.46    2.54
   1  10  -2   -1.81    3.45
   1  10  -2   -3.38    3.72
  -1 -10  -2    4.31    2.32
   1  10  -2   -1.42    1.83
   4  -5   3    9.42    2.08
   3  -6   3   -0.80    1.46
   3  -6   3    5.22    2.17
   3  -6   3    2.49    2.28
  -3   6  -3    2.41    1.78
  -3   6  -3   -1.02    1.66
   3  -6  -3    3.87    1.25
   3  -6  -3    1.67    1.25
  -3   6  -3   -1.04    2.26
  -2   7   3   13.00    1.65
   2  -7   3   13.17    1.66
  -2   7   3   10.79    1.45
   2  -7   3   12.89    1.86
  -2   7   3    7.18    1.62
  -2   7  -3   13.75    2.09
  -2   7  -3   10.86    1.78
   2  -7  -3   12.89    1.34
  -2   7  -3   13.02    1.91
   1  -8   3    1.71    2.46
  -1   8   3    3.06    1.47
   1  -8   3    1.77    1.46
   1  -8   3    1.07    1.28
   1  -8   3    1.30    1.55
  -1   8   3    2.76    1.86
   1  -8  -3    2.38    1.24
   1  -8  -3    3.03    1.42
  -1   8  -3    3.04    1.81
  -1   8  -3    1.01    1.57
   1  -8  -3    1.95    1.41
  -1   8  -3   -0.09    1.54
   0  -9   3    4.86    1.69
   0   9   3    9.29    2.16
   0   9   3    6.72    1.88
   0  -9   3    8.56    1.61
   0  -9   3    6.45    2.57
   0  -9   3    7.63    2.00
   0   9   3    5.99    2.40
   0   9  -3    5.95    1.64
   0   9  -3    9.07    2.85
   0   9  -3    6.89    1.96
   0  -9  -3    9.53    1.90
   0  -9  -3    6.51    2.23
   0   9  -3   13.95    2.72
  -1 -10   3   29.24    3.58
   1  10   3   17.25    3.09
  -1 -10   3   24.29    3.90
  -1 -10   3   26.59    4.92
  -1 -10   3   15.49    2.46
   1  10   3   28.73    3.34
   1  10  -3   24.69    2.60
  -1 -10  -3   19.59    2.69
   1  10  -3   23.39    3.92
   1  10  -3   25.19    2.99
  -1 -10  -3   20.24    3.88
  -1 -10  -3   18.18    2.53
   1  10  -3   10.76    3.75
   4  -5   4    1.37    1.93
  -4   5  -4    3.99    2.28
   3  -6   4    4.89    1.61
   3  -6   4    5.72    1.89
  -3   6  -4    2.71    1.77
  -3   6  -4    2.09    2.36
  -2   7   4    1.85    1.26
  -2   7   4   -0.50    1.46
   2  -7   4    1.67    1.66
   2  -7   4    1.38    1.62
   2  -7   4    1.53    1.38
  -2   7  -4    3.01    1.81
  -2   7  -4    0.13    1.78
   2  -7  -4    0.47    1.08
   2  -7  -4    1.98    1.11
  -2   7  -4   -0.24    1.91
  -1   8   4   26.78    2.35
   1  -8   4   24.47    2.38
   1  -8   4   28.16    3.28
   1  -8   4   21.91    2.63
   1  -8   4   23.50    2.59
  -1   8   4   24.75    2.96
  -1   8   4   30.78    3.00
  -1   8  -4   20.45    2.66
   1  -8  -4   23.22    2.40
   1  -8  -4   25.89    2.45
  -1   8  -4   19.83    2.52
   0  -9   4    9.19    1.96
   0   9   4    7.94    2.10
   0  -9   4   10.34    2.69
   0   9   4   11.52    2.60
   0  -9   4    5.88    1.65
   0   9   4    8.63    1.94
   0  -9   4   11.56    1.76
   0   9  -4    9.64    1.77
   0   9  -4    7.63    2.10
   0   9  -4   12.08    2.65
   0  -9  -4    9.95    1.98
   0  -9  -4    8.24    1.67
   0  -9  -4    8.88    2.24
   0   9  -4    8.69    2.71
  -1 -10   4   27.71    3.47
   1  10   4   15.00    2.98
  -1 -10   4   19.67    2.56
  -1 -10   4   16.00    3.88
   1  10  -4   24.14    2.99
   1  10  -4   10.87    3.79
  -1 -10  -4   21.53    2.82
   1  10  -4    8.28    3.85
   1  10  -4   24.12    2.62
  -1 -10  -4   13.08    2.50
   4  -5   5   -5.16    2.04
  -4   5  -5    4.21    2.43
   3  -6   5    8.97    2.05
   3  -6   5    4.92    1.71
  -3   6  -5    4.82    2.13
  -3   6  -5    4.18    1.82
  -2   7   5   44.77    2.66
   2  -7   5   46.65    2.94
  -2   7   5   43.54    2.29
   2  -7   5   41.13    2.96
   2  -7   5   46.78    2.86
   2  -7  -5   42.73    2.36
  -2   7  -5   47.59    3.14
  -2   7  -5   44.13    3.32
  -2   7  -5   41.17    3.16
   2  -7  -5   41.46    2.08
   1  -8   5   12.91    1.75
  -1   8   5   11.93    1.62
   1  -8   5   10.71    2.28
   1  -8   5   12.86    1.87
  -1   8   5   10.89    2.07
  -1   8  -5   10.48    1.85
   1  -8  -5   12.75    1.78
  -1   8  -5   15.35    1.94
   0   9   5    9.10    1.91
   0  -9   5    9.09    2.60
   0  -9   5    9.07    1.78
   0   9   5    8.75    2.57
   0   9   5    9.73    2.17
   0  -9   5   11.51    2.13
   0  -9   5   10.38    1.84
   0  -9  -5    9.55    2.02
   0   9  -5    9.10    1.89
   0   9  -5    6.13    2.46
   0  -9  -5    9.01    1.87
   0  -9  -5   10.38    2.41
   0   9  -5   11.73    2.24
   0   9  -5    6.57    2.78
  -1 -10   5    1.13    2.19
  -1 -10   5   -6.68    6.09
   1  10   5   -2.32    2.57
  -1 -10   5    4.24    2.31
   1  10  -5    0.72    2.47
   1  10  -5   -3.32    3.85
   1  10  -5    0.70    2.08
  -1 -10  -5   -2.58    2.39
  -1 -10  -5    0.47    2.24
   4  -5   6   -1.97    2.12
  -4   5  -6    2.89    2.46
   3  -6   6    4.07    1.80
  -3   6  -6   -1.23    1.89
  -3   6  -6    1.47    2.97
  -2   7   6    0.75    1.49
   2  -7   6    0.44    1.69
   2  -7   6    1.84    1.56
  -2   7   6    1.23    1.17
  -2   7  -6    0.32    1.98
  -2   7  -6    0.55    2.02
  -2   7  -6    1.80    1.95
   2  -7  -6    0.48    0.99
   2  -7  -6    0.79    1.13
  -1   8   6    9.05    1.74
  -1   8   6    6.96    1.56
  -1   8   6    4.76    1.96
   1  -8   6    8.02    2.25
   1  -8   6    7.41    1.49
  -1   8  -6    8.18    1.85
   1  -8  -6    2.87    1.81
   1  -8  -6    6.46    1.64
  -1   8  -6    8.37    1.89
   1  -8  -6    9.12    1.46
   0  -9   6    6.20    1.95
   0  -9   6    7.19    2.74
   0   9   6    6.31    2.55
   0  -9   6    6.73    1.78
   0   9   6    3.93    1.83
   0  -9   6    6.77    1.79
   0   9  -6    4.89    2.70
   0   9  -6    8.45    2.18
   0  -9  -6    3.94    2.24
   0   9  -6    8.09    2.91
   0   9  -6    6.12    1.91
   0  -9  -6    2.95    2.28
   0  -9  -6    3.48    1.90
  -1 -10   6    2.57    2.23
  -1 -10   6    8.10    2.37
   1  10  -6    8.73    2.24
  -1 -10  -6    7.62    2.72
   1  10  -6    6.22    2.76
   4  -5   7    1.08    2.38
  -4   5  -7    3.52    2.78
   3  -6   7    3.04    1.82
  -3   6  -7    1.41    2.02
   2  -7   7    9.02    1.93
  -2   7   7   11.27    1.42
   2  -7   7   10.60    1.88
  -2   7   7   12.07    1.61
   2  -7   7    7.36    1.80
   2  -7  -7   11.37    1.36
   2  -7  -7   13.42    1.56
  -2   7  -7   12.94    2.19
  -2   7  -7   11.27    2.32
  -2   7  -7   11.16    2.12
   1  -8   7   43.10    2.81
   1  -8   7   42.11    3.57
   1  -8   7   39.89    2.83
  -1   8   7   38.66    2.63
  -1   8   7   43.19    2.76
  -1   8   7   39.10    3.10
  -1   8  -7   40.22    3.23
  -1   8  -7   42.28    3.41
  -1   8  -7   42.24    3.07
   1  -8  -7   45.54    2.80
   1  -8  -7   40.35    3.02
   1  -8  -7   42.51    2.54
   0   9   7    5.49    1.97
   0  -9   7    7.94    1.93
   0  -9   7   10.30    2.77
   0   9   7    5.48    2.73
   0   9   7    7.31    2.03
   0  -9   7    6.94    2.04
   0  -9   7    6.78    1.89
   0  -9  -7    7.52    2.17
   0  -9  -7   11.74    2.47
   0   9  -7    4.16    2.95
   0   9  -7    9.50    1.99
   0  -9  -7   12.00    2.09
   0   9  -7    8.17    2.78
   0   9  -7    8.95    2.27
  -1 -10   7   10.66    2.43
  -1 -10   7   13.34    2.33
   1  10   7   12.09    2.87
  -1 -10  -7   12.72    3.88
   1  10  -7   13.93    2.44
   1  10  -7   12.11    3.13
   4  -5   8   -2.09    2.37
  -4   5  -8    6.54    3.06
   3  -6   8    6.58    1.96
  -3   6  -8   -2.23    2.16
   2  -7   8   13.46    2.11
   2  -7   8   11.89    1.79
  -2   7   8   12.85    1.65
  -2   7   8   15.35    1.71
   2  -7   8   10.94    2.05
  -2   7  -8   12.30    2.45
  -2   7  -8   10.71    2.38
  -2   7  -8   12.78    2.19
   2  -7  -8    9.17    1.42
   2  -7  -8   17.37    1.60
  -1   8   8    4.13    1.93
  -1   8   8    6.98    1.58
   1  -8   8    7.01    1.70
  -1   8   8    9.85    1.78
   1  -8   8   12.87    1.78
   1  -8   8    9.90    2.43
   1  -8   8    6.82    1.87
  -1   8  -8    9.71    2.14
   1  -8  -8   10.09    1.80
   1  -8  -8    7.82    1.90
  -1   8  -8    7.54    1.88
   1  -8  -8    5.46    1.57
  -1   8  -8    9.37    3.22
   0  -9   8    3.56    2.65
   0  -9   8   -1.19    1.95
   0  -9   8   -1.07    1.74
   0   9   8    0.31    2.60
   0   9   8   -1.14    1.94
   0  -9   8    0.47    1.71
   0  -9  -8    1.84    1.93
   0   9  -8    0.77    2.22
   0   9  -8    0.35    1.78
   0  -9  -8    1.82    1.73
   0   9  -8    0.77    2.66
   0   9  -8   -2.07    2.82
   0  -9  -8    1.35    2.30
   1  10   8    3.22    2.86
  -1 -10   8    1.05    2.30
  -1 -10   8    1.96    2.39
  -1 -10  -8    0.49    2.44
   1  10  -8    4.43    2.97
   1  10  -8   -1.20    2.19
   3  -6   9   44.23    3.50
  -3   6  -9   33.62    3.86
   2  -7   9    8.65    2.19
  -2   7   9   10.76    1.58
   2  -7   9    6.82    1.69
   2  -7   9   10.56    2.16
  -2   7  -9   14.80    2.61
   2  -7  -9    8.40    1.44
  -2   7  -9    8.85    2.53
  -2   7  -9   14.30    2.25
  -1   8   9    4.77    1.98
   1  -8   9    7.07    2.50
   1  -8   9    2.94    1.79
   1  -8   9    6.45    1.77
  -1   8   9    4.66    1.65
   1  -8   9    3.42    1.62
  -1   8   9    2.43    1.62
   1  -8  -9    3.90    1.72
  -1   8  -9    4.12    2.05
   1  -8  -9    2.61    1.90
  -1   8  -9    1.17    2.35
  -1   8  -9    5.19    1.71
   1  -8  -9    4.90    1.49
   0  -9   9    1.03    1.91
   0   9   9   -1.24    1.96
   0  -9   9    4.08    2.72
   0  -9   9   -0.33    1.71
   0  -9   9    0.71    1.84
   0   9   9    0.59    2.90
   0   9  -9    3.73    2.79
   0   9  -9   -1.94    3.22
   0  -9  -9   -1.55    2.34
   0  -9  -9    1.46    1.81
   0   9  -9   -0.41    1.85
   0   9  -9    0.27    2.25
   1  10   9    0.17    2.85
  -1 -10   9    2.92    2.65
   1  10  -9    2.48    2.77
  -1 -10  -9    3.34    2.64
   3  -6  10   10.49    2.18
  -3   6 -10    1.65    2.53
   2  -7  10   36.88    3.12
   2  -7  10   37.48    3.42
   2  -7  10   39.55    3.62
  -2   7 -10   46.41    3.97
   2  -7 -10   45.87    2.62
  -2   7 -10   40.98    3.82
   2  -7 -10   43.71    2.31
  -2   7 -10   44.64    3.47
  -1   8  10    4.24    1.66
  -1   8  10    2.77    1.70
   1  -8  10    2.65    2.06
   1  -8  10    3.83    1.65
   1  -8  10    4.15    2.79
  -1   8  10    4.18    2.15
   1  -8  10    4.29    1.76
  -1   8 -10    0.90    2.26
  -1   8 -10    0.78    2.08
   1  -8 -10    4.77    2.05
  -1   8 -10    1.84    1.80
   1  -8 -10    3.98    1.80
   1  -8 -10    2.78    1.45
   0  -9  10    6.40    2.89
   0  -9  10    6.26    1.97
   0  -9  10    6.82    2.13
   0   9  10    3.47    2.19
   0  -9  10    2.98    2.34
   0   9 -10    6.03    3.37
   0   9 -10    5.79    2.37
   0   9 -10    5.75    2.93
   0   9 -10    9.02    2.11
   0  -9 -10    5.72    1.94
  -1 -10  10    7.50    2.36
   1  10  10    4.82    3.71
  -1 -10 -10    6.83    2.80
   1  10 -10    5.38    2.82
   3  -6  11    9.74    2.22
  -3   6 -11    3.63    2.82
   2  -7  11    5.58    2.30
   2  -7  11    8.49    2.01
   2  -7  11    5.92    2.35
  -2   7 -11   10.12    2.35
  -2   7 -11   10.41    2.73
   2  -7 -11    6.54    1.57
   2  -7 -11    8.70    1.33
  -2   7 -11    8.45    2.80
   1  -8  11   12.65    2.16
   1  -8  11   10.52    1.95
  -1   8  11   10.37    2.39
   1  -8  11   10.65    4.23
   1  -8  11    9.37    2.19
  -1   8  11   15.05    3.02
  -1   8 -11   13.53    2.71
   1  -8 -11   10.49    2.22
  -1   8 -11   11.93    2.54
   1  -8 -11   12.03    1.91
  -1   8 -11    8.48    2.18
   0  -9  11    1.61    1.91
   0  -9  11    0.58    1.96
   0  -9  11   -4.11    2.18
   0  -9  11    2.21    2.75
   0   9 -11    2.26    3.41
   0   9 -11    3.07    2.01
   0   9 -11   -2.61    2.95
   0   9 -11    1.94    2.51
   0  -9 -11    1.50    2.10
   1  10  11    4.77    3.33
  -1 -10  11    4.92    2.49
   1  10 -11    3.02    2.69
   3  -6  12    2.51    2.08
  -3   6 -12   -2.79    2.86
   2  -7  12    0.50    1.99
   2  -7  12    3.15    2.04
   2  -7 -12    4.77    1.23
   2  -7 -12    3.01    1.52
  -2   7 -12    2.00    3.31
  -2   7 -12   -3.03    2.32
  -1   8  12   15.82    2.87
  -1   8  12   14.31    2.00
  -1   8  12   20.09    2.74
   1  -8  12   18.21    2.17
   1  -8  12   17.12    2.20
   1  -8  12   12.61    2.26
  -1   8 -12   17.63    3.04
  -1   8 -12   21.78    2.87
   1  -8 -12   17.09    2.55
  -1   8 -12   13.05    2.35
   1  -8 -12   16.80    2.18
   1  -8 -12   18.54    2.45
   0  -9  12   18.07    2.48
   0  -9  12   16.54    4.04
   0   9  12   13.07    2.44
   0  -9  12   15.11    2.34
   0  -9  12   15.48    3.45
   0   9 -12   12.73    2.90
   0   9 -12   16.40    2.36
   0   9 -12   13.31    3.42
   0   9 -12   12.53    3.73
   0  -9 -12   17.91    2.53
   1  10  12   -1.37    2.96
  -1 -10  12    4.85    3.62
   1  10 -12    0.20    2.79
  -1 -10 -12    4.50    2.78
   3  -6  13    7.68    2.36
  -3   6 -13    5.92    3.19
   2  -7  13    5.06    2.28
   2  -7  13    5.48    2.17
  -2   7 -13    4.27    2.72
   2  -7 -13    5.68    1.69
   2  -7 -13    6.58    1.41
  -2   7 -13    3.78    2.69
  -1   8  13    8.96    1.95
  -1   8  13   10.62    2.13
   1  -8  13    8.59    2.10
   1  -8  13   10.16    2.09
   1  -8  13    8.22    2.43
  -1   8 -13    7.93    2.40
  -1   8 -13   12.47    2.88
  -1   8 -13   10.62    3.01
   1  -8 -13   10.43    2.45
   1  -8 -13   11.89    1.78
   0  -9  13   32.20    4.46
   0  -9  13   33.81    3.54
   0   9  13   31.91    3.57
   0  -9  13   34.48    3.78
   0   9 -13   31.98    3.35
   0  -9 -13   37.86    3.54
   0   9 -13   33.29    3.49
   0   9 -13   29.89    4.39
   1  10  13   12.04    3.51
  -1 -10  13   13.62    2.97
  -1 -10 -13   18.66    3.25
   3  -6  14    3.83    2.47
  -3   6 -14    7.34    3.48
   2  -7  14    5.65    2.33
  -2   7 -14    0.70    2.74
   2  -7 -14    0.14    1.64
   2  -7 -14    4.56    1.48
   1  -8  14    6.65    2.20
   1  -8  14    5.38    2.12
   1  -8  14    5.32    2.26
  -1   8  14    3.54    1.94
  -1   8  14    8.62    2.62
   1  -8 -14   10.25    1.86
  -1   8 -14    6.75    2.84
  -1   8 -14   14.37    2.71
  -1   8 -14    8.19    3.38
   0   9  14    0.76    2.54
   0  -9  14   -1.06    2.19
   0  -9  14   -0.30    2.37
   0   9 -14    0.65    2.35
   0   9 -14   -3.22    2.86
   0  -9 -14    5.93    2.31
   1  10  14   -0.32    3.40
  -1 -10  14    2.63    2.80
   1  10 -14    5.60    2.92
  -1 -10 -14    5.00    3.25
   3  -6  15    7.09    2.75
  -3   6 -15   10.83    3.61
   2  -7  15   37.09    4.25
  -2   7 -15   24.16    3.29
   2  -7 -15   35.12    3.22
   1  -8  15   13.08    2.41
   1  -8  15   15.18    3.04
   1  -8  15   19.17    2.60
  -1   8  15   12.26    2.11
   1  -8 -15   21.87    2.81
  -1   8 -15   21.11    2.98
  -1   8 -15   16.24    3.38
   0  -9  15   -2.65    2.15
   0   9  15   -1.28    2.43
   0  -9  15    1.71    2.44
   0  -9 -15    2.93    2.27
   0   9 -15    0.34    2.51
   0   9 -15   -4.49    3.09
   3  -6  16   -1.80    2.83
  -3   6 -16   -1.38    3.69
   2  -7  16    1.25    2.74
   2  -7 -16    3.21    1.64
  -2   7 -16    2.05    3.12
   1  -8  16    3.65    2.48
  -1   8  16    5.95    2.04
   1  -8  16    6.45    2.45
  -1   8 -16    9.06    2.97
  -1   8 -16   11.93    3.26
   1  -8 -16    9.94    1.98
   0  -9  16    7.70    3.71
   0   9  16    8.75    2.69
   0  -9 -16   10.62    2.68
   0   9 -16   11.08    3.40
   2  -7  17    7.72    3.06
  -2   7 -17   -4.50    3.35
   1  -8  17    2.66    2.32
  -1   8  17    3.68    2.06
   1  -8  17    1.20    2.71
  -1   8 -17    4.87    3.21
   1  -8 -17    3.77    1.92
  -1   8 -17    9.18    3.31
   0   9  17   15.10    2.99
   0  -9  17   13.25    2.91
   0   9 -17   13.14    3.13
   0  -9 -17   12.98    2.83
   2  -7  18    5.62    3.02
  -2   7 -18   -4.97    4.60
   2  -7 -18    2.42    1.78
  -1   8  18    3.79    2.26
   1  -8  18    5.19    2.93
   1  -8  18    7.04    2.66
  -1   8 -18    2.24    3.35
  -1   8 -18    2.32    3.48
   1  -8 -18    5.18    2.21
   0   9  18   17.56    3.08
   0  -9  18   14.77    3.05
   0   9 -18   13.08    3.16
   0  -9 -18    9.05    2.98
   2  -7  19   29.33    3.80
   1  -8  19    4.07    3.10
   1  -8  19    6.63    4.15
  -1   8  19    7.72    2.37
  -1   8 -19    3.04    4.34
   1  -8 -19    5.07    2.34
  -1   8 -19    9.93    5.54
   0  -9  19    1.10    3.15
   0   9  19    2.48    3.05
   0  -9 -19   -1.68    2.87
  -1   8  20    5.37    2.40
   1  -8 -20    0.46    2.37
   4  -6   0    6.20    2.02
  -3   7   0    0.29    2.06
  -3   7   0    2.35    1.73
   3  -7   0    3.31    2.11
   3  -7   0    4.39    1.60
  -2   8   0   34.16    3.26
   2  -8   0   34.82    2.88
  -2   8   0   34.69    4.26
   2  -8   0   41.48    2.94
  -2   8   0   27.82    3.16
   2  -8   0   29.81    3.04
   1  -9   0   26.59    2.87
  -1   9   0   21.32    2.85
   1  -9   0   23.51    2.35
  -1   9   0   19.54    2.33
  -1   9   0   21.76    2.78
   1  -9   0   17.91    2.44
   0  10   0   23.67    2.49
   0  10   0   18.18    3.69
   0 -10   0   23.09    3.01
   0 -10   0   25.64    3.34
   0 -10   0   21.39    2.63
  -1 -11   0   -2.25    2.59
   1  11   0    2.57    4.07
   4  -6   1    6.59    2.12
   3  -7   1    4.87    1.66
  -3   7   1    1.65    1.69
  -3   7  -1    6.65    2.26
   3  -7  -1    6.88    1.65
   3  -7  -1    6.32    1.57
  -3   7  -1    2.75    1.79
  -2   8   1   21.56    2.37
  -2   8   1   30.63    3.48
   2  -8   1   22.84    2.43
   2  -8   1   20.49    2.27
   2  -8  -1   19.89    2.72
  -2   8  -1   17.97    2.38
  -2   8  -1   23.10    2.60
   2  -8  -1   31.07    3.21
   2  -8  -1   19.12    2.14
  -1   9   1    8.03    1.99
   1  -9   1    8.20    1.73
   1  -9   1    8.54    1.96
   1  -9   1    6.97    1.95
  -1   9   1   12.27    2.54
  -1   9   1    8.95    1.96
  -1   9  -1    6.46    2.50
  -1   9  -1   12.70    2.09
   1  -9  -1    7.88    1.55
   1  -9  -1    9.58    1.96
  -1   9  -1    9.76    2.12
   0 -10   1   42.18    3.31
   0  10   1   31.28    4.18
   0 -10   1   39.31    3.95
   0  10   1   38.30    3.24
   0 -10   1   37.03    3.30
   0  10   1   36.85    4.48
   0 -10  -1   35.44    3.44
   0  10  -1   43.11    4.53
   0 -10  -1   42.06    5.28
   0  10  -1   32.21    3.87
   0  10  -1   39.77    3.22
   1  11   1   10.21    5.94
  -1 -11   1   13.52    3.51
  -1 -11   1   13.66    2.99
   1  11  -1   11.30    3.54
  -1 -11  -1   13.32    3.07
   4  -6   2    1.70    2.26
   3  -7   2   -0.38    1.62
  -3   7   2    0.88    1.58
  -3   7  -2   -2.44    1.78
   3  -7  -2    2.50    1.47
  -2   8   2    2.29    2.43
   2  -8   2    5.31    1.55
   2  -8   2    4.21    1.98
  -2   8   2    3.55    2.78
  -2   8  -2   -0.70    2.14
   2  -8  -2    3.58    1.65
  -2   8  -2    3.86    2.09
   2  -8  -2    2.10    1.87
   1  -9   2    2.69    1.72
  -1   9   2    8.85    2.72
   1  -9   2    7.15    2.08
  -1   9   2    6.39    1.83
   1  -9   2    5.80    1.86
  -1   9   2    5.67    1.87
  -1   9  -2    7.98    2.05
   1  -9  -2    8.22    1.90
   1  -9  -2    8.45    1.56
  -1   9  -2    5.68    1.96
  -1   9  -2    7.08    2.54
   0  10   2    1.92    1.91
   0 -10   2    0.90    1.95
   0 -10   2    2.94    1.89
   0  10   2    0.69    2.37
   0 -10   2   -1.00    2.26
   0  10  -2    0.51    1.87
   0  10  -2    0.26    2.25
   0 -10  -2    1.64    2.14
   0  10  -2    2.94    3.43
   0 -10  -2    0.16    2.18
   1  11   2    9.00    3.39
  -1 -11   2    6.42    2.69
  -1 -11   2    7.70    2.83
   1  11  -2   14.22    3.42
   1  11  -2    6.14    2.97
   4  -6   3    2.09    2.47
  -4   6  -3   15.63    3.44
   3  -7   3   19.21    2.14
   3  -7  -3   20.82    2.35
  -3   7  -3   17.23    2.16
   2  -8   3   21.98    2.43
   2  -8   3   16.75    2.28
   2  -8   3   11.89    2.36
  -2   8   3   15.36    2.52
  -2   8   3   15.65    2.22
  -2   8   3   14.31    2.06
   2  -8  -3   17.61    1.98
  -2   8  -3   17.47    2.38
  -2   8  -3   15.43    2.48
  -2   8  -3   14.13    2.26
   2  -8  -3   11.62    2.27
   1  -9   3    9.64    2.05
  -1   9   3   12.96    2.07
   1  -9   3   12.50    2.04
  -1   9   3   13.42    1.96
  -1   9   3   13.09    2.60
  -1   9  -3   12.50    2.21
   1  -9  -3   10.20    1.94
   1  -9  -3   13.74    1.82
  -1   9  -3    7.38    2.36
  -1   9  -3   14.45    2.74
   1  -9  -3   14.50    2.11
   0 -10   3    4.46    2.54
   0  10   3   12.75    2.60
   0 -10   3   10.60    2.07
   0 -10   3    8.34    1.95
   0 -10  -3    7.77    2.04
   0  10  -3    6.09    2.04
   0 -10  -3    6.25    2.19
   0  10  -3   10.56    3.54
   0  10  -3    6.53    2.48
  -1 -11   3    5.36    2.62
   1  11   3    5.22    3.34
  -1 -11   3    0.09    2.68
   1  11  -3    0.36    2.65
   1  11  -3    5.94    3.37
  -1 -11  -3   -0.68    2.60
   4  -6   4    8.73    2.79
   3  -7   4    0.08    1.82
   3  -7  -4    3.23    1.47
   3  -7  -4    0.06    1.43
  -3   7  -4   -2.19    1.89
   2  -8   4   40.04    3.27
   2  -8   4   39.70    3.16
  -2   8   4   35.85    2.69
  -2   8   4   41.03    2.92
   2  -8   4   42.77    2.84
  -2   8   4   34.89    3.01
  -2   8  -4   37.78    3.57
  -2   8  -4   38.07    3.29
  -2   8  -4   37.50    3.37
   2  -8  -4   36.50    2.43
   2  -8  -4   41.94    3.00
  -1   9   4   -0.42    1.84
   1  -9   4   -3.56    1.69
   1  -9   4    0.67    2.00
  -1   9   4   -2.63    2.29
   1  -9  -4    1.91    1.54
  -1   9  -4    0.59    1.99
   1  -9  -4    0.74    1.84
   1  -9  -4    1.58    1.74
  -1   9  -4    1.86    2.56
  -1   9  -4    4.12    2.61
   0  10   4    3.83    2.21
   0 -10   4    2.81    2.02
   0 -10   4   -3.63    1.91
   0 -10   4    2.14    2.31
   0  10   4    2.38    2.33
   0  10  -4   -1.16    1.94
   0 -10  -4    3.65    1.92
   0  10  -4    2.24    3.34
   0  10  -4    2.43    2.62
   0 -10  -4    0.69    2.33
   1  11   4    2.03    3.27
  -1 -11   4    2.70    2.78
  -1 -11   4    5.09    2.93
   1  11  -4    0.98    2.75
   1  11  -4   -0.04    3.37
  -1 -11  -4    7.93    2.89
   3  -7   5    2.44    1.88
   3  -7  -5    1.93    1.43
  -3   7  -5   -2.89    2.00
  -2   8   5   -0.81    1.97
   2  -8   5    6.58    1.73
   2  -8   5    7.01    2.04
  -2   8   5    1.26    1.52
  -2   8   5    2.81    1.81
   2  -8   5    3.44    2.01
   2  -8  -5    4.10    1.54
  -2   8  -5    6.05    2.25
   2  -8  -5    6.26    1.93
  -2   8  -5   -0.15    2.21
   2  -8  -5    2.05    1.29
  -2   8  -5    2.51    2.32
   1  -9   5    8.57    2.96
  -1   9   5    9.10    2.20
   1  -9   5    7.19    2.04
  -1   9   5    3.57    2.42
  -1   9   5    7.78    1.94
   1  -9  -5   10.22    2.14
  -1   9  -5    6.57    2.68
   1  -9  -5    8.89    1.74
  -1   9  -5    6.90    2.18
   1  -9  -5    6.13    2.01
   0 -10   5   19.17    2.55
   0 -10   5   20.45    2.71
   0 -10   5   18.67    2.45
   0  10   5   22.94    2.97
   0  10  -5   25.93    3.89
   0  10  -5   19.45    2.84
   0  10  -5   21.19    2.65
   0 -10  -5   19.94    2.45
   1  11   5    9.00    3.82
  -1 -11   5   16.04    2.93
  -1 -11  -5   17.11    3.04
   1  11  -5   22.65    3.04
   3  -7   6    8.58    2.11
  -3   7  -6    6.60    2.29
   2  -8   6    3.50    1.77
  -2   8   6    4.84    2.05
  -2   8   6    4.67    1.58
   2  -8   6    2.40    2.31
   2  -8  -6    6.36    1.51
   2  -8  -6    1.91    1.21
  -2   8  -6    5.98    2.31
  -2   8  -6    3.57    2.49
   2  -8  -6    8.09    2.08
  -2   8  -6    3.75    2.51
   1  -9   6    4.69    1.93
   1  -9   6    4.42    2.35
  -1   9   6    7.27    1.93
  -1   9   6    0.26    2.36
   1  -9   6    1.66    1.98
   1  -9  -6    3.26    2.06
  -1   9  -6    6.31    2.63
   1  -9  -6    5.00    1.82
   0 -10   6    1.46    2.05
   0 -10   6    3.44    2.46
   0 -10   6    1.57    2.03
   0  10   6   -3.53    2.38
   0  10  -6    7.33    4.35
   0  10  -6    2.65    2.21
   0 -10  -6    1.06    1.97
   0  10  -6    4.68    2.57
  -1 -11  -6    2.81    3.01
   1  11  -6    4.48    2.76
   3  -7   7    3.21    2.08
  -3   7  -7   -2.10    2.32
  -2   8   7   25.74    2.88
   2  -8   7   20.48    3.28
   2  -8   7   23.77    2.74
  -2   8   7   20.89    2.32
  -2   8  -7   22.15    3.09
   2  -8  -7   17.05    1.87
  -2   8  -7   20.36    3.32
   2  -8  -7   21.50    2.04
  -1   9   7   12.36    2.01
   1  -9   7   10.33    2.32
   1  -9   7   11.89    2.29
  -1   9   7   13.45    2.71
   1  -9   7   10.93    2.13
  -1   9   7    7.46    2.54
   1  -9  -7   12.43    2.45
  -1   9  -7   11.82    2.16
   0 -10   7    1.55    2.67
   0 -10   7    0.98    2.21
   0 -10   7   -1.72    2.12
   0  10  -7   -0.65    2.24
   0 -10  -7    0.02    2.38
   0  10  -7   -3.94    2.51
  -1 -11   7    5.07    2.88
   1  11   7    0.40    3.54
   3  -7   8    7.75    2.41
  -3   7  -8    3.91    2.70
   2  -8   8    2.83    1.84
  -2   8   8    3.46    1.54
  -2   8   8    6.34    2.20
  -2   8  -8    1.74    2.86
   2  -8  -8    0.87    1.69
   2  -8  -8    2.85    1.26
  -1   9   8    4.22    2.05
   1  -9   8   -2.95    1.92
  -1   9   8   -1.06    2.30
  -1   9   8    4.13    2.98
   1  -9   8    3.84    2.09
  -1   9  -8    0.70    2.06
   1  -9  -8    0.24    1.60
   1  -9  -8   -0.13    2.91
   0 -10   8   -1.43    2.13
   0 -10   8    2.55    2.14
   0  10   8   -0.66    2.40
   0  10  -8    0.43    2.21
   0 -10  -8   -1.47    2.43
   0  10  -8   -1.24    2.63
   1  11   8    2.09    3.31
  -1 -11   8    9.35    2.88
   1  11  -8    3.39    2.97
  -1 -11  -8    2.28    3.02
   3  -7   9   10.08    2.64
  -3   7  -9    4.88    2.68
  -2   8   9   11.58    1.71
  -2   8   9   11.67    1.97
   2  -8   9    7.87    2.01
   2  -8  -9   12.97    1.58
   2  -8  -9    9.85    1.76
  -2   8  -9    9.20    3.57
  -1   9   9   32.57    4.10
   1  -9   9   24.89    3.16
   1  -9   9   32.56    3.26
  -1   9   9   28.48    3.32
  -1   9  -9   24.84    3.33
   1  -9  -9   30.60    2.81
   0  10   9   34.32    3.83
   0 -10   9   36.68    3.90
   0 -10   9   38.74    3.77
   0  10  -9   38.33    3.85
   0  10  -9   34.69    4.55
   0 -10  -9   42.82    3.61
   1  11   9    4.90    3.58
  -1 -11   9   10.14    2.93
  -1 -11  -9    9.35    3.07
   1  11  -9    5.50    3.19
   3  -7  10   13.40    2.68
  -3   7 -10    1.09    2.73
  -2   8  10    3.34    2.35
   2  -8  10    3.99    2.04
  -2   8  10    2.74    1.60
  -2   8 -10    8.36    4.53
   2  -8 -10    4.92    1.39
   2  -8 -10    5.26    1.89
  -1   9  10    3.50    2.04
   1  -9  10    5.00    2.10
   1  -9  10    7.21    2.16
   1  -9 -10    6.68    1.84
  -1   9 -10    8.38    2.27
   0 -10  10   -1.33    2.35
   0 -10  10    0.62    2.46
   0  10  10   -2.38    2.43
   0 -10 -10   -1.14    2.24
   0  10 -10    1.28    2.94
   0  10 -10    4.10    2.55
   3  -7  11   11.84    2.68
  -3   7 -11    0.52    3.00
  -2   8  11    2.08    2.10
  -2   8  11    4.34    1.64
   2  -8  11    0.54    2.37
  -2   8 -11   11.07    4.62
   2  -8 -11    5.27    1.46
   2  -8 -11    0.54    1.89
   1  -9  11    4.02    2.19
   1  -9  11   -0.75    2.10
  -1   9  11   -1.31    2.00
   1  -9 -11    3.60    1.85
  -1   9 -11    1.21    2.42
   0 -10  11    5.94    2.51
   0 -10  11    9.35    2.76
   0  10  11    4.97    2.73
   0 -10 -11    7.25    2.57
   0  10 -11    7.80    3.25
   0  10 -11   10.27    2.76
   3  -7  12   11.31    2.79
  -3   7 -12   -0.72    2.99
   2  -8  12    0.90    3.08
  -2   8  12    4.87    2.34
  -2   8 -12    7.93    4.45
   2  -8 -12    3.80    1.49
  -1   9  12   -1.98    2.06
   1  -9  12    2.09    2.35
   1  -9  12    3.79    2.54
  -1   9 -12    1.25    2.58
   1  -9 -12    4.94    1.91
   0  10  12   -1.20    2.66
   0 -10  12    4.55    2.66
   0 -10  12    1.50    2.50
   0  10 -12   -1.24    2.72
   0  10 -12    0.02    3.20
   0 -10 -12    3.81    2.48
  -3   7 -13   22.58    3.69
  -2   8  13   18.64    2.82
  -2   8 -13   11.51    3.73
   2  -8 -13   22.06    2.37
   1  -9  13    7.25    2.76
   1  -9  13    7.42    2.51
  -1   9  13    6.31    2.26
   1  -9 -13    2.13    1.99
  -1   9 -13    7.88    5.13
  -1   9 -13    0.99    3.17
   0 -10  13    2.02    2.65
   0  10  13   -1.23    2.82
   0 -10  13    2.04    3.00
   0  10 -13   -3.91    3.50
   0 -10 -13    2.68    2.60
   0  10 -13    5.92    2.97
   3  -7  14    7.68    2.75
  -3   7 -14   -2.62    3.67
   2  -8  14   -0.34    4.65
  -2   8 -14   -1.07    3.23
   2  -8 -14    0.90    1.59
  -1   9  14   17.17    2.36
   1  -9  14   16.43    3.23
   1  -9 -14   22.17    2.47
  -1   9 -14   13.04    5.10
   0  10  14    3.96    3.06
   0  10 -14   11.64    3.16
   0 -10 -14   13.85    2.76
   2  -8  15   -0.54    3.14
  -2   8 -15   -3.61    3.25
   2  -8 -15    0.26    1.69
  -1   9  15   -0.22    2.32
  -1   9 -15    4.82    4.14
   1  -9 -15    3.34    2.09
   0 -10  15    8.58    2.93
   0  10  15    2.81    3.17
   0 -10 -15   10.56    2.85
   2  -8  16    5.61    2.98
   2  -8 -16    7.41    1.90
  -2   8 -16    1.72    3.61
  -1   9  16    4.98    2.47
   1  -9 -16    9.30    2.36
  -1   9 -16    5.66    4.46
   2  -8  17   27.08    3.90
   2  -8 -17   13.89    2.13
  -2   8 -17   10.70    3.98
  -1   9  17   10.56    2.63
  -1   9 -17   17.66    4.35
   1  -9 -17   13.56    2.52
  -1   9  18    3.85    3.24
   1  -9 -18   10.10    2.72
   3  -8   0   10.57    1.97
  -3   8   0   12.19    2.16
  -2   9   0   20.17    2.55
   2  -9   0   19.01    2.10
   1 -10   0    8.22    3.24
  -1  10   0   14.23    2.78
   0  11   0    2.70    3.37
   0 -11   0    2.62    2.30
   3  -8   1   21.33    2.97
  -3   8   1   34.48    3.13
  -3   8  -1   29.58    3.19
   3  -8  -1   21.80    2.17
  -2   9   1    4.32    2.09
   2  -9   1    3.08    1.86
   2  -9  -1    4.61    1.72
  -2   9  -1    4.27    2.12
  -1  10   1    4.28    2.45
   1 -10  -1    5.84    1.99
   0 -11   1   14.69    2.57
   0 -11  -1   14.61    2.97
   0  11  -1    9.98    3.12
  -3   8   2    8.86    2.07
   3  -8   2    0.19    1.94
   3  -8  -2    5.07    1.72
  -3   8  -2    1.47    2.13
  -2   9   2    1.52    1.98
   2  -9   2    4.61    1.78
   2  -9  -2    3.99    1.75
  -2   9  -2    0.27    2.25
  -1  10   2    1.71    2.16
   1 -10   2   -1.56    1.98
   1 -10  -2    2.30    1.74
   0  11   2    5.70    3.27
   0 -11   2    2.48    2.41
   0  11  -2    2.82    2.98
   3  -8   3    8.62    2.17
  -3   8   3   14.60    2.21
   3  -8  -3   11.62    1.85
  -2   9   3    3.47    1.92
   2  -9   3    8.51    1.94
  -2   9  -3   -1.71    2.25
   2  -9  -3    0.34    1.66
   1 -10   3   19.02    2.54
  -1  10   3   15.54    2.47
   1 -10  -3   26.40    2.84
   0 -11   3   11.14    2.53
   0  11   3   20.75    3.60
   0 -11  -3   16.32    3.00
   0  11  -3   13.56    3.55
   3  -8   4    0.25    2.12
  -3   8  -4   -3.50    2.29
   3  -8  -4    6.20    1.81
  -2   9   4   11.67    2.19
   2  -9   4    8.15    2.03
   2  -9  -4    8.52    1.76
  -2   9  -4    8.50    2.50
  -1  10   4   21.29    2.72
   1 -10   4   21.04    2.66
  -1  10  -4   26.11    3.70
   1 -10  -4   23.01    2.97
   0  11   4    1.49    3.11
   0 -11   4   -1.52    2.40
   0  11  -4   -2.07    2.93
   0 -11  -4    1.94    2.24
   3  -8   5   21.51    2.60
  -3   8  -5   14.25    2.85
   3  -8  -5   20.36    2.09
  -2   9   5   12.58    2.11
   2  -9   5   13.80    2.19
  -2   9  -5   10.58    2.73
   2  -9  -5   14.05    1.82
   1 -10   5    1.05    1.96
  -1  10  -5   -1.95    2.68
   1 -10  -5    0.48    1.83
   0 -11   5   -0.62    2.37
   0  11   5    5.81    3.08
   0  11  -5    4.22    3.12
   0 -11  -5    1.77    2.40
   3  -8   6    2.14    2.29
  -3   8  -6   -3.88    2.59
   3  -8  -6   -1.56    1.68
  -2   9   6   12.55    2.05
   2  -9   6    7.66    2.26
  -2   9  -6   15.87    2.93
  -1  10   6   11.38    2.54
   1 -10   6    7.44    2.22
   1 -10  -6    9.32    2.01
  -1  10  -6    8.79    2.95
   0 -11   6   -2.99    2.57
   0  11   6    5.67    3.32
   0 -11  -6    3.44    2.41
   0  11  -6    2.62    3.26
   3  -8   7    3.66    2.51
  -3   8  -7    2.01    2.77
   2  -9   7    9.68    2.19
  -2   9   7   11.97    1.97
   2  -9  -7    8.94    1.74
  -2   9  -7   10.68    2.98
   1 -10   7   11.19    2.49
  -1  10   7   15.34    2.84
   1 -10  -7   11.23    2.26
  -1  10  -7   14.20    3.22
   0 -11   7    7.87    3.06
   0  11   7   11.45    3.36
   0  11  -7    4.82    3.39
   0 -11  -7   13.07    2.66
   3  -8   8   -2.28    2.37
  -3   8  -8   -1.57    2.79
   2  -9   8    1.27    2.07
  -2   9   8   -0.21    1.87
  -2   9  -8    0.19    2.91
   2  -9  -8    3.14    1.57
   1 -10   8    1.49    2.22
  -1  10   8    6.41    2.41
  -1  10  -8    0.47    2.96
   1 -10  -8    4.94    2.09
   0 -11   8    2.41    3.71
   0  11   8    0.26    3.14
   0 -11  -8    1.96    2.54
   0  11  -8   -0.09    3.44
   3  -8   9   19.47    2.87
  -3   8  -9   11.41    3.18
   2  -9   9   10.04    2.44
  -2   9   9   11.04    2.07
  -2   9  -9    7.93    3.04
   2  -9  -9   10.51    1.69
   1 -10   9    7.51    2.52
  -1  10   9    7.47    2.55
  -1  10  -9   -2.40    3.09
   1 -10  -9    4.72    2.15
   0  11   9    1.89    3.36
   0 -11  -9    8.57    2.70
   0  11  -9    6.33    3.69
   3  -8  10    3.78    2.96
  -3   8 -10    1.63    3.26
   2  -9  10    3.45    2.38
  -2   9  10    7.73    1.95
   2  -9 -10    9.35    1.73
  -2   9 -10    8.80    3.18
   1 -10  10   10.96    2.78
  -1  10  10   10.84    2.68
  -1  10 -10    2.48    3.25
   1 -10 -10    7.58    2.25
   0  11  10    0.69    3.18
   0  11 -10    1.13    3.85
   0 -11 -10   -0.84    2.69
   3  -8  11    6.62    3.07
  -2   9  11   11.64    2.18
   2  -9  11   10.93    2.62
  -2   9 -11   19.30    3.40
   2  -9 -11   19.67    2.63
   1 -10  11    3.54    2.68
  -1  10  11    7.66    2.70
   1 -10 -11    6.57    2.34
  -1  10 -11    3.87    3.56
   0  11  11   -1.24    3.23
   0 -11 -11    2.42    2.82
  -2   9  12    8.70    2.15
   2  -9  12    4.92    2.64
   2  -9 -12    6.78    1.87
   1 -10  12    3.60    2.90
  -1  10  12    1.61    2.69
  -1  10 -12    2.27    4.58
   1 -10 -12    3.51    2.43
   2  -9  13    3.84    3.08
   2  -9 -13    8.54    1.85
  -2   9 -13    6.38    3.43
   1 -10  13   21.75    3.21
  -1  10  13   14.02    3.13
  -1  10 -13   19.68    6.09
   1 -10 -13   14.16    2.73
   2  -9  14    8.32    3.24
   2  -9 -14    7.55    1.98
  -2   9 -14    5.38    3.72
   1 -10  14    1.70    2.77
  -1  10  14    2.37    2.86
  -1  10 -14   14.88    6.88
   1 -10 -14   -2.30    2.47
   3  -9   0   -1.77    2.06
  -3   9   0    5.18    2.54
   2 -10   0    0.19    2.09
  -2  10   0    3.72    2.74
   1 -11   0   -4.68    2.17
  -1  11   0    6.70    3.06
   0 -12   0   18.70    3.30
   0  12   0   17.95    4.23
  -3   9   1    3.17    2.57
   3  -9   1    5.47    2.22
  -3   9  -1   10.95    2.66
   3  -9  -1    5.10    2.17
  -2  10   1    1.36    2.67
   2 -10   1   -2.61    2.22
   2 -10  -1    0.83    2.04
  -2  10  -1    0.25    2.52
   1 -11   1    8.53    2.50
  -1  11   1   12.66    3.23
  -1  11  -1   12.87    3.38
   1 -11  -1    7.06    2.31
   0 -12   1   -1.41    2.79
   0 -12  -1    8.89    2.87
  -3   9   2    9.76    2.75
   3  -9   2    7.99    2.40
   3  -9  -2    8.51    2.17
  -3   9  -2    9.40    2.75
  -2  10   2   11.76    2.63
   2 -10   2   13.19    2.41
  -2  10  -2    7.66    2.94
   2 -10  -2   13.32    2.28
   1 -11   2    2.92    2.51
  -1  11   2    3.48    3.14
  -1  11  -2   -1.38    3.12
   1 -11  -2    3.46    2.51
  -3   9   3    3.25    2.75
   3  -9   3   -0.22    2.39
  -3   9  -3    0.27    2.74
   3  -9  -3    4.50    2.17
   2 -10   3    4.63    2.21
  -2  10   3   -2.25    2.43
  -2  10  -3   -4.05    2.70
   2 -10  -3   -2.62    1.97
   1 -11   3    0.02    2.54
  -1  11   3   -0.68    2.97
  -1  11  -3    1.13    3.14
   1 -11  -3    1.19    2.25
   3  -9   4    5.81    2.58
   3  -9  -4    5.76    2.41
  -3   9  -4    5.42    2.95
  -2  10   4    6.98    2.53
   2 -10   4    8.73    2.57
  -2  10  -4    3.58    3.02
   2 -10  -4    6.52    2.11
  -1  11   4    1.98    2.90
   1 -11   4    4.46    2.64
   1 -11  -4    6.19    2.17
  -1  11  -4   -0.49    3.20
  -2  10   5    0.26    2.43
   2 -10   5    2.62    2.33
  -2  10  -5   -6.72    2.93
   2 -10  -5    1.67    2.02
  -1  11   5   19.12    3.21
   1 -11   5   17.46    2.84
  -1  11  -5   15.04    3.50
   1 -11  -5   20.92    2.72
   2 -10   6    4.64    2.56
  -2  10   6    4.42    2.43
   2 -10  -6    3.76    2.03
  -2  10  -6    7.06    3.26
  -1  11   6   11.49    2.88
   1 -11   6    1.17    2.57
  -1  11  -6   -3.06    3.19
   1 -11  -6    2.50    2.40
   2 -10   7    8.04    2.81
  -2  10   7   11.96    2.51
  -2  10  -7   12.54    3.45
   1 -11   7    4.03    2.73
   1 -11  -7    1.72    2.33
  -1  11  -7    5.17    3.63
   2 -10   8    9.73    2.81
  -2  10   8   11.82    2.42
  -2  10  -8   10.45    3.85
   2 -10  -8    8.97    2.10
  -1  11   8   10.65    3.33
   1 -11   8    9.94    2.98
  -1  11  -8    7.75    3.64
   1 -11  -8    5.65    2.45
   2 -10   9    0.96    2.69
  -2  10   9   -0.14    2.30
   2 -10  -9    4.53    2.03
  -2  10  -9    1.30    3.74
   1 -11   9   11.10    3.21
  -1  11   9   11.10    3.36
  -1  11  -9    1.02    4.02
   1 -11  -9    9.57    2.72
   2 -10  10   -0.63    2.71
  -2  10  10    1.20    2.79
   2 -10 -10    5.82    2.30
  -2  10 -10    0.05    3.86
   0   0   0    0.00    0.00
;
_shelx_hkl_checksum              83416
_shelx_res_file
;
    tgn-20.res created by SHELXL-2014/7
TITL data in P2(1)2(1)2(1)
CELL 0.71073 3.7097 9.5406 22.8415 90 90 90
ZERR 4 0.0003 0.001 0.0021 0 0 0
LATT -1
SYMM 0.5+X,0.5-Y,-Z
SYMM -X,0.5+Y,0.5-Z
SYMM 0.5-X,-Y,0.5+Z
SFAC C H N O S
UNIT 32 24 16 4 4
EQIV $1 1-X,-0.5+Y,0.5-Z
L.S. 4
PLAN  -10 0 0
SIZE 0.215 0.239 0.818
TEMP -173.15
HTAB N2 N4_$1
BOND $H
CONF
MORE -1
fmap 2
acta
TWIN -1 0 0 0 -1 0 0 0 -1 2
REM <olex2.extras>
REM <HklSrc "%.\\data.hkl">
REM </olex2.extras>
WGHT    0.032300    0.397400
BASF   0.43797
FVAR       0.20879
S1    5    0.850698    0.568533    0.147859    11.00000    0.01309    0.00768 =
         0.01138    0.00017    0.00251   -0.00021
O1    4    1.055981    0.355834    0.083122    11.00000    0.01964    0.01186 =
         0.01142    0.00310    0.00181    0.00011
N1    3    1.057400   -0.135174    0.118006    11.00000    0.01582    0.01133 =
         0.01561   -0.00192    0.00339    0.00165
N2    3    0.785870    0.284627    0.166486    11.00000    0.01138    0.00840 =
         0.01094    0.00010    0.00364   -0.00070
AFIX  43
H2    2    0.712140    0.213474    0.187879    11.00000   -1.20000
AFIX   0
N3    3    0.568839    0.443004    0.235988    11.00000    0.01555    0.01031 =
         0.01176   -0.00209    0.00164    0.00081
N4    3    0.540937    0.585497    0.247004    11.00000    0.01836    0.00685 =
         0.01242   -0.00023    0.00034    0.00192
C1    1    1.194456   -0.152937    0.064612    11.00000    0.01088    0.01142 =
         0.01658   -0.00398    0.00105    0.00280
AFIX  43
H1    2    1.257083   -0.245343    0.052922    11.00000   -1.20000
AFIX   0
C2    1    1.250846   -0.046089    0.025432    11.00000    0.01423    0.01718 =
         0.01089   -0.00234    0.00264   -0.00053
AFIX  43
H2A   2    1.343881   -0.064688   -0.012530    11.00000   -1.20000
AFIX   0
C3    1    1.169563    0.088413    0.042411    11.00000    0.00816    0.01334 =
         0.01137    0.00022   -0.00054    0.00069
AFIX  43
H3    2    1.207508    0.164800    0.016453    11.00000   -1.20000
AFIX   0
C4    1    0.976704   -0.004008    0.133762    11.00000    0.01105    0.01461 =
         0.01173   -0.00337    0.00362   -0.00096
AFIX  43
H4    2    0.876538    0.011178    0.171511    11.00000   -1.20000
AFIX   0
C5    1    1.031734    0.110849    0.097844    11.00000    0.00771    0.01063 =
         0.01241    0.00139   -0.00265    0.00103
C6    1    0.959925    0.259041    0.114609    11.00000    0.00843    0.01122 =
         0.00964   -0.00115   -0.00212   -0.00055
C7    1    0.723450    0.420120    0.185989    11.00000    0.01149    0.01066 =
         0.01157    0.00140   -0.00055    0.00081
C8    1    0.674281    0.660594    0.205261    11.00000    0.01495    0.00940 =
         0.01130    0.00080   -0.00363    0.00047
AFIX  43
H8    2    0.674293    0.760132    0.206388    11.00000   -1.20000
AFIX   0
HKLF 4
REM  data in P2(1)2(1)2(1)
REM R1 =  0.0441 for    1396 Fo > 4sig(Fo)  and  0.0655 for all    1693 data
REM    128 parameters refined using      0 restraints
END
WGHT      0.0321      0.4039
REM Highest difference peak  0.299,  deepest hole -0.369,  1-sigma level  0.075
Q1    1   0.8939  0.4810  0.1740  11.00000  0.05    0.30
Q2    1   0.7020  0.4896  0.1658  11.00000  0.05    0.30
Q3    1   1.3862 -0.0964  0.1236  11.00000  0.05    0.29
Q4    1   0.9109  0.1830  0.1014  11.00000  0.05    0.29
Q5    1   0.7580  0.4355  0.2110  11.00000  0.05    0.28
Q6    1   0.2923  0.5226  0.2816  11.00000  0.05    0.27
Q7    1   1.3308 -0.2428  0.0837  11.00000  0.05    0.26
Q8    1   0.7780  0.7159  0.2086  11.00000  0.05    0.26
Q9    1   0.5067  0.5914  0.1489  11.00000  0.05    0.26
Q10   1   0.4813  0.5609  0.1450  11.00000  0.05    0.26
;
_shelx_res_checksum              33
loop_
_space_group_symop_operation_xyz
'x, y, z'
'x+1/2, -y+1/2, -z'
'-x, y+1/2, -z+1/2'
'-x+1/2, -y, z+1/2'
loop_
_atom_site_type_symbol
_atom_site_label
_atom_site_fract_x
_atom_site_fract_y
_atom_site_fract_z
_atom_site_U_iso_or_equiv
_atom_site_adp_type
_atom_site_calc_flag
_atom_site_occupancy
S S1 0.8507(3) 0.56853(10) 0.14786(4) 0.0107(2) Uani d 1
O O1 1.0560(7) 0.3558(2) 0.08312(10) 0.0143(7) Uani d 1
N N1 1.0574(9) -0.1352(3) 0.11801(13) 0.0143(8) Uani d 1
N N2 0.7859(8) 0.2846(3) 0.16649(12) 0.0102(8) Uani d 1
H H2 0.7121 0.2135 0.1879 0.012 Uiso calc 1
N N3 0.5688(9) 0.4430(3) 0.23599(12) 0.0125(8) Uani d 1
N N4 0.5409(9) 0.5855(3) 0.24700(12) 0.0125(7) Uani d 1
C C1 1.1945(11) -0.1529(4) 0.06461(16) 0.0130(9) Uani d 1
H H1 1.2571 -0.2453 0.0529 0.016 Uiso calc 1
C C2 1.2508(10) -0.0461(4) 0.02543(16) 0.0141(9) Uani d 1
H H2A 1.3439 -0.0647 -0.0125 0.017 Uiso calc 1
C C3 1.1696(10) 0.0884(4) 0.04241(14) 0.0110(8) Uani d 1
H H3 1.2075 0.1648 0.0165 0.013 Uiso calc 1
C C4 0.9767(10) -0.0040(4) 0.13376(16) 0.0125(9) Uani d 1
H H4 0.8765 0.0112 0.1715 0.015 Uiso calc 1
C C5 1.0317(10) 0.1108(3) 0.09784(15) 0.0102(9) Uani d 1
C C6 0.9599(10) 0.2590(4) 0.11461(15) 0.0098(9) Uani d 1
C C7 0.7235(10) 0.4201(4) 0.18599(14) 0.0112(8) Uani d 1
C C8 0.6743(11) 0.6606(4) 0.20526(14) 0.0119(8) Uani d 1
H H8 0.6743 0.7601 0.2064 0.014 Uiso calc 1
loop_
_atom_site_aniso_label
_atom_site_aniso_U_11
_atom_site_aniso_U_22
_atom_site_aniso_U_33
_atom_site_aniso_U_12
_atom_site_aniso_U_13
_atom_site_aniso_U_23
S1 0.0131(5) 0.0077(4) 0.0114(4) -0.0002(4) 0.0025(5) 0.0002(4)
O1 0.0196(17) 0.0119(13) 0.0114(13) 0.0001(12) 0.0018(12) 0.0031(11)
N1 0.016(2) 0.0113(16) 0.0156(18) 0.0016(15) 0.0034(15) -0.0019(13)
N2 0.0114(19) 0.0084(15) 0.0109(17) -0.0007(13) 0.0036(14) 0.0001(12)
N3 0.016(2) 0.0103(17) 0.0118(16) 0.0008(16) 0.0016(14) -0.0021(13)
N4 0.0184(19) 0.0068(15) 0.0124(15) 0.0019(14) 0.0003(14) -0.0002(13)
C1 0.011(2) 0.0114(18) 0.017(2) 0.0028(17) 0.0010(18) -0.0040(15)
C2 0.014(2) 0.017(2) 0.0109(18) -0.0005(16) 0.0026(16) -0.0023(16)
C3 0.008(2) 0.0133(19) 0.0114(18) 0.0007(18) -0.0005(17) 0.0002(15)
C4 0.011(2) 0.0146(19) 0.012(2) -0.0010(17) 0.0036(16) -0.0034(15)
C5 0.008(2) 0.0106(19) 0.0124(19) 0.0010(14) -0.0027(16) 0.0014(14)
C6 0.008(2) 0.0112(19) 0.010(2) -0.0005(16) -0.0021(16) -0.0011(15)
C7 0.011(2) 0.0107(18) 0.0116(19) 0.0008(17) -0.0005(15) 0.0014(16)
C8 0.015(2) 0.0094(18) 0.0113(19) 0.0005(18) -0.0036(19) 0.0008(15)
loop_
_atom_type_symbol
_atom_type_description
_atom_type_scat_dispersion_real
_atom_type_scat_dispersion_imag
_atom_type_scat_source
C C 0.0033 0.0016 'International Tables Vol C Tables 4.2.6.8 and 6.1.1.4'
H H 0.0000 0.0000 'International Tables Vol C Tables 4.2.6.8 and 6.1.1.4'
N N 0.0061 0.0033 'International Tables Vol C Tables 4.2.6.8 and 6.1.1.4'
O O 0.0106 0.0060 'International Tables Vol C Tables 4.2.6.8 and 6.1.1.4'
S S 0.1246 0.1234 'International Tables Vol C Tables 4.2.6.8 and 6.1.1.4'
loop_
_geom_angle_atom_site_label_1
_geom_angle_atom_site_label_2
_geom_angle_atom_site_label_3
_geom_angle
C8 S1 C7 85.98(18)
C1 N1 C4 116.8(3)
C6 N2 H2 119.3
C6 N2 C7 121.5(3)
C7 N2 H2 119.3
C7 N3 N4 111.0(3)
C8 N4 N3 112.4(3)
N1 C1 H1 118.0
N1 C1 C2 124.1(3)
C2 C1 H1 118.0
C1 C2 H2A 120.8
C1 C2 C3 118.4(3)
C3 C2 H2A 120.8
C2 C3 H3 120.5
C2 C3 C5 119.0(3)
C5 C3 H3 120.5
N1 C4 H4 118.4
N1 C4 C5 123.3(3)
C5 C4 H4 118.4
C3 C5 C4 118.4(3)
C3 C5 C6 116.7(3)
C4 C5 C6 125.0(3)
O1 C6 N2 120.7(3)
O1 C6 C5 120.9(3)
N2 C6 C5 118.4(3)
N2 C7 S1 123.8(3)
N3 C7 S1 115.3(3)
N3 C7 N2 120.9(3)
S1 C8 H8 122.3
N4 C8 S1 115.4(3)
N4 C8 H8 122.3
loop_
_geom_bond_atom_site_label_1
_geom_bond_atom_site_label_2
_geom_bond_distance
S1 C7 1.728(4)
S1 C8 1.708(4)
O1 C6 1.224(4)
N1 C1 1.332(5)
N1 C4 1.336(4)
N2 H2 0.8800
N2 C6 1.371(4)
N2 C7 1.387(4)
N3 N4 1.386(4)
N3 C7 1.297(4)
N4 C8 1.291(5)
C1 H1 0.9500
C1 C2 1.373(5)
C2 H2A 0.9500
C2 C3 1.374(5)
C3 H3 0.9500
C3 C5 1.382(5)
C4 H4 0.9500
C4 C5 1.384(5)
C5 C6 1.489(5)
C8 H8 0.9500
loop_
_geom_hbond_atom_site_label_D
_geom_hbond_atom_site_label_H
_geom_hbond_atom_site_label_A
_geom_hbond_site_symmetry_A
_geom_hbond_distance_DH
_geom_hbond_distance_HA
_geom_hbond_distance_DA
_geom_hbond_angle_DHA
N2 H2 N4 3_645 0.88 2.14 2.997(4) 164.1
loop_
_geom_torsion_atom_site_label_1
_geom_torsion_atom_site_label_2
_geom_torsion_atom_site_label_3
_geom_torsion_atom_site_label_4
_geom_torsion
N1 C1 C2 C3 1.6(6)
N1 C4 C5 C3 1.5(6)
N1 C4 C5 C6 -177.3(4)
N3 N4 C8 S1 -0.2(4)
N4 N3 C7 S1 0.2(4)
N4 N3 C7 N2 178.8(3)
C1 N1 C4 C5 -0.6(6)
C1 C2 C3 C5 -0.6(5)
C2 C3 C5 C4 -0.9(5)
C2 C3 C5 C6 178.0(3)
C3 C5 C6 O1 -7.8(5)
C3 C5 C6 N2 172.8(3)
C4 N1 C1 C2 -1.0(6)
C4 C5 C6 O1 171.1(4)
C4 C5 C6 N2 -8.4(5)
C6 N2 C7 S1 0.6(5)
C6 N2 C7 N3 -177.8(3)
C7 S1 C8 N4 0.3(3)
C7 N2 C6 O1 -2.2(5)
C7 N2 C6 C5 177.3(3)
C7 N3 N4 C8 0.0(4)
C8 S1 C7 N2 -178.8(3)
C8 S1 C7 N3 -0.3(3)

_cod_database_fobs_code 2020299
