#------------------------------------------------------------------------------
#$Date: 2015-10-24 04:05:49 +0300 (Sat, 24 Oct 2015) $
#$Revision: 169730 $
#$URL: svn://www.crystallography.net/cod/cif/2/02/02/2020274.cif $
#------------------------------------------------------------------------------
#
# This file is available in the Crystallography Open Database (COD),
# http://www.crystallography.net/. The original data for this entry
# were provided by IUCr Journals, http://journals.iucr.org/.
#
# The file may be used within the scientific community so long as
# proper attribution is given to the journal article from which the
# data were obtained.
#
data_2020274
loop_
_publ_author_name
'Pukas, Svitlana'
'Gladyshevskii, Roman'
_publ_section_title
;
 The new structure type Gd~3~Ni~7~Al~14~
;
_journal_coeditor_code           KU3165
_journal_issue                   11
_journal_name_full               'Acta Crystallographica Section C'
_journal_page_first
;
;
_journal_paper_doi               10.1107/S2053229615018082
_journal_volume                  71
_journal_year                    2015
_chemical_formula_iupac          'Gd3 Ni7 Al14'
_chemical_formula_moiety         'Al14 Gd3 Ni7'
_chemical_formula_sum            'Al14 Gd3 Ni7'
_chemical_formula_weight         1260.44
_chemical_name_common            aluminide
_chemical_name_systematic
;
Trigadolinium heptanickel tetradecaaluminide
;
_space_group_crystal_system      hexagonal
_space_group_IT_number           189
_space_group_name_Hall           'P -6 -2'
_space_group_name_H-M_alt        'P -6 2 m'
_symmetry_space_group_name_Hall  'P -6 -2'
_symmetry_space_group_name_H-M   'P -6 2 m'
_audit_creation_method           SHELXL-2014
_cell_angle_alpha                90
_cell_angle_beta                 90
_cell_angle_gamma                120
_cell_formula_units_Z            3
_cell_length_a                   17.966(5)
_cell_length_b                   17.966(5)
_cell_length_c                   4.0448(6)
_cell_measurement_reflns_used    25
_cell_measurement_temperature    293(2)
_cell_measurement_theta_max      12.92
_cell_measurement_theta_min      5.52
_cell_volume                     1130.7(5)
_computing_cell_refinement
;
CAD-4 EXPRESS (Enraf--Nonius, 1994)
;
_computing_data_collection
;
CAD-4 EXPRESS (Enraf--Nonius, 1994)
;
_computing_data_reduction
;
XCAD4 (Harms & Wocadlo, 1995)
;
_computing_molecular_graphics
;
<i>ATOMS</i> (Dowty, 1999)
;
_computing_publication_material
;
SHELXL2014 (Sheldrick, 2015)
;
_computing_structure_refinement
;
SHELXL2014 (Sheldrick, 2015)
;
_computing_structure_solution
;
SHELXL97 (Sheldrick, 2008)
;
_diffrn_ambient_temperature      293(2)
_diffrn_measured_fraction_theta_full 0.982
_diffrn_measured_fraction_theta_max 0.986
_diffrn_measurement_device_type  'Enraf--Nonius CAD-4T'
_diffrn_measurement_method       \w/2\q
_diffrn_radiation_type           MoK\a
_diffrn_radiation_wavelength     0.71073
_diffrn_reflns_av_R_equivalents  0.0663
_diffrn_reflns_limit_h_max       24
_diffrn_reflns_limit_h_min       -28
_diffrn_reflns_limit_k_max       28
_diffrn_reflns_limit_k_min       -3
_diffrn_reflns_limit_l_max       6
_diffrn_reflns_limit_l_min       -6
_diffrn_reflns_number            8229
_diffrn_reflns_theta_full        25.242
_diffrn_reflns_theta_max         34.986
_diffrn_reflns_theta_min         2.267
_diffrn_standards_decay_%        12
_diffrn_standards_interval_time  120
_diffrn_standards_number         2
_exptl_absorpt_coefficient_mu    22.314
_exptl_absorpt_correction_T_max  0.7990
_exptl_absorpt_correction_T_min  0.4070
_exptl_absorpt_correction_type   multi-scan
_exptl_absorpt_process_details
;
(SORTAV; Blessing, 1995)
;
_exptl_crystal_colour            metallic-grey
_exptl_crystal_density_diffrn    5.554
_exptl_crystal_density_method    'not measured'
_exptl_crystal_description       needle
_exptl_crystal_F_000             1710
_exptl_crystal_size_max          0.10
_exptl_crystal_size_mid          0.02
_exptl_crystal_size_min          0.02
_refine_diff_density_max         1.302
_refine_diff_density_min         -1.586
_refine_ls_abs_structure_details
;
Flack <i>x</i> parameter determined using 647 quotients
[(I^+^) - (I^-^)]/[(I^+^) + (I^-^)] (Parsons <i>et al.</i>,  2013)
;
_refine_ls_abs_structure_Flack   -0.040(17)
_refine_ls_extinction_method     none
_refine_ls_goodness_of_fit_ref   0.805
_refine_ls_hydrogen_treatment    undef
_refine_ls_matrix_type           full
_refine_ls_number_parameters     81
_refine_ls_number_reflns         1834
_refine_ls_number_restraints     0
_refine_ls_restrained_S_all      0.805
_refine_ls_R_factor_all          0.0322
_refine_ls_R_factor_gt           0.0226
_refine_ls_shift/su_max          0.000
_refine_ls_shift/su_mean         0.000
_refine_ls_structure_factor_coef Fsqd
_refine_ls_weighting_details
'w = 1/[\s^2^(Fo^2^)+(0.0050P)^2^] where P=(Fo^2^+2Fc^2^)/3'
_refine_ls_weighting_scheme      calc
_refine_ls_wR_factor_gt          0.0296
_refine_ls_wR_factor_ref         0.0306
_reflns_number_gt                1575
_reflns_number_total             1834
_reflns_threshold_expression     I>2\s(I)
_cod_data_source_file            ku3165sup1.cif
_cod_data_source_block           I
_cod_original_cell_volume        1130.6(7)
_cod_database_code               2020274
_shelx_space_group_comment
;
The symmetry employed for this shelxl refinement is uniquely defined
by the following loop, which should always be used as a source of
symmetry information in preference to the above space-group names.
They are only intended as comments.
;
_shelx_hkl_file
;
   0   0  -8  585.31   36.27   1
  -1   3  -8    1.95   17.11   1
 -12  17  -7   12.55   11.45   1
 -11  17  -7    5.08   10.18   1
 -10  17  -7   50.88   11.26   1
  -7  17  -7   46.72   11.57   1
  -3  16  -7   95.79   11.39   1
 -13  16  -7   97.89   12.18   1
 -15  15  -7  107.87   13.46   1
 -10  15  -7   20.21   11.19   1
  -5  15  -7   43.88   10.95   1
   0  15  -7  114.30   13.38   1
  -2  14  -7   14.18    9.23   1
  -3  14  -7    9.77    9.63   1
  -4  14  -7    8.61   10.05   1
  -5  14  -7   11.98    9.31   1
  -6  14  -7   60.61   10.42   1
  -8  14  -7   46.42   12.14   1
 -11  14  -7   13.09   10.82   1
 -16  13  -7   78.80   12.20   1
 -12  13  -7   53.66   13.28   1
 -10  13  -7   29.00   11.46   1
  -1  13  -7   47.00    9.41   1
   1  13  -7    1.04    9.00   1
   3  13  -7   83.17   10.33   1
   1  12  -7   39.76   11.25   1
  -1  12  -7   94.93   10.46   1
  -3  12  -7   32.09    9.86   1
  -4  12  -7   97.85   10.66   1
  -5  12  -7   46.30   10.62   1
  -6  12  -7   21.33   10.75   1
  -7  12  -7   46.35   10.87   1
  -8  12  -7   78.22   10.87   1
  -9  12  -7   32.19   11.04   1
 -11  12  -7   78.62   12.18   1
 -12  12  -7   14.41   10.54   1
 -13  12  -7   57.57   13.47   1
 -15  11  -7    0.54   11.82   1
 -12  11  -7   74.39   12.52   1
 -11  11  -7   30.75   10.87   1
  -8  11  -7   27.81   10.52   1
  -7  11  -7   31.09   10.91   1
  -6  11  -7   46.01   11.18   1
  -5  11  -7   50.30   10.65   1
  -4  11  -7   10.68   10.41   1
  -3  11  -7   30.64   10.84   1
   0  11  -7   41.88   11.64   1
   1  11  -7  105.44   13.13   1
   4  11  -7    4.49   18.13   1
   5  10  -7   27.27   17.66   1
   4  10  -7    7.71   16.67   1
   3  10  -7   19.50   14.64   1
   2  10  -7    1.78   13.11   1
  -1  10  -7   55.50   12.76   1
  -3  10  -7   55.36   10.92   1
  -7  10  -7   52.06   11.64   1
  -8  10  -7   16.53   10.75   1
  -9  10  -7   38.36   11.25   1
 -11  10  -7    2.43   10.54   1
 -13  10  -7   37.19   12.41   1
 -15  10  -7   36.41   13.53   1
 -15   9  -7   20.41   12.67   1
 -12   9  -7   22.80   12.62   1
 -10   9  -7   52.59   12.37   1
  -8   9  -7   54.67   11.37   1
  -5   9  -7   20.14   11.05   1
  -4   9  -7   15.32   12.18   1
  -3   9  -7   28.64   12.43   1
  -1   9  -7   25.27   14.56   1
   0   9  -7   19.50   15.38   1
   1   9  -7   42.32   14.64   1
   2   9  -7   14.76   14.57   1
   3   9  -7   41.36   16.17   1
   4   8  -7   69.75   19.33   1
   3   8  -7   23.17   16.34   1
   1   8  -7   33.24   15.19   1
  -1   8  -7    0.74   12.10   1
  -3   8  -7   14.36   13.37   1
  -8   8  -7    3.61   11.69   1
  -9   8  -7   52.21   12.83   1
 -10   8  -7   18.43   10.86   1
 -11   8  -7   24.06   12.66   1
 -12   8  -7   89.59   13.92   1
 -14   8  -7   46.62   13.73   1
 -17   8  -7    6.75   13.38   1
 -17   7  -7   36.52   15.31   1
 -14   7  -7   14.67   13.24   1
 -10   7  -7   40.80   12.83   1
  -9   7  -7    3.75   11.85   1
  -5   7  -7   46.95   12.27   1
  -3   7  -7   16.72   12.35   1
  -2   7  -7   41.66   14.25   1
   1   7  -7    0.77   16.16   1
   3   7  -7   30.77   16.67   1
   5   7  -7   34.22   18.27   1
   7   7  -7   27.55   17.52   1
  10   7  -7   44.48   16.68   1
  11   6  -7    7.96   15.77   1
   8   6  -7   56.18   20.44   1
   4   6  -7    8.67   17.11   1
   0   6  -7   38.39   16.07   1
  -1   6  -7  120.22   18.01   1
  -2   6  -7   45.10   16.43   1
  -3   6  -7   32.23   15.85   1
  -4   6  -7   63.93   13.61   1
  -5   6  -7  121.89   15.23   1
  -6   6  -7   45.26   13.12   1
  -9   6  -7   26.93   12.19   1
 -11   6  -7   33.69   13.72   1
 -13   6  -7   27.60   13.15   1
 -14   6  -7   76.71   14.43   1
 -17   6  -7   18.03   13.86   1
 -16   5  -7   15.51   14.30   1
 -12   5  -7   55.30   13.57   1
 -10   5  -7   24.59   11.84   1
  -9   5  -7   25.30   13.04   1
  -7   5  -7   54.86   13.10   1
  -6   5  -7   92.05   15.68   1
  -5   5  -7  109.76   16.63   1
  -4   5  -7    0.02   13.57   1
  -2   5  -7   25.15   13.58   1
   0   5  -7  105.43   18.98   1
   1   5  -7  108.85   19.59   1
   2   5  -7   27.79   19.12   1
   3   5  -7    6.17   15.11   1
   7   5  -7   37.31   19.68   1
  12   5  -7   21.14   14.92   1
   8   4  -7   82.73   20.49   1
   7   4  -7   27.11   18.97   1
   5   4  -7   23.07   18.53   1
   2   4  -7   31.29   18.97   1
  -2   4  -7  197.10   19.86   1
  -3   4  -7    3.10   13.58   1
  -6   4  -7   35.58   16.20   1
  -8   4  -7    0.68   12.85   1
 -12   4  -7   66.90   15.46   1
 -16   3  -7   83.56   15.88   1
 -14   3  -7    2.24   13.11   1
 -13   3  -7   42.46   13.39   1
 -11   3  -7   23.30   13.93   1
 -10   3  -7   36.71   14.65   1
  -9   3  -7    7.73   12.57   1
  -6   3  -7   46.89   16.85   1
  -5   3  -7   23.39   14.16   1
   2   3  -7   19.09   17.61   1
   3   3  -7   32.00   18.22   1
   5   3  -7    2.20   17.86   1
   7   3  -7   57.66   19.08   1
   8   3  -7   20.50   18.51   1
   9   3  -7   22.07   18.48   1
  13   3  -7   90.83   19.72   1
  14   2  -7    7.84   16.02   1
  10   2  -7    2.68   16.99   1
   9   2  -7    8.24   17.47   1
   4   2  -7   65.27   18.84   1
   2   2  -7  200.46   20.88   1
   1   2  -7    3.73   14.58   1
   0   2  -7    5.91   15.34   1
  -1   2  -7   42.93   16.40   1
  -4   2  -7  142.69   18.96   1
  -6   2  -7   42.10   16.14   1
  -7   2  -7   40.28   15.12   1
 -10   2  -7    7.37   13.05   1
 -15   2  -7    5.87   13.97   1
 -13   1  -7   39.34   13.97   1
 -12   1  -7   75.52   15.12   1
  -9   1  -7   35.20   14.52   1
  -6   1  -7   97.52   16.69   1
  -2   1  -7   48.66   16.11   1
   1   1  -7   41.96   16.08   1
   5   1  -7  121.66   20.19   1
   8   1  -7   48.49   17.72   1
   9   1  -7   43.29   20.36   1
  11   1  -7   55.25   20.50   1
  15   0  -7   79.92   19.66   1
  14   0  -7   25.16   18.08   1
  11   0  -7   42.64   17.45   1
   9   0  -7   41.90   19.25   1
   6   0  -7   56.12   17.55   1
   5   0  -7   89.68   22.02   1
   2   0  -7    1.94   16.05   1
  -5   0  -7  118.42   17.96   1
  -9   0  -7   38.75   13.54   1
 -11   0  -7   33.22   13.43   1
 -14   0  -7   28.09   14.01   1
 -15   0  -7   87.78   14.49   1
 -20   0  -6    0.39   12.53   1
 -18   0  -6   14.20   11.89   1
 -14   0  -6   15.14   11.87   1
 -13   0  -6   55.25   12.21   1
 -12   0  -6   19.32   10.66   1
 -10   0  -6   63.87   12.39   1
  -9   0  -6   12.26   11.51   1
  -8   0  -6   11.99   10.72   1
  -6   0  -6  119.30   14.25   1
  -3   0  -6   57.05   13.27   1
   0   0  -6 1807.87   39.08   1
   3   0  -6   49.00   14.24   1
   4   0  -6   22.99   13.75   1
   6   0  -6  136.86   17.29   1
   8   0  -6    3.18   13.31   1
   9   0  -6   14.29   14.72   1
  10   0  -6   72.72   17.65   1
  12   0  -6   29.43   16.13   1
  13   0  -6   31.46   16.92   1
  14   0  -6   26.75   16.75   1
  20   1  -6   34.50   11.71   1
  19   1  -6   27.39   12.53   1
  17   1  -6   41.39   14.27   1
  14   1  -6   75.65   17.79   1
  12   1  -6   83.51   16.97   1
  11   1  -6  114.36   17.66   1
   8   1  -6   58.70   15.86   1
   7   1  -6    5.56   14.45   1
   6   1  -6   89.85   15.42   1
   4   1  -6   61.42   14.43   1
   3   1  -6   21.58   13.37   1
   2   1  -6   12.57   13.70   1
   0   1  -6    0.21   12.53   1
  -3   1  -6   19.49   12.29   1
  -5   1  -6   61.87   12.93   1
  -7   1  -6   80.47   12.53   1
  -9   1  -6   51.00   11.16   1
 -10   1  -6   19.09   11.34   1
 -12   1  -6  136.44   13.15   1
 -13   1  -6   88.46   13.64   1
 -14   1  -6    5.20   11.37   1
 -15   1  -6   76.58   14.87   1
 -16   1  -6    3.46   10.82   1
 -17   1  -6   13.23   12.38   1
 -18   1  -6   54.85   13.35   1
 -20   1  -6   30.45   12.61   1
 -21   2  -6   80.51   15.10   1
 -20   2  -6   16.05   13.10   1
 -19   2  -6   36.33   13.76   1
 -18   2  -6   71.07   14.81   1
 -17   2  -6    3.10   12.70   1
 -16   2  -6    1.12   12.00   1
 -15   2  -6   13.93   11.36   1
 -14   2  -6   11.94   10.54   1
 -13   2  -6   61.11   12.27   1
 -12   2  -6   50.32   11.57   1
  -9   2  -6   41.22   11.69   1
  -8   2  -6   50.21   13.31   1
  -4   2  -6   13.50   12.27   1
  -3   2  -6   11.85   11.84   1
   2   2  -6   30.05   12.93   1
   5   2  -6   41.73   14.53   1
   6   2  -6   53.65   15.45   1
   7   2  -6   30.75   15.03   1
   8   2  -6   19.30   16.48   1
  12   2  -6    7.50   14.32   1
  13   2  -6    6.40   14.41   1
  16   2  -6   49.93   14.31   1
  19   2  -6   52.96   12.78   1
  15   3  -6   13.54   13.15   1
  14   3  -6   15.50   15.43   1
  13   3  -6   31.86   17.13   1
  11   3  -6   13.32   14.43   1
   8   3  -6   71.96   17.75   1
   6   3  -6   15.80   14.86   1
   5   3  -6   94.66   15.95   1
   4   3  -6  132.42   16.56   1
   3   3  -6   21.71   13.82   1
   0   3  -6   39.93   13.55   1
  -3   3  -6   41.95   12.23   1
  -7   3  -6  137.96   13.69   1
  -8   3  -6   78.24   11.87   1
  -9   3  -6   35.45   11.20   1
 -11   3  -6   52.78   13.02   1
 -12   3  -6    4.35    9.75   1
 -13   3  -6   74.33   12.36   1
 -14   3  -6   30.80   11.33   1
 -16   3  -6   57.42   13.44   1
 -18   3  -6   25.81   12.92   1
 -22   4  -6   14.21   11.83   1
 -20   4  -6   34.32   13.27   1
 -18   4  -6    0.02   10.80   1
 -17   4  -6   34.87   13.64   1
 -15   4  -6   55.05   13.76   1
 -14   4  -6   22.44   11.04   1
 -13   4  -6   13.47   11.08   1
 -11   4  -6   60.68   12.17   1
 -10   4  -6   43.53   11.05   1
  -9   4  -6   19.97   10.91   1
  -8   4  -6   83.84   12.60   1
  -7   4  -6  136.64   12.85   1
  -5   4  -6   71.00   12.29   1
  -4   4  -6   29.95   11.41   1
  -2   4  -6   13.64   12.17   1
   0   4  -6   15.12   12.64   1
   1   4  -6   66.42   13.67   1
   2   4  -6    3.30   12.22   1
   3   4  -6  111.38   16.26   1
   4   4  -6  106.27   15.15   1
   7   4  -6   50.93   17.30   1
  11   4  -6   53.97   15.19   1
  18   4  -6   19.21   10.83   1
  15   5  -6   60.70   11.42   1
  12   5  -6   11.30   13.06   1
  10   5  -6   32.38   16.09   1
   9   5  -6   72.08   15.22   1
   8   5  -6   34.02   14.23   1
   5   5  -6   72.27   17.67   1
   4   5  -6   26.09   14.43   1
   3   5  -6   96.88   15.89   1
   2   5  -6   28.93   13.70   1
  -1   5  -6   82.25   13.29   1
  -2   5  -6    0.84   10.99   1
  -4   5  -6   60.67   11.65   1
  -7   5  -6   46.73   10.50   1
  -8   5  -6   84.13   11.39   1
  -9   5  -6   14.84   11.04   1
 -10   5  -6   97.03   11.30   1
 -11   5  -6   22.03   10.83   1
 -14   5  -6   61.31   11.55   1
 -15   5  -6   58.59   11.94   1
 -20   5  -6   47.96   13.82   1
 -22   5  -6   18.57   12.67   1
 -18   6  -6   65.90   13.88   1
 -16   6  -6  153.30   13.76   1
 -15   6  -6   16.45   11.07   1
 -12   6  -6   25.93   10.96   1
 -10   6  -6   41.74   10.28   1
  -9   6  -6   19.65    9.98   1
  -8   6  -6   59.01   11.37   1
  -7   6  -6   95.92   10.27   1
  -6   6  -6  157.23   12.39   1
  -3   6  -6    9.95   10.20   1
  -2   6  -6    3.86   10.34   1
   0   6  -6  148.87   14.38   1
   1   6  -6  127.16   14.91   1
   2   6  -6   45.26   13.46   1
   3   6  -6   21.22   14.92   1
  10   6  -6  147.51   15.53   1
  13   6  -6    2.20   10.01   1
  15   6  -6   18.17    9.89   1
  10   7  -6    4.53   11.36   1
   8   7  -6   23.15   13.35   1
   3   7  -6   34.33   15.25   1
   2   7  -6   44.76   13.21   1
  -1   7  -6   91.69   12.16   1
  -2   7  -6   47.94   10.71   1
  -3   7  -6  148.00   12.28   1
  -4   7  -6  138.59   12.67   1
  -6   7  -6   89.28   11.39   1
  -7   7  -6    3.92    8.51   1
  -8   7  -6   14.59    9.94   1
  -9   7  -6   49.54   10.00   1
 -10   7  -6   38.89    9.90   1
 -13   7  -6   11.98   10.31   1
 -15   7  -6   17.59   11.90   1
 -16   7  -6   69.02   12.28   1
 -17   7  -6    2.36   12.09   1
 -18   7  -6    5.24   12.97   1
 -20   7  -6   19.47   12.26   1
 -23   8  -6   23.04   12.89   1
 -21   8  -6   26.54   12.84   1
 -20   8  -6    0.34   10.99   1
 -17   8  -6   45.61   11.96   1
 -16   8  -6   45.70   12.09   1
 -13   8  -6   27.51   10.64   1
 -11   8  -6   61.58   10.53   1
  -9   8  -6   59.69   10.95   1
  -6   8  -6   57.09   10.19   1
  -5   8  -6  103.38   10.36   1
  -4   8  -6   90.37   10.49   1
  -3   8  -6  110.31   11.15   1
  -2   8  -6   53.44   10.64   1
  -1   8  -6    2.19   10.82   1
   1   8  -6   55.95   12.49   1
   2   8  -6   19.51   13.31   1
   3   8  -6   69.43   14.77   1
   9   8  -6   25.77   12.89   1
  13   8  -6   39.60    8.87   1
  14   8  -6   19.19    9.54   1
  11   9  -6   42.40    9.79   1
  10   9  -6    0.70    8.46   1
   9   9  -6   52.46   10.63   1
   7   9  -6   66.28   10.85   1
   6   9  -6   15.75   12.18   1
   5   9  -6   65.37   15.00   1
   1   9  -6   18.30   10.87   1
   0   9  -6   17.12   10.54   1
  -1   9  -6   66.25   10.28   1
  -2   9  -6   31.17   10.09   1
  -4   9  -6   20.01    9.62   1
  -5   9  -6   16.98    9.30   1
  -7   9  -6   30.18    9.36   1
  -8   9  -6   58.49    9.87   1
  -9   9  -6   18.77   10.40   1
 -13   9  -6   18.66   10.01   1
 -14   9  -6   66.34   10.76   1
 -17   9  -6   39.32   11.82   1
 -19   9  -6    2.11   10.83   1
 -20   9  -6   37.64   12.15   1
 -21   9  -6   44.01   12.23   1
 -23   9  -6   11.66   11.66   1
 -20  10  -6   17.02   12.75   1
 -19  10  -6    3.39   11.16   1
 -16  10  -6  137.90   13.07   1
 -15  10  -6   43.58   10.89   1
 -13  10  -6   99.21   11.53   1
 -10  10  -6   58.20   10.81   1
  -7  10  -6   80.92    9.98   1
  -6  10  -6   26.07    9.41   1
  -5  10  -6  101.18   10.30   1
  -3  10  -6   82.51    9.60   1
   0  10  -6   94.70   10.43   1
   2  10  -6   21.08   11.74   1
   3  10  -6   75.59   15.10   1
   5  10  -6   50.13   11.52   1
   6  10  -6  139.94   10.97   1
  13  10  -6   40.19    9.95   1
  12  11  -6   40.89   10.11   1
   9  11  -6   44.65    9.76   1
   6  11  -6   43.81    9.91   1
   4  11  -6   73.92    9.02   1
   2  11  -6   75.16    9.35   1
   1  11  -6  130.70   10.00   1
   0  11  -6    5.39    7.86   1
  -1  11  -6    4.70    8.48   1
  -2  11  -6   18.64    8.80   1
  -4  11  -6   39.21    9.92   1
  -7  11  -6   77.35    9.67   1
  -8  11  -6   62.45   10.42   1
  -9  11  -6   13.12   10.81   1
 -12  11  -6  158.99   11.87   1
 -13  11  -6   58.86   11.60   1
 -14  11  -6   24.06    9.49   1
 -15  11  -6   52.45   11.17   1
 -16  11  -6   31.37   10.67   1
 -20  11  -6   30.58   13.05   1
 -23  11  -6   18.97   11.04   1
 -18  12  -6   60.32   13.10   1
 -16  12  -6   77.17   14.15   1
 -13  12  -6   77.90   11.62   1
 -12  12  -6   15.43   10.22   1
 -11  12  -6  143.77   12.56   1
 -10  12  -6   44.52   10.78   1
  -7  12  -6   11.83   10.00   1
  -6  12  -6   40.06    9.86   1
  -5  12  -6   10.36    8.30   1
  -1  12  -6  147.04   10.68   1
   2  12  -6   23.37   13.08   1
   3  12  -6    0.40   10.36   1
   4  12  -6   51.85   11.96   1
   6  12  -6   60.10   10.28   1
   8  12  -6   10.44    9.19   1
   9  12  -6   39.92    9.82   1
  11  12  -6   26.41    9.81   1
  10  13  -6   38.87    9.35   1
   9  13  -6    1.26    8.98   1
   4  13  -6   44.93   11.26   1
   3  13  -6   40.65   12.45   1
   0  13  -6   53.07   12.03   1
  -1  13  -6   77.25   12.15   1
  -2  13  -6   86.85   10.86   1
  -6  13  -6   14.45    9.95   1
  -7  13  -6   10.65   10.30   1
 -10  13  -6   72.24   11.19   1
 -11  13  -6   54.42   11.08   1
 -12  13  -6  101.02   11.63   1
 -16  13  -6   41.32   12.49   1
 -17  13  -6   25.65   13.52   1
 -19  13  -6    4.17   10.36   1
 -23  13  -6   50.50   12.39   1
 -22  14  -6   15.42   12.12   1
 -21  14  -6   53.73   12.80   1
 -19  14  -6   21.28   11.75   1
 -16  14  -6    0.56   10.88   1
 -15  14  -6  121.59   13.85   1
 -13  14  -6    4.25    9.93   1
 -11  14  -6   13.13   10.91   1
  -9  14  -6   88.40   11.02   1
  -6  14  -6    2.27    9.65   1
  -5  14  -6   88.09   10.98   1
  -1  14  -6   15.69   11.22   1
   0  14  -6   12.37   12.13   1
   1  14  -6  110.27   19.05   1
   5  14  -6   13.19   11.67   1
   7  14  -6   46.79   10.04   1
   9  14  -6   19.85    9.06   1
   5  15  -6   52.59   11.10   1
  -1  15  -6   87.72   14.65   1
  -5  15  -6   48.21   11.38   1
  -8  15  -6   23.54   10.56   1
  -9  15  -6   11.42   10.75   1
 -10  15  -6   49.53   10.55   1
 -11  15  -6   35.85   11.44   1
 -13  15  -6    1.12    9.50   1
 -14  15  -6  118.70   12.57   1
 -20  15  -6   47.79   12.28   1
 -22  15  -6    7.18   11.26   1
 -23  15  -6   19.33    9.84   1
 -23  16  -6    5.06   10.75   1
 -22  16  -6   17.72   12.03   1
 -20  16  -6   20.30   11.49   1
 -18  16  -6   55.60   12.50   1
 -17  16  -6   26.13   10.25   1
 -12  16  -6   68.95   12.63   1
 -10  16  -6  144.63   12.37   1
  -9  16  -6   89.36   10.99   1
  -8  16  -6   52.93   10.60   1
  -7  16  -6   68.51   10.58   1
  -6  16  -6  156.36   12.57   1
  -5  16  -6   41.43   10.10   1
  -4  16  -6   97.82   12.23   1
   0  16  -6    4.01   14.30   1
   1  16  -6   14.86   15.31   1
   2  16  -6   47.79   15.42   1
   4  16  -6   18.01   12.06   1
   7  16  -6   14.26    9.34   1
   2  17  -6   44.10   14.69   1
   1  17  -6   49.64   15.80   1
  -6  17  -6   37.04   11.02   1
 -11  17  -6   47.57   11.35   1
 -12  17  -6   13.53   11.29   1
 -13  17  -6   34.72   11.96   1
 -14  17  -6   15.76   11.37   1
 -18  17  -6   52.83   11.68   1
 -19  17  -6   48.96   12.06   1
 -22  17  -6   22.52   10.61   1
 -22  18  -6   19.73   10.11   1
 -16  18  -6   53.78   11.81   1
 -15  18  -6   18.98   10.46   1
  -9  18  -6   56.72   11.25   1
  -8  18  -6   11.41   10.99   1
  -7  18  -6   14.28   10.74   1
  -6  18  -6  114.72   13.02   1
  -4  18  -6    1.16   12.31   1
  -3  18  -6   14.31   12.86   1
  -2  18  -6   68.24   16.09   1
   2  18  -6   14.51   14.38   1
   3  18  -6   15.19   12.59   1
   2  19  -6   51.92   14.15   1
  -1  19  -6    4.77   16.13   1
  -2  19  -6   46.47   16.02   1
  -3  19  -6    0.95   13.28   1
 -10  19  -6    1.98   10.72   1
 -13  19  -6    1.60   10.15   1
 -16  19  -6    6.00   10.63   1
 -17  19  -6   54.43   11.70   1
 -20  19  -6   11.83   11.66   1
 -21  19  -6   67.23   12.50   1
 -20  20  -6    4.04   10.77   1
 -19  20  -6   18.38   10.62   1
 -16  20  -6   25.78   10.55   1
 -15  20  -6  103.20   12.73   1
 -11  20  -6   46.38   11.40   1
 -10  20  -6   27.81   10.76   1
  -9  20  -6   31.58   11.10   1
  -7  20  -6   16.57   13.07   1
  -5  20  -6   64.37   13.96   1
  -4  20  -6   29.12   13.81   1
  -2  20  -6    8.52   15.69   1
   0  20  -6    5.08   14.12   1
   1  20  -6   34.69   12.82   1
  -1  21  -6   22.63   14.89   1
  -2  21  -6   87.78   17.65   1
  -4  21  -6   14.17   14.12   1
  -7  21  -6   50.06   12.21   1
 -12  21  -6   27.16   11.11   1
 -19  21  -6   92.36   11.15   1
 -17  22  -6   21.29   11.12   1
 -14  22  -6   24.56   10.53   1
 -11  22  -6   13.84   11.01   1
 -10  22  -6    1.96   11.01   1
  -8  22  -6   12.71   11.99   1
  -7  23  -6   16.79   12.24   1
  -8  23  -6   15.52   11.66   1
 -10  23  -6   35.88   11.15   1
 -16  23  -6   20.08    9.52   1
 -19  27  -5   43.13   10.69   1
 -16  27  -5   13.78   10.36   1
 -14  27  -5   11.74    9.94   1
 -11  27  -5   15.31   10.93   1
  -7  26  -5   38.12   12.82   1
 -10  26  -5   40.44   11.16   1
 -13  26  -5  104.79   12.12   1
 -14  26  -5   11.79   11.12   1
 -16  26  -5   25.09   10.86   1
 -17  26  -5   24.95   10.45   1
 -20  26  -5    0.16    9.19   1
 -23  25  -5    0.16   10.75   1
 -21  25  -5   96.52   11.68   1
 -20  25  -5    0.89    9.59   1
 -16  25  -5   27.65    9.53   1
 -15  25  -5   57.39   12.33   1
 -13  25  -5   15.53   10.57   1
 -11  25  -5   20.94   10.53   1
 -10  25  -5   56.68   13.00   1
  -8  25  -5   24.42   11.96   1
  -4  25  -5   99.54   14.19   1
  -2  24  -5    0.18   12.21   1
  -3  24  -5   35.91   13.36   1
  -4  24  -5   31.74   13.26   1
  -7  24  -5   14.06   12.56   1
 -11  24  -5    7.43   10.60   1
 -13  24  -5   17.78   10.76   1
 -16  24  -5    5.01   10.03   1
 -17  24  -5   13.52    9.97   1
 -20  24  -5   31.62   11.15   1
 -21  24  -5   51.14   11.67   1
 -23  24  -5   25.17   10.68   1
 -24  24  -5   43.94   11.04   1
 -24  23  -5   47.91   11.66   1
 -23  23  -5   85.53   12.27   1
 -21  23  -5   23.34   11.37   1
 -18  23  -5   16.53   11.45   1
 -14  23  -5   20.04    9.99   1
  -8  23  -5   17.60   12.70   1
  -7  23  -5   44.79   14.73   1
  -6  23  -5   43.37   13.36   1
  -5  23  -5   15.45   13.40   1
  -3  23  -5   12.83   12.79   1
   0  23  -5   78.51   13.37   1
   1  23  -5   29.96   11.02   1
   2  22  -5    0.01   10.64   1
   1  22  -5    2.99   10.57   1
  -1  22  -5   18.63   13.86   1
  -2  22  -5   16.21   13.95   1
  -3  22  -5   52.37   15.03   1
  -4  22  -5   16.73   14.53   1
  -6  22  -5    1.90   12.68   1
  -8  22  -5  113.59   14.68   1
  -9  22  -5   55.57   12.02   1
 -10  22  -5   15.87   11.55   1
 -11  22  -5  209.05   13.09   1
 -13  22  -5   64.61   12.54   1
 -14  22  -5  135.16   13.65   1
 -17  22  -5   56.33   11.71   1
 -19  22  -5   58.93   12.62   1
 -20  22  -5    8.86   10.05   1
 -21  22  -5   27.31   11.45   1
 -22  22  -5    0.02   10.10   1
 -23  22  -5    0.72   11.33   1
 -25  22  -5    2.15    9.84   1
 -26  21  -5    0.87   10.23   1
 -25  21  -5   90.44   12.17   1
 -24  21  -5   39.94   11.69   1
 -22  21  -5   24.11   11.87   1
 -19  21  -5   31.31   11.73   1
 -16  21  -5   56.96   11.78   1
 -15  21  -5   46.05   10.40   1
 -14  21  -5   11.08   10.66   1
  -5  21  -5   72.83   13.73   1
  -2  21  -5   28.57   14.50   1
   2  21  -5   29.51   10.82   1
   4  21  -5  135.97   10.91   1
   5  20  -5    0.03    9.12   1
   4  20  -5   19.95   10.22   1
   2  20  -5   21.54   10.79   1
   0  20  -5   61.19   14.99   1
  -5  20  -5    1.69   11.30   1
  -6  20  -5   34.77   12.79   1
  -7  20  -5   65.61   11.60   1
 -10  20  -5  125.72   12.33   1
 -13  20  -5   64.56   11.14   1
 -14  20  -5   35.42   11.23   1
 -19  20  -5   20.14   11.64   1
 -21  20  -5   12.96   10.72   1
 -23  20  -5   22.90   11.81   1
 -24  20  -5   33.42   11.92   1
 -26  20  -5    2.73    9.93   1
 -26  19  -5   31.05   12.14   1
 -25  19  -5    3.03   10.83   1
 -22  19  -5   64.57   12.16   1
 -18  19  -5   19.59   10.86   1
 -17  19  -5   87.42   12.24   1
 -16  19  -5   76.23   11.16   1
 -15  19  -5   30.02   11.46   1
 -14  19  -5   78.63   12.74   1
 -13  19  -5    5.34   10.53   1
 -10  19  -5  100.11   12.40   1
  -9  19  -5   94.16   11.76   1
  -5  19  -5   77.25   12.81   1
  -4  19  -5   33.92   12.86   1
  -3  19  -5   82.83   14.84   1
  -2  19  -5   71.98   15.87   1
  -1  19  -5   10.92   12.45   1
   7  19  -5   78.33    9.42   1
   8  19  -5   36.12    7.78   1
   9  18  -5   13.57    7.29   1
   8  18  -5   25.21    8.03   1
   3  18  -5   26.05   11.47   1
   2  18  -5    6.56   11.37   1
  -1  18  -5   39.82   14.58   1
  -2  18  -5   25.97   13.08   1
  -3  18  -5  133.23   14.19   1
  -4  18  -5   43.22   12.24   1
  -5  18  -5   59.42   11.90   1
  -7  18  -5  157.77   12.78   1
  -8  18  -5   51.72   11.40   1
 -10  18  -5  106.08   11.85   1
 -11  18  -5  157.84   11.96   1
 -12  18  -5   13.81   10.59   1
 -13  18  -5   69.34   11.06   1
 -14  18  -5   51.55   11.46   1
 -15  18  -5  118.83   12.24   1
 -16  18  -5   27.30   10.56   1
 -17  18  -5   45.08   11.68   1
 -20  18  -5    8.52    9.71   1
 -22  18  -5   12.69   11.06   1
 -23  18  -5   28.18   11.27   1
 -27  18  -5   14.27    9.78   1
 -23  17  -5   44.68   12.10   1
 -22  17  -5   39.01   12.17   1
 -19  17  -5   81.80   12.36   1
 -18  17  -5   55.68   10.92   1
 -15  17  -5   14.47   11.04   1
 -13  17  -5   44.96   11.20   1
 -12  17  -5   28.68   10.57   1
 -11  17  -5   19.72   10.39   1
 -10  17  -5  102.31   11.72   1
  -7  17  -5  102.95   11.83   1
  -4  17  -5   55.83   13.11   1
  -2  17  -5   13.26   12.77   1
   0  17  -5   42.42   13.75   1
   1  17  -5   70.04   12.73   1
   2  17  -5   88.83   12.08   1
   4  17  -5   24.57   10.81   1
   5  17  -5   48.01   10.32   1
   6  17  -5   52.08   10.06   1
   9  17  -5   19.62    8.58   1
   5  16  -5   81.61    9.82   1
   3  16  -5   71.17   10.73   1
   2  16  -5   31.44   10.59   1
  -1  16  -5   51.25   15.60   1
  -2  16  -5   34.67   12.88   1
  -3  16  -5  175.88   14.66   1
  -4  16  -5   21.64   11.86   1
  -6  16  -5    8.93   11.11   1
 -10  16  -5   12.45   10.62   1
 -12  16  -5   10.66   10.66   1
 -13  16  -5  187.85   13.03   1
 -14  16  -5   35.81   10.92   1
 -15  16  -5   72.70   11.31   1
 -21  16  -5   66.04   11.57   1
 -23  16  -5   38.23   10.60   1
 -25  16  -5   18.27   11.21   1
 -26  16  -5   17.39   11.78   1
 -27  16  -5   17.18   10.66   1
 -25  15  -5   66.20   12.31   1
 -21  15  -5   36.61   11.40   1
 -18  15  -5  125.58   11.90   1
 -17  15  -5   16.89   11.08   1
 -16  15  -5  108.31   12.40   1
 -15  15  -5  206.97   14.44   1
 -14  15  -5   20.18   10.64   1
 -10  15  -5   53.42   11.44   1
  -9  15  -5   57.73   12.19   1
  -6  15  -5   55.70   13.34   1
  -5  15  -5   48.50   12.26   1
  -2  15  -5    0.97   12.72   1
  -1  15  -5   14.33   13.22   1
   0  15  -5  193.14   19.66   1
   1  15  -5   66.81   14.76   1
   3  15  -5  109.21   12.12   1
  10  15  -5   58.45    9.46   1
  11  14  -5   10.94    8.52   1
   8  14  -5  110.15   11.01   1
   7  14  -5   18.51    9.66   1
   6  14  -5   39.21    9.55   1
   5  14  -5   53.41   10.09   1
   4  14  -5   48.22   10.80   1
   3  14  -5   15.17   11.01   1
   2  14  -5   22.86   13.47   1
   0  14  -5   59.88   15.65   1
  -1  14  -5    0.02   12.08   1
  -2  14  -5   26.88   12.24   1
  -6  14  -5  125.07   13.71   1
  -8  14  -5  147.61   13.58   1
 -11  14  -5   21.98   10.63   1
 -12  14  -5   12.53   10.59   1
 -14  14  -5   68.82   12.64   1
 -16  14  -5   30.77   11.01   1
 -18  14  -5   36.77   10.85   1
 -19  14  -5   64.11   12.23   1
 -21  14  -5   23.14    9.96   1
 -22  14  -5  141.85   14.89   1
 -26  13  -5   97.97   13.51   1
 -24  13  -5   16.46   10.47   1
 -23  13  -5   24.63   11.64   1
 -22  13  -5   66.82   13.00   1
 -20  13  -5   57.46   11.91   1
 -18  13  -5   50.55   12.17   1
 -16  13  -5  173.77   13.49   1
 -14  13  -5    3.56    9.88   1
 -12  13  -5   88.20   12.88   1
 -10  13  -5   81.71   12.31   1
  -9  13  -5   30.60   10.18   1
  -8  13  -5    2.95   10.21   1
  -7  13  -5   45.44   11.33   1
  -6  13  -5   28.29   12.34   1
  -4  13  -5   30.05   12.23   1
  -3  13  -5   64.40   12.74   1
  -2  13  -5    1.34   11.76   1
  -1  13  -5   79.45   14.60   1
   0  13  -5    6.28   13.21   1
   3  13  -5  194.12   13.53   1
   4  13  -5   33.97   10.06   1
   6  13  -5    8.97    9.17   1
   7  13  -5   93.05   10.59   1
   9  13  -5   53.72    9.56   1
  10  13  -5   10.81    9.26   1
  13  13  -5  106.80   10.31   1
  12  12  -5    9.22    8.55   1
  10  12  -5   10.41    9.41   1
   6  12  -5   15.09    9.31   1
   5  12  -5   46.64    9.52   1
   3  12  -5    0.88    9.95   1
   2  12  -5   12.49   12.22   1
   1  12  -5   85.96   15.12   1
  -1  12  -5  188.96   16.02   1
  -2  12  -5   23.64   12.13   1
  -3  12  -5  103.65   14.00   1
  -4  12  -5  213.17   15.21   1
  -5  12  -5   99.08   12.71   1
  -6  12  -5   81.13   12.11   1
  -7  12  -5  121.69   12.24   1
  -8  12  -5  195.72   13.63   1
  -9  12  -5   85.52   11.67   1
 -11  12  -5  159.72   12.46   1
 -12  12  -5   42.18   11.80   1
 -13  12  -5   99.32   12.71   1
 -16  12  -5    7.57   10.19   1
 -17  12  -5   44.12   10.39   1
 -22  12  -5   14.36   10.93   1
 -27  11  -5   17.10   11.78   1
 -25  11  -5    2.02   11.58   1
 -23  11  -5    0.78   12.35   1
 -22  11  -5  210.08   14.82   1
 -18  11  -5  159.06   13.07   1
 -17  11  -5   21.96   10.55   1
 -16  11  -5   36.50   10.58   1
 -12  11  -5  196.55   13.73   1
 -11  11  -5   81.10   12.15   1
  -8  11  -5   77.27   11.76   1
  -7  11  -5   69.97   11.58   1
  -6  11  -5   86.18   12.10   1
  -5  11  -5  101.94   12.10   1
  -4  11  -5   45.86   11.31   1
  -3  11  -5   70.65   12.34   1
  -2  11  -5   18.38   11.27   1
   0  11  -5   70.78   13.84   1
   1  11  -5  201.69   17.23   1
   5  11  -5   36.45    9.53   1
   7  11  -5  141.62   11.53   1
   9  11  -5    3.64    8.80   1
  10  11  -5    9.91    8.95   1
  11  11  -5  188.72   12.05   1
  13  11  -5   10.20    9.52   1
  14  11  -5   10.76    9.02   1
  15  11  -5    0.36    9.74   1
  17  10  -5   11.94    8.83   1
  16  10  -5   20.02    9.22   1
  15  10  -5   56.30   10.32   1
  10  10  -5  126.49   10.70   1
   9  10  -5   67.21   10.41   1
   8  10  -5   79.26    9.78   1
   7  10  -5  114.94   10.50   1
   5  10  -5   91.38   10.51   1
   4  10  -5   26.07    9.09   1
   3  10  -5   75.07   10.08   1
   1  10  -5    0.43   10.98   1
   0  10  -5    0.29    9.19   1
  -1  10  -5  109.18   11.37   1
  -2  10  -5   30.18    9.64   1
  -3  10  -5  122.06   10.69   1
  -4  10  -5   48.12   10.71   1
  -5  10  -5   53.68   10.72   1
  -6  10  -5   27.14    9.90   1
  -7  10  -5  130.59   11.71   1
  -8  10  -5   23.41    9.64   1
  -9  10  -5  102.18   12.24   1
 -11  10  -5    0.17    9.96   1
 -12  10  -5   11.09   10.53   1
 -13  10  -5  102.08   11.81   1
 -14  10  -5   24.36    9.75   1
 -15  10  -5   76.23   12.22   1
 -17  10  -5   85.77   12.82   1
 -18  10  -5   61.95   12.22   1
 -19  10  -5   50.46   12.87   1
 -20  10  -5  124.36   13.51   1
 -24  10  -5   11.26   11.96   1
 -25  10  -5   56.20   13.79   1
 -26  10  -5   16.27   12.52   1
 -26   9  -5   17.95   11.28   1
 -25   9  -5   16.50   11.80   1
 -22   9  -5   51.36   13.88   1
 -20   9  -5    0.09   10.23   1
 -19   9  -5   48.03   12.67   1
 -18   9  -5   98.16   12.19   1
 -16   9  -5    6.68   11.04   1
 -15   9  -5   64.68   11.68   1
 -12   9  -5  115.39   11.07   1
 -11   9  -5   13.68   10.33   1
 -10   9  -5   94.20   11.75   1
  -9   9  -5   71.77   11.11   1
  -8   9  -5  122.87   11.30   1
  -7   9  -5   42.72    9.61   1
  -6   9  -5   46.87    9.70   1
  -5   9  -5   53.24   10.24   1
  -4   9  -5   66.03    9.24   1
  -3   9  -5   38.44    9.21   1
  -2   9  -5   39.86    9.17   1
  -1   9  -5  118.28    9.76   1
   0   9  -5   89.03   10.18   1
   1   9  -5  124.53   10.23   1
   2   9  -5   23.79    9.27   1
   3   9  -5   75.04   13.37   1
   4   9  -5   32.27   10.15   1
   6   9  -5   86.27   10.22   1
   9   9  -5   82.27    9.83   1
  10   9  -5   66.35    9.60   1
  13   9  -5   61.01   10.95   1
  18   8  -5   24.30   10.32   1
  17   8  -5   37.30   10.40   1
  16   8  -5   14.13   10.26   1
  15   8  -5   13.38    9.93   1
  14   8  -5  115.26   13.00   1
  12   8  -5   24.43    8.69   1
  11   8  -5    3.57    8.22   1
  10   8  -5   82.64   10.07   1
   9   8  -5   18.33    9.34   1
   7   8  -5   17.29    9.30   1
   6   8  -5  145.89   13.05   1
   4   8  -5  203.88   16.61   1
   3   8  -5   91.42   15.63   1
   2   8  -5   25.05   11.20   1
   1   8  -5  111.93   10.83   1
  -3   8  -5   24.72    9.08   1
  -4   8  -5    1.89    7.93   1
  -5   8  -5   28.98    9.01   1
  -6   8  -5   17.55    8.19   1
  -9   8  -5  117.09   10.34   1
 -11   8  -5   80.55   10.89   1
 -12   8  -5  195.59   12.35   1
 -14   8  -5  159.56   12.29   1
 -18   8  -5   56.26   10.95   1
 -22   8  -5  118.75   14.21   1
 -23   8  -5   15.58   11.09   1
 -26   8  -5   27.08   12.78   1
 -27   8  -5   46.65   11.39   1
 -26   7  -5   45.33   11.99   1
 -25   7  -5    9.99   10.40   1
 -23   7  -5   39.80   13.34   1
 -21   7  -5   19.60   10.73   1
 -20   7  -5   62.48   11.81   1
 -18   7  -5  143.10   12.47   1
 -17   7  -5  124.34   12.05   1
 -16   7  -5   17.99    9.11   1
 -14   7  -5   33.08   10.03   1
 -13   7  -5   42.93   10.00   1
 -12   7  -5  115.18   11.23   1
 -11   7  -5   60.95   10.46   1
 -10   7  -5  117.60   11.60   1
  -9   7  -5   26.41    8.36   1
  -7   7  -5   30.14    8.74   1
  -5   7  -5  104.69    9.66   1
  -4   7  -5   27.28    8.30   1
  -3   7  -5   22.89    8.22   1
  -2   7  -5  118.04    9.76   1
  -1   7  -5   42.24    9.14   1
   0   7  -5   49.17    9.47   1
   2   7  -5   39.79   11.01   1
   3   7  -5   99.29   14.53   1
   4   7  -5   70.97   15.12   1
   5   7  -5  101.70   14.20   1
   6   7  -5   41.90   12.67   1
   7   7  -5   20.45   10.91   1
  10   7  -5  111.47    9.73   1
  11   7  -5  156.38   12.21   1
  13   7  -5   84.45   10.09   1
  14   7  -5   27.68    8.11   1
  16   7  -5   56.81   12.19   1
  17   7  -5   16.41    9.83   1
  15   6  -5   28.56    9.94   1
  12   6  -5   17.96   10.46   1
  10   6  -5    6.58    9.98   1
   9   6  -5   45.56   12.48   1
   8   6  -5  133.27   14.14   1
   7   6  -5   38.38   13.58   1
   6   6  -5   61.15   15.59   1
   5   6  -5   86.84   14.74   1
   4   6  -5   37.37   14.77   1
   3   6  -5   47.65   12.88   1
   1   6  -5   51.12   11.05   1
   0   6  -5  115.72   11.47   1
  -1   6  -5  304.06   13.44   1
  -2   6  -5  157.43   10.85   1
  -3   6  -5  157.59   10.72   1
  -4   6  -5  163.47   10.85   1
  -5   6  -5  288.80   12.16   1
  -6   6  -5  115.48    9.55   1
  -7   6  -5   46.55    8.73   1
  -8   6  -5   18.02    9.06   1
  -9   6  -5   50.09    8.81   1
 -11   6  -5  111.32   11.15   1
 -12   6  -5   60.38   10.74   1
 -13   6  -5   44.67   10.78   1
 -14   6  -5  137.26   12.11   1
 -15   6  -5   61.57   11.07   1
 -17   6  -5   25.28   10.61   1
 -18   6  -5   13.00   10.69   1
 -19   6  -5   17.82   10.76   1
 -20   6  -5   36.43   11.19   1
 -21   6  -5   53.23   11.07   1
 -23   5  -5   41.22   13.03   1
 -21   5  -5   64.19   11.94   1
 -19   5  -5   73.25   12.40   1
 -18   5  -5   47.54   12.42   1
 -17   5  -5   49.89   10.86   1
 -16   5  -5   24.07    9.41   1
 -15   5  -5   57.75   11.37   1
 -12   5  -5  117.44   11.33   1
 -11   5  -5   97.38   10.74   1
 -10   5  -5   49.70    9.59   1
  -9   5  -5   49.50    9.25   1
  -8   5  -5   18.56    9.24   1
  -7   5  -5  108.76    9.70   1
  -6   5  -5  285.72   12.63   1
  -5   5  -5  320.65   12.77   1
  -3   5  -5   36.91    8.73   1
  -2   5  -5   42.37   10.35   1
   0   5  -5  320.00   15.09   1
   1   5  -5  281.97   15.56   1
   2   5  -5   99.97   11.87   1
   3   5  -5   20.62   11.51   1
   4   5  -5   56.89   13.45   1
   5   5  -5   48.50   15.54   1
   6   5  -5   83.97   16.13   1
   7   5  -5   97.18   16.04   1
   9   5  -5    8.89   11.59   1
  10   5  -5   53.97   12.77   1
  13   5  -5   88.02   10.84   1
  14   5  -5   64.13   10.56   1
  16   5  -5   76.01   11.21   1
  17   5  -5   31.45   10.14   1
  21   4  -5   78.63   11.74   1
  20   4  -5   21.21   11.26   1
  17   4  -5   20.23   11.33   1
  15   4  -5   31.56    9.66   1
  12   4  -5    3.69   11.78   1
  10   4  -5   20.98   13.39   1
   9   4  -5   36.37   12.86   1
   8   4  -5  175.05   18.03   1
   7   4  -5   45.48   15.46   1
   6   4  -5   29.83   14.46   1
   5   4  -5   72.03   14.24   1
   2   4  -5  148.35   13.20   1
   1   4  -5   11.41   10.82   1
  -1   4  -5   14.44    9.20   1
  -2   4  -5  371.81   15.02   1
  -3   4  -5   12.19    9.15   1
  -5   4  -5    5.08    7.50   1
  -6   4  -5  157.03   12.02   1
  -7   4  -5   20.68    9.14   1
  -9   4  -5   81.27    9.62   1
 -10   4  -5   48.55    9.37   1
 -11   4  -5   52.88   10.04   1
 -12   4  -5  213.57   13.25   1
 -13   4  -5   33.30    9.99   1
 -17   4  -5   46.31   10.07   1
 -18   4  -5   30.33   10.62   1
 -19   4  -5   32.46   11.28   1
 -20   4  -5    0.55   10.58   1
 -21   4  -5   15.21   10.18   1
 -22   4  -5   10.90   10.84   1
 -23   4  -5    5.09   10.76   1
 -25   4  -5   88.79   12.94   1
 -24   3  -5   56.57   12.60   1
 -22   3  -5   69.10   12.72   1
 -21   3  -5   18.68   12.66   1
 -20   3  -5   12.07   10.78   1
 -19   3  -5   70.59   12.44   1
 -18   3  -5  134.92   12.71   1
 -17   3  -5   14.92   10.20   1
 -16   3  -5  162.68   13.72   1
 -13   3  -5   71.24   11.23   1
 -12   3  -5  111.14   10.61   1
 -11   3  -5   79.01   10.67   1
 -10   3  -5  115.29   10.40   1
  -9   3  -5   37.82   10.19   1
  -8   3  -5   22.37    9.55   1
  -6   3  -5  159.23   11.27   1
  -5   3  -5   35.86    9.26   1
  -4   3  -5   11.01    8.70   1
  -3   3  -5    5.74    8.56   1
  -2   3  -5   12.14    8.67   1
   2   3  -5   42.49   11.04   1
   3   3  -5  130.70   14.45   1
   4   3  -5   20.44   11.63   1
   5   3  -5   15.06   12.11   1
   7   3  -5  113.94   16.07   1
   8   3  -5   59.10   16.31   1
   9   3  -5   87.07   15.64   1
  10   3  -5   82.38   14.87   1
  11   3  -5   28.47   12.75   1
  13   3  -5  170.16   16.09   1
  15   3  -5  135.02   13.44   1
  16   3  -5   73.15   11.71   1
  19   3  -5   64.64   12.10   1
  20   3  -5   25.98   11.57   1
  22   3  -5   13.30   10.87   1
  21   2  -5   26.00   11.46   1
  20   2  -5   11.73   11.48   1
  19   2  -5   54.51   12.68   1
  18   2  -5    4.05   10.59   1
  17   2  -5   84.63   12.82   1
  15   2  -5   19.47   11.77   1
  14   2  -5   54.30   13.56   1
  13   2  -5    0.10   13.83   1
  12   2  -5   30.92   13.49   1
   8   2  -5   34.65   14.13   1
   7   2  -5   32.59   13.94   1
   6   2  -5   27.10   12.05   1
   5   2  -5   89.92   13.13   1
   4   2  -5  141.25   14.57   1
   3   2  -5   45.54   11.37   1
   2   2  -5  366.91   16.51   1
   0   2  -5   11.59    9.71   1
  -1   2  -5  114.29   11.51   1
  -2   2  -5   14.28    9.47   1
  -3   2  -5   12.53    9.66   1
  -4   2  -5  366.63   14.63   1
  -5   2  -5   49.84    9.81   1
  -6   2  -5  147.86   11.52   1
  -7   2  -5   98.03    9.82   1
  -8   2  -5   18.00    8.22   1
  -9   2  -5   37.23    9.40   1
 -10   2  -5   22.87    9.72   1
 -12   2  -5   13.30    9.68   1
 -14   2  -5   15.71    9.68   1
 -16   2  -5   27.80   10.87   1
 -17   2  -5   15.33   10.27   1
 -19   2  -5   84.34   12.02   1
 -21   2  -5   57.49   14.36   1
 -23   2  -5   13.20   12.33   1
 -24   1  -5   27.71   12.38   1
 -23   1  -5    0.38   12.11   1
 -20   1  -5    6.58   12.73   1
 -18   1  -5   60.05   12.44   1
 -15   1  -5   12.45   10.07   1
 -14   1  -5    0.79    8.47   1
 -13   1  -5   85.02   11.80   1
 -12   1  -5  191.31   12.61   1
 -10   1  -5  130.97   11.03   1
  -9   1  -5  126.21   10.29   1
  -8   1  -5    3.13    8.95   1
  -7   1  -5   31.19    8.78   1
  -6   1  -5  291.49   14.39   1
  -5   1  -5   13.43    9.22   1
  -3   1  -5   21.64    9.44   1
  -2   1  -5   96.73   11.66   1
   0   1  -5   16.15   10.62   1
   1   1  -5   98.70   12.21   1
   4   1  -5    6.03   11.02   1
   5   1  -5  278.78   17.75   1
   6   1  -5   27.18   13.67   1
   8   1  -5   89.95   16.84   1
   9   1  -5  118.27   16.75   1
  10   1  -5    2.72   13.86   1
  11   1  -5  172.18   18.40   1
  12   1  -5   83.71   17.03   1
  15   1  -5   65.58   15.20   1
  16   1  -5    4.68   10.73   1
  17   1  -5   69.96   13.02   1
  19   1  -5   16.18   12.85   1
  23   1  -5   23.14   13.20   1
  23   0  -5   78.41   13.48   1
  20   0  -5   39.78   13.41   1
  19   0  -5   19.23   12.40   1
  17   0  -5   63.05   15.11   1
  15   0  -5  195.98   17.85   1
  14   0  -5   60.41   15.99   1
  12   0  -5   45.23   15.36   1
  11   0  -5   86.14   16.61   1
  10   0  -5    0.94   14.12   1
   9   0  -5   68.92   16.98   1
   7   0  -5   40.53   14.54   1
   6   0  -5  107.89   14.00   1
   5   0  -5  285.99   18.23   1
   2   0  -5   17.87   10.56   1
  -2   0  -5   20.88    9.80   1
  -5   0  -5  306.45   15.10   1
  -6   0  -5  115.89   12.00   1
  -7   0  -5   44.76    9.74   1
  -8   0  -5    0.33    8.59   1
  -9   0  -5   86.56   11.04   1
 -11   0  -5   70.30   11.28   1
 -12   0  -5   59.24   10.74   1
 -14   0  -5   75.36   12.26   1
 -15   0  -5  192.11   14.43   1
 -17   0  -5   65.77   11.93   1
 -18   0  -5    7.81   10.07   1
 -19   0  -5   21.41   11.37   1
 -20   0  -5   55.32   14.09   1
 -23   0  -5   75.33   11.21   1
 -24   0  -5   37.01   14.40   1
 -23   0  -4   69.39   13.74   1
 -21   0  -4   51.33   12.41   1
 -20   0  -4    2.60    9.36   1
 -19   0  -4   13.33   10.87   1
 -16   0  -4    1.16    8.31   1
 -14   0  -4   39.19    9.93   1
 -13   0  -4  115.73   10.63   1
 -12   0  -4   63.68   10.60   1
 -11   0  -4   22.07    9.27   1
 -10   0  -4  154.56   11.11   1
  -9   0  -4   53.08    8.14   1
  -7   0  -4    2.47    6.93   1
  -6   0  -4  357.77   12.98   1
  -4   0  -4   53.94    8.17   1
  -3   0  -4   93.49    9.82   1
  -1   0  -4    0.15    8.16   1
   0   0  -4 5424.13   89.08   1
   3   0  -4  111.35   11.16   1
   4   0  -4   48.27   10.20   1
   5   0  -4   10.64   10.07   1
   6   0  -4  345.63   19.03   1
   8   0  -4    5.02   13.33   1
   9   0  -4   40.20   14.70   1
  10   0  -4  159.95   17.70   1
  11   0  -4   44.04   13.51   1
  12   0  -4   65.75   14.92   1
  13   0  -4  101.10   16.91   1
  14   0  -4   44.63   15.42   1
  15   0  -4    7.28   13.56   1
  20   0  -4    7.32   12.54   1
  21   0  -4   43.74   13.63   1
  23   0  -4   93.69   14.72   1
  25   0  -4    7.75   13.47   1
  26   1  -4   40.77   12.39   1
  24   1  -4   20.91   13.69   1
  20   1  -4   61.46   14.25   1
  19   1  -4   42.20   13.20   1
  17   1  -4   93.51   13.37   1
  16   1  -4   57.66   13.51   1
  15   1  -4    5.66   12.25   1
  14   1  -4  171.26   16.51   1
  12   1  -4  180.90   17.32   1
  11   1  -4  321.53   18.79   1
  10   1  -4   16.44   13.45   1
   9   1  -4   36.54   13.16   1
   8   1  -4   98.69   15.94   1
   7   1  -4   35.57   13.26   1
   6   1  -4  190.43   18.24   1
   5   1  -4   13.94   11.08   1
   4   1  -4  152.50   13.68   1
   3   1  -4   32.91    9.12   1
   2   1  -4   44.44    9.72   1
  -3   1  -4   41.70    8.36   1
  -4   1  -4   22.70    7.15   1
  -5   1  -4  174.27   10.70   1
  -7   1  -4  238.40   11.07   1
  -8   1  -4   27.48    7.88   1
  -9   1  -4  117.19    9.17   1
 -10   1  -4   29.83    7.80   1
 -11   1  -4   14.57    8.24   1
 -12   1  -4  317.87   14.57   1
 -13   1  -4  195.54   12.76   1
 -14   1  -4    9.81    9.19   1
 -15   1  -4  183.31   12.97   1
 -17   1  -4   29.74   11.12   1
 -18   1  -4  119.14   12.77   1
 -19   1  -4   42.30   10.97   1
 -20   1  -4   62.76   12.63   1
 -21   1  -4   74.45   12.56   1
 -23   1  -4    2.51   12.14   1
 -27   1  -4   31.70   12.95   1
 -27   2  -4   61.45   13.23   1
 -23   2  -4   52.33   12.37   1
 -21   2  -4  134.16   14.75   1
 -19   2  -4   86.99   12.22   1
 -18   2  -4  125.97   12.81   1
 -15   2  -4    5.87    9.44   1
 -14   2  -4   19.40    9.72   1
 -13   2  -4  114.40   11.88   1
 -12   2  -4   73.54   10.29   1
 -11   2  -4   75.39    9.36   1
 -10   2  -4   67.95    8.92   1
  -9   2  -4   89.54    9.49   1
  -8   2  -4  134.26   10.02   1
  -7   2  -4   85.39    8.57   1
  -6   2  -4   17.30    7.35   1
  -4   2  -4   46.49    8.56   1
  -3   2  -4   45.69    7.70   1
  -1   2  -4    3.55    7.56   1
   1   2  -4   31.10    9.04   1
   3   2  -4    2.59    8.88   1
   4   2  -4   10.48   10.18   1
   5   2  -4   95.85   14.48   1
   6   2  -4  129.94   16.42   1
   7   2  -4   88.03   15.63   1
   8   2  -4   52.43   14.87   1
   9   2  -4   62.47   14.12   1
  10   2  -4   66.39   15.51   1
  11   2  -4  105.14   15.04   1
  12   2  -4   37.82   14.26   1
  13   2  -4    4.41   12.83   1
  15   2  -4   25.71   12.44   1
  16   2  -4  112.26   13.87   1
  17   2  -4   99.16   14.30   1
  18   2  -4   21.83   12.56   1
  19   2  -4  115.24   13.91   1
  20   2  -4   19.16   13.42   1
  21   2  -4   57.95   12.99   1
  22   2  -4   25.85   13.46   1
  25   2  -4  120.39   14.87   1
  25   3  -4   22.91   11.19   1
  23   3  -4   25.29   13.21   1
  22   3  -4   86.87   14.16   1
  19   3  -4   40.67   13.96   1
  18   3  -4   30.82   12.56   1
  15   3  -4   36.24   12.53   1
  14   3  -4   64.54   14.24   1
  13   3  -4   76.71   14.38   1
  11   3  -4   73.48   13.97   1
  10   3  -4  166.28   16.12   1
   8   3  -4  132.95   17.56   1
   7   3  -4   97.51   15.13   1
   6   3  -4   82.99   15.37   1
   5   3  -4  194.74   18.59   1
   4   3  -4  295.35   17.53   1
   3   3  -4   27.60   10.67   1
   0   3  -4  112.56    9.60   1
  -1   3  -4   42.09    7.91   1
  -2   3  -4   39.88    7.87   1
  -3   3  -4  112.61    9.53   1
  -5   3  -4    2.74    6.91   1
  -7   3  -4  307.41   12.29   1
  -8   3  -4  251.87   11.41   1
  -9   3  -4   90.27    9.23   1
 -10   3  -4  117.97    9.51   1
 -11   3  -4  143.03   11.23   1
 -12   3  -4   23.53    8.42   1
 -13   3  -4  171.39   12.09   1
 -14   3  -4   49.06   10.64   1
 -16   3  -4   78.77   10.78   1
 -17   3  -4   41.29   11.18   1
 -18   3  -4   50.72   11.50   1
 -21   3  -4   21.93   11.23   1
 -22   3  -4   46.33   12.19   1
 -23   3  -4   17.85   10.71   1
 -25   3  -4   88.35   14.46   1
 -26   3  -4   52.66   13.08   1
 -28   3  -4   13.21   11.56   1
 -26   4  -4   49.72   12.29   1
 -23   4  -4   16.51   11.43   1
 -22   4  -4   48.51   11.06   1
 -21   4  -4   20.37   11.05   1
 -20   4  -4   53.56   11.69   1
 -19   4  -4   37.60   10.26   1
 -17   4  -4   76.42   11.96   1
 -16   4  -4  134.94   13.19   1
 -15   4  -4   94.55   12.37   1
 -14   4  -4   43.66   10.05   1
 -13   4  -4   19.47    8.78   1
 -12   4  -4    1.97    8.17   1
 -11   4  -4  121.07   10.49   1
 -10   4  -4   84.62    9.90   1
  -9   4  -4   60.48    8.97   1
  -8   4  -4  263.39   11.55   1
  -7   4  -4  325.21   12.22   1
  -6   4  -4   15.14    7.28   1
  -5   4  -4  168.49    9.90   1
  -4   4  -4   47.31    8.04   1
  -3   4  -4   25.21    7.70   1
  -2   4  -4   44.05    7.93   1
  -1   4  -4   32.36    7.91   1
   0   4  -4   44.24    8.99   1
   1   4  -4  168.89   11.41   1
   3   4  -4  291.11   16.00   1
   4   4  -4  224.54   17.57   1
   5   4  -4   58.28   13.47   1
   6   4  -4   64.36   14.30   1
   7   4  -4  102.50   15.69   1
   9   4  -4   10.18   12.00   1
  10   4  -4   43.12   12.68   1
  11   4  -4   89.62   13.97   1
  12   4  -4  140.82   15.13   1
  13   4  -4   96.15   14.41   1
  15   4  -4   31.16   12.46   1
  16   4  -4   46.21   12.48   1
  17   4  -4   18.76   11.98   1
  18   4  -4   56.99   12.99   1
  19   4  -4   20.24   11.68   1
  20   5  -4   54.62   13.44   1
  19   5  -4   28.34   11.41   1
  17   5  -4   64.02   11.97   1
  15   5  -4   92.27   13.15   1
  14   5  -4   35.30   13.55   1
  12   5  -4   40.30   12.25   1
  11   5  -4   64.65   12.25   1
  10   5  -4   98.77   13.79   1
   9   5  -4   99.81   14.68   1
   8   5  -4   56.58   12.88   1
   7   5  -4   34.25   12.28   1
   6   5  -4   76.48   14.30   1
   5   5  -4  180.16   18.50   1
   4   5  -4   45.12   14.76   1
   3   5  -4  237.77   16.29   1
   2   5  -4   83.46   11.13   1
   1   5  -4   12.06    8.33   1
   0   5  -4    0.78    7.74   1
  -1   5  -4  155.24   10.08   1
  -4   5  -4  166.15    9.92   1
  -6   5  -4   13.93    6.96   1
  -7   5  -4   78.93    8.97   1
  -8   5  -4  238.96   11.72   1
  -9   5  -4   63.53    9.26   1
 -10   5  -4  229.35   12.02   1
 -11   5  -4   79.56    9.45   1
 -12   5  -4   31.87    9.45   1
 -13   5  -4   42.89   10.19   1
 -14   5  -4  123.43   11.23   1
 -15   5  -4  101.68   12.30   1
 -16   5  -4   63.63   11.88   1
 -17   5  -4   49.28   10.72   1
 -19   5  -4   44.55   10.79   1
 -20   5  -4  107.82   13.36   1
 -21   5  -4   16.98   11.52   1
 -22   5  -4   47.96   12.31   1
 -24   5  -4   21.03   11.45   1
 -25   5  -4   40.60   14.27   1
 -27   5  -4   26.18   12.20   1
 -29   6  -4   39.11   11.91   1
 -28   6  -4   86.80   14.17   1
 -25   6  -4   52.22   12.87   1
 -23   6  -4   62.39   12.97   1
 -22   6  -4   24.46   11.23   1
 -21   6  -4   15.80   11.29   1
 -20   6  -4   17.55   11.15   1
 -19   6  -4    2.03    9.69   1
 -18   6  -4  126.37   12.87   1
 -17   6  -4   93.03   12.45   1
 -16   6  -4  293.85   16.75   1
 -15   6  -4   22.46   10.70   1
 -14   6  -4    0.01    8.84   1
 -13   6  -4   28.12    9.09   1
 -12   6  -4   79.20   10.29   1
 -11   6  -4   70.57   10.09   1
 -10   6  -4   82.95   10.17   1
  -9   6  -4   75.89    9.78   1
  -8   6  -4  135.53   11.02   1
  -7   6  -4  238.75   11.81   1
  -6   6  -4  347.61   13.23   1
  -5   6  -4   16.94    7.52   1
  -3   6  -4   42.51    8.00   1
  -2   6  -4   20.23    7.32   1
  -1   6  -4   16.91    6.99   1
   0   6  -4  361.32   12.53   1
   1   6  -4  229.94   11.65   1
   2   6  -4  128.94   11.83   1
   3   6  -4   75.75   15.03   1
   4   6  -4   97.55   14.96   1
   5   6  -4   83.82   13.13   1
   6   6  -4   52.95   13.14   1
   7   6  -4   41.08   12.63   1
   9   6  -4   42.09   12.11   1
  10   6  -4  312.23   16.70   1
  11   6  -4   79.87   13.17   1
  12   6  -4  126.57   13.86   1
  15   6  -4   24.65   11.29   1
  16   6  -4   26.67   10.63   1
  17   6  -4   49.63   10.88   1
  19   6  -4   64.06   12.07   1
  21   6  -4    3.67   10.76   1
  22   6  -4   88.77   13.48   1
  23   6  -4   38.27   11.65   1
  17   7  -4   41.14   10.99   1
  15   7  -4   19.02    9.76   1
  14   7  -4   63.02   11.42   1
  13   7  -4   55.38   11.43   1
  11   7  -4   27.55   10.21   1
   9   7  -4  124.58   13.29   1
   8   7  -4   62.62   11.56   1
   7   7  -4   21.18    9.99   1
   5   7  -4   45.25   10.72   1
   4   7  -4  107.01   12.90   1
   3   7  -4  106.34   14.27   1
   2   7  -4   93.55   12.66   1
   1   7  -4   30.90    7.73   1
   0   7  -4    0.90    7.38   1
  -1   7  -4  228.94   11.50   1
  -2   7  -4   82.43    9.59   1
  -3   7  -4  322.25   13.16   1
  -4   7  -4  317.95   13.14   1
  -5   7  -4  110.63   10.22   1
  -6   7  -4  223.57   11.72   1
  -8   7  -4   16.65    9.39   1
  -9   7  -4  106.38   11.12   1
 -10   7  -4  114.35   10.96   1
 -11   7  -4  120.28   11.73   1
 -12   7  -4   38.68   10.14   1
 -13   7  -4   31.97   10.32   1
 -14   7  -4   20.19   10.58   1
 -15   7  -4   80.80   12.02   1
 -16   7  -4  153.80   13.39   1
 -17   7  -4   10.29   10.29   1
 -18   7  -4   29.50   11.34   1
 -20   7  -4   39.42   11.61   1
 -21   7  -4   85.86   13.14   1
 -22   7  -4   17.28   11.18   1
 -24   7  -4   45.64   12.18   1
 -25   7  -4   19.67   11.59   1
 -27   7  -4   29.23   12.87   1
 -27   8  -4   72.20   14.19   1
 -22   8  -4   42.00   11.78   1
 -21   8  -4   52.18   11.94   1
 -19   8  -4   18.80    9.07   1
 -18   8  -4   11.83   10.28   1
 -17   8  -4   72.09   12.70   1
 -16   8  -4  103.08   11.79   1
 -15   8  -4   61.85   12.32   1
 -14   8  -4    2.81   10.03   1
 -13   8  -4   50.25   11.15   1
 -11   8  -4  149.65   14.09   1
 -10   8  -4   60.94   11.00   1
  -9   8  -4  123.01   12.38   1
  -7   8  -4   12.15   10.87   1
  -6   8  -4  131.53   12.61   1
  -5   8  -4  220.83   14.91   1
  -4   8  -4  228.88   14.03   1
  -3   8  -4  219.07   14.24   1
  -2   8  -4  138.51   12.52   1
  -1   8  -4   16.65   11.26   1
   1   8  -4  118.98   13.65   1
   2   8  -4   57.99    9.25   1
   3   8  -4  163.20    9.95   1
   5   8  -4   54.78    9.53   1
   7   8  -4   77.06   10.72   1
   8   8  -4  123.10   11.14   1
   9   8  -4   65.31   10.10   1
  18   8  -4   14.53   10.94   1
  19   8  -4   65.63   11.41   1
  20   8  -4   24.78   10.63   1
  21   9  -4   40.59   10.00   1
  17   9  -4   13.41   10.09   1
  15   9  -4  330.94   14.75   1
  14   9  -4   44.15   10.33   1
  12   9  -4   84.71   10.55   1
  11   9  -4   66.29   10.21   1
  10   9  -4   13.27    9.51   1
   9   9  -4  115.30   11.02   1
   8   9  -4   82.35    9.35   1
   7   9  -4  169.89   11.26   1
   6   9  -4   46.83    9.36   1
   5   9  -4  122.80   10.33   1
   4   9  -4   17.04    8.20   1
   3   9  -4   11.70    8.14   1
   2   9  -4   55.07    9.33   1
   0   9  -4   50.46   14.52   1
  -1   9  -4  115.22   14.57   1
  -2   9  -4   81.11   12.92   1
  -3   9  -4   84.13   12.55   1
  -4   9  -4   72.57   12.81   1
  -5   9  -4   68.40   11.60   1
  -6   9  -4   91.68   12.18   1
  -7   9  -4   88.23   12.36   1
  -8   9  -4  129.83   12.95   1
  -9   9  -4   45.49   11.56   1
 -10   9  -4   24.12    9.90   1
 -11   9  -4   46.55   11.62   1
 -12   9  -4   16.72   11.23   1
 -13   9  -4   19.84   11.53   1
 -14   9  -4  116.80   12.94   1
 -15   9  -4   47.39   11.72   1
 -16   9  -4  140.95   13.81   1
 -17   9  -4   70.93   12.37   1
 -18   9  -4   89.55   13.56   1
 -20   9  -4   60.34   12.41   1
 -21   9  -4   72.41   11.92   1
 -23   9  -4   24.49   11.49   1
 -24   9  -4  310.87   17.41   1
 -27   9  -4   31.90   12.89   1
 -30   9  -4   25.35   11.79   1
 -30  10  -4   18.68   12.70   1
 -29  10  -4   70.93   13.28   1
 -27  10  -4   17.87   11.56   1
 -26  10  -4   18.66   11.89   1
 -23  10  -4   69.77   12.54   1
 -22  10  -4    2.28   10.83   1
 -20  10  -4   56.22   11.47   1
 -16  10  -4  318.52   18.01   1
 -15  10  -4  104.04   14.11   1
 -14  10  -4   27.23   11.94   1
 -13  10  -4  137.64   13.59   1
 -12  10  -4   79.41   13.05   1
 -10  10  -4  151.54   14.17   1
  -9  10  -4   25.72   10.89   1
  -8  10  -4   66.07   11.65   1
  -7  10  -4  120.16   12.48   1
  -6  10  -4   75.89   12.14   1
  -5  10  -4  194.46   16.05   1
  -4  10  -4   72.57   13.49   1
  -3  10  -4  107.44   13.95   1
  -2  10  -4   33.97   12.79   1
  -1  10  -4   16.51   13.15   1
   0  10  -4  169.83   16.76   1
   1  10  -4   15.36   11.88   1
   2  10  -4   86.20   11.09   1
   3  10  -4  159.49   10.79   1
   4  10  -4   31.75    9.03   1
   5  10  -4  110.32   10.19   1
   6  10  -4  307.00   12.96   1
   8  10  -4   15.29    8.59   1
   9  10  -4    9.54    9.16   1
  10  10  -4   52.50    9.82   1
  13  10  -4   90.01   10.55   1
  14  10  -4    0.76    8.41   1
  15  10  -4   13.10    9.17   1
  17  10  -4   21.91    9.91   1
  18  10  -4    2.81    9.41   1
  19  10  -4   95.25   10.45   1
  20  10  -4   25.62    9.02   1
  18  11  -4    9.36    8.79   1
  17  11  -4   13.22   10.58   1
  13  11  -4   12.56    9.67   1
  12  11  -4   52.09    9.27   1
  11  11  -4   22.27    9.56   1
   9  11  -4   86.07    9.63   1
   8  11  -4   17.90    8.19   1
   7  11  -4   25.25    9.08   1
   6  11  -4   87.78    9.63   1
   5  11  -4   59.70    9.29   1
   4  11  -4  106.98   10.32   1
   3  11  -4   65.50    9.72   1
   2  11  -4  103.63   12.34   1
   1  11  -4  343.39   17.00   1
   0  11  -4   30.92   12.94   1
  -1  11  -4   10.06   13.18   1
  -2  11  -4   48.99   13.98   1
  -3  11  -4  139.79   15.23   1
  -4  11  -4   88.65   15.26   1
  -5  11  -4   86.20   12.97   1
  -6  11  -4   89.82   14.19   1
  -7  11  -4  101.26   14.41   1
  -8  11  -4  129.75   15.27   1
  -9  11  -4   54.28   12.29   1
 -11  11  -4   40.64   11.35   1
 -12  11  -4  323.14   17.04   1
 -13  11  -4  121.20   13.65   1
 -14  11  -4   46.71   13.16   1
 -15  11  -4  109.81   14.07   1
 -16  11  -4   55.59   13.15   1
 -17  11  -4   81.24   14.97   1
 -18  11  -4   42.84   12.62   1
 -20  11  -4   65.30   13.09   1
 -21  11  -4    2.73   11.91   1
 -22  11  -4   19.04   11.86   1
 -23  11  -4   45.56   12.61   1
 -24  11  -4    4.32   10.58   1
 -26  11  -4   22.07   11.83   1
 -27  11  -4   12.42   11.21   1
 -30  11  -4   20.46   11.81   1
 -28  12  -4   39.11   12.91   1
 -26  12  -4    8.11   11.52   1
 -24  12  -4  202.59   16.93   1
 -23  12  -4   54.92   13.14   1
 -21  12  -4   51.19   13.49   1
 -18  12  -4  121.89   15.21   1
 -16  12  -4  129.42   15.99   1
 -14  12  -4   27.26   12.54   1
 -13  12  -4  143.56   15.63   1
 -12  12  -4   56.57   13.04   1
 -11  12  -4  265.97   17.83   1
 -10  12  -4   70.47   13.54   1
  -8  12  -4   12.54   11.46   1
  -7  12  -4   35.95   12.79   1
  -6  12  -4   62.01   13.51   1
  -5  12  -4   40.92   13.39   1
  -2  12  -4   73.33   15.40   1
  -1  12  -4  306.90   19.71   1
   0  12  -4   65.98   14.18   1
   1  12  -4  183.45   14.19   1
   2  12  -4   20.22   10.14   1
   4  12  -4  142.03   10.75   1
   5  12  -4   50.22    8.57   1
   6  12  -4  127.61   10.65   1
   7  12  -4   14.34    8.71   1
   8  12  -4   14.64    8.52   1
   9  12  -4   51.65    9.45   1
  11  12  -4   56.38   10.12   1
  12  12  -4  237.35   12.61   1
  14  12  -4    9.23    9.20   1
  15  12  -4    3.41    8.95   1
  16  12  -4   37.30    9.97   1
  18  12  -4    1.86    8.48   1
  14  13  -4   21.08    9.29   1
  10  13  -4   85.48    9.55   1
   8  13  -4   66.58    9.94   1
   7  13  -4   44.25    9.10   1
   4  13  -4  104.25   10.24   1
   3  13  -4  112.01   10.94   1
   2  13  -4    9.76    9.88   1
   0  13  -4   90.13   15.04   1
  -1  13  -4  145.15   17.70   1
  -2  13  -4  137.28   16.84   1
  -3  13  -4  134.40   16.78   1
  -4  13  -4   17.10   13.39   1
  -5  13  -4   47.16   13.55   1
  -6  13  -4   46.54   13.44   1
  -7  13  -4   33.55   13.87   1
  -8  13  -4   58.69   13.20   1
 -10  13  -4  131.55   15.24   1
 -11  13  -4  127.91   15.21   1
 -12  13  -4  168.84   15.02   1
 -13  13  -4  105.27   15.54   1
 -14  13  -4   12.04   10.29   1
 -16  13  -4   74.42   14.07   1
 -17  13  -4   73.44   13.55   1
 -18  13  -4    8.22   11.15   1
 -20  13  -4   47.84   13.49   1
 -21  13  -4   53.28   12.85   1
 -22  13  -4    0.30   11.14   1
 -23  13  -4   73.96   12.53   1
 -25  13  -4   20.47   10.30   1
 -29  13  -4   18.11   11.84   1
 -28  14  -4  136.90   15.21   1
 -26  14  -4   15.65   12.17   1
 -22  14  -4   46.80   12.48   1
 -21  14  -4   67.73   12.94   1
 -20  14  -4   19.11   11.55   1
 -17  14  -4   36.86   12.71   1
 -15  14  -4  155.61   16.13   1
 -14  14  -4   27.34   12.46   1
 -12  14  -4   14.68   11.96   1
 -11  14  -4   43.40   13.66   1
 -10  14  -4   27.60   12.49   1
  -9  14  -4  123.20   14.78   1
  -5  14  -4  103.84   16.11   1
  -4  14  -4   34.87   13.21   1
  -3  14  -4   37.12   15.72   1
  -2  14  -4   33.44   13.59   1
  -1  14  -4   11.00   12.33   1
   0  14  -4   38.60   12.73   1
   1  14  -4  176.77   13.94   1
   3  14  -4   79.68    9.80   1
   5  14  -4   53.12    9.04   1
   6  14  -4   11.86    8.38   1
   7  14  -4   84.41    9.54   1
   8  14  -4   75.06    9.20   1
   9  14  -4   36.00    8.35   1
  10  14  -4    0.21    8.45   1
  13  14  -4   11.93    9.36   1
  14  14  -4  153.70   10.66   1
  15  15  -4   84.45    9.70   1
  13  15  -4    4.09    7.71   1
   9  15  -4  251.56   12.39   1
   8  15  -4   14.81    8.20   1
   7  15  -4   17.55    8.34   1
   6  15  -4   40.29    8.14   1
   5  15  -4  113.60   10.45   1
   4  15  -4   74.72    9.28   1
   3  15  -4   39.97   10.27   1
   2  15  -4   18.56   10.47   1
  -1  15  -4  167.91   15.89   1
  -4  15  -4  104.16   15.76   1
  -5  15  -4   98.57   15.81   1
  -6  15  -4   53.79   13.95   1
  -7  15  -4   54.05   13.66   1
  -8  15  -4   78.85   14.46   1
  -9  15  -4   37.24   14.21   1
 -10  15  -4   80.58   13.85   1
 -11  15  -4  108.19   14.79   1
 -13  15  -4   11.67   11.67   1
 -14  15  -4  171.49   16.18   1
 -18  15  -4   29.84   13.84   1
 -19  15  -4   50.74   12.16   1
 -20  15  -4  100.48   15.20   1
 -22  15  -4   33.90   12.25   1
 -24  15  -4  341.72   18.38   1
 -26  15  -4    6.05   11.85   1
 -28  15  -4    1.80   12.03   1
 -29  15  -4    1.93    9.98   1
 -31  15  -4   23.74   11.21   1
 -31  16  -4   18.66   11.84   1
 -29  16  -4   15.13   10.20   1
 -28  16  -4   43.98   12.88   1
 -27  16  -4   14.18   11.08   1
 -23  16  -4   29.47   11.52   1
 -22  16  -4   30.72   12.02   1
 -21  16  -4   27.66   12.11   1
 -20  16  -4   53.47   14.05   1
 -18  16  -4  101.13   14.85   1
 -17  16  -4   43.77   12.52   1
 -15  16  -4    2.51   11.96   1
 -13  16  -4   95.57   14.36   1
 -12  16  -4  157.28   16.15   1
 -11  16  -4   74.31   14.87   1
 -10  16  -4  312.04   19.51   1
  -9  16  -4  182.00   16.57   1
  -8  16  -4  106.82   15.67   1
  -7  16  -4  139.54   16.57   1
  -6  16  -4  306.74   19.52   1
  -5  16  -4   62.43   14.36   1
  -4  16  -4  154.40   17.46   1
  -3  16  -4   72.77   13.61   1
   1  16  -4   44.92   10.53   1
   2  16  -4  129.45   12.02   1
   4  16  -4   77.61    9.22   1
   5  16  -4   34.86    8.70   1
  10  16  -4   10.83    8.52   1
  12  16  -4   72.11    8.93   1
   7  17  -4   44.36    8.68   1
   6  17  -4   49.59    8.80   1
   5  17  -4   55.98    9.00   1
   2  17  -4  116.90   11.01   1
   1  17  -4  101.55   12.40   1
   0  17  -4    0.00   10.77   1
  -1  17  -4   37.80   11.93   1
  -2  17  -4   25.76   12.38   1
  -3  17  -4   42.12   14.70   1
  -4  17  -4   90.66   14.75   1
  -5  17  -4   55.15   13.54   1
  -6  17  -4   68.41   16.18   1
  -7  17  -4    2.63   12.42   1
  -8  17  -4   73.87   14.77   1
  -9  17  -4   87.92   13.74   1
 -10  17  -4   11.71   11.74   1
 -12  17  -4   60.98   14.26   1
 -13  17  -4   93.68   14.23   1
 -14  17  -4   45.73   14.01   1
 -18  17  -4   89.86   13.31   1
 -19  17  -4  104.04   13.76   1
 -23  17  -4   44.37   13.46   1
 -24  17  -4   37.98   12.77   1
 -27  17  -4   16.56   13.03   1
 -28  17  -4   12.96   12.23   1
 -29  17  -4   15.65   10.87   1
 -30  17  -4    0.03   11.06   1
 -29  18  -4   16.39   10.75   1
 -27  18  -4   26.53   12.54   1
 -22  18  -4   35.39   12.89   1
 -21  18  -4   22.22   12.67   1
 -20  18  -4   26.33   12.77   1
 -18  18  -4   11.97   11.93   1
 -17  18  -4   83.20   14.22   1
 -16  18  -4  105.58   15.06   1
 -15  18  -4   33.82   13.44   1
 -14  18  -4    2.91   10.70   1
 -12  18  -4  109.86   15.93   1
 -10  18  -4   11.57   12.88   1
  -9  18  -4   92.35   14.74   1
  -7  18  -4   30.34   13.74   1
  -6  18  -4  115.73   16.34   1
  -5  18  -4   13.59   12.15   1
  -3  18  -4   22.94   13.71   1
  -2  18  -4  117.66   14.17   1
  -1  18  -4   92.37   13.80   1
   0  18  -4    6.29   10.72   1
   1  18  -4   32.40    9.95   1
   2  18  -4   36.63    9.29   1
   9  18  -4   35.24    8.08   1
  11  19  -4    9.48    7.46   1
  10  19  -4  109.52    8.77   1
   8  19  -4   80.76    9.21   1
   6  19  -4   60.38    9.54   1
   5  19  -4   20.73    8.76   1
   4  19  -4   23.50    9.06   1
   3  19  -4   53.71   10.71   1
   2  19  -4  144.83   12.46   1
   1  19  -4   61.89   10.80   1
  -1  19  -4   34.04   11.75   1
  -2  19  -4   81.18   13.77   1
  -3  19  -4   14.27   12.84   1
  -4  19  -4   32.12   11.93   1
  -5  19  -4   36.16   13.26   1
 -10  19  -4    0.74   12.37   1
 -14  19  -4   36.35   13.11   1
 -15  19  -4   57.49   13.47   1
 -17  19  -4  103.74   14.24   1
 -18  19  -4   25.03   12.36   1
 -20  19  -4   48.39   13.84   1
 -21  19  -4  126.29   14.83   1
 -22  19  -4   40.74   13.14   1
 -23  19  -4   32.77   11.91   1
 -24  19  -4   21.08   12.82   1
 -25  19  -4   75.92   14.40   1
 -27  19  -4   78.04   14.17   1
 -29  19  -4   71.43   13.02   1
 -30  20  -4   20.08   10.48   1
 -25  20  -4   61.03   14.94   1
 -24  20  -4   11.10   12.02   1
 -23  20  -4   29.71   12.73   1
 -21  20  -4   71.52   15.11   1
 -19  20  -4   59.15   13.64   1
 -18  20  -4   20.59   14.13   1
 -16  20  -4   69.16   14.43   1
 -15  20  -4  123.70   14.39   1
 -14  20  -4   18.45   12.40   1
 -13  20  -4   66.83   14.13   1
 -11  20  -4   86.51   14.91   1
 -10  20  -4   41.59   14.35   1
  -9  20  -4   81.63   15.47   1
  -7  20  -4   58.49   14.22   1
  -5  20  -4   97.23   14.32   1
  -4  20  -4   54.24   13.51   1
  -2  20  -4   33.11   12.65   1
   0  20  -4   15.85   11.20   1
   1  20  -4   72.12   11.93   1
   2  20  -4   41.25   10.07   1
   7  20  -4   17.01    8.77   1
   8  20  -4   25.21    8.65   1
   9  21  -4   41.87    8.34   1
   2  21  -4   39.05   10.43   1
   0  21  -4   52.87   11.82   1
  -1  21  -4   74.17   13.10   1
  -2  21  -4  134.29   14.78   1
  -4  21  -4   16.43   12.35   1
  -5  21  -4   31.54   13.07   1
  -7  21  -4   75.39   13.76   1
  -8  21  -4   64.67   13.71   1
  -9  21  -4   46.81   14.89   1
 -11  21  -4   18.03   11.76   1
 -12  21  -4   54.62   13.11   1
 -14  21  -4   53.69   14.04   1
 -16  21  -4   16.88   12.42   1
 -19  21  -4  117.37   15.12   1
 -20  21  -4   49.69   13.87   1
 -21  21  -4   49.81   14.28   1
 -23  21  -4   37.51   14.28   1
 -24  21  -4   26.13   13.99   1
 -25  21  -4   38.89   13.97   1
 -26  21  -4   18.78   13.83   1
 -28  22  -4   66.57   12.88   1
 -27  22  -4   22.49   13.25   1
 -25  22  -4   81.13   14.90   1
 -24  22  -4   17.82   12.42   1
 -22  22  -4    3.72   11.97   1
 -20  22  -4   32.27   13.45   1
 -19  22  -4   51.35   13.94   1
 -18  22  -4   55.78   14.39   1
 -17  22  -4   41.33   13.45   1
 -16  22  -4   32.12   13.69   1
 -14  22  -4   43.08   14.26   1
 -13  22  -4    3.27   12.22   1
 -10  22  -4    0.47   12.54   1
  -8  22  -4   60.25   13.83   1
  -7  22  -4   28.51   13.13   1
  -6  22  -4   25.78   12.51   1
  -5  22  -4   55.15   13.65   1
  -3  22  -4   28.51   13.29   1
  -2  22  -4   33.05   10.96   1
   1  22  -4   11.41   11.23   1
   2  22  -4   21.01   10.63   1
   3  22  -4   96.79   10.69   1
   4  22  -4   27.66    9.47   1
   5  22  -4   44.42    9.72   1
   6  23  -4   74.22    8.77   1
   4  23  -4   11.18    9.90   1
   3  23  -4   44.15   10.38   1
   1  23  -4    0.49   10.54   1
   0  23  -4   82.25   12.75   1
  -2  23  -4   59.09   13.10   1
  -3  23  -4   17.75   11.98   1
  -4  23  -4   31.49   11.56   1
  -6  23  -4   38.47   13.53   1
 -10  23  -4   77.18   15.68   1
 -11  23  -4   50.19   14.89   1
 -12  23  -4   58.67   14.44   1
 -13  23  -4   64.69   13.85   1
 -14  23  -4   24.35   13.47   1
 -15  23  -4   16.09   12.80   1
 -16  23  -4    7.94   13.35   1
 -17  23  -4   58.33   14.37   1
 -19  23  -4   14.58   12.79   1
 -20  23  -4   16.91   13.66   1
 -23  23  -4   96.69   15.41   1
 -24  23  -4    5.47   12.11   1
 -26  23  -4   46.52   13.45   1
 -28  23  -4   10.43   11.48   1
 -29  23  -4   51.59   11.94   1
 -28  24  -4    5.39   11.17   1
 -27  24  -4    1.01   11.52   1
 -25  24  -4   42.76   14.83   1
 -22  24  -4   43.00   15.82   1
 -21  24  -4   29.66   14.18   1
 -19  24  -4   35.39   14.61   1
 -15  24  -4  315.94   20.58   1
 -12  24  -4  217.74   18.40   1
 -11  24  -4   13.13   12.24   1
  -9  24  -4  339.92   17.97   1
  -3  24  -4   21.82   13.05   1
   1  24  -4   46.14   11.49   1
   3  25  -4   17.13    8.89   1
   2  25  -4  101.51   11.05   1
   1  25  -4   14.25    9.94   1
   0  25  -4   12.44   10.67   1
  -1  25  -4   37.22   12.07   1
  -3  25  -4   81.45   13.68   1
  -4  25  -4   45.82   12.87   1
  -5  25  -4   37.37   13.33   1
  -6  25  -4   72.10   15.32   1
 -16  25  -4    0.49   12.08   1
 -17  25  -4    0.59   12.73   1
 -18  25  -4   19.63   13.06   1
 -19  25  -4   51.21   14.60   1
 -20  25  -4   31.22   16.02   1
 -21  25  -4   45.42   14.23   1
 -22  25  -4   89.59   15.78   1
 -24  25  -4   22.68   14.23   1
 -26  25  -4    7.09   13.11   1
 -27  25  -4  115.71   14.02   1
 -28  25  -4   18.23   11.93   1
 -27  26  -4   26.66   12.79   1
 -23  26  -4   63.95   14.96   1
 -11  26  -4    7.05   12.74   1
  -8  26  -4   17.48   12.11   1
  -6  26  -4    5.46   10.95   1
  -3  26  -4   29.44   12.91   1
  -1  26  -4   17.66   10.45   1
   1  26  -4   45.58   10.21   1
  -2  27  -4   79.92   12.32   1
  -8  27  -4   71.67   13.54   1
 -10  27  -4   35.62   12.54   1
 -11  27  -4   14.72   12.31   1
 -16  27  -4   30.44   12.16   1
 -17  27  -4   20.59   13.35   1
 -19  27  -4   62.70   14.61   1
 -22  27  -4   31.45   14.61   1
 -25  27  -4   77.24   14.24   1
 -26  27  -4   22.73   12.02   1
 -25  28  -4    9.15   11.03   1
 -24  28  -4    1.17   10.79   1
 -23  28  -4   14.65   11.67   1
 -22  28  -4   78.43   14.46   1
 -20  28  -4   21.96   12.36   1
 -14  28  -4  124.02   15.23   1
 -12  28  -4   60.63   12.43   1
 -11  28  -4   12.74   11.73   1
 -10  28  -4   12.70   12.40   1
  -9  28  -4   17.09   11.04   1
  -8  28  -4   28.47   11.83   1
  -6  28  -4   82.77   13.13   1
  -3  28  -4   11.38   11.17   1
  -6  29  -4   47.37   11.55   1
  -7  29  -4    3.40   10.45   1
 -10  29  -4  115.06   13.19   1
 -11  29  -4   15.78   11.47   1
 -15  29  -4   14.48   10.84   1
 -19  29  -4   90.55   12.49   1
 -22  29  -4   12.43   11.44   1
 -23  29  -4   40.57   11.96   1
 -20  30  -4   20.15   11.89   1
 -19  30  -4   18.77   11.23   1
 -15  30  -4   59.75   13.02   1
 -11  30  -4   17.60   10.65   1
 -10  30  -4   18.07   11.29   1
 -19  33  -3   19.19   12.77   1
 -17  33  -3   31.87   12.88   1
 -16  33  -3   26.98   12.45   1
 -14  32  -3    9.84   12.86   1
 -15  32  -3    1.65   11.08   1
 -16  32  -3   19.04   11.70   1
 -18  32  -3   19.23   12.86   1
 -23  32  -3   16.52   12.80   1
 -19  31  -3    0.22   12.29   1
 -18  31  -3    1.42   12.43   1
 -17  31  -3    5.96   12.67   1
 -14  31  -3    4.74   12.43   1
  -7  31  -3   13.27    9.08   1
  -6  31  -3   11.56    9.32   1
  -4  30  -3   51.71   10.31   1
  -5  30  -3   26.46   10.47   1
  -6  30  -3   35.31   10.75   1
  -7  30  -3    6.08    9.69   1
  -8  30  -3   20.93   11.08   1
  -9  30  -3   39.49   11.02   1
 -10  30  -3   68.59   12.65   1
 -12  30  -3   21.45   14.34   1
 -14  30  -3   58.25   15.25   1
 -16  30  -3   58.24   13.52   1
 -18  30  -3   34.37   14.63   1
 -20  30  -3   56.40   14.45   1
 -21  30  -3   44.45   13.90   1
 -22  30  -3   13.90   12.41   1
 -24  30  -3   27.98   13.48   1
 -25  30  -3   25.25   13.41   1
 -28  29  -3   18.26   13.60   1
 -24  29  -3   62.76   14.13   1
 -23  29  -3    5.65   12.68   1
 -22  29  -3   41.48   14.25   1
 -21  29  -3   30.59   15.43   1
 -20  29  -3   44.30   14.42   1
 -18  29  -3   47.10   14.26   1
 -17  29  -3   22.31   14.45   1
 -15  29  -3  117.10   16.02   1
 -14  29  -3  132.66   17.10   1
 -11  29  -3   31.16   14.16   1
  -9  29  -3   44.69   13.60   1
  -8  29  -3   33.88   12.45   1
  -7  29  -3   29.36   12.13   1
  -5  29  -3   64.38   11.50   1
  -1  29  -3   18.60   10.02   1
  -1  28  -3   31.83    9.96   1
  -3  28  -3    0.24    9.97   1
  -5  28  -3   15.50   11.02   1
  -7  28  -3  112.78   14.01   1
  -9  28  -3   35.75   13.82   1
 -11  28  -3   92.25   13.59   1
 -12  28  -3    2.73   11.82   1
 -13  28  -3   31.22   14.66   1
 -14  28  -3   52.58   13.07   1
 -15  28  -3   29.11   12.34   1
 -17  28  -3   66.77   13.61   1
 -19  28  -3   42.05   14.43   1
 -20  28  -3   21.03   12.26   1
 -21  28  -3  105.58   15.91   1
 -23  28  -3   17.00   11.86   1
 -26  28  -3   20.82   13.09   1
 -27  28  -3   41.94   14.46   1
 -29  27  -3   18.51   11.98   1
 -28  27  -3   41.03   11.60   1
 -27  27  -3   53.33   13.33   1
 -25  27  -3   58.53   13.86   1
 -24  27  -3   30.71   13.85   1
 -23  27  -3   52.18   14.68   1
 -21  27  -3   19.73   13.57   1
 -19  27  -3   64.09   13.85   1
 -17  27  -3   12.71   13.62   1
 -16  27  -3   20.34   12.73   1
 -14  27  -3   17.52   12.69   1
 -13  27  -3   19.54   12.80   1
 -12  27  -3   27.53   12.84   1
 -11  27  -3   21.43   12.10   1
 -10  27  -3   25.91   12.90   1
  -8  27  -3   70.06   13.68   1
  -7  27  -3    4.75   11.05   1
  -3  27  -3   38.55   11.11   1
  -2  27  -3   36.40   11.36   1
   0  27  -3   40.99    9.87   1
   1  27  -3   23.77    9.72   1
   3  27  -3    0.27    8.36   1
   4  26  -3   77.08    9.49   1
   2  26  -3   45.46    9.46   1
   1  26  -3   17.56    9.82   1
   0  26  -3   57.14   10.26   1
  -3  26  -3    4.86   11.72   1
  -7  26  -3   59.33   12.71   1
  -8  26  -3   39.72   14.17   1
 -10  26  -3   46.23   15.09   1
 -13  26  -3  143.11   16.09   1
 -16  26  -3   57.50   14.24   1
 -17  26  -3   23.27   13.02   1
 -18  26  -3   39.01   13.59   1
 -19  26  -3   64.60   14.86   1
 -22  26  -3    1.57   10.97   1
 -26  26  -3   71.71   14.08   1
 -28  26  -3   43.38   13.50   1
 -29  26  -3   18.87   12.99   1
 -30  26  -3   62.12   13.47   1
 -30  25  -3   19.49   12.59   1
 -27  25  -3   41.64   13.83   1
 -26  25  -3    3.45   11.44   1
 -25  25  -3   68.78   15.09   1
 -23  25  -3    0.22   11.61   1
 -22  25  -3    5.84   11.09   1
 -21  25  -3  134.22   15.25   1
 -17  25  -3   60.09   14.12   1
 -16  25  -3   31.30   12.99   1
 -15  25  -3  110.03   14.93   1
 -10  25  -3  115.23   17.07   1
  -9  25  -3   35.31   14.17   1
  -8  25  -3   51.94   15.14   1
  -7  25  -3   27.32   13.34   1
  -6  25  -3   20.20   12.28   1
  -5  25  -3    4.87   10.90   1
  -4  25  -3  168.08   14.34   1
  -3  25  -3   11.48   10.82   1
  -2  25  -3    1.29    9.87   1
   2  25  -3   48.52   10.23   1
   6  24  -3   36.23    8.76   1
   5  24  -3   87.16   10.17   1
   3  24  -3   44.27   10.03   1
   0  24  -3  105.78   11.23   1
  -1  24  -3   92.77   11.44   1
  -3  24  -3   56.94   12.35   1
  -4  24  -3   37.40   12.39   1
  -5  24  -3    2.22   11.56   1
  -6  24  -3   16.95   13.18   1
  -7  24  -3   25.09   14.44   1
  -8  24  -3   18.16   13.29   1
  -9  24  -3    3.86   13.40   1
 -14  24  -3   32.22   14.03   1
 -16  24  -3   35.77   12.65   1
 -17  24  -3   38.76   13.63   1
 -20  24  -3   37.76   13.39   1
 -21  24  -3   61.77   13.50   1
 -22  24  -3    0.61   11.92   1
 -23  24  -3   38.08   12.66   1
 -24  24  -3   81.21   14.49   1
 -29  24  -3   78.01   15.08   1
 -31  24  -3    0.52   11.35   1
 -32  23  -3   20.86   11.67   1
 -31  23  -3   22.59   12.60   1
 -30  23  -3   16.47   12.65   1
 -27  23  -3   60.50   13.17   1
 -24  23  -3   43.41   14.39   1
 -23  23  -3  116.33   15.81   1
 -21  23  -3   42.04   13.34   1
 -20  23  -3   41.01   13.34   1
 -18  23  -3   68.50   14.06   1
 -17  23  -3   63.84   14.23   1
 -16  23  -3   82.39   13.27   1
 -12  23  -3   13.02   12.29   1
 -10  23  -3   16.96   13.37   1
  -8  23  -3   40.54   14.11   1
  -7  23  -3   68.32   15.07   1
  -6  23  -3   97.46   15.78   1
  -5  23  -3   43.59   13.81   1
  -3  23  -3   53.56   12.69   1
  -2  23  -3   44.72   11.48   1
   0  23  -3  152.76   11.42   1
   1  23  -3   47.13   10.71   1
   3  23  -3   12.38    9.07   1
   4  23  -3   78.93    9.86   1
   5  23  -3   11.03    8.58   1
   6  23  -3   14.43    8.11   1
   7  23  -3    8.26    7.98   1
   8  23  -3    9.49    7.86   1
   9  23  -3   16.68    7.06   1
   9  22  -3    5.40    7.41   1
   8  22  -3   15.44    8.27   1
   7  22  -3   41.27    9.38   1
  -1  22  -3   68.33   11.74   1
  -2  22  -3   32.34   11.37   1
  -3  22  -3  113.22   14.91   1
  -5  22  -3   95.80   13.62   1
  -7  22  -3    2.80   12.23   1
  -8  22  -3  194.74   17.50   1
  -9  22  -3  106.78   15.90   1
 -10  22  -3   22.60   14.09   1
 -11  22  -3  340.29   19.31   1
 -12  22  -3   19.40   13.32   1
 -13  22  -3  113.09   15.62   1
 -14  22  -3  182.42   17.21   1
 -17  22  -3   94.40   13.46   1
 -19  22  -3  100.98   15.46   1
 -21  22  -3   74.48   13.31   1
 -22  22  -3    0.28   11.33   1
 -27  22  -3    0.48   13.16   1
 -29  22  -3   28.05   12.89   1
 -31  21  -3   17.67   12.06   1
 -30  21  -3   21.23   12.54   1
 -29  21  -3   32.42   12.45   1
 -28  21  -3   95.62   15.00   1
 -27  21  -3   24.20   12.40   1
 -25  21  -3  140.62   15.05   1
 -24  21  -3   84.11   13.79   1
 -22  21  -3   67.21   12.94   1
 -21  21  -3    1.39   10.92   1
 -20  21  -3   14.75   11.98   1
 -19  21  -3   66.00   13.92   1
 -18  21  -3   44.02   12.69   1
 -17  21  -3   53.89   13.89   1
 -16  21  -3  121.84   15.47   1
 -15  21  -3   74.03   14.87   1
 -14  21  -3   33.55   12.77   1
 -13  21  -3   15.42   12.17   1
 -12  21  -3   19.51   12.97   1
  -8  21  -3   26.68   13.12   1
  -7  21  -3   36.25   14.53   1
  -6  21  -3   57.59   14.13   1
  -5  21  -3  145.02   15.24   1
  -4  21  -3   38.36   13.02   1
  -3  21  -3   27.55   13.33   1
  -2  21  -3   90.74   13.52   1
  -1  21  -3   19.68   10.47   1
   1  21  -3   64.58   11.19   1
   2  21  -3   29.81   10.37   1
   3  21  -3   77.21   10.32   1
   4  21  -3  156.47   10.20   1
   7  21  -3  106.30    9.66   1
   8  21  -3   51.42    8.55   1
  10  21  -3   10.04    8.18   1
  10  20  -3   89.26    9.37   1
   9  20  -3   78.56    9.55   1
   8  20  -3   36.28    8.47   1
   4  20  -3   60.99    8.75   1
   3  20  -3   56.72    9.69   1
   2  20  -3   21.02    9.61   1
   0  20  -3   82.23   12.28   1
  -1  20  -3   30.12   11.26   1
  -2  20  -3   20.24   12.27   1
  -5  20  -3    4.93   12.41   1
  -6  20  -3   51.31   14.29   1
  -7  20  -3   98.44   15.61   1
  -9  20  -3    0.23   11.64   1
 -10  20  -3  208.18   17.16   1
 -12  20  -3   24.14   11.65   1
 -13  20  -3  118.23   14.57   1
 -14  20  -3   75.11   13.19   1
 -17  20  -3   11.41   11.99   1
 -18  20  -3   19.55   13.10   1
 -19  20  -3   23.89   13.45   1
 -20  20  -3   88.33   14.08   1
 -22  20  -3   15.51   12.16   1
 -23  20  -3   37.36   12.95   1
 -24  20  -3   48.77   13.18   1
 -29  20  -3   37.10   14.90   1
 -30  20  -3   81.96   14.28   1
 -33  19  -3   26.37   11.97   1
 -31  19  -3    0.09   11.38   1
 -28  19  -3   31.48   12.72   1
 -27  19  -3   72.32   13.11   1
 -26  19  -3   72.14   12.72   1
 -23  19  -3    3.73   11.15   1
 -22  19  -3  122.22   13.76   1
 -21  19  -3   69.54   14.00   1
 -20  19  -3   45.54   13.22   1
 -19  19  -3   46.99   12.26   1
 -18  19  -3   27.83   12.48   1
 -17  19  -3  158.52   14.92   1
 -16  19  -3  158.64   15.68   1
 -15  19  -3   66.75   13.18   1
 -14  19  -3  120.83   14.54   1
 -12  19  -3   25.74   12.36   1
 -10  19  -3  107.04   14.43   1
  -9  19  -3  104.05   15.10   1
  -7  19  -3   29.76   13.29   1
  -5  19  -3  118.97   15.63   1
  -4  19  -3   68.01   14.37   1
  -3  19  -3  116.83   14.68   1
  -2  19  -3  150.07   15.07   1
   0  19  -3   53.27   11.59   1
   1  19  -3   29.40    9.34   1
   2  19  -3   79.44   10.33   1
   3  19  -3  124.38   11.20   1
   7  19  -3   88.34    9.00   1
   9  19  -3   23.86    9.05   1
  14  19  -3   36.86    8.28   1
  12  18  -3   45.72    8.73   1
  11  18  -3   52.27   10.06   1
   8  18  -3   37.69    7.94   1
   7  18  -3   28.86    7.24   1
   5  18  -3   63.31    9.23   1
   4  18  -3   37.72    8.92   1
   3  18  -3   38.65    9.75   1
   2  18  -3   27.76    9.44   1
   1  18  -3   22.58   10.38   1
   0  18  -3   11.52   10.72   1
  -1  18  -3   92.97   13.04   1
  -2  18  -3   28.76   12.00   1
  -3  18  -3  223.02   16.21   1
  -4  18  -3   83.79   14.55   1
  -5  18  -3  131.55   15.13   1
  -6  18  -3   13.68   13.11   1
  -7  18  -3  278.39   18.92   1
  -8  18  -3   92.96   14.20   1
  -9  18  -3  153.70   15.02   1
 -10  18  -3   97.99   13.97   1
 -11  18  -3  272.43   16.68   1
 -12  18  -3   20.17   12.31   1
 -13  18  -3  115.92   14.77   1
 -14  18  -3   70.57   14.05   1
 -15  18  -3  198.64   16.28   1
 -16  18  -3   51.61   12.76   1
 -17  18  -3  102.28   14.74   1
 -18  18  -3   14.32   12.17   1
 -21  18  -3   42.60   12.34   1
 -22  18  -3   19.88   11.86   1
 -23  18  -3   53.63   12.77   1
 -24  18  -3    6.55   11.37   1
 -25  18  -3   13.79   11.74   1
 -26  18  -3   43.95   12.45   1
 -27  18  -3   18.69   11.99   1
 -29  18  -3   58.45   13.80   1
 -30  18  -3   36.85   12.76   1
 -31  18  -3    3.05   11.74   1
 -32  18  -3    5.50   11.89   1
 -33  17  -3   30.51   13.07   1
 -28  17  -3   70.42   12.67   1
 -25  17  -3   52.62   11.97   1
 -24  17  -3   52.29   12.45   1
 -23  17  -3   68.36   14.67   1
 -22  17  -3   75.46   13.06   1
 -21  17  -3   36.78   11.65   1
 -20  17  -3   24.82   11.89   1
 -19  17  -3  149.10   14.84   1
 -18  17  -3  144.56   13.71   1
 -17  17  -3  109.72   14.04   1
 -16  17  -3    7.78   10.68   1
 -15  17  -3   28.49   10.61   1
 -13  17  -3   62.06   12.46   1
 -12  17  -3   59.12   12.60   1
 -11  17  -3   49.23   12.58   1
 -10  17  -3  177.41   15.79   1
  -9  17  -3   46.00   11.69   1
  -8  17  -3   47.13   12.74   1
  -7  17  -3  178.53   16.21   1
  -6  17  -3   50.79   13.24   1
  -5  17  -3   78.19   13.78   1
  -4  17  -3   51.19   13.98   1
  -3  17  -3   26.23   11.76   1
  -1  17  -3    8.74   10.44   1
   0  17  -3  107.38   11.85   1
   1  17  -3  132.20   11.83   1
   2  17  -3  165.50   12.02   1
   3  17  -3   12.33    9.18   1
   4  17  -3   34.83    9.00   1
   5  17  -3   90.67    9.76   1
   6  17  -3   97.14   10.58   1
   7  17  -3   40.27    7.99   1
   8  17  -3   67.62    8.34   1
   9  17  -3   36.13    8.79   1
  10  17  -3   10.50    7.91   1
  11  17  -3   80.62    9.38   1
  14  17  -3    6.96    7.92   1
  16  17  -3   70.86    8.86   1
  17  16  -3   50.52    8.66   1
  14  16  -3   83.40   10.07   1
  13  16  -3    8.57    7.83   1
  11  16  -3   19.92    7.87   1
  10  16  -3   47.61    8.11   1
   7  16  -3   89.67    8.75   1
   5  16  -3  155.57    9.97   1
   3  16  -3  118.30   10.05   1
   2  16  -3   48.35    9.18   1
   1  16  -3    7.33    9.14   1
  -1  16  -3  124.14   12.58   1
  -2  16  -3   86.08   13.18   1
  -3  16  -3  298.99   18.21   1
  -4  16  -3   11.74   12.52   1
  -5  16  -3   57.48   13.45   1
  -6  16  -3   22.16   12.74   1
  -7  16  -3   24.66   11.15   1
  -9  16  -3   12.53   10.55   1
 -10  16  -3   27.27   11.82   1
 -11  16  -3   48.08   11.72   1
 -12  16  -3   30.15   11.18   1
 -13  16  -3  300.10   16.20   1
 -14  16  -3   79.81   12.54   1
 -15  16  -3  134.57   13.58   1
 -17  16  -3    6.52   10.83   1
 -18  16  -3   47.61   12.11   1
 -19  16  -3  118.57   14.01   1
 -21  16  -3  137.96   13.78   1
 -22  16  -3    1.04   10.95   1
 -23  16  -3   75.61   12.81   1
 -26  16  -3   54.91   13.06   1
 -27  16  -3   13.16   10.93   1
 -30  16  -3   74.90   13.70   1
 -33  16  -3   54.14   13.26   1
 -29  15  -3  142.94   15.52   1
 -28  15  -3   36.89   11.55   1
 -27  15  -3   18.63   10.62   1
 -26  15  -3    2.38    9.57   1
 -25  15  -3   83.96   13.64   1
 -24  15  -3    6.14    9.65   1
 -23  15  -3   56.66   12.56   1
 -21  15  -3   81.76   12.21   1
 -20  15  -3    1.79   11.07   1
 -19  15  -3   71.37   11.73   1
 -18  15  -3  203.52   15.11   1
 -17  15  -3   29.72   11.24   1
 -16  15  -3  132.14   13.68   1
 -15  15  -3  369.09   18.70   1
 -14  15  -3   45.10   10.91   1
 -13  15  -3    0.33   10.03   1
 -12  15  -3    2.19   11.53   1
 -11  15  -3    6.00    9.69   1
 -10  15  -3  118.64   13.91   1
  -9  15  -3  125.22   13.32   1
  -8  15  -3   13.53   11.11   1
  -7  15  -3   19.82   11.14   1
  -6  15  -3  113.61   13.84   1
  -5  15  -3   98.25   13.58   1
   0  15  -3  399.20   16.47   1
   1  15  -3  131.01   12.00   1
   2  15  -3   40.76    9.13   1
   3  15  -3  195.15   10.83   1
   4  15  -3   67.57    9.20   1
   6  15  -3   93.02    8.89   1
   8  15  -3   40.62    8.05   1
  10  15  -3  106.89    8.59   1
  11  15  -3    9.79    7.26   1
  12  15  -3   12.32    7.81   1
  13  15  -3   23.94    8.33   1
  14  15  -3  154.96   10.86   1
  18  15  -3    2.95    7.56   1
  19  14  -3   31.41    8.53   1
  18  14  -3   14.81    8.44   1
  16  14  -3   56.55    9.66   1
  15  14  -3  138.35   11.91   1
  11  14  -3   22.98    7.28   1
   9  14  -3   24.45    7.55   1
   8  14  -3  198.19   11.28   1
   7  14  -3   46.59    8.48   1
   6  14  -3   73.53    8.61   1
   5  14  -3  141.75    9.55   1
   4  14  -3   92.95    8.62   1
   3  14  -3    9.92    7.57   1
   2  14  -3   86.36   10.07   1
   1  14  -3   37.93    9.76   1
   0  14  -3  151.95   11.86   1
  -1  14  -3    0.12   10.16   1
  -2  14  -3   36.83   11.76   1
  -3  14  -3   26.81   12.14   1
  -4  14  -3   36.88   11.87   1
  -5  14  -3   20.18   11.68   1
  -6  14  -3  284.44   15.89   1
  -7  14  -3   57.35   11.96   1
  -8  14  -3  286.97   16.56   1
 -10  14  -3   33.03   10.78   1
 -11  14  -3   28.56   11.66   1
 -12  14  -3   25.04   11.29   1
 -14  14  -3  121.46   13.88   1
 -15  14  -3   31.17   11.03   1
 -16  14  -3   87.27   13.16   1
 -17  14  -3   13.86   10.49   1
 -18  14  -3   67.89   12.29   1
 -19  14  -3  115.53   14.13   1
 -20  14  -3   64.76   12.78   1
 -21  14  -3   42.89   12.76   1
 -22  14  -3  187.27   14.88   1
 -23  14  -3   19.11   11.51   1
 -24  14  -3   42.34   12.80   1
 -25  14  -3   13.03   12.01   1
 -27  14  -3    7.58   11.41   1
 -28  14  -3   49.88   12.41   1
 -29  14  -3  133.94   14.81   1
 -30  14  -3   52.66   13.63   1
 -32  14  -3    9.30   11.50   1
 -33  14  -3   33.28   11.64   1
 -28  13  -3   32.17   12.57   1
 -27  13  -3   19.06   12.17   1
 -26  13  -3  140.36   15.08   1
 -25  13  -3   19.94   11.03   1
 -24  13  -3   17.34   10.77   1
 -23  13  -3   47.63   11.65   1
 -22  13  -3   94.41   13.45   1
 -20  13  -3  109.81   13.71   1
 -19  13  -3   19.53   10.51   1
 -18  13  -3  119.60   14.18   1
 -17  13  -3  102.32   12.29   1
 -16  13  -3  307.44   17.36   1
 -13  13  -3   29.21   11.38   1
 -12  13  -3  202.46   15.44   1
 -11  13  -3    8.15    9.93   1
 -10  13  -3  128.05   12.69   1
  -9  13  -3   70.49   11.54   1
  -7  13  -3   70.63   12.41   1
  -6  13  -3   74.37   11.97   1
  -5  13  -3    9.46   10.20   1
  -4  13  -3   56.77   12.54   1
  -3  13  -3  129.86   14.59   1
  -1  13  -3  218.30   16.10   1
   0  13  -3   25.54   10.01   1
   3  13  -3  311.44   12.90   1
   4  13  -3   83.76    8.70   1
   5  13  -3  118.39    9.30   1
   6  13  -3   14.00    8.05   1
   7  13  -3  134.85   10.13   1
   8  13  -3   32.99    8.25   1
   9  13  -3  103.52    9.43   1
  11  13  -3   17.45    7.88   1
  12  13  -3   16.77    8.04   1
  13  13  -3  160.92   11.76   1
  14  13  -3   16.12    9.87   1
  15  13  -3   32.10    9.13   1
  18  12  -3   45.65   10.98   1
  10  12  -3   39.50    9.24   1
   8  12  -3   36.70    9.16   1
   7  12  -3   29.09    8.80   1
   6  12  -3   25.63    7.90   1
   5  12  -3   77.82    9.43   1
   2  12  -3   37.82    8.63   1
   1  12  -3  217.01   12.69   1
   0  12  -3  129.38   11.94   1
  -1  12  -3  293.23   17.48   1
  -2  12  -3   25.00   11.71   1
  -3  12  -3  214.17   15.65   1
  -4  12  -3  430.85   18.31   1
  -5  12  -3  259.74   15.42   1
  -6  12  -3  171.62   13.95   1
  -7  12  -3  218.50   14.18   1
  -8  12  -3  393.75   18.38   1
  -9  12  -3  191.39   14.52   1
 -11  12  -3  311.17   15.95   1
 -12  12  -3  121.08   12.66   1
 -13  12  -3  211.98   14.99   1
 -14  12  -3   38.62   10.80   1
 -16  12  -3   15.36    9.67   1
 -17  12  -3   77.86   11.44   1
 -18  12  -3   18.70   11.72   1
 -20  12  -3   25.85   10.82   1
 -22  12  -3   27.16   11.61   1
 -29  12  -3    2.77   11.74   1
 -32  12  -3    0.05   11.62   1
 -29  11  -3   48.13   12.46   1
 -28  11  -3   82.06   13.88   1
 -27  11  -3   12.48   11.97   1
 -25  11  -3   14.08   10.79   1
 -24  11  -3   16.62   10.31   1
 -22  11  -3  315.56   18.14   1
 -18  11  -3  277.78   16.10   1
 -17  11  -3   62.49   12.04   1
 -16  11  -3   47.09   11.26   1
 -15  11  -3    6.27    9.85   1
 -14  11  -3   28.12   10.94   1
 -12  11  -3  354.91   16.34   1
 -11  11  -3  161.25   13.52   1
  -9  11  -3   49.41   10.89   1
  -8  11  -3  160.66   13.60   1
  -7  11  -3  115.20   12.80   1
  -6  11  -3  209.93   14.64   1
  -5  11  -3  222.68   14.81   1
  -4  11  -3  122.46   14.53   1
  -3  11  -3  170.28   13.82   1
  -2  11  -3   51.27   12.66   1
   0  11  -3  154.36   13.48   1
   1  11  -3  369.12   14.03   1
   3  11  -3   41.06    8.41   1
   5  11  -3   61.63    8.61   1
   6  11  -3   54.66    8.95   1
   7  11  -3  292.32   12.44   1
   9  11  -3    0.62    8.75   1
  11  11  -3  339.23   15.43   1
  13  11  -3   19.53    9.40   1
  17  11  -3   91.78   11.92   1
  20  11  -3    1.13    8.90   1
  21  10  -3   10.45   10.36   1
  20  10  -3   78.29   12.76   1
  17  10  -3   22.91   10.21   1
  16  10  -3   53.21   12.04   1
  15  10  -3   89.21   12.01   1
  14  10  -3   48.81   10.15   1
  13  10  -3   32.47   10.86   1
  12  10  -3   14.14   10.30   1
  10  10  -3  215.79   13.22   1
   9  10  -3  108.05   11.32   1
   8  10  -3  132.66   11.07   1
   7  10  -3  226.18   10.94   1
   6  10  -3   17.47    7.42   1
   5  10  -3  131.37    9.73   1
   4  10  -3   36.48    7.87   1
   3  10  -3  165.20   10.26   1
   2  10  -3   29.36    8.29   1
   0  10  -3    0.30    9.87   1
  -1  10  -3  223.47   16.21   1
  -2  10  -3   70.43   12.11   1
  -3  10  -3  226.22   14.32   1
  -4  10  -3   98.18   11.98   1
  -5  10  -3  117.05   12.97   1
  -6  10  -3   80.50   12.13   1
  -7  10  -3  229.65   14.39   1
  -8  10  -3   76.14   11.28   1
  -9  10  -3  212.60   13.68   1
 -12  10  -3   42.18   11.05   1
 -13  10  -3  150.39   12.39   1
 -15  10  -3  111.59   12.93   1
 -16  10  -3   34.31   10.66   1
 -17  10  -3  192.76   15.04   1
 -18  10  -3   91.24   12.83   1
 -19  10  -3   93.55   12.80   1
 -20  10  -3  209.01   15.14   1
 -21  10  -3    1.30    9.95   1
 -22  10  -3   36.52   12.00   1
 -23  10  -3   50.41   12.34   1
 -24  10  -3   31.97   11.27   1
 -25  10  -3   89.37   13.82   1
 -26  10  -3   58.59   12.94   1
 -27  10  -3   25.49   11.13   1
 -29  10  -3    2.48   11.92   1
 -30  10  -3   49.82   14.38   1
 -31  10  -3   27.96   12.88   1
 -32   9  -3   14.40   12.59   1
 -29   9  -3   68.04   14.73   1
 -27   9  -3   17.63   12.72   1
 -26   9  -3   25.95   11.97   1
 -25   9  -3   33.75   11.81   1
 -24   9  -3    2.66   10.36   1
 -23   9  -3   15.27   10.89   1
 -22   9  -3   94.46   13.67   1
 -19   9  -3   96.20   12.74   1
 -18   9  -3  143.89   12.73   1
 -17   9  -3   50.10   11.07   1
 -16   9  -3   23.39   10.00   1
 -15   9  -3  125.00   12.88   1
 -14   9  -3   20.43   10.25   1
 -13   9  -3   58.37   10.76   1
 -12   9  -3  197.55   13.80   1
 -11   9  -3   46.63   10.79   1
 -10   9  -3  218.56   13.91   1
  -9   9  -3  186.37   13.17   1
  -8   9  -3  199.70   13.81   1
  -7   9  -3   65.07   10.68   1
  -6   9  -3   85.77   11.54   1
  -5   9  -3  126.16   12.77   1
  -4   9  -3  139.60   12.05   1
  -3   9  -3   95.17   12.92   1
  -2   9  -3   66.14   12.15   1
  -1   9  -3  226.80   14.98   1
   0   9  -3  174.55   15.14   1
   1   9  -3  235.47   12.70   1
   2   9  -3   32.72    8.55   1
   3   9  -3  216.05   10.40   1
   4   9  -3   61.72    7.89   1
   6   9  -3  114.67    9.73   1
   9   9  -3  117.57   11.21   1
  10   9  -3  113.46   11.13   1
  12   9  -3   14.22   10.89   1
  13   9  -3  100.54   12.98   1
  14   9  -3   19.16   11.34   1
  15   9  -3    5.15   10.68   1
  16   9  -3   32.85   11.41   1
  17   9  -3   28.72   11.01   1
  19   9  -3   20.86   11.61   1
  20   9  -3   66.17   12.05   1
  22   9  -3    1.35   10.59   1
  23   8  -3   18.14   11.11   1
  22   8  -3   11.23   11.51   1
  21   8  -3   40.26   13.28   1
  20   8  -3   24.32   12.24   1
  19   8  -3   67.78   13.52   1
  17   8  -3   54.59   12.76   1
  16   8  -3   32.55   11.53   1
  15   8  -3   34.07   12.38   1
  14   8  -3  166.68   16.14   1
  13   8  -3   19.61   11.31   1
  12   8  -3   20.56   11.73   1
  10   8  -3  107.38   12.33   1
   9   8  -3   32.23   10.78   1
   7   8  -3   17.84    8.87   1
   6   8  -3  314.19   12.49   1
   5   8  -3   26.29    6.84   1
   4   8  -3  429.15   13.18   1
   3   8  -3  170.58    9.85   1
   2   8  -3   68.38    8.23   1
   1   8  -3  244.64   12.10   1
  -2   8  -3   28.90   10.28   1
  -3   8  -3   94.94   11.93   1
  -4   8  -3   15.00    9.32   1
  -5   8  -3  123.13   12.13   1
  -6   8  -3   24.80    9.75   1
  -7   8  -3    9.34    8.82   1
  -9   8  -3  211.74   12.75   1
 -10   8  -3   69.27   10.08   1
 -11   8  -3  164.37   11.86   1
 -12   8  -3  432.53   16.54   1
 -14   8  -3  299.41   14.66   1
 -15   8  -3   15.80    9.55   1
 -17   8  -3   36.70   10.11   1
 -18   8  -3  103.27   12.67   1
 -19   8  -3   15.08   10.00   1
 -20   8  -3   19.98   10.37   1
 -22   8  -3  190.56   14.92   1
 -23   8  -3   51.70   12.31   1
 -24   8  -3   20.69   11.11   1
 -25   8  -3   41.38   12.87   1
 -26   8  -3   40.53   11.76   1
 -27   8  -3   57.29   11.94   1
 -28   8  -3   20.74   13.18   1
 -29   8  -3   38.54   13.48   1
 -30   8  -3   14.15   12.54   1
 -29   7  -3   22.84   12.13   1
 -28   7  -3   82.93   14.87   1
 -26   7  -3   80.53   13.27   1
 -25   7  -3   25.71   12.17   1
 -24   7  -3   40.55   11.93   1
 -23   7  -3   77.86   13.20   1
 -21   7  -3   49.90   12.54   1
 -20   7  -3  125.18   13.40   1
 -19   7  -3   28.81   10.30   1
 -18   7  -3  266.59   15.69   1
 -17   7  -3  207.51   13.19   1
 -16   7  -3   25.72    9.76   1
 -15   7  -3   21.81    8.89   1
 -14   7  -3   60.60    9.99   1
 -13   7  -3   84.30   10.92   1
 -12   7  -3  223.95   13.27   1
 -11   7  -3  145.45   11.03   1
 -10   7  -3  217.15   12.62   1
  -9   7  -3   72.73    9.83   1
  -7   7  -3  123.71   10.96   1
  -6   7  -3  124.90   10.81   1
  -5   7  -3  236.19   12.33   1
  -4   7  -3   56.17   10.16   1
  -3   7  -3   61.81   10.91   1
  -2   7  -3  222.54   12.87   1
  -1   7  -3  130.54   11.72   1
   0   7  -3  130.39   12.86   1
   1   7  -3   14.36    9.62   1
   2   7  -3   77.17    8.45   1
   3   7  -3  224.28   10.12   1
   4   7  -3  131.08   10.15   1
   5   7  -3  214.09   12.14   1
   6   7  -3   81.87   10.26   1
   7   7  -3   66.52    9.91   1
  10   7  -3  212.80   13.87   1
  11   7  -3  267.62   16.22   1
  13   7  -3  121.49   13.87   1
  14   7  -3   48.65   11.56   1
  16   7  -3   97.34   13.68   1
  17   7  -3   37.73   12.80   1
  18   7  -3   25.23   12.61   1
  19   7  -3   73.02   13.46   1
  20   7  -3   15.24   10.90   1
  21   7  -3   81.74   15.47   1
  22   7  -3   37.34   12.62   1
  23   7  -3    2.94   11.98   1
  24   6  -3   33.33   13.02   1
  17   6  -3   96.62   13.90   1
  15   6  -3   72.14   13.13   1
  14   6  -3   52.08   12.18   1
  12   6  -3   23.59   10.77   1
  11   6  -3   69.75   11.70   1
  10   6  -3   32.39    9.98   1
   9   6  -3  104.61   12.23   1
   8   6  -3  296.90   14.68   1
   7   6  -3   61.82   10.33   1
   6   6  -3  159.25   11.65   1
   5   6  -3  213.66   12.30   1
   4   6  -3  101.54   10.04   1
   3   6  -3  105.78    9.83   1
   2   6  -3   19.35    7.34   1
   1   6  -3  111.47   11.83   1
   0   6  -3  246.00   13.01   1
  -1   6  -3  694.25   17.95   1
  -2   6  -3  368.38   14.28   1
  -3   6  -3  341.15   13.11   1
  -4   6  -3  376.67   13.80   1
  -5   6  -3  703.08   17.54   1
  -6   6  -3  240.17   12.23   1
  -7   6  -3  104.96   10.41   1
  -8   6  -3   32.83    8.85   1
  -9   6  -3  109.92    9.97   1
 -10   6  -3   97.09   10.07   1
 -11   6  -3  220.13   12.30   1
 -12   6  -3  182.97   11.88   1
 -13   6  -3   76.35   10.44   1
 -14   6  -3  278.15   13.85   1
 -15   6  -3  113.57   11.58   1
 -16   6  -3   33.19   10.03   1
 -17   6  -3   54.71   10.78   1
 -19   6  -3   11.88    9.65   1
 -21   6  -3   73.22   11.99   1
 -23   6  -3   77.12   14.41   1
 -30   6  -3   39.49   12.66   1
 -30   5  -3   21.03   13.37   1
 -29   5  -3   73.32   14.06   1
 -27   5  -3    4.03   11.14   1
 -25   5  -3    0.01   11.07   1
 -23   5  -3   69.35   12.22   1
 -22   5  -3   85.57   12.39   1
 -21   5  -3  151.08   14.37   1
 -19   5  -3  121.02   12.93   1
 -18   5  -3  128.74   12.79   1
 -17   5  -3   76.65   11.58   1
 -16   5  -3   58.90   10.26   1
 -15   5  -3  121.98   10.78   1
 -14   5  -3   18.44    8.86   1
 -13   5  -3   16.30    8.57   1
 -12   5  -3  221.62   12.53   1
 -11   5  -3  211.54   12.29   1
 -10   5  -3  126.18   10.77   1
  -9   5  -3  125.14   10.63   1
  -8   5  -3  101.97   10.10   1
  -7   5  -3  240.42   11.15   1
  -6   5  -3  724.86   16.92   1
  -5   5  -3  768.31   17.06   1
  -4   5  -3   11.96    7.18   1
  -3   5  -3   90.61    9.02   1
  -2   5  -3   88.30    8.67   1
  -1   5  -3   22.04    7.51   1
   0   5  -3  780.07   16.16   1
   1   5  -3  721.76   14.74   1
   2   5  -3  231.44   13.36   1
   3   5  -3  111.58   11.64   1
   4   5  -3  122.88   11.14   1
   5   5  -3  119.28   11.46   1
   6   5  -3  203.51   12.40   1
   7   5  -3  203.64   13.19   1
   8   5  -3   24.63    8.92   1
   9   5  -3   27.61    8.94   1
  10   5  -3  110.59   11.86   1
  11   5  -3   46.72   10.63   1
  12   5  -3   76.09   11.85   1
  13   5  -3  129.72   13.53   1
  14   5  -3  102.06   13.53   1
  15   5  -3    3.20   11.93   1
  16   5  -3  132.49   14.42   1
  17   5  -3   84.63   13.83   1
  18   5  -3   70.72   12.80   1
  22   5  -3    2.13   13.40   1
  24   5  -3   53.57   14.88   1
  25   5  -3   28.84   14.03   1
  26   4  -3   43.78   14.79   1
  23   4  -3   46.73   14.29   1
  21   4  -3  129.00   15.47   1
  18   4  -3   25.54   12.59   1
  15   4  -3   72.55   11.33   1
  14   4  -3   70.03   11.95   1
  13   4  -3   54.85   10.53   1
  12   4  -3   13.62    9.62   1
  10   4  -3   38.26   10.87   1
   9   4  -3   47.19   10.46   1
   8   4  -3  406.43   16.73   1
   7   4  -3  135.38   12.64   1
   6   4  -3   90.81   11.25   1
   5   4  -3  123.56   12.55   1
   4   4  -3   32.21   11.44   1
   3   4  -3   63.24   12.03   1
   2   4  -3  384.45   16.36   1
   1   4  -3   16.86    7.34   1
  -1   4  -3   26.08    7.16   1
  -2   4  -3  877.06   16.05   1
  -3   4  -3   34.38    7.86   1
  -4   4  -3    0.29    7.31   1
  -5   4  -3   17.30    8.05   1
  -6   4  -3  355.16   12.92   1
  -7   4  -3   64.67    9.52   1
  -8   4  -3   29.53    8.42   1
  -9   4  -3  128.78   10.29   1
 -10   4  -3   95.92   10.46   1
 -11   4  -3  136.44   11.15   1
 -12   4  -3  424.83   16.02   1
 -13   4  -3   67.93   10.21   1
 -14   4  -3   30.58    9.82   1
 -16   4  -3   24.75   10.05   1
 -17   4  -3   60.31   11.48   1
 -18   4  -3   71.78   11.37   1
 -19   4  -3   63.53   12.25   1
 -21   4  -3   35.33   12.00   1
 -22   4  -3   28.59   12.03   1
 -24   4  -3   39.24   13.43   1
 -25   4  -3  131.11   15.73   1
 -27   4  -3   60.52   15.10   1
 -29   3  -3    3.80   12.01   1
 -27   3  -3   27.44   15.38   1
 -26   3  -3   13.19   12.08   1
 -25   3  -3    0.86   11.92   1
 -24   3  -3   79.29   12.68   1
 -22   3  -3  115.55   14.01   1
 -21   3  -3   34.84   12.78   1
 -20   3  -3   14.89   11.08   1
 -19   3  -3  105.61   13.50   1
 -18   3  -3  204.38   15.24   1
 -17   3  -3   16.64   10.34   1
 -16   3  -3  313.54   16.59   1
 -14   3  -3   23.50   10.38   1
 -13   3  -3  137.86   11.73   1
 -12   3  -3  190.18   12.08   1
 -11   3  -3  149.94   11.59   1
 -10   3  -3  219.23   11.75   1
  -9   3  -3   95.35    9.81   1
  -8   3  -3  105.04    9.75   1
  -7   3  -3   64.72    9.03   1
  -6   3  -3  342.06   12.29   1
  -5   3  -3   87.89    8.54   1
  -4   3  -3   27.19    7.78   1
  -3   3  -3   17.21    6.77   1
  -2   3  -3   30.64    7.13   1
  -1   3  -3   28.43    7.09   1
   1   3  -3   34.33    7.40   1
   2   3  -3   88.20    9.87   1
   3   3  -3  347.81   16.83   1
   4   3  -3  106.30   12.38   1
   5   3  -3  104.35   12.46   1
   6   3  -3   94.93   12.75   1
   7   3  -3  227.79   14.16   1
   8   3  -3  143.43   13.66   1
   9   3  -3  199.73   14.16   1
  10   3  -3  128.51   12.77   1
  11   3  -3   31.07   10.05   1
  13   3  -3  327.13   17.51   1
  15   3  -3  194.23   15.21   1
  16   3  -3  111.96   13.95   1
  18   3  -3   42.31   13.41   1
  19   3  -3  104.76   13.52   1
  20   3  -3   52.50   13.85   1
  26   2  -3   28.45   14.64   1
  25   2  -3   69.31   16.08   1
  21   2  -3   60.64   14.59   1
  20   2  -3   39.49   13.17   1
  19   2  -3   78.50   13.07   1
  18   2  -3   14.50   13.19   1
  17   2  -3  135.42   14.94   1
  16   2  -3   44.57   12.26   1
  15   2  -3   27.67   11.10   1
  14   2  -3   77.43   12.06   1
  12   2  -3   31.97   11.34   1
  10   2  -3   42.75   10.78   1
   9   2  -3   32.29   11.71   1
   8   2  -3   57.97   11.33   1
   7   2  -3   79.07   12.09   1
   6   2  -3   22.46   11.52   1
   5   2  -3  236.71   13.83   1
   4   2  -3  373.54   16.35   1
   3   2  -3   82.33   11.74   1
   2   2  -3  853.13   17.71   1
   1   2  -3   38.85    7.93   1
   0   2  -3   46.60    7.21   1
  -1   2  -3  264.91    9.59   1
  -2   2  -3   44.88    7.22   1
  -3   2  -3   21.38    7.24   1
  -4   2  -3  848.51   15.71   1
  -5   2  -3  104.51    8.67   1
  -6   2  -3  378.14   12.05   1
  -7   2  -3  230.00   10.89   1
  -8   2  -3   37.54    8.50   1
  -9   2  -3   68.35    9.05   1
 -10   2  -3   63.51    9.24   1
 -11   2  -3   31.93    9.75   1
 -12   2  -3   38.64    9.42   1
 -14   2  -3   26.50   10.21   1
 -16   2  -3   75.20   11.51   1
 -17   2  -3   39.22   11.34   1
 -18   2  -3   44.92   12.14   1
 -19   2  -3  133.18   14.92   1
 -21   2  -3   85.80   14.14   1
 -22   2  -3   27.08   12.40   1
 -23   2  -3   45.63   13.03   1
 -27   2  -3   41.44   14.49   1
 -28   1  -3   16.70   13.39   1
 -24   1  -3   61.02   11.78   1
 -23   1  -3   13.10   12.34   1
 -22   1  -3   52.99   13.54   1
 -20   1  -3   21.11   10.93   1
 -18   1  -3  123.49   12.28   1
 -17   1  -3   19.25   10.43   1
 -16   1  -3  126.83   12.94   1
 -14   1  -3    0.00    8.30   1
 -13   1  -3  214.34   13.50   1
 -12   1  -3  346.67   13.79   1
 -10   1  -3  226.00   11.41   1
  -9   1  -3  232.86   11.46   1
  -7   1  -3  123.38    9.20   1
  -6   1  -3  732.35   14.92   1
  -5   1  -3   22.41    7.04   1
  -4   1  -3   25.23    7.09   1
  -3   1  -3   28.75    6.73   1
  -2   1  -3  253.19    9.12   1
  -1   1  -3   27.42    6.28   1
   0   1  -3   28.48    6.66   1
   1   1  -3  259.99    9.83   1
   2   1  -3   32.97    8.35   1
   3   1  -3   23.77    9.78   1
   4   1  -3   16.86   10.35   1
   5   1  -3  716.73   19.73   1
   6   1  -3  103.76   12.15   1
   7   1  -3    5.07   10.35   1
   8   1  -3  229.47   14.06   1
   9   1  -3  227.15   14.92   1
  11   1  -3  346.48   16.36   1
  12   1  -3  202.12   14.83   1
  14   1  -3   34.11   10.73   1
  15   1  -3  145.95   14.41   1
  16   1  -3   10.89   10.47   1
  17   1  -3  120.86   13.98   1
  18   1  -3   14.50   11.76   1
  19   1  -3   38.18   12.78   1
  21   1  -3   75.26   14.18   1
  23   1  -3   39.67   12.90   1
  24   1  -3    2.13   11.77   1
  28   0  -3   22.80   13.99   1
  27   0  -3   27.64   14.63   1
  26   0  -3   48.77   16.08   1
  25   0  -3   64.53   16.18   1
  24   0  -3   96.98   15.42   1
  23   0  -3  130.56   14.59   1
  21   0  -3    0.48   11.52   1
  20   0  -3   78.85   13.85   1
  18   0  -3   25.76   11.31   1
  17   0  -3   87.85   13.38   1
  16   0  -3    0.05   10.05   1
  15   0  -3  377.32   19.13   1
  14   0  -3  137.17   13.08   1
  13   0  -3   24.32   11.25   1
  12   0  -3  122.81   13.42   1
  11   0  -3  174.41   13.51   1
  10   0  -3    2.72    9.88   1
   9   0  -3  165.55   14.19   1
   7   0  -3  116.41   12.66   1
   6   0  -3  250.82   14.51   1
   5   0  -3  742.84   20.98   1
   4   0  -3    0.77   10.26   1
   2   0  -3   50.34    8.27   1
   1   0  -3   25.65    7.38   1
  -1   0  -3   29.24    6.61   1
  -2   0  -3   65.85    6.96   1
  -5   0  -3  761.85   15.35   1
  -6   0  -3  258.39   10.70   1
  -7   0  -3  124.00    8.49   1
  -9   0  -3  169.40   10.49   1
 -10   0  -3    0.41    7.40   1
 -11   0  -3  157.80   11.10   1
 -12   0  -3  120.52   11.09   1
 -13   0  -3   18.27   10.16   1
 -14   0  -3  115.14   11.78   1
 -15   0  -3  373.06   17.65   1
 -17   0  -3  105.35   12.76   1
 -18   0  -3   10.37   10.44   1
 -19   0  -3   39.58   12.31   1
 -20   0  -3   86.63   13.72   1
 -21   0  -3   11.16   11.03   1
 -23   0  -3  141.92   14.59   1
 -24   0  -3   69.28   14.87   1
 -25   0  -3   61.05   14.90   1
 -26   0  -3   49.01   13.36   1
 -27   0  -3   25.03   12.77   1
 -29   0  -2  103.46   16.00   1
 -23   0  -2  118.27   13.94   1
 -21   0  -2   84.80   13.36   1
 -20   0  -2   22.89   11.45   1
 -19   0  -2   17.84   10.56   1
 -18   0  -2   15.09   10.12   1
 -16   0  -2    1.50    8.45   1
 -15   0  -2   33.79    9.23   1
 -14   0  -2   84.46    9.70   1
 -13   0  -2  219.89   12.58   1
 -12   0  -2  149.46   10.74   1
 -11   0  -2   71.91    8.91   1
 -10   0  -2  300.52   12.35   1
  -9   0  -2  129.76    9.47   1
  -6   0  -2  728.63   15.41   1
  -5   0  -2   16.26    5.54   1
  -4   0  -2   98.12    6.82   1
  -3   0  -2  234.23    8.37   1
   0   0  -210683.78   83.89   1
   3   0  -2  262.76   10.01   1
   4   0  -2  118.00    8.85   1
   5   0  -2   11.89    7.60   1
   6   0  -2  713.52   15.02   1
   8   0  -2    8.90    8.08   1
   9   0  -2  128.13   11.36   1
  10   0  -2  283.98   14.62   1
  11   0  -2   52.63   10.58   1
  12   0  -2  155.05   11.87   1
  13   0  -2  228.18   13.66   1
  14   0  -2   87.99   11.13   1
  15   0  -2   22.15    9.79   1
  19   0  -2   24.42   10.43   1
  20   0  -2   25.61   12.04   1
  21   0  -2  111.69   13.54   1
  23   0  -2  118.23   15.32   1
  25   0  -2   13.89   12.32   1
  27   0  -2    0.06   11.95   1
  29   0  -2  100.78   15.11   1
  29   1  -2    2.51   12.77   1
  28   1  -2    0.52   12.26   1
  26   1  -2   38.83   14.72   1
  24   1  -2   59.77   13.28   1
  23   1  -2    0.29   12.15   1
  22   1  -2   20.55   12.11   1
  20   1  -2  103.26   13.77   1
  19   1  -2   84.74   13.57   1
  18   1  -2   48.83   11.33   1
  17   1  -2  149.25   13.90   1
  16   1  -2   51.50   11.09   1
  15   1  -2    0.05    9.05   1
  14   1  -2  294.66   14.79   1
  13   1  -2   24.41    9.04   1
  12   1  -2  323.24   14.59   1
  11   1  -2  606.88   18.28   1
  10   1  -2   21.91    8.92   1
   9   1  -2   52.25    9.43   1
   8   1  -2  206.98   11.04   1
   7   1  -2   46.37    8.73   1
   6   1  -2  527.99   13.65   1
   5   1  -2   14.60    7.41   1
   4   1  -2  367.52   11.49   1
   3   1  -2   68.14    8.34   1
   2   1  -2   61.74    7.87   1
   1   1  -2   17.16    5.72   1
  -2   1  -2   14.72    5.59   1
  -3   1  -2   69.60    6.16   1
  -4   1  -2   38.17    5.82   1
  -5   1  -2  390.03    9.84   1
  -6   1  -2   18.38    6.05   1
  -7   1  -2  527.23   11.94   1
  -8   1  -2   50.03    6.96   1
  -9   1  -2  203.88    9.58   1
 -10   1  -2   48.85    8.04   1
 -11   1  -2   36.78    7.99   1
 -12   1  -2  644.11   16.50   1
 -13   1  -2  327.90   13.71   1
 -15   1  -2  321.78   14.25   1
 -17   1  -2   59.53   10.65   1
 -18   1  -2  158.50   12.67   1
 -19   1  -2   62.11   11.09   1
 -20   1  -2   82.57   11.71   1
 -21   1  -2  108.45   13.86   1
 -23   1  -2    8.12   10.35   1
 -24   1  -2    2.49   10.07   1
 -25   1  -2   47.15   11.93   1
 -26   1  -2   14.08   10.99   1
 -27   1  -2   52.84   13.75   1
 -30   2  -2   31.83   12.53   1
 -28   2  -2   54.95   14.62   1
 -27   2  -2  107.91   15.41   1
 -25   2  -2   18.20   10.61   1
 -24   2  -2   48.07   11.46   1
 -23   2  -2   58.64   12.16   1
 -22   2  -2   31.82   12.08   1
 -21   2  -2  181.92   14.41   1
 -20   2  -2   39.27   10.36   1
 -19   2  -2  150.10   12.73   1
 -18   2  -2  186.40   13.54   1
 -17   2  -2   28.43    9.80   1
 -15   2  -2   14.54    8.69   1
 -14   2  -2   56.19    9.20   1
 -13   2  -2  229.28   11.97   1
 -12   2  -2  159.66   10.39   1
 -11   2  -2  112.30    9.06   1
 -10   2  -2  121.98    9.35   1
  -9   2  -2  212.47    9.13   1
  -8   2  -2  286.18    9.79   1
  -7   2  -2  196.25    8.52   1
  -6   2  -2   46.16    6.01   1
  -4   2  -2   79.82    6.08   1
  -3   2  -2   73.86    6.20   1
   0   2  -2    3.03    5.11   1
   1   2  -2   70.48    6.52   1
   2   2  -2   99.23    8.58   1
   4   2  -2   43.57    7.59   1
   5   2  -2  189.01   10.63   1
   6   2  -2  270.86   11.65   1
   7   2  -2  205.53   11.09   1
   8   2  -2  124.29   11.06   1
   9   2  -2  106.84   10.93   1
  10   2  -2  156.67   12.12   1
  11   2  -2  227.59   12.87   1
  12   2  -2   57.78    9.87   1
  13   2  -2   25.16    9.26   1
  15   2  -2   26.65   10.35   1
  16   2  -2  165.74   14.64   1
  17   2  -2  153.51   14.22   1
  18   2  -2   29.71   11.85   1
  19   2  -2  201.60   16.21   1
  20   2  -2   42.00   12.22   1
  21   2  -2   68.15   14.26   1
  22   2  -2   60.70   13.76   1
  24   2  -2    0.34   10.93   1
  25   2  -2  104.82   17.77   1
  26   2  -2   53.46   14.53   1
  28   3  -2   20.09   13.16   1
  27   3  -2   19.34   13.42   1
  26   3  -2    1.71   12.44   1
  25   3  -2   28.58   15.22   1
  23   3  -2   51.88   13.47   1
  22   3  -2  117.32   14.90   1
  21   3  -2   21.94   11.26   1
  20   3  -2   14.44   11.94   1
  19   3  -2   56.63   13.08   1
  18   3  -2   44.85   12.44   1
  17   3  -2   13.17   10.21   1
  16   3  -2   30.69   10.62   1
  15   3  -2   63.95   12.00   1
  14   3  -2   73.96   11.17   1
  13   3  -2  139.44   11.68   1
  11   3  -2  100.42   11.02   1
  10   3  -2  273.20   13.99   1
   9   3  -2   45.77    9.17   1
   8   3  -2  285.12   12.84   1
   7   3  -2  195.12   10.65   1
   6   3  -2  190.83   10.39   1
   5   3  -2  523.42   13.79   1
   4   3  -2  663.88   14.23   1
   3   3  -2  102.75    9.03   1
   1   3  -2   45.77    6.67   1
   0   3  -2  233.95    8.53   1
  -1   3  -2   69.40    6.48   1
  -2   3  -2   62.79    6.59   1
  -3   3  -2  240.63    8.58   1
  -4   3  -2   44.83    6.18   1
  -6   3  -2  108.93    7.29   1
  -7   3  -2  643.05   13.32   1
  -8   3  -2  528.79   12.82   1
  -9   3  -2  194.77    9.56   1
 -10   3  -2  203.11    9.96   1
 -11   3  -2  317.60   12.33   1
 -12   3  -2   38.36    8.14   1
 -13   3  -2  279.86   12.98   1
 -14   3  -2  106.24   10.58   1
 -16   3  -2  142.19   11.80   1
 -17   3  -2   73.22   10.89   1
 -18   3  -2   55.60   10.68   1
 -19   3  -2   25.03    9.98   1
 -20   3  -2   14.08    9.67   1
 -21   3  -2   48.10   11.42   1
 -22   3  -2   81.66   12.86   1
 -23   3  -2   18.27   12.35   1
 -24   3  -2   24.44   11.40   1
 -25   3  -2  128.54   14.33   1
 -26   3  -2   51.42   12.27   1
 -28   3  -2   27.50   12.15   1
 -30   3  -2   17.78   13.62   1
 -31   3  -2    5.67   12.05   1
 -29   4  -2   15.40   12.35   1
 -28   4  -2   17.74   12.50   1
 -27   4  -2   20.23   11.97   1
 -26   4  -2   46.01   12.83   1
 -25   4  -2   80.21   11.82   1
 -22   4  -2   76.88   11.51   1
 -20   4  -2   77.74   10.98   1
 -19   4  -2   68.48   11.07   1
 -17   4  -2  142.95   12.08   1
 -16   4  -2  236.38   13.35   1
 -15   4  -2  205.69   12.36   1
 -14   4  -2   74.07    8.88   1
 -13   4  -2   31.52    8.85   1
 -11   4  -2  270.01   11.62   1
 -10   4  -2  145.97    9.46   1
  -9   4  -2  142.26    8.99   1
  -8   4  -2  568.86   13.23   1
  -7   4  -2  646.88   13.62   1
  -6   4  -2   39.04    7.00   1
  -5   4  -2  394.29   10.81   1
  -4   4  -2  104.60    7.57   1
  -3   4  -2   47.74    6.69   1
  -2   4  -2   77.43    7.23   1
  -1   4  -2   42.08    6.63   1
   0   4  -2  105.99    7.52   1
   1   4  -2  387.41    9.34   1
   2   4  -2   37.86    6.52   1
   3   4  -2  665.50   12.84   1
   4   4  -2  563.83   12.88   1
   5   4  -2  140.89    8.56   1
   6   4  -2  158.48    9.62   1
   7   4  -2  240.49   12.56   1
   8   4  -2    4.09    7.81   1
   9   4  -2   43.31    8.84   1
  10   4  -2   76.44    9.93   1
  11   4  -2  177.71   12.77   1
  12   4  -2  247.51   13.73   1
  13   4  -2  132.79   12.49   1
  14   4  -2    5.03    8.80   1
  15   4  -2   51.74   10.50   1
  16   4  -2   77.20   12.83   1
  17   4  -2   20.98   11.20   1
  18   4  -2   65.86   12.51   1
  19   4  -2   33.93   11.31   1
  20   4  -2   12.78   10.88   1
  21   4  -2   81.70   12.94   1
  22   4  -2   43.82   12.27   1
  23   4  -2   15.36   12.20   1
  25   4  -2   19.53   13.12   1
  26   4  -2   33.00   13.04   1
  27   4  -2   31.69   12.14   1
  25   5  -2   29.30   13.87   1
  24   5  -2    0.17   11.90   1
  22   5  -2   45.53   13.56   1
  21   5  -2   22.86   10.72   1
  20   5  -2   85.67   12.52   1
  19   5  -2   45.02   12.85   1
  17   5  -2   69.63   12.86   1
  16   5  -2   44.34   11.46   1
  15   5  -2  135.30   13.94   1
  14   5  -2   79.37   11.37   1
  13   5  -2   14.82    9.39   1
  12   5  -2   89.55   11.11   1
  11   5  -2  122.19   11.26   1
  10   5  -2  193.82   12.55   1
   9   5  -2  176.22   11.69   1
   8   5  -2  110.88    9.90   1
   7   5  -2   73.46    8.82   1
   6   5  -2  150.66    9.77   1
   5   5  -2  440.35   11.91   1
   4   5  -2  135.47    8.16   1
   3   5  -2  556.17   11.92   1
   2   5  -2  210.75    7.78   1
   0   5  -2   11.97    7.26   1
  -1   5  -2  407.05   10.96   1
  -2   5  -2   13.36    6.96   1
  -4   5  -2  393.60   10.95   1
  -6   5  -2   18.34    6.35   1
  -7   5  -2  198.54    9.00   1
  -8   5  -2  529.41   12.96   1
  -9   5  -2  139.32    8.79   1
 -10   5  -2  435.61   12.54   1
 -11   5  -2  174.41    9.73   1
 -12   5  -2   68.39    8.71   1
 -13   5  -2  102.35    9.50   1
 -14   5  -2  188.98   11.07   1
 -15   5  -2  191.47   11.81   1
 -16   5  -2  118.58   10.72   1
 -17   5  -2   84.42   10.07   1
 -18   5  -2   15.62    8.89   1
 -19   5  -2   76.66   10.25   1
 -20   5  -2  167.35   12.31   1
 -21   5  -2   36.64   10.41   1
 -22   5  -2   74.67   11.66   1
 -24   5  -2   32.76   11.31   1
 -25   5  -2   80.87   12.47   1
 -26   5  -2   24.57   11.74   1
 -27   5  -2   56.59   11.81   1
 -30   5  -2   35.47   12.39   1
 -32   6  -2   32.47   12.54   1
 -30   6  -2   16.06   11.85   1
 -29   6  -2   81.66   12.66   1
 -28   6  -2   98.71   14.24   1
 -27   6  -2   12.72    9.88   1
 -26   6  -2   14.31   10.04   1
 -25   6  -2   83.56   11.94   1
 -22   6  -2   43.83   10.51   1
 -21   6  -2   47.50   11.63   1
 -20   6  -2   41.67   10.12   1
 -19   6  -2    0.01    8.32   1
 -18   6  -2  236.81   13.49   1
 -17   6  -2  167.84   11.42   1
 -16   6  -2  605.30   17.79   1
 -15   6  -2   69.20    9.19   1
 -14   6  -2   10.86    7.79   1
 -13   6  -2   63.05    8.92   1
 -12   6  -2  142.07   10.22   1
 -11   6  -2  149.19    9.79   1
 -10   6  -2  161.84    9.35   1
  -9   6  -2  184.65    9.91   1
  -8   6  -2  278.34   10.60   1
  -7   6  -2  501.58   12.58   1
  -6   6  -2  748.58   14.74   1
  -5   6  -2   21.43    6.71   1
  -4   6  -2   45.51    7.34   1
  -3   6  -2   93.29    7.66   1
  -2   6  -2   41.55    7.72   1
  -1   6  -2   33.01    8.05   1
   0   6  -2  767.86   15.30   1
   1   6  -2  510.86   11.21   1
   2   6  -2  294.49    8.83   1
   3   6  -2  199.00    8.32   1
   4   6  -2  149.57    8.83   1
   5   6  -2  157.98    9.56   1
   6   6  -2  132.86    9.68   1
   7   6  -2   63.69    9.05   1
   9   6  -2   70.86    9.49   1
  10   6  -2  582.08   18.24   1
  11   6  -2  134.85   12.14   1
  12   6  -2  212.09   13.98   1
  14   6  -2   24.18   10.48   1
  15   6  -2   52.09   11.67   1
  16   6  -2   46.08   11.08   1
  17   6  -2   79.99   13.26   1
  18   6  -2    3.85   10.27   1
  19   6  -2   74.57   12.83   1
  20   6  -2   12.80   10.59   1
  22   6  -2  100.45   14.87   1
  23   6  -2   68.75   14.31   1
  26   6  -2   58.28   14.43   1
  25   7  -2   21.34   11.87   1
  22   7  -2    9.21   12.64   1
  21   7  -2   33.33   11.54   1
  20   7  -2   49.59   12.38   1
  17   7  -2   61.91   13.21   1
  16   7  -2   26.32   10.60   1
  15   7  -2   48.97   11.87   1
  14   7  -2  128.78   13.77   1
  13   7  -2   80.29   11.76   1
  12   7  -2   11.74    9.15   1
  11   7  -2   59.18   10.40   1
  10   7  -2   14.74    8.34   1
   9   7  -2  258.21   13.54   1
   8   7  -2  142.46   10.93   1
   7   7  -2   29.45    7.98   1
   6   7  -2   60.03    8.59   1
   5   7  -2   73.33    8.51   1
   4   7  -2  278.52   10.12   1
   3   7  -2  208.04    8.00   1
   2   7  -2  197.54    7.89   1
   1   7  -2   48.78    7.03   1
   0   7  -2    5.42    7.29   1
  -1   7  -2  537.03   13.84   1
  -2   7  -2  210.32    9.96   1
  -3   7  -2  669.10   13.92   1
  -4   7  -2  668.93   14.21   1
  -5   7  -2  195.65    9.41   1
  -6   7  -2  499.86   13.03   1
  -7   7  -2   13.74    6.87   1
  -8   7  -2   45.54    7.85   1
  -9   7  -2  198.60   10.23   1
 -10   7  -2  207.61   10.18   1
 -11   7  -2  268.37   11.85   1
 -12   7  -2   64.27    8.51   1
 -13   7  -2   62.53    8.86   1
 -15   7  -2  132.39   10.70   1
 -16   7  -2  269.42   13.04   1
 -20   7  -2  108.43   10.49   1
 -21   7  -2  121.79   11.95   1
 -22   7  -2   32.44   10.58   1
 -24   7  -2   76.03   10.85   1
 -27   7  -2   46.44   10.96   1
 -30   7  -2    0.14   10.92   1
 -32   7  -2   18.80   12.58   1
 -30   8  -2   13.41   11.28   1
 -28   8  -2   44.95   10.53   1
 -27   8  -2  107.32   12.97   1
 -26   8  -2   22.49   10.37   1
 -23   8  -2   40.15    9.95   1
 -22   8  -2  110.40   10.97   1
 -21   8  -2   98.59   10.63   1
 -20   8  -2   18.04    9.12   1
 -19   8  -2   13.98    8.52   1
 -18   8  -2   39.55    8.74   1
 -17   8  -2  136.12   11.19   1
 -16   8  -2  203.49   11.58   1
 -15   8  -2  144.80   11.31   1
 -14   8  -2   14.33    7.72   1
 -13   8  -2  103.28   10.02   1
 -12   8  -2    7.57    7.59   1
 -11   8  -2  299.79   12.89   1
 -10   8  -2  130.61   10.11   1
  -9   8  -2  216.61   10.16   1
  -7   8  -2   49.79    8.09   1
  -6   8  -2  295.35   11.39   1
  -5   8  -2  519.04   13.99   1
  -4   8  -2  561.15   14.22   1
  -3   8  -2  488.74   13.99   1
  -2   8  -2  305.29   12.27   1
  -1   8  -2   35.75    9.39   1
   1   8  -2  222.91    9.01   1
   2   8  -2  125.41    8.14   1
   3   8  -2  312.40   10.41   1
   4   8  -2   12.73    6.39   1
   5   8  -2   94.45    7.76   1
   7   8  -2  136.52   10.10   1
   8   8  -2  185.59   12.07   1
   9   8  -2  139.06   10.92   1
  10   8  -2   19.87    9.75   1
  11   8  -2   12.83    9.37   1
  13   8  -2   96.54   12.39   1
  14   8  -2   85.48   12.39   1
  15   8  -2   42.35   10.14   1
  17   8  -2   18.72   11.01   1
  18   8  -2   14.23   12.02   1
  19   8  -2  107.89   13.35   1
  20   8  -2   47.68   12.22   1
  22   8  -2   20.68   11.58   1
  21   9  -2   69.94   12.66   1
  18   9  -2   29.02   12.04   1
  17   9  -2   42.37   11.91   1
  15   9  -2  491.09   20.16   1
  14   9  -2   43.52   12.17   1
  12   9  -2  100.97   11.37   1
  11   9  -2   85.79   11.65   1
  10   9  -2   22.24    9.03   1
   9   9  -2  183.68   12.21   1
   8   9  -2  127.29   11.29   1
   7   9  -2  269.61   12.54   1
   6   9  -2   69.61    8.07   1
   5   9  -2  191.03    9.33   1
   4   9  -2   34.49    7.07   1
   3   9  -2   50.72    7.26   1
   2   9  -2  108.54    8.35   1
   1   9  -2   54.42    7.77   1
   0   9  -2  128.71   10.96   1
  -1   9  -2  231.82   11.55   1
  -2   9  -2  175.85   10.92   1
  -3   9  -2  201.57   11.94   1
  -4   9  -2  165.31   10.76   1
  -5   9  -2  160.13    9.91   1
  -6   9  -2  207.36   11.18   1
  -7   9  -2  185.88   10.22   1
  -8   9  -2  221.55   11.27   1
  -9   9  -2  133.57   10.46   1
 -10   9  -2   55.43    8.52   1
 -11   9  -2  110.19   10.03   1
 -12   9  -2   50.66    8.93   1
 -13   9  -2   32.41    8.82   1
 -14   9  -2  209.21   11.38   1
 -15   9  -2   82.64    9.03   1
 -16   9  -2  266.09   13.26   1
 -17   9  -2  133.38   10.91   1
 -18   9  -2  185.24   11.87   1
 -20   9  -2  116.85   12.05   1
 -21   9  -2  102.40   11.21   1
 -23   9  -2   43.72   10.96   1
 -24   9  -2  506.84   18.32   1
 -26   9  -2   39.97   11.83   1
 -27   9  -2   37.98   10.45   1
 -30   9  -2  101.87   12.63   1
 -31   9  -2   25.18   11.94   1
 -32   9  -2   36.87   11.97   1
 -33   9  -2    0.50   10.63   1
 -32  10  -2   34.31   12.29   1
 -31  10  -2   61.31   12.76   1
 -30  10  -2   34.84   10.65   1
 -29  10  -2  149.77   14.39   1
 -27  10  -2   45.61   10.26   1
 -25  10  -2   13.18   10.43   1
 -24  10  -2    0.89    8.77   1
 -23  10  -2  131.49   12.61   1
 -21  10  -2   20.10    8.41   1
 -20  10  -2   98.58   11.12   1
 -19  10  -2   15.66    8.34   1
 -18  10  -2   22.95    8.93   1
 -17  10  -2   16.62    8.97   1
 -16  10  -2  574.99   18.16   1
 -15  10  -2  212.96   12.19   1
 -14  10  -2   69.63    9.31   1
 -13  10  -2  285.05   12.95   1
 -12  10  -2  164.79   11.49   1
 -11  10  -2   25.62    8.79   1
 -10  10  -2  298.65   13.99   1
  -9  10  -2   66.46    9.72   1
  -8  10  -2  102.59   10.42   1
  -7  10  -2  216.95   10.86   1
  -6  10  -2  142.49   10.50   1
  -5  10  -2  422.59   14.41   1
  -4  10  -2  148.10   11.07   1
  -3  10  -2  222.70   12.12   1
  -2  10  -2   89.96   11.34   1
  -1  10  -2   53.92   10.42   1
   0  10  -2  286.03   13.68   1
   1  10  -2   41.02    7.75   1
   2  10  -2  167.16    9.20   1
   3  10  -2  298.66   10.27   1
   4  10  -2   82.52    8.54   1
   5  10  -2  215.44   10.14   1
   6  10  -2  589.90   14.73   1
   7  10  -2   17.28    7.93   1
   8  10  -2   36.74    8.91   1
  10  10  -2   93.12   11.31   1
  13  10  -2  119.09   11.77   1
  15  10  -2   21.08   10.51   1
  16  10  -2   19.37   10.17   1
  17  10  -2   36.12   11.11   1
  18  10  -2    7.58   10.15   1
  19  10  -2  126.57   14.50   1
  20  10  -2   31.42   12.57   1
  21  10  -2   62.83   12.64   1
  22  10  -2   39.30   12.16   1
  20  11  -2   23.67   12.57   1
  17  11  -2   38.15   10.36   1
  12  11  -2   85.12   11.69   1
  11  11  -2   24.11   10.09   1
  10  11  -2   10.96    9.00   1
   9  11  -2   87.34   10.57   1
   8  11  -2   14.97    7.75   1
   7  11  -2   62.57    8.09   1
   6  11  -2  160.06    9.20   1
   5  11  -2  130.60    8.68   1
   4  11  -2  202.15    9.77   1
   3  11  -2  111.29    8.27   1
   2  11  -2  236.66   10.65   1
   1  11  -2  623.79   14.92   1
   0  11  -2   60.99    9.32   1
  -1  11  -2   25.56    9.63   1
  -2  11  -2  109.40   11.31   1
  -3  11  -2  277.93   14.62   1
  -4  11  -2  212.28   13.00   1
  -5  11  -2  151.80   11.85   1
  -6  11  -2  147.04   11.88   1
  -7  11  -2  228.66   12.97   1
  -8  11  -2  297.55   13.82   1
  -9  11  -2  126.11   11.03   1
 -10  11  -2   38.53    8.88   1
 -11  11  -2   61.70    9.60   1
 -12  11  -2  634.36   17.59   1
 -13  11  -2  209.28   12.76   1
 -14  11  -2  104.64   10.60   1
 -15  11  -2  194.17   13.30   1
 -16  11  -2  104.90   10.53   1
 -17  11  -2  133.37   12.67   1
 -18  11  -2   58.89    9.66   1
 -19  11  -2   18.29    9.08   1
 -20  11  -2   96.41   11.92   1
 -21  11  -2   11.92    9.91   1
 -22  11  -2   44.67   10.28   1
 -23  11  -2   96.34   12.22   1
 -24  11  -2   12.17   10.54   1
 -25  11  -2   14.43    9.89   1
 -27  11  -2   30.43   10.89   1
 -28  11  -2   40.30   11.85   1
 -30  11  -2   16.91   11.09   1
 -31  11  -2   31.80   12.59   1
 -33  11  -2   13.08   10.97   1
 -33  12  -2   13.03   11.23   1
 -31  12  -2   27.75   12.10   1
 -30  12  -2    0.10   11.44   1
 -29  12  -2   12.53   10.24   1
 -28  12  -2   79.62   11.94   1
 -26  12  -2   20.94    9.62   1
 -24  12  -2  357.08   17.07   1
 -23  12  -2   99.71   12.34   1
 -22  12  -2   11.41    9.43   1
 -21  12  -2   85.70   10.63   1
 -19  12  -2   22.49    8.54   1
 -18  12  -2  213.37   14.25   1
 -17  12  -2   96.09   10.75   1
 -16  12  -2  240.13   14.44   1
 -14  12  -2   56.40    9.78   1
 -13  12  -2  321.91   14.91   1
 -12  12  -2  126.51   11.65   1
 -11  12  -2  605.77   17.60   1
 -10  12  -2  153.72   11.83   1
  -9  12  -2   46.36    9.83   1
  -7  12  -2   73.10   10.62   1
  -6  12  -2  150.52   11.90   1
  -5  12  -2   72.04   11.35   1
  -4  12  -2   13.31    9.54   1
  -3  12  -2   37.92   10.53   1
  -2  12  -2  147.85   12.89   1
  -1  12  -2  601.29   18.37   1
   0  12  -2  151.11   11.04   1
   1  12  -2  347.88   12.55   1
   2  12  -2   44.80    7.85   1
   4  12  -2  251.30   10.46   1
   5  12  -2  106.25    8.19   1
   6  12  -2  231.50   10.82   1
   7  12  -2   16.11    6.81   1
   9  12  -2   90.85    9.83   1
  11  12  -2   84.63   11.68   1
  12  12  -2  347.38   17.58   1
  13  12  -2   11.24    9.54   1
  14  12  -2   24.31   10.56   1
  16  12  -2   73.80   12.89   1
  17  12  -2   18.02   11.76   1
  19  12  -2   28.45   12.20   1
  22  12  -2   63.71   12.91   1
  19  13  -2   34.23   11.67   1
  18  13  -2   73.08   13.48   1
  16  13  -2   11.89    9.72   1
  15  13  -2    1.57    9.94   1
  14  13  -2   26.07   10.99   1
  12  13  -2   22.47    9.76   1
  11  13  -2   19.89    9.50   1
  10  13  -2  122.08   10.52   1
   8  13  -2  102.62    9.40   1
   7  13  -2  100.31    8.25   1
   4  13  -2  147.22    9.20   1
   3  13  -2  163.56    9.26   1
   2  13  -2   12.26    7.59   1
   0  13  -2  227.99   13.04   1
  -1  13  -2  317.40   15.15   1
  -2  13  -2  293.71   14.51   1
  -3  13  -2  244.26   15.12   1
  -4  13  -2   41.57   10.69   1
  -5  13  -2   88.91   11.08   1
  -6  13  -2   67.91   11.12   1
  -7  13  -2   63.80   10.66   1
  -8  13  -2   93.65   11.03   1
  -9  13  -2   36.02    9.85   1
 -10  13  -2  263.40   13.98   1
 -11  13  -2  283.45   14.10   1
 -12  13  -2  321.26   15.07   1
 -13  13  -2  248.50   13.49   1
 -14  13  -2   26.66    9.15   1
 -15  13  -2   11.93    9.35   1
 -16  13  -2  149.10   11.93   1
 -17  13  -2  141.02   12.32   1
 -20  13  -2   86.04   11.27   1
 -21  13  -2   93.63   11.84   1
 -23  13  -2  131.11   12.69   1
 -24  13  -2   10.59   10.79   1
 -25  13  -2   16.48   10.25   1
 -27  13  -2   20.47   10.68   1
 -28  13  -2   11.39   10.17   1
 -31  13  -2  115.63   13.55   1
 -32  13  -2   45.95   12.80   1
 -34  13  -2    7.49   10.11   1
 -34  14  -2   74.07   13.08   1
 -32  14  -2   41.28   12.76   1
 -31  14  -2   24.01   11.81   1
 -29  14  -2   10.31   10.18   1
 -28  14  -2  211.50   14.78   1
 -27  14  -2   41.03   11.29   1
 -25  14  -2   15.41   10.22   1
 -23  14  -2   43.83   11.02   1
 -22  14  -2   91.91   11.16   1
 -21  14  -2  118.37   12.89   1
 -20  14  -2   31.96    9.73   1
 -19  14  -2   89.94   11.22   1
 -18  14  -2   17.49    8.76   1
 -17  14  -2   85.29   10.95   1
 -15  14  -2  315.77   14.31   1
 -14  14  -2   99.41   11.15   1
 -12  14  -2   49.82    9.34   1
 -11  14  -2  107.04   11.25   1
 -10  14  -2   61.75   10.53   1
  -9  14  -2  183.20   12.70   1
  -7  14  -2   23.00    9.50   1
  -5  14  -2  177.07   13.20   1
  -4  14  -2   59.01   10.97   1
  -3  14  -2   89.50   11.88   1
  -2  14  -2   32.52   10.95   1
  -1  14  -2   37.83   10.13   1
   0  14  -2   93.04    9.46   1
   1  14  -2  333.28   12.19   1
   3  14  -2   94.16    9.25   1
   5  14  -2   93.62    8.06   1
   6  14  -2   37.70    7.77   1
   7  14  -2  129.24    9.43   1
   8  14  -2   91.48    9.19   1
   9  14  -2   48.39    8.71   1
  10  14  -2    1.74    7.91   1
  12  14  -2   27.74    8.52   1
  13  14  -2   31.68    9.01   1
  14  14  -2  217.08   13.49   1
  17  14  -2   11.37   10.44   1
  18  14  -2   35.61   11.84   1
  20  14  -2   56.25   11.60   1
  18  15  -2    6.24    7.96   1
  16  15  -2   40.39    9.84   1
  15  15  -2   89.51   11.37   1
  13  15  -2   12.67    7.88   1
  11  15  -2   24.07    8.05   1
   9  15  -2  450.86   15.29   1
   7  15  -2   68.34    8.20   1
   6  15  -2   60.02    8.52   1
   5  15  -2  158.10    9.24   1
   4  15  -2   63.75    7.93   1
   3  15  -2   78.55    9.23   1
   2  15  -2   31.23    8.25   1
   0  15  -2   41.33    9.59   1
  -1  15  -2  307.11   14.87   1
  -2  15  -2   18.08   10.68   1
  -3  15  -2    0.02    8.96   1
  -4  15  -2  183.20   14.46   1
  -5  15  -2  193.59   13.79   1
  -6  15  -2   76.80   10.61   1
  -7  15  -2  142.75   12.29   1
  -8  15  -2  151.31   12.74   1
  -9  15  -2   86.46   11.30   1
 -10  15  -2  196.82   13.75   1
 -11  15  -2  199.82   11.85   1
 -13  15  -2   22.84    9.34   1
 -14  15  -2  295.13   15.25   1
 -17  15  -2   39.45    9.88   1
 -18  15  -2   70.96   10.58   1
 -19  15  -2   58.01   11.30   1
 -20  15  -2  169.20   12.56   1
 -21  15  -2   59.55   11.03   1
 -23  15  -2   48.57   11.41   1
 -24  15  -2  467.56   19.50   1
 -26  15  -2   12.51    9.82   1
 -28  15  -2    0.20   10.08   1
 -29  15  -2   16.14    9.88   1
 -30  15  -2  108.91   12.43   1
 -31  15  -2   31.46   10.86   1
 -32  15  -2   48.22   12.01   1
 -34  16  -2   22.60   11.03   1
 -31  16  -2   27.70   12.46   1
 -28  16  -2   69.71   11.20   1
 -23  16  -2   25.97    9.91   1
 -22  16  -2   61.86   11.48   1
 -21  16  -2   47.83   11.07   1
 -20  16  -2   72.14   11.92   1
 -19  16  -2   32.01    9.70   1
 -18  16  -2  203.11   14.13   1
 -17  16  -2   50.74   10.63   1
 -15  16  -2    0.02    9.23   1
 -13  16  -2  146.62   12.42   1
 -12  16  -2  288.16   15.12   1
 -11  16  -2  120.38   11.36   1
 -10  16  -2  566.80   20.19   1
  -9  16  -2  243.52   15.11   1
  -8  16  -2  180.20   14.54   1
  -7  16  -2  245.76   15.79   1
  -6  16  -2  596.65   20.67   1
  -5  16  -2  113.51   12.99   1
  -4  16  -2  247.44   16.93   1
  -3  16  -2  120.37   13.81   1
   0  16  -2    3.04    8.13   1
   1  16  -2   52.26    9.83   1
   2  16  -2  194.17   10.97   1
   3  16  -2   39.86    8.52   1
   4  16  -2   81.23    9.39   1
   6  16  -2   72.03    8.75   1
   7  16  -2   43.10    8.77   1
   8  16  -2    5.15    7.91   1
   9  16  -2    0.12    8.13   1
  10  16  -2   13.75    8.11   1
  11  16  -2   26.91    8.73   1
  12  16  -2   76.87    9.88   1
  15  16  -2   38.26    9.57   1
  17  16  -2   15.73    9.42   1
  18  16  -2   23.76   10.57   1
  16  17  -2   12.79    8.13   1
  15  17  -2   40.60    9.74   1
  13  17  -2    0.45    7.75   1
  10  17  -2   31.12    9.07   1
   9  17  -2   44.73    9.10   1
   7  17  -2   79.71    9.42   1
   6  17  -2   80.04    9.10   1
   5  17  -2   81.40    9.63   1
   4  17  -2   22.87    8.58   1
   2  17  -2  135.32   10.76   1
   1  17  -2  164.33   11.52   1
  -1  17  -2   55.75   11.11   1
  -2  17  -2   27.68   10.54   1
  -3  17  -2   80.13   13.43   1
  -4  17  -2  138.26   13.44   1
  -5  17  -2   82.94   13.22   1
  -6  17  -2  123.19   14.17   1
  -8  17  -2  145.49   12.98   1
  -9  17  -2  131.43   13.19   1
 -10  17  -2   19.40   10.46   1
 -11  17  -2  134.32   13.42   1
 -12  17  -2   85.39   11.78   1
 -13  17  -2  137.76   12.90   1
 -14  17  -2   92.12   11.72   1
 -15  17  -2   41.84   10.94   1
 -16  17  -2   47.81   11.24   1
 -18  17  -2  145.54   13.43   1
 -19  17  -2  138.52   13.20   1
 -21  17  -2   28.08   10.54   1
 -22  17  -2   71.78   12.16   1
 -23  17  -2   60.07   13.50   1
 -24  17  -2   71.04   12.26   1
 -26  17  -2   42.70   11.55   1
 -27  17  -2   32.86   12.52   1
 -28  17  -2   25.97   11.14   1
 -32  17  -2   27.79   11.67   1
 -34  18  -2   20.96   11.54   1
 -32  18  -2   57.76   12.89   1
 -31  18  -2   72.91   12.42   1
 -27  18  -2   34.53   12.03   1
 -26  18  -2   22.27   11.30   1
 -23  18  -2    0.22    9.20   1
 -22  18  -2   69.58   12.52   1
 -21  18  -2   65.49   11.79   1
 -20  18  -2   55.07   12.05   1
 -19  18  -2   49.42   11.21   1
 -18  18  -2   24.21   10.04   1
 -17  18  -2  136.43   14.20   1
 -16  18  -2  187.31   14.77   1
 -15  18  -2   52.42   11.82   1
 -13  18  -2   10.48    9.98   1
 -12  18  -2  199.94   14.99   1
 -11  18  -2   42.66   10.27   1
 -10  18  -2   20.35   11.02   1
  -9  18  -2  167.91   14.26   1
  -7  18  -2   58.33   11.45   1
  -6  18  -2  212.48   15.72   1
  -3  18  -2   66.44   12.80   1
  -2  18  -2  193.63   14.77   1
  -1  18  -2  137.16   12.53   1
   0  18  -2   12.78    9.64   1
   1  18  -2   58.57   10.13   1
   2  18  -2   41.46    9.31   1
   3  18  -2   58.46    9.96   1
   4  18  -2   88.50    8.64   1
   6  18  -2    9.06    8.10   1
   7  18  -2    7.81    7.68   1
   9  18  -2   38.88    8.82   1
  10  18  -2    9.65    8.22   1
  13  18  -2   98.07   10.26   1
  14  18  -2   49.47   10.16   1
  16  18  -2   25.98    8.96   1
  13  19  -2   43.58    9.07   1
  12  19  -2   37.33    9.38   1
  10  19  -2  126.69    9.56   1
   8  19  -2  101.15   10.47   1
   6  19  -2   81.19   10.01   1
   5  19  -2   52.98    9.07   1
   4  19  -2   42.23    8.83   1
   3  19  -2   79.12   10.51   1
   2  19  -2  210.62   12.71   1
   1  19  -2   78.02   10.56   1
   0  19  -2   24.70    9.08   1
  -1  19  -2   46.79   11.17   1
  -2  19  -2  130.92   14.15   1
  -3  19  -2   48.32   11.91   1
  -4  19  -2   71.95   11.77   1
  -5  19  -2   84.80   13.36   1
  -7  19  -2   11.32   10.91   1
  -8  19  -2   17.89   10.89   1
  -9  19  -2   24.36   10.54   1
 -11  19  -2   20.24   10.55   1
 -13  19  -2    2.52    9.57   1
 -14  19  -2   81.08   12.43   1
 -15  19  -2   67.39   12.06   1
 -16  19  -2   36.07   10.49   1
 -17  19  -2  142.50   13.69   1
 -18  19  -2   41.90   11.92   1
 -19  19  -2   26.67   10.80   1
 -20  19  -2   88.11   12.40   1
 -21  19  -2  186.27   14.87   1
 -22  19  -2   72.01   12.85   1
 -23  19  -2   54.20   12.46   1
 -24  19  -2   51.85   10.70   1
 -25  19  -2   90.17   11.82   1
 -27  19  -2   91.75   13.60   1
 -28  19  -2    6.70   10.26   1
 -29  19  -2  129.97   13.48   1
 -31  19  -2   32.80   12.69   1
 -32  19  -2   35.82   12.98   1
 -34  20  -2  104.84   12.78   1
 -31  20  -2   23.48   12.28   1
 -30  20  -2   28.52   11.45   1
 -29  20  -2    0.49   10.55   1
 -28  20  -2   47.31   11.57   1
 -27  20  -2   49.72   11.83   1
 -25  20  -2   64.05   12.87   1
 -24  20  -2   28.30   10.83   1
 -23  20  -2   28.54   12.13   1
 -22  20  -2   42.77   12.03   1
 -21  20  -2  111.12   14.29   1
 -19  20  -2   60.09   12.47   1
 -18  20  -2   47.80   11.10   1
 -16  20  -2   78.53   13.24   1
 -15  20  -2  162.30   15.02   1
 -14  20  -2   28.60   11.57   1
 -13  20  -2   79.74   13.11   1
 -11  20  -2  130.75   13.14   1
 -10  20  -2   81.57   13.32   1
  -9  20  -2  130.37   13.44   1
  -7  20  -2   79.86   13.65   1
  -5  20  -2  158.45   15.62   1
  -4  20  -2   71.86   13.53   1
  -2  20  -2   46.74   11.58   1
  -1  20  -2   83.94   12.06   1
   0  20  -2   11.17    9.62   1
   1  20  -2  110.28   11.25   1
   3  20  -2   22.03    9.33   1
   5  20  -2   97.61    9.78   1
   7  20  -2   49.21    8.82   1
   8  20  -2   46.34    8.54   1
  10  20  -2   27.16    9.01   1
  14  20  -2   84.54    8.82   1
   9  21  -2   64.32    8.91   1
   7  21  -2   24.35    9.04   1
   5  21  -2   20.66    8.61   1
   4  21  -2   76.82    9.35   1
   3  21  -2   21.63    9.64   1
   2  21  -2   62.05   10.14   1
   0  21  -2   78.91   11.27   1
  -1  21  -2  101.20   13.02   1
  -2  21  -2  193.38   15.78   1
  -3  21  -2   57.02   12.73   1
  -4  21  -2   30.01   11.46   1
  -5  21  -2   32.42   12.39   1
  -6  21  -2   70.92   13.39   1
  -7  21  -2  113.54   14.07   1
  -8  21  -2   80.66   13.95   1
  -9  21  -2   81.70   13.53   1
 -10  21  -2    4.98   11.29   1
 -11  21  -2    9.84   10.97   1
 -12  21  -2   86.50   13.18   1
 -13  21  -2   89.29   13.44   1
 -14  21  -2  107.19   12.97   1
 -15  21  -2   48.46   11.74   1
 -16  21  -2   32.38   11.19   1
 -17  21  -2   28.46   11.76   1
 -18  21  -2   58.87   12.76   1
 -19  21  -2  184.75   15.73   1
 -20  21  -2   98.39   13.19   1
 -21  21  -2   63.38   12.80   1
 -23  21  -2   58.66   13.59   1
 -25  21  -2   64.89   11.59   1
 -26  21  -2   19.80   11.91   1
 -30  21  -2   70.87   12.64   1
 -31  21  -2   61.06   12.13   1
 -34  21  -2    3.98   10.69   1
 -34  22  -2   64.77   12.20   1
 -30  22  -2   16.65   11.08   1
 -29  22  -2    3.21   11.56   1
 -28  22  -2  113.75   13.60   1
 -27  22  -2   53.60   12.26   1
 -26  22  -2   56.06   11.93   1
 -25  22  -2  126.44   13.82   1
 -24  22  -2   40.80   12.89   1
 -20  22  -2   54.95   11.66   1
 -19  22  -2   59.07   12.25   1
 -18  22  -2   80.79   11.92   1
 -17  22  -2   86.86   14.47   1
 -16  22  -2   42.81   13.18   1
 -15  22  -2   31.46   11.67   1
 -14  22  -2   93.58   13.44   1
 -11  22  -2   29.20   11.65   1
  -8  22  -2   74.27   12.87   1
  -7  22  -2   28.59   12.31   1
  -6  22  -2   47.91   13.58   1
  -5  22  -2   86.35   14.13   1
  -4  22  -2   74.34   13.28   1
  -3  22  -2   85.64   14.21   1
  -2  22  -2   36.76   11.29   1
   0  22  -2   10.77   10.08   1
   1  22  -2   10.25    9.82   1
   2  22  -2   56.73    9.65   1
   3  22  -2  139.00   11.83   1
   4  22  -2   78.07    9.76   1
   5  22  -2   48.59    9.60   1
   6  22  -2  135.64   10.87   1
   8  22  -2   15.53    8.35   1
  12  22  -2   80.60    9.24   1
  10  23  -2    2.69    8.37   1
   9  23  -2   43.70    9.74   1
   8  23  -2   10.95    8.09   1
   6  23  -2   77.12   10.38   1
   5  23  -2   24.17    8.73   1
   4  23  -2   12.81    9.05   1
   3  23  -2   61.15   10.16   1
   0  23  -2  131.90   12.06   1
  -1  23  -2   11.04    9.68   1
  -3  23  -2   21.17   11.75   1
  -4  23  -2   27.76   12.48   1
  -5  23  -2   14.64   11.03   1
  -6  23  -2   73.36   14.07   1
  -9  23  -2   49.19   12.89   1
 -10  23  -2   94.79   14.48   1
 -11  23  -2   87.76   13.48   1
 -12  23  -2   83.41   13.62   1
 -13  23  -2  121.18   14.46   1
 -14  23  -2   34.58   12.05   1
 -15  23  -2   29.92   12.07   1
 -16  23  -2   37.01   12.94   1
 -17  23  -2   76.35   11.96   1
 -18  23  -2   12.93   11.24   1
 -19  23  -2   31.31   11.64   1
 -21  23  -2   70.67   12.71   1
 -22  23  -2    4.04   11.19   1
 -23  23  -2  123.34   14.17   1
 -26  23  -2   46.08   12.69   1
 -29  23  -2   74.95   15.74   1
 -32  23  -2   37.08   11.50   1
 -33  24  -2    0.64   10.56   1
 -25  24  -2   40.59   13.34   1
 -24  24  -2   16.68   11.56   1
 -22  24  -2   62.62   12.73   1
 -21  24  -2   23.71   11.72   1
 -20  24  -2   28.21   11.15   1
 -19  24  -2   28.13   12.03   1
 -18  24  -2   13.24   10.41   1
 -17  24  -2   56.57   13.50   1
 -15  24  -2  504.52   20.85   1
 -13  24  -2   24.36   12.29   1
 -12  24  -2  369.62   19.35   1
 -11  24  -2    9.29   11.40   1
  -9  24  -2  494.52   21.43   1
  -8  24  -2    3.58   11.22   1
  -7  24  -2   73.05   13.04   1
  -6  24  -2    3.55   11.95   1
  -5  24  -2   37.40   13.33   1
  -3  24  -2   19.16   10.36   1
  -2  24  -2   41.21   10.32   1
   0  24  -2    2.44    9.31   1
   1  24  -2   52.93   10.55   1
   4  24  -2   12.30    9.23   1
   6  24  -2   19.05    8.20   1
   9  24  -2    1.51    7.34   1
   5  25  -2   30.99    8.53   1
   3  25  -2   21.40    8.99   1
   2  25  -2  121.23   11.57   1
   0  25  -2   23.37   10.42   1
  -1  25  -2   41.77   11.05   1
  -3  25  -2  123.94   13.21   1
  -4  25  -2   69.02   12.40   1
  -5  25  -2   58.73   13.14   1
  -6  25  -2   73.89   13.85   1
  -7  25  -2   13.99   12.16   1
 -11  25  -2   13.11   12.09   1
 -14  25  -2   12.89   11.64   1
 -17  25  -2   14.19   11.52   1
 -18  25  -2   19.68   10.23   1
 -19  25  -2   97.16   13.22   1
 -20  25  -2   59.64   12.40   1
 -21  25  -2   66.27   12.19   1
 -22  25  -2  107.07   14.10   1
 -23  25  -2    3.37   11.46   1
 -24  25  -2   38.72   12.56   1
 -25  25  -2   16.90   11.85   1
 -26  25  -2   24.12   11.35   1
 -27  25  -2  117.37   15.52   1
 -30  25  -2   36.51   13.57   1
 -30  26  -2   24.46   12.09   1
 -28  26  -2   62.89   12.96   1
 -27  26  -2   51.06   13.54   1
 -23  26  -2   55.05   12.21   1
 -22  26  -2   54.10   13.96   1
 -21  26  -2   20.27   12.91   1
 -20  26  -2    5.48   11.22   1
 -18  26  -2   25.59   11.51   1
 -17  26  -2   29.01   13.11   1
 -15  26  -2    7.66   10.77   1
 -11  26  -2   25.38   11.83   1
 -10  26  -2   14.17   12.05   1
  -9  26  -2   27.69   12.35   1
  -8  26  -2   19.90   11.88   1
  -4  26  -2   55.20   12.87   1
  -3  26  -2   58.91   12.54   1
  -2  26  -2    0.05   10.15   1
   1  26  -2   39.36   10.65   1
   2  26  -2   63.80   10.08   1
   6  26  -2   69.06    8.61   1
   4  27  -2   25.75    8.02   1
  -1  27  -2   49.11   11.16   1
  -2  27  -2   98.41   12.68   1
  -3  27  -2    0.85    8.93   1
  -5  27  -2   45.40   14.09   1
  -7  27  -2   40.51   12.11   1
  -8  27  -2  104.32   14.84   1
  -9  27  -2   29.35   13.19   1
 -10  27  -2   39.48   12.57   1
 -11  27  -2   19.36   13.55   1
 -13  27  -2   25.60   12.56   1
 -14  27  -2   29.76   12.39   1
 -15  27  -2   10.17   11.29   1
 -16  27  -2   30.95   13.05   1
 -17  27  -2   48.67   12.10   1
 -18  27  -2   31.60   11.99   1
 -19  27  -2   85.08   14.41   1
 -20  27  -2   42.26   11.84   1
 -22  27  -2   58.52   13.61   1
 -25  27  -2   91.09   14.87   1
 -26  27  -2   29.98   13.70   1
 -27  27  -2    0.04   11.47   1
 -30  27  -2   27.38   12.09   1
 -32  27  -2    0.00   10.33   1
 -30  28  -2   16.24   12.35   1
 -26  28  -2   60.73   13.24   1
 -23  28  -2   29.21   11.43   1
 -22  28  -2  122.46   14.67   1
 -21  28  -2   25.62   11.44   1
 -20  28  -2   62.54   14.01   1
 -19  28  -2   27.01   11.84   1
 -18  28  -2   15.64   11.38   1
 -16  28  -2   64.21   13.55   1
 -14  28  -2  190.95   17.45   1
 -12  28  -2   66.41   13.73   1
 -11  28  -2   22.40   13.13   1
  -7  28  -2   20.49   11.06   1
  -6  28  -2  113.22   15.24   1
  -4  28  -2   11.42   10.46   1
  -3  28  -2   28.81    9.80   1
  -2  28  -2   73.93   10.46   1
  -1  28  -2   19.72    9.50   1
   1  28  -2    1.23    8.97   1
   2  28  -2   37.37    8.21   1
   0  29  -2   97.05   11.85   1
  -2  29  -2   14.86    9.62   1
  -4  29  -2   24.10   10.90   1
  -6  29  -2   80.60   12.81   1
  -7  29  -2   23.09   12.22   1
 -10  29  -2  148.36   14.22   1
 -12  29  -2   23.14   12.09   1
 -15  29  -2   25.15   11.09   1
 -16  29  -2    9.93   10.74   1
 -17  29  -2   11.94   10.05   1
 -19  29  -2  127.82   14.34   1
 -23  29  -2   45.91   13.59   1
 -26  29  -2    3.20   10.97   1
 -27  29  -2   13.91   11.36   1
 -29  29  -2   97.59   13.56   1
 -26  30  -2   52.05   12.96   1
 -25  30  -2   35.76   14.20   1
 -24  30  -2   15.76   12.68   1
 -21  30  -2   68.25   12.96   1
 -20  30  -2   26.89   12.04   1
 -19  30  -2   29.31   12.77   1
 -17  30  -2    2.31   11.14   1
 -15  30  -2   94.94   14.01   1
 -12  30  -2    1.87   12.45   1
 -11  30  -2   29.29   12.14   1
 -10  30  -2   30.61   12.00   1
  -9  30  -2   43.46   14.14   1
  -8  30  -2    7.61   10.81   1
  -5  30  -2   30.14   11.12   1
  -4  30  -2   23.55   10.47   1
  -4  31  -2   14.38    9.95   1
  -8  31  -2    0.93   11.01   1
  -9  31  -2   24.08   11.25   1
 -11  31  -2   17.03   12.25   1
 -12  31  -2   40.61   12.49   1
 -13  31  -2   66.00   13.34   1
 -15  31  -2   30.03   13.72   1
 -16  31  -2   42.69   13.13   1
 -18  31  -2   87.50   14.29   1
 -19  31  -2   27.57   13.48   1
 -20  31  -2   17.49   10.99   1
 -21  31  -2   64.70   12.51   1
 -22  31  -2   14.83   11.33   1
 -25  31  -2    7.21   10.12   1
 -26  31  -2   18.24   11.76   1
 -27  31  -2   20.82   10.99   1
 -27  32  -2    1.01   10.82   1
 -26  32  -2   30.48   11.19   1
 -25  32  -2   24.05   10.79   1
 -19  32  -2   53.54   12.54   1
 -18  32  -2   37.28   12.75   1
 -17  32  -2   31.07   12.13   1
 -15  32  -2   21.48   11.64   1
 -14  32  -2   52.39   13.12   1
 -13  32  -2   30.62   12.54   1
 -12  32  -2    4.04   10.21   1
 -10  32  -2   38.24   11.91   1
  -9  32  -2   48.35   11.99   1
  -7  32  -2   26.85   10.13   1
  -6  32  -2   41.43    9.76   1
 -11  33  -2   14.25   10.67   1
 -23  33  -2    3.05   10.50   1
 -22  34  -2   65.12   13.03   1
 -20  34  -2   66.43   11.89   1
 -18  34  -2   24.06   12.56   1
 -16  34  -2   46.00   11.03   1
 -15  34  -2    0.77   11.00   1
 -14  34  -2   79.20   12.84   1
 -13  34  -2   17.42   10.96   1
 -12  34  -2   55.40   12.25   1
 -20  35  -1   54.77   12.04   1
 -19  35  -1   12.49    9.30   1
 -15  35  -1   44.12   11.74   1
 -10  34  -1   31.37   11.30   1
 -11  34  -1   19.02   10.74   1
 -13  34  -1    6.42   10.79   1
 -15  34  -1   21.77   11.09   1
 -16  34  -1   24.92   10.20   1
 -17  34  -1   25.83   11.79   1
 -18  34  -1   21.58   11.68   1
 -19  34  -1   32.38   11.63   1
 -23  34  -1   13.76   11.23   1
 -24  34  -1   31.62   11.17   1
 -25  34  -1   19.94   11.38   1
 -27  33  -1   41.52   11.19   1
 -21  33  -1   50.21   13.50   1
 -20  33  -1   48.06   12.15   1
 -19  33  -1   31.58   11.80   1
 -18  33  -1   16.55   10.86   1
 -17  33  -1   58.83   12.64   1
 -16  33  -1   48.77   12.71   1
 -14  33  -1   28.27   11.71   1
 -12  33  -1   63.64   12.09   1
  -7  33  -1   26.28   10.12   1
  -5  32  -1   21.00   10.26   1
  -8  32  -1   79.19   13.33   1
  -9  32  -1   28.47   12.32   1
 -15  32  -1    8.80   10.86   1
 -22  32  -1    4.17   11.25   1
 -23  32  -1   14.27   11.89   1
 -24  32  -1   60.97   13.61   1
 -26  32  -1   27.44   12.08   1
 -28  32  -1    0.05   10.42   1
 -29  32  -1   17.77   10.76   1
 -28  31  -1   29.52   11.68   1
 -27  31  -1  104.51   13.66   1
 -22  31  -1   13.81   11.11   1
 -21  31  -1   23.82   12.08   1
 -17  31  -1   17.75   12.37   1
 -14  31  -1   21.60   11.27   1
 -10  31  -1   32.52   11.46   1
  -4  31  -1   98.93   12.39   1
  -3  31  -1   25.69   10.90   1
  -1  31  -1   22.13    8.88   1
   1  30  -1   13.16    9.57   1
   0  30  -1   12.46    9.46   1
  -1  30  -1   50.70   11.06   1
  -4  30  -1   53.02   12.45   1
  -5  30  -1   41.50   11.89   1
  -6  30  -1   53.26   12.03   1
  -7  30  -1    6.01   11.92   1
  -9  30  -1   43.73   10.67   1
 -10  30  -1   79.75   12.39   1
 -12  30  -1   45.39   11.76   1
 -14  30  -1   95.88   12.60   1
 -16  30  -1   92.99   12.51   1
 -18  30  -1   41.30   11.57   1
 -20  30  -1   80.84   11.79   1
 -21  30  -1   36.37   11.30   1
 -22  30  -1   23.83   11.94   1
 -24  30  -1   41.41   12.60   1
 -25  30  -1   29.83   12.20   1
 -26  30  -1   54.06   11.92   1
 -27  30  -1    4.47   10.88   1
 -29  30  -1   32.56   13.11   1
 -30  30  -1    1.00   10.21   1
 -31  30  -1   14.25   10.23   1
 -30  29  -1   36.95   11.78   1
 -28  29  -1   26.34   11.32   1
 -27  29  -1   18.31   11.20   1
 -24  29  -1   91.45   13.15   1
 -21  29  -1   61.03   11.74   1
 -18  29  -1   58.96   12.79   1
 -17  29  -1   17.87   11.65   1
 -15  29  -1  171.39   15.22   1
 -14  29  -1  187.24   13.62   1
 -12  29  -1   17.03   11.05   1
 -11  29  -1   49.80   12.81   1
 -10  29  -1    1.01    9.18   1
  -9  29  -1   71.81   12.15   1
  -8  29  -1   59.91   12.84   1
  -7  29  -1   44.29   11.91   1
  -5  29  -1   88.19   14.04   1
  -3  29  -1   10.02    9.83   1
   1  29  -1   36.26   10.35   1
   3  29  -1   23.16    9.48   1
  -1  28  -1   46.81   12.16   1
  -2  28  -1   29.60   11.85   1
  -5  28  -1   16.97   11.34   1
  -7  28  -1  139.86   12.99   1
  -9  28  -1   38.63   11.84   1
 -11  28  -1  114.94   13.41   1
 -12  28  -1    0.04    9.52   1
 -13  28  -1   57.70   12.40   1
 -15  28  -1   43.58   12.53   1
 -17  28  -1  116.25   13.73   1
 -19  28  -1   45.67   11.64   1
 -20  28  -1   27.86   10.14   1
 -21  28  -1  137.56   14.01   1
 -23  28  -1   20.06   11.10   1
 -26  28  -1   29.46   11.56   1
 -27  28  -1   36.76   12.31   1
 -28  28  -1   33.55   11.25   1
 -29  28  -1   37.07   12.32   1
 -31  27  -1   93.55   12.82   1
 -28  27  -1   51.84   12.79   1
 -27  27  -1   54.66   12.08   1
 -25  27  -1   68.15   13.05   1
 -24  27  -1   45.37   11.83   1
 -23  27  -1   70.85   12.84   1
 -22  27  -1   15.18   11.29   1
 -21  27  -1   34.81   10.03   1
 -19  27  -1   88.39   12.33   1
 -17  27  -1   28.57   10.83   1
 -14  27  -1   22.78   11.14   1
 -13  27  -1   19.59   11.75   1
 -10  27  -1   19.38   11.36   1
  -9  27  -1   28.25   10.57   1
  -8  27  -1   86.08   12.25   1
  -6  27  -1   24.83   11.36   1
  -2  27  -1   64.20   11.94   1
   0  27  -1   40.27   11.49   1
   1  27  -1   48.30   11.13   1
   4  27  -1   88.84   10.45   1
   5  27  -1   23.66    8.89   1
   6  27  -1   51.89    9.31   1
   6  26  -1   32.77   10.23   1
   4  26  -1   89.60   10.97   1
   2  26  -1   50.26   11.80   1
   0  26  -1   74.36   11.71   1
  -2  26  -1   14.58   10.39   1
  -7  26  -1   70.98   12.98   1
  -8  26  -1   64.07   12.81   1
  -9  26  -1   41.24   11.97   1
 -10  26  -1   73.46   12.27   1
 -13  26  -1  157.95   15.77   1
 -14  26  -1   10.94   10.47   1
 -15  26  -1    7.13   10.08   1
 -16  26  -1   59.63   11.70   1
 -17  26  -1   41.90   11.54   1
 -18  26  -1   52.21   11.03   1
 -19  26  -1   81.86   12.76   1
 -22  26  -1    0.02   10.15   1
 -26  26  -1   86.30   12.14   1
 -28  26  -1   39.84   11.37   1
 -30  26  -1   49.26   13.37   1
 -31  26  -1    3.63    9.89   1
 -32  26  -1   19.15   10.87   1
 -32  25  -1    0.18   10.12   1
 -30  25  -1   26.60   13.27   1
 -27  25  -1   64.19   11.47   1
 -25  25  -1   76.67   13.18   1
 -22  25  -1   14.13   11.10   1
 -21  25  -1  200.24   14.49   1
 -19  25  -1   30.05   11.27   1
 -18  25  -1   36.08   10.62   1
 -17  25  -1   93.55   12.23   1
 -16  25  -1   56.87   11.79   1
 -15  25  -1  148.12   14.02   1
 -14  25  -1   21.59   11.99   1
 -12  25  -1   24.66   11.88   1
 -11  25  -1   33.01   12.01   1
 -10  25  -1  135.64   13.81   1
  -8  25  -1   86.19   13.42   1
  -7  25  -1   30.25   12.05   1
  -6  25  -1   18.29   11.74   1
  -5  25  -1    1.23    9.74   1
  -4  25  -1  214.29   14.39   1
  -2  25  -1    0.73   10.60   1
   0  25  -1  101.92   13.44   1
   2  25  -1   63.81   10.79   1
   9  24  -1   13.69    8.61   1
   8  24  -1   78.62   10.78   1
   6  24  -1   28.33   10.74   1
   5  24  -1   87.79   11.47   1
   3  24  -1   52.83   10.18   1
   2  24  -1   11.87    9.13   1
   0  24  -1  105.09   12.43   1
  -1  24  -1   64.35   12.33   1
  -2  24  -1    1.40   10.21   1
  -3  24  -1   93.54   13.09   1
  -4  24  -1   66.48   12.43   1
  -6  24  -1   18.43   11.73   1
  -7  24  -1   33.37   11.37   1
  -8  24  -1   47.60   11.43   1
  -9  24  -1   10.04   11.20   1
 -10  24  -1   41.72   12.80   1
 -13  24  -1   26.32   10.89   1
 -14  24  -1   37.65   11.39   1
 -15  24  -1    8.92   10.15   1
 -16  24  -1   48.80   12.11   1
 -17  24  -1   47.62   12.18   1
 -21  24  -1  118.86   12.49   1
 -23  24  -1   49.98   12.94   1
 -24  24  -1  115.11   13.40   1
 -27  24  -1   62.33   11.62   1
 -29  24  -1   77.13   13.32   1
 -30  24  -1   43.39   12.85   1
 -32  24  -1   67.11   12.38   1
 -33  24  -1    7.03   11.13   1
 -34  23  -1    4.96   10.73   1
 -33  23  -1   33.13   11.48   1
 -29  23  -1   20.66    9.40   1
 -27  23  -1   73.62   13.05   1
 -26  23  -1    5.84    9.98   1
 -25  23  -1    0.27    9.83   1
 -24  23  -1   62.08   12.07   1
 -23  23  -1  202.95   14.63   1
 -21  23  -1   65.26   12.21   1
 -20  23  -1   68.38   12.64   1
 -19  23  -1   12.55   11.66   1
 -18  23  -1   87.99   12.17   1
 -17  23  -1  107.08   14.02   1
 -16  23  -1  112.74   12.23   1
 -15  23  -1   56.10   11.96   1
 -14  23  -1   31.74   11.06   1
 -13  23  -1   31.73   10.30   1
 -10  23  -1   46.02   10.49   1
  -8  23  -1   45.27   11.97   1
  -7  23  -1  121.18   13.75   1
  -6  23  -1  112.98   13.96   1
  -5  23  -1   67.31   12.95   1
  -4  23  -1   19.70   10.09   1
  -3  23  -1   56.24   12.58   1
  -2  23  -1   49.69   12.69   1
   0  23  -1  179.29   14.56   1
   1  23  -1   96.85   11.38   1
   4  23  -1   66.77   10.42   1
   6  23  -1   12.39    8.63   1
   8  23  -1   11.64   10.18   1
   9  23  -1   16.45    9.37   1
  10  23  -1   16.44    9.48   1
  13  22  -1   13.96    8.78   1
  12  22  -1   14.11   10.39   1
   9  22  -1   14.79    9.05   1
   7  22  -1   46.77    9.33   1
   4  22  -1    0.47    8.88   1
  -1  22  -1   78.94   11.94   1
  -2  22  -1   43.46   10.96   1
  -3  22  -1  152.05   13.94   1
  -4  22  -1   49.54   11.59   1
  -5  22  -1  103.75   13.36   1
  -8  22  -1  269.59   17.25   1
  -9  22  -1  139.17   14.44   1
 -10  22  -1   35.03   10.61   1
 -11  22  -1  485.01   19.23   1
 -12  22  -1   30.71   11.24   1
 -13  22  -1  143.08   14.37   1
 -14  22  -1  262.08   16.69   1
 -15  22  -1   18.99    9.72   1
 -17  22  -1  109.86   11.70   1
 -18  22  -1   37.92   11.16   1
 -19  22  -1  190.46   13.70   1
 -20  22  -1   46.24   11.01   1
 -21  22  -1   82.34   11.86   1
 -25  22  -1   11.53   10.51   1
 -28  22  -1    7.08    9.37   1
 -29  22  -1   45.78   10.97   1
 -34  21  -1    6.42   10.26   1
 -33  21  -1   74.35   12.23   1
 -30  21  -1   50.38   12.53   1
 -29  21  -1   94.05   11.74   1
 -28  21  -1  111.89   13.87   1
 -27  21  -1   12.25   10.94   1
 -25  21  -1  191.64   13.70   1
 -24  21  -1   82.68   13.38   1
 -23  21  -1   48.52   11.71   1
 -22  21  -1   83.92   12.59   1
 -20  21  -1    5.41    9.46   1
 -19  21  -1  108.67   11.96   1
 -18  21  -1   65.70   11.50   1
 -17  21  -1   56.23   11.50   1
 -16  21  -1  229.66   13.82   1
 -15  21  -1  112.15   12.34   1
 -14  21  -1   63.12   10.85   1
 -13  21  -1   25.89   10.67   1
 -12  21  -1   31.12   10.82   1
 -11  21  -1   15.30    9.24   1
  -9  21  -1   17.65   10.16   1
  -7  21  -1   58.17   11.66   1
  -6  21  -1   95.43   13.29   1
  -5  21  -1  172.97   14.87   1
  -4  21  -1   51.03   12.56   1
  -3  21  -1   50.73   11.73   1
  -2  21  -1  122.41   13.00   1
  -1  21  -1    9.96   10.37   1
   1  21  -1   77.18   11.89   1
   2  21  -1   54.16   10.25   1
   3  21  -1  117.77   11.35   1
   4  21  -1  184.68   12.55   1
   7  21  -1  125.67   11.42   1
   8  21  -1   58.70   10.15   1
   9  21  -1   45.05    9.11   1
  10  21  -1   24.19    9.79   1
  12  21  -1   70.18   10.21   1
  13  21  -1   21.75    9.62   1
  14  21  -1   16.50    9.72   1
  15  20  -1   46.08   12.78   1
  13  20  -1   42.69   11.22   1
  10  20  -1   83.39   10.97   1
   9  20  -1   79.62   10.12   1
   8  20  -1   37.33    9.27   1
   7  20  -1   14.87    8.30   1
   4  20  -1   77.14   10.73   1
   3  20  -1   57.54   10.49   1
   2  20  -1   45.31   10.09   1
   0  20  -1  125.41   12.20   1
  -1  20  -1   44.79   12.12   1
  -2  20  -1   39.80   10.98   1
  -3  20  -1   15.84   10.82   1
  -5  20  -1    2.86   10.16   1
  -6  20  -1   86.76   11.59   1
  -7  20  -1  131.26   13.15   1
  -8  20  -1   60.65   10.49   1
 -10  20  -1  306.50   16.28   1
 -11  20  -1    0.09    8.93   1
 -12  20  -1   45.77   10.81   1
 -13  20  -1  149.37   12.78   1
 -14  20  -1   97.35   12.02   1
 -15  20  -1   11.84    9.32   1
 -17  20  -1   31.19    9.77   1
 -18  20  -1   28.65   11.18   1
 -19  20  -1   35.63   11.55   1
 -20  20  -1  110.75   12.64   1
 -22  20  -1   46.67   11.10   1
 -23  20  -1   77.43   11.52   1
 -24  20  -1   81.73   12.17   1
 -28  20  -1   25.63   11.13   1
 -29  20  -1   60.49   12.07   1
 -30  20  -1  103.17   12.91   1
 -33  20  -1   53.78   11.99   1
 -35  20  -1   51.03   10.99   1
 -34  19  -1   34.18   11.10   1
 -33  19  -1   32.45   11.75   1
 -30  19  -1    0.53   10.37   1
 -28  19  -1   44.73   11.14   1
 -27  19  -1   99.74   12.16   1
 -26  19  -1   89.38   11.18   1
 -22  19  -1  150.35   13.50   1
 -21  19  -1  100.11   13.22   1
 -20  19  -1   54.61   11.08   1
 -19  19  -1   67.78   11.03   1
 -18  19  -1   37.50    9.80   1
 -17  19  -1  225.25   14.53   1
 -16  19  -1  170.49   13.19   1
 -15  19  -1   93.60   12.01   1
 -14  19  -1  171.71   13.00   1
 -13  19  -1   13.58    9.40   1
 -12  19  -1   46.27   10.36   1
 -10  19  -1  180.60   12.82   1
  -9  19  -1  174.27   13.20   1
  -7  19  -1   45.74   11.02   1
  -5  19  -1  177.33   13.78   1
  -4  19  -1   93.20   12.31   1
  -3  19  -1  158.12   14.10   1
  -2  19  -1  212.02   14.28   1
  -1  19  -1   43.27   10.67   1
   0  19  -1   54.46   11.99   1
   1  19  -1   52.47   10.32   1
   2  19  -1  114.53   11.05   1
   3  19  -1  172.36   12.43   1
   6  19  -1   31.80    8.80   1
   7  19  -1   97.12   10.65   1
   8  19  -1  104.66   10.75   1
   9  19  -1   45.26   10.58   1
  11  19  -1    3.82    9.48   1
  12  19  -1    3.38    9.37   1
  14  19  -1   47.26   10.51   1
  15  19  -1   27.28   11.17   1
  16  19  -1    5.97   10.49   1
  17  18  -1    1.41    9.85   1
  16  18  -1   27.75   12.17   1
  15  18  -1   12.50   10.32   1
  12  18  -1   39.96   11.37   1
  11  18  -1   58.39   12.05   1
  10  18  -1   22.59   10.33   1
   8  18  -1   58.89    9.97   1
   7  18  -1   26.99    9.23   1
   6  18  -1   10.11    8.81   1
   5  18  -1   84.98   10.83   1
   4  18  -1   31.47   10.24   1
   3  18  -1   61.81   10.25   1
   2  18  -1   33.96    9.80   1
   1  18  -1   26.49    9.88   1
   0  18  -1   11.37   10.53   1
  -1  18  -1  140.53   13.34   1
  -2  18  -1   41.33   10.83   1
  -3  18  -1  277.75   15.55   1
  -4  18  -1  114.08   12.24   1
  -5  18  -1  184.75   14.61   1
  -6  18  -1   33.57   11.06   1
  -7  18  -1  398.19   17.95   1
  -8  18  -1  169.01   13.44   1
  -9  18  -1  213.51   13.69   1
 -10  18  -1  158.56   13.07   1
 -11  18  -1  419.02   16.67   1
 -12  18  -1   33.37   10.34   1
 -13  18  -1  188.64   13.85   1
 -14  18  -1  101.50   11.40   1
 -15  18  -1  295.43   14.90   1
 -16  18  -1   42.17   11.20   1
 -17  18  -1  148.66   13.14   1
 -19  18  -1   32.22   11.09   1
 -20  18  -1   37.99   11.42   1
 -21  18  -1   63.58   11.40   1
 -22  18  -1   49.81   11.99   1
 -23  18  -1   82.51   11.92   1
 -25  18  -1   23.61   10.47   1
 -26  18  -1   63.37   11.25   1
 -28  18  -1   12.52   10.71   1
 -29  18  -1   53.49   12.39   1
 -30  18  -1   38.14   13.05   1
 -32  18  -1   26.11   10.41   1
 -33  18  -1    3.36   11.09   1
 -34  18  -1   18.11   12.26   1
 -34  17  -1   18.40   11.94   1
 -33  17  -1   56.01   12.73   1
 -28  17  -1   99.31   12.97   1
 -26  17  -1   36.25   11.52   1
 -25  17  -1   83.18   13.04   1
 -24  17  -1   62.72   11.09   1
 -23  17  -1  125.20   13.51   1
 -22  17  -1  109.47   11.55   1
 -21  17  -1   59.61   11.22   1
 -20  17  -1   33.83    9.89   1
 -19  17  -1  211.62   13.88   1
 -18  17  -1  149.07   12.44   1
 -17  17  -1  125.89   12.87   1
 -16  17  -1   16.47   10.44   1
 -15  17  -1   52.63    9.81   1
 -13  17  -1  110.08   11.77   1
 -12  17  -1  131.13   11.96   1
 -11  17  -1  100.48   11.96   1
 -10  17  -1  312.77   14.60   1
  -9  17  -1   50.71    9.76   1
  -8  17  -1   55.96   10.02   1
  -7  17  -1  289.25   15.52   1
  -6  17  -1   70.82   12.00   1
  -5  17  -1   94.05   11.82   1
  -4  17  -1  104.98   12.43   1
  -3  17  -1   15.18    9.44   1
  -2  17  -1   44.66   10.70   1
  -1  17  -1   24.64   10.30   1
   0  17  -1  146.62   12.65   1
   1  17  -1  147.72   12.97   1
   2  17  -1  226.53   13.68   1
   3  17  -1   20.13    8.51   1
   4  17  -1   66.11   10.25   1
   5  17  -1   98.55   11.07   1
   6  17  -1  110.02   11.72   1
   7  17  -1   49.19   10.02   1
   8  17  -1   76.36   11.79   1
   9  17  -1   47.13   10.36   1
  10  17  -1    9.59   10.12   1
  11  17  -1  103.19   11.83   1
  12  17  -1   23.43   10.39   1
  13  17  -1    2.74   10.21   1
  15  17  -1   12.59   11.16   1
  16  17  -1  109.46   13.25   1
  18  16  -1   27.39   11.44   1
  17  16  -1   43.42   13.30   1
  15  16  -1    1.41   11.58   1
  14  16  -1   86.00   12.33   1
  11  16  -1   18.11   10.45   1
  10  16  -1   63.55   11.75   1
   9  16  -1   46.90   11.11   1
   8  16  -1   39.63    9.08   1
   7  16  -1  138.27   10.38   1
   6  16  -1    0.41    8.15   1
   5  16  -1  209.13   11.76   1
   4  16  -1    2.94    6.73   1
   3  16  -1  164.63   11.06   1
   2  16  -1   69.23    9.24   1
  -1  16  -1  202.94   13.59   1
  -2  16  -1  138.11   11.95   1
  -3  16  -1  439.18   17.15   1
  -4  16  -1   46.46    9.38   1
  -5  16  -1   72.27   10.23   1
  -6  16  -1   44.06    9.71   1
  -7  16  -1   13.11    8.68   1
  -9  16  -1   25.73    9.16   1
 -10  16  -1   56.16   10.35   1
 -11  16  -1   87.35   10.97   1
 -12  16  -1   32.10   10.13   1
 -13  16  -1  466.18   16.44   1
 -14  16  -1  150.14   11.34   1
 -15  16  -1  211.20   13.05   1
 -17  16  -1   14.60    9.18   1
 -18  16  -1   57.88   10.47   1
 -19  16  -1  168.62   11.31   1
 -21  16  -1  215.15   14.68   1
 -23  16  -1  142.35   12.21   1
 -24  16  -1   37.52    9.99   1
 -26  16  -1   55.33   12.22   1
 -27  16  -1   16.24   10.36   1
 -30  16  -1   72.08   11.99   1
 -32  16  -1   15.36   12.10   1
 -33  16  -1   43.06   12.24   1
 -34  16  -1   42.95   10.63   1
 -35  16  -1   19.19   10.79   1
 -35  15  -1   58.76   10.63   1
 -34  15  -1   25.38   12.42   1
 -33  15  -1   10.97   10.21   1
 -31  15  -1   15.28    9.70   1
 -29  15  -1  188.96   14.02   1
 -28  15  -1   50.38   11.45   1
 -27  15  -1   14.90   10.54   1
 -25  15  -1  135.09   12.43   1
 -23  15  -1   68.80   10.86   1
 -21  15  -1  103.85   12.01   1
 -20  15  -1    3.28    8.82   1
 -19  15  -1   87.71   11.90   1
 -18  15  -1  311.64   14.01   1
 -17  15  -1   37.25    9.40   1
 -16  15  -1  215.59   12.80   1
 -15  15  -1  612.66   18.30   1
 -14  15  -1   50.12    8.93   1
 -10  15  -1  149.71   11.61   1
  -9  15  -1  208.32   12.52   1
  -7  15  -1   23.79    9.05   1
  -6  15  -1  180.19   12.41   1
  -5  15  -1  146.71   12.27   1
  -2  15  -1   12.22    8.91   1
  -1  15  -1   46.70    9.76   1
   0  15  -1  600.03   19.13   1
   1  15  -1  207.41   12.71   1
   2  15  -1   37.96    8.23   1
   3  15  -1  281.33   13.03   1
   4  15  -1   82.52    9.00   1
   5  15  -1    6.14    7.45   1
   6  15  -1  104.66    9.67   1
   8  15  -1   63.43   10.20   1
   9  15  -1   12.40    8.44   1
  10  15  -1  136.47   12.65   1
  11  15  -1   15.14    9.97   1
  13  15  -1   38.38   11.23   1
  14  15  -1  162.36   14.16   1
  16  15  -1   11.41   10.42   1
  19  15  -1   43.51   12.12   1
  20  15  -1   57.32   12.07   1
  19  14  -1   41.39   11.73   1
  18  14  -1   18.17   12.10   1
  17  14  -1   13.69   12.12   1
  16  14  -1  110.38   12.35   1
  15  14  -1  176.89   15.10   1
  14  14  -1   56.13   10.85   1
  13  14  -1   34.64    9.76   1
  11  14  -1   23.88    9.58   1
  10  14  -1   65.45   10.72   1
   9  14  -1   23.81   10.47   1
   8  14  -1  250.89   14.29   1
   7  14  -1   59.89    9.33   1
   6  14  -1   69.58    9.09   1
   5  14  -1  177.90   10.89   1
   4  14  -1  100.09    9.36   1
   3  14  -1   30.24    7.59   1
   2  14  -1  121.55    9.62   1
   1  14  -1   48.39    8.75   1
   0  14  -1  165.14   11.97   1
  -2  14  -1   42.25    9.47   1
  -3  14  -1   51.60   10.20   1
  -4  14  -1   47.86    9.89   1
  -5  14  -1   29.70    8.93   1
  -6  14  -1  450.91   16.15   1
  -7  14  -1  119.29   10.89   1
  -8  14  -1  469.83   15.36   1
  -9  14  -1   27.96    9.25   1
 -10  14  -1   58.97    9.32   1
 -11  14  -1   63.53    9.21   1
 -12  14  -1   35.68    8.97   1
 -14  14  -1  189.28   12.11   1
 -15  14  -1   52.57    9.02   1
 -16  14  -1  121.46   10.95   1
 -17  14  -1   30.94    9.12   1
 -18  14  -1  118.34   10.96   1
 -19  14  -1  172.01   12.51   1
 -20  14  -1   76.57    9.97   1
 -21  14  -1   64.00    9.97   1
 -22  14  -1  273.25   14.53   1
 -23  14  -1   32.57   10.74   1
 -24  14  -1   68.33   11.15   1
 -25  14  -1   18.90   10.56   1
 -26  14  -1   10.12    9.87   1
 -27  14  -1   27.48   10.84   1
 -28  14  -1   33.78   11.46   1
 -29  14  -1  180.76   14.52   1
 -30  14  -1   66.91   12.95   1
 -31  14  -1   21.04   11.89   1
 -33  14  -1   36.30   12.15   1
 -33  13  -1   57.44   12.69   1
 -28  13  -1   29.93   11.63   1
 -27  13  -1   21.43   10.41   1
 -26  13  -1  184.21   14.82   1
 -24  13  -1   24.93    9.82   1
 -23  13  -1   39.06    9.91   1
 -22  13  -1  143.11   13.27   1
 -21  13  -1   19.42    9.56   1
 -20  13  -1  167.51   12.33   1
 -19  13  -1   18.29    8.91   1
 -18  13  -1  173.59   12.17   1
 -17  13  -1   94.72   10.71   1
 -16  13  -1  467.14   16.35   1
 -13  13  -1   20.09    8.94   1
 -12  13  -1  351.80   14.47   1
 -11  13  -1   17.97    8.97   1
 -10  13  -1  228.31   12.40   1
  -9  13  -1  113.32   10.38   1
  -8  13  -1   30.23    8.52   1
  -7  13  -1  136.32   11.48   1
  -6  13  -1  127.15   11.48   1
  -5  13  -1   18.76    9.22   1
  -4  13  -1  105.85   10.96   1
  -3  13  -1  205.66   13.15   1
  -2  13  -1   17.94    9.14   1
  -1  13  -1  408.09   15.69   1
   0  13  -1   35.15    9.36   1
   2  13  -1    8.44    7.65   1
   3  13  -1  453.75   15.12   1
   4  13  -1  102.06    9.32   1
   5  13  -1  191.43   10.55   1
   6  13  -1   36.30    8.60   1
   7  13  -1  151.77   11.70   1
   8  13  -1   29.44    9.02   1
   9  13  -1  142.18   12.62   1
  10  13  -1   48.70   10.53   1
  12  13  -1   37.08   10.19   1
  13  13  -1  176.76   15.03   1
  14  13  -1   20.31   10.57   1
  15  13  -1   37.50   10.98   1
  18  13  -1    0.72   10.42   1
  20  13  -1   57.38   12.30   1
  22  13  -1   11.68   10.21   1
  21  12  -1   78.72   13.43   1
  18  12  -1   48.62   11.86   1
  15  12  -1   20.94    9.37   1
  14  12  -1   18.51    9.54   1
  13  12  -1   38.15   10.53   1
  11  12  -1    4.20    9.31   1
  10  12  -1   36.49   10.03   1
   9  12  -1   21.51    9.20   1
   8  12  -1   56.43    9.36   1
   7  12  -1   30.21    8.90   1
   6  12  -1   37.08    8.84   1
   5  12  -1  114.31    9.28   1
   4  12  -1   20.87    7.71   1
   3  12  -1    7.55    6.51   1
   2  12  -1   31.05    7.94   1
   1  12  -1  368.02   13.82   1
   0  12  -1  206.10   12.64   1
  -1  12  -1  536.50   16.60   1
  -2  12  -1   50.72    9.58   1
  -3  12  -1  331.67   13.34   1
  -4  12  -1  780.82   18.91   1
  -5  12  -1  386.42   13.58   1
  -6  12  -1  279.30   12.25   1
  -7  12  -1  398.46   13.61   1
  -8  12  -1  714.83   16.94   1
  -9  12  -1  328.34   12.96   1
 -10  12  -1   52.75    9.38   1
 -11  12  -1  529.67   15.81   1
 -12  12  -1  189.47   11.73   1
 -13  12  -1  341.22   14.14   1
 -14  12  -1   38.26    8.32   1
 -15  12  -1   14.98    8.24   1
 -16  12  -1   35.98    8.88   1
 -17  12  -1  135.69   10.74   1
 -18  12  -1   37.97    8.60   1
 -19  12  -1   38.69    9.49   1
 -20  12  -1   59.75    9.60   1
 -21  12  -1   30.87    9.72   1
 -22  12  -1   40.23   10.07   1
 -23  12  -1   14.30    9.22   1
 -25  12  -1   44.25   10.42   1
 -26  12  -1   21.16    9.87   1
 -27  12  -1   18.19    9.74   1
 -29  12  -1    7.25   10.08   1
 -30  12  -1   63.66   11.65   1
 -31  12  -1   12.46   10.75   1
 -33  12  -1   60.58   11.40   1
 -33  11  -1   14.85   11.84   1
 -29  11  -1   64.33   11.24   1
 -28  11  -1  105.76   11.97   1
 -27  11  -1   21.07    9.86   1
 -26  11  -1    3.43    8.83   1
 -25  11  -1   30.78   10.10   1
 -24  11  -1   10.60    9.48   1
 -23  11  -1   15.77    9.08   1
 -22  11  -1  468.17   17.75   1
 -20  11  -1    0.49    8.07   1
 -18  11  -1  395.44   15.11   1
 -17  11  -1  100.36    9.91   1
 -16  11  -1   84.70    8.88   1
 -15  11  -1   16.19    8.35   1
 -14  11  -1   38.70    8.65   1
 -13  11  -1   23.50    8.09   1
 -12  11  -1  538.12   15.51   1
 -11  11  -1  291.22   11.27   1
  -9  11  -1   78.89    8.32   1
  -8  11  -1  280.15   11.23   1
  -7  11  -1  256.22   10.97   1
  -6  11  -1  346.02   12.78   1
  -5  11  -1  373.13   12.24   1
  -4  11  -1  242.12   11.18   1
  -3  11  -1  273.53   11.67   1
  -2  11  -1   75.47    8.87   1
   0  11  -1  280.19   12.14   1
   1  11  -1  546.33   15.01   1
   2  11  -1   23.47    7.34   1
   3  11  -1   52.54    7.66   1
   5  11  -1   66.06    8.72   1
   6  11  -1   89.97    9.54   1
   7  11  -1  406.58   14.76   1
   9  11  -1    1.42    7.51   1
  11  11  -1  457.68   18.43   1
  14  11  -1   21.24    8.99   1
  16  11  -1   21.42   10.19   1
  17  11  -1  117.61   12.96   1
  18  11  -1   70.58   12.81   1
  22  11  -1    4.17   12.04   1
  23  11  -1   23.86   11.30   1
  24  10  -1   40.52   11.33   1
  21  10  -1   27.71   12.07   1
  20  10  -1   81.21   13.58   1
  18  10  -1   22.86   10.79   1
  16  10  -1   70.17   12.75   1
  15  10  -1  108.68   13.27   1
  14  10  -1   62.77   11.19   1
  13  10  -1   47.45   10.35   1
  12  10  -1   33.12   10.12   1
  10  10  -1  265.16   14.58   1
   9  10  -1  168.26   11.70   1
   8  10  -1  167.63   11.58   1
   7  10  -1  302.17   13.44   1
   6  10  -1   46.70    8.47   1
   5  10  -1  178.62   10.57   1
   4  10  -1   50.59    7.37   1
   3  10  -1  226.01    9.94   1
   2  10  -1   55.00    7.51   1
  -1  10  -1  502.31   13.68   1
  -2  10  -1  102.62    9.11   1
  -3  10  -1  378.84   12.72   1
  -4  10  -1  159.61   10.05   1
  -5  10  -1  227.97   10.90   1
  -6  10  -1  172.68    9.55   1
  -7  10  -1  383.47   12.05   1
  -8  10  -1  103.80    9.03   1
  -9  10  -1  386.14   12.09   1
 -12  10  -1   61.73    9.05   1
 -13  10  -1  206.42   11.54   1
 -14  10  -1   43.78    8.87   1
 -15  10  -1  178.93   10.78   1
 -16  10  -1   53.31    8.87   1
 -17  10  -1  346.78   13.77   1
 -18  10  -1  164.94   11.77   1
 -19  10  -1  163.58   11.42   1
 -20  10  -1  298.36   14.26   1
 -22  10  -1   47.32    9.11   1
 -23  10  -1   48.59    9.79   1
 -24  10  -1   72.62   11.14   1
 -25  10  -1  135.68   12.21   1
 -26  10  -1   76.36   11.18   1
 -28  10  -1   19.81   11.17   1
 -30  10  -1   94.12   11.92   1
 -31  10  -1   27.09   10.76   1
 -33  10  -1   21.19   12.12   1
 -34   9  -1   16.04   10.97   1
 -33   9  -1    7.37   10.40   1
 -32   9  -1   29.00   11.59   1
 -30   9  -1   45.86   10.35   1
 -29   9  -1   76.98   12.29   1
 -28   9  -1   44.10   10.88   1
 -27   9  -1   14.51   10.04   1
 -26   9  -1   39.10    9.60   1
 -25   9  -1   36.48   10.19   1
 -24   9  -1   12.39    9.21   1
 -23   9  -1   39.18    9.67   1
 -22   9  -1  141.33   12.42   1
 -21   9  -1   30.54    9.12   1
 -19   9  -1  157.89   11.75   1
 -18   9  -1  183.42   11.29   1
 -17   9  -1   58.63    9.03   1
 -16   9  -1   30.40    8.08   1
 -15   9  -1  181.68   11.07   1
 -14   9  -1   45.00    8.64   1
 -13   9  -1   94.06    9.30   1
 -12   9  -1  332.07   11.81   1
 -11   9  -1   74.08    8.35   1
 -10   9  -1  387.46   12.09   1
  -9   9  -1  284.32   10.96   1
  -8   9  -1  392.41   11.74   1
  -7   9  -1  117.88    8.74   1
  -6   9  -1  184.67    9.57   1
  -5   9  -1  227.17   10.45   1
  -4   9  -1  230.20   10.35   1
  -3   9  -1  174.98    9.56   1
  -2   9  -1  108.87    8.84   1
  -1   9  -1  388.68   11.74   1
   0   9  -1  281.64   11.20   1
   1   9  -1  382.33   11.26   1
   2   9  -1   77.09    7.18   1
   3   9  -1  326.47   10.63   1
   4   9  -1   88.21    8.34   1
   5   9  -1   38.69    7.54   1
   6   9  -1  169.43   10.58   1
   7   9  -1   41.82   10.33   1
   8   9  -1   65.89    8.86   1
   9   9  -1  160.22   11.50   1
  10   9  -1  146.52   11.55   1
  12   9  -1   23.54    9.16   1
  13   9  -1  145.10   13.42   1
  14   9  -1   35.93    9.51   1
  15   9  -1    7.31    9.69   1
  16   9  -1   28.64   10.42   1
  17   9  -1   51.88   10.29   1
  18   9  -1   19.45   10.66   1
  20   9  -1   73.35   12.84   1
  22   9  -1   16.42   11.24   1
  24   8  -1   65.57   13.39   1
  23   8  -1   14.26   11.80   1
  22   8  -1   14.95   12.67   1
  21   8  -1   50.78   11.30   1
  20   8  -1   27.92   10.72   1
  19   8  -1   68.52   13.11   1
  18   8  -1   62.24   12.25   1
  17   8  -1   76.10   12.40   1
  16   8  -1   25.29   10.97   1
  15   8  -1   67.13   11.07   1
  14   8  -1  242.14   15.57   1
  12   8  -1   45.25   10.59   1
  10   8  -1  152.60   11.68   1
   9   8  -1   70.17    9.11   1
   8   8  -1   10.36    8.06   1
   7   8  -1   15.58    7.65   1
   6   8  -1  467.93   14.34   1
   5   8  -1   26.19    7.42   1
   4   8  -1  723.52   15.59   1
   3   8  -1  300.40    9.44   1
   2   8  -1  105.09    7.34   1
   1   8  -1  402.85   10.55   1
  -2   8  -1   42.18    7.10   1
  -3   8  -1  270.82   10.44   1
  -4   8  -1   57.39    7.44   1
  -5   8  -1  264.70   10.39   1
  -6   8  -1   36.06    7.10   1
  -7   8  -1   12.14    6.68   1
  -9   8  -1  375.41   11.45   1
 -10   8  -1  102.81    8.06   1
 -11   8  -1  274.67   10.07   1
 -12   8  -1  736.24   15.65   1
 -14   8  -1  486.01   14.23   1
 -15   8  -1   14.29    7.78   1
 -17   8  -1   56.90    8.78   1
 -18   8  -1  160.90   11.48   1
 -19   8  -1   15.31    8.47   1
 -20   8  -1   46.64    9.65   1
 -21   8  -1   30.68    9.00   1
 -22   8  -1  264.23   13.89   1
 -23   8  -1   63.32   10.12   1
 -24   8  -1   37.01    9.92   1
 -25   8  -1   89.12   10.72   1
 -26   8  -1   50.88   10.08   1
 -27   8  -1   84.19   12.25   1
 -29   8  -1   66.10   11.30   1
 -32   8  -1   77.09   13.96   1
 -33   8  -1    6.61   11.49   1
 -33   7  -1   26.90   11.10   1
 -31   7  -1    1.46   11.46   1
 -30   7  -1   13.07   11.71   1
 -29   7  -1   38.45   10.81   1
 -28   7  -1  120.86   13.20   1
 -26   7  -1   96.09   12.88   1
 -25   7  -1   34.03   10.25   1
 -24   7  -1   62.65   11.16   1
 -23   7  -1  120.20   11.28   1
 -21   7  -1   70.78    9.89   1
 -20   7  -1  157.84   11.67   1
 -19   7  -1   51.21    8.94   1
 -18   7  -1  416.64   14.83   1
 -17   7  -1  325.77   13.18   1
 -16   7  -1   24.04    8.41   1
 -15   7  -1   23.29    7.73   1
 -14   7  -1  124.72    9.58   1
 -13   7  -1  133.17    9.54   1
 -12   7  -1  365.40   11.30   1
 -11   7  -1  259.03   10.31   1
 -10   7  -1  372.86   11.25   1
  -9   7  -1  121.00    8.43   1
  -7   7  -1  262.57    9.49   1
  -6   7  -1  244.84    9.48   1
  -5   7  -1  462.26   11.35   1
  -4   7  -1  116.15    8.51   1
  -3   7  -1  122.34    8.65   1
  -2   7  -1  451.68   11.66   1
  -1   7  -1  244.19    9.14   1
   0   7  -1  276.42    9.47   1
   2   7  -1  124.11    7.15   1
   3   7  -1  386.55   10.21   1
   4   7  -1  248.89    9.73   1
   5   7  -1  373.61   11.55   1
   6   7  -1  115.74    9.38   1
   7   7  -1  118.08    9.78   1
   8   7  -1   17.11    7.81   1
   9   7  -1   30.52    8.39   1
  10   7  -1  299.18   13.84   1
  11   7  -1  387.87   16.07   1
  12   7  -1   41.12    9.31   1
  13   7  -1  148.75   13.10   1
  14   7  -1   75.84   10.90   1
  16   7  -1  100.47   12.77   1
  17   7  -1   54.73   11.90   1
  19   7  -1   92.87   12.60   1
  21   7  -1  123.85   13.66   1
  23   7  -1   15.34   12.68   1
  25   7  -1   12.88   11.79   1
  26   7  -1   19.01   12.26   1
  27   6  -1   37.38   11.33   1
  26   6  -1   28.44   11.76   1
  24   6  -1   28.96   12.41   1
  23   6  -1   19.83   11.20   1
  21   6  -1   26.28   10.23   1
  18   6  -1   25.00   11.00   1
  17   6  -1  123.70   13.17   1
  15   6  -1  107.44   12.14   1
  14   6  -1   69.26   10.72   1
  12   6  -1   31.71    9.15   1
  11   6  -1   83.09    9.72   1
   9   6  -1  170.34   11.41   1
   8   6  -1  505.26   15.51   1
   7   6  -1  127.70    9.49   1
   6   6  -1  270.84   10.38   1
   5   6  -1  345.55   10.68   1
   4   6  -1  173.98    8.37   1
   3   6  -1  191.56    8.13   1
   2   6  -1   39.92    5.80   1
   1   6  -1  244.46    8.00   1
   0   6  -1  505.39   11.59   1
  -1   6  -1 1421.37   29.87   1
  -2   6  -1  785.14   16.92   1
  -3   6  -1  742.63   16.56   1
  -4   6  -1  751.87   16.34   1
  -5   6  -1 1387.58   29.92   1
  -6   6  -1  483.55   11.44   1
  -7   6  -1  236.26    9.06   1
  -8   6  -1   45.74    6.78   1
  -9   6  -1  180.88    8.62   1
 -10   6  -1  171.97    8.77   1
 -11   6  -1  367.32   10.96   1
 -12   6  -1  277.89   10.75   1
 -13   6  -1  118.76    9.33   1
 -14   6  -1  512.77   14.23   1
 -15   6  -1  184.27   10.93   1
 -16   6  -1   54.38    8.04   1
 -17   6  -1  102.32    9.83   1
 -18   6  -1   41.59    8.55   1
 -20   6  -1   84.03   10.08   1
 -21   6  -1   88.15   11.94   1
 -23   6  -1  110.31   12.01   1
 -24   6  -1   23.84   10.01   1
 -25   6  -1   17.21   10.96   1
 -26   6  -1    0.56    9.07   1
 -33   6  -1   34.50   12.52   1
 -30   5  -1   27.07   13.60   1
 -29   5  -1   97.46   13.90   1
 -23   5  -1   90.18   11.23   1
 -22   5  -1   98.20   11.22   1
 -21   5  -1  195.49   13.71   1
 -19   5  -1  165.62   12.10   1
 -18   5  -1  180.75   11.85   1
 -17   5  -1  118.82   10.04   1
 -16   5  -1   79.04    8.64   1
 -15   5  -1  181.93   10.62   1
 -14   5  -1   42.68    8.55   1
 -13   5  -1   24.35    7.50   1
 -12   5  -1  367.64   11.37   1
 -11   5  -1  360.39   10.92   1
 -10   5  -1  226.96    9.17   1
  -9   5  -1  243.75    9.14   1
  -8   5  -1  257.67    9.14   1
  -7   5  -1  435.98   10.41   1
  -6   5  -1 1458.91   28.48   1
  -5   5  -1 1524.37   29.36   1
  -4   5  -1   33.63    6.81   1
  -3   5  -1  168.98    8.77   1
  -2   5  -1  169.71    9.05   1
  -1   5  -1   28.50    7.00   1
   0   5  -1 1549.47   29.00   1
   1   5  -1 1498.98   25.71   1
   2   5  -1  451.85    9.47   1
   3   5  -1  261.73    8.72   1
   4   5  -1  239.43    8.66   1
   5   5  -1  223.06    9.21   1
   6   5  -1  346.01   11.07   1
   7   5  -1  375.26   11.94   1
   8   5  -1   25.93    7.69   1
   9   5  -1   44.72    8.24   1
  10   5  -1  178.68   11.01   1
  11   5  -1   72.90    9.47   1
  12   5  -1  119.75   10.68   1
  13   5  -1  164.29   12.79   1
  14   5  -1  179.34   12.37   1
  15   5  -1    3.20    8.50   1
  16   5  -1  191.32   13.90   1
  17   5  -1  112.77   12.55   1
  18   5  -1   82.58   11.70   1
  19   5  -1    0.05    9.98   1
  23   5  -1    6.52   11.71   1
  24   5  -1   91.52   14.88   1
  25   5  -1   55.07   13.42   1
  27   4  -1   68.53   15.85   1
  26   4  -1   50.17   13.95   1
  23   4  -1   67.53   12.91   1
  22   4  -1    0.08   11.67   1
  21   4  -1  168.78   15.42   1
  20   4  -1   77.17   12.80   1
  18   4  -1   35.16   10.79   1
  17   4  -1   62.37   11.60   1
  15   4  -1   81.00   10.07   1
  14   4  -1  111.64   11.32   1
  13   4  -1  110.50   10.74   1
  12   4  -1   15.68    8.59   1
  10   4  -1   47.14    8.62   1
   9   4  -1  105.69    9.14   1
   8   4  -1  793.22   17.81   1
   7   4  -1  250.75   10.14   1
   6   4  -1  183.38    8.63   1
   5   4  -1  234.41    8.80   1
   4   4  -1   87.29    6.47   1
   3   4  -1  141.07    7.05   1
   2   4  -1  731.79   15.48   1
   1   4  -1   32.53    5.78   1
   0   4  -1    7.66    6.86   1
  -1   4  -1   73.34    8.04   1
  -2   4  -1 1782.87   36.80   1
  -3   4  -1   64.69    7.37   1
  -4   4  -1   10.12    6.54   1
  -5   4  -1   27.22    6.57   1
  -6   4  -1  725.20   14.79   1
  -7   4  -1  139.68    7.77   1
  -8   4  -1   82.68    6.97   1
  -9   4  -1  231.01    8.75   1
 -10   4  -1  183.44    8.67   1
 -11   4  -1  244.35    9.76   1
 -12   4  -1  731.53   14.97   1
 -13   4  -1   93.27    9.37   1
 -14   4  -1   38.68    7.89   1
 -15   4  -1   11.58    8.04   1
 -16   4  -1   32.00    8.19   1
 -17   4  -1  105.64   10.05   1
 -18   4  -1  102.92   10.54   1
 -19   4  -1   80.71   10.57   1
 -21   4  -1   54.20   10.91   1
 -22   4  -1   31.63    9.52   1
 -23   4  -1   14.35    9.97   1
 -24   4  -1   77.71   12.34   1
 -25   4  -1  182.49   14.58   1
 -27   4  -1   55.66   11.95   1
 -31   4  -1   81.42   13.77   1
 -32   3  -1   15.28   12.33   1
 -31   3  -1   24.60   12.87   1
 -29   3  -1   13.14   12.00   1
 -27   3  -1   52.59   12.05   1
 -25   3  -1   12.29   11.45   1
 -24   3  -1   89.37   12.64   1
 -23   3  -1   74.28   11.49   1
 -22   3  -1  166.05   13.52   1
 -20   3  -1   25.14    9.57   1
 -19   3  -1  161.76   12.53   1
 -18   3  -1  278.09   14.44   1
 -17   3  -1   27.37    8.73   1
 -16   3  -1  463.93   15.51   1
 -14   3  -1   55.58    8.65   1
 -13   3  -1  218.12   10.67   1
 -12   3  -1  332.48   11.32   1
 -11   3  -1  282.89    9.84   1
 -10   3  -1  392.42   10.89   1
  -9   3  -1  180.78    8.15   1
  -8   3  -1  252.19    8.65   1
  -7   3  -1  151.83    7.50   1
  -6   3  -1  709.03   15.89   1
  -5   3  -1  188.76    7.73   1
  -4   3  -1   66.93    6.94   1
  -3   3  -1   24.28    6.83   1
  -2   3  -1   55.33    6.96   1
  -1   3  -1   40.41    7.48   1
   0   3  -1   22.72    7.27   1
   1   3  -1   69.27    6.25   1
   2   3  -1  197.91    7.23   1
   3   3  -1  711.42   14.60   1
   4   3  -1  142.86    7.12   1
   5   3  -1  246.95    8.69   1
   6   3  -1  186.16    8.54   1
   7   3  -1  388.03   11.31   1
   8   3  -1  269.45   10.67   1
   9   3  -1  313.08   11.76   1
  10   3  -1  219.72   11.68   1
  11   3  -1   50.15    8.79   1
  13   3  -1  455.44   16.60   1
  14   3  -1   17.22    8.84   1
  15   3  -1  279.36   13.97   1
  16   3  -1  154.46   12.94   1
  17   3  -1   28.50   10.25   1
  18   3  -1   55.76   11.76   1
  19   3  -1  166.65   13.85   1
  20   3  -1   64.30   12.23   1
  21   3  -1   87.03   12.77   1
  22   3  -1    4.86   10.91   1
  24   3  -1   55.18   13.61   1
  25   3  -1    1.02   10.95   1
  27   2  -1   10.46   11.99   1
  25   2  -1   87.84   13.45   1
  21   2  -1   47.37   12.16   1
  20   2  -1   32.78   11.43   1
  19   2  -1   97.95   13.70   1
  18   2  -1   41.47   11.03   1
  17   2  -1  200.27   13.72   1
  16   2  -1   65.51   10.04   1
  15   2  -1   53.10    9.54   1
  14   2  -1  121.40   11.00   1
  12   2  -1   49.43    8.68   1
  11   2  -1   13.93    7.63   1
  10   2  -1   50.14    8.93   1
   9   2  -1   71.54    8.09   1
   8   2  -1  103.55    7.88   1
   7   2  -1  106.86    7.94   1
   6   2  -1   31.85    6.27   1
   5   2  -1  444.18   10.42   1
   4   2  -1  766.73   18.52   1
   3   2  -1  187.85    7.51   1
   2   2  -1 1708.14   31.37   1
   1   2  -1   48.67    5.99   1
   0   2  -1  117.70    7.38   1
  -1   2  -1  553.76   11.42   1
  -2   2  -1  121.93    6.89   1
  -3   2  -1   51.00    6.34   1
  -4   2  -1 1759.70   31.52   1
  -5   2  -1  187.16    7.38   1
  -6   2  -1  744.35   14.21   1
  -7   2  -1  462.05    9.75   1
  -8   2  -1   34.17    6.36   1
  -9   2  -1  134.86    7.56   1
 -10   2  -1  100.95    8.37   1
 -12   2  -1   52.30    8.31   1
 -13   2  -1   21.62    7.71   1
 -14   2  -1   34.86    8.25   1
 -16   2  -1  120.97   10.55   1
 -17   2  -1   49.29    9.47   1
 -18   2  -1   65.69   10.25   1
 -19   2  -1  225.74   13.93   1
 -20   2  -1   29.90   10.47   1
 -21   2  -1  119.48   12.53   1
 -23   2  -1   42.54   11.25   1
 -27   2  -1   78.77   13.32   1
 -29   2  -1   17.59   12.05   1
 -31   1  -1   20.70   12.54   1
 -30   1  -1   47.27   13.44   1
 -29   1  -1   29.72   13.77   1
 -28   1  -1   43.98   14.44   1
 -27   1  -1   18.98   11.06   1
 -25   1  -1    3.23   10.93   1
 -24   1  -1   58.70   12.95   1
 -22   1  -1   85.91   12.88   1
 -20   1  -1   44.46   11.15   1
 -18   1  -1  166.71   13.26   1
 -17   1  -1   19.83    9.06   1
 -16   1  -1  211.66   12.63   1
 -15   1  -1   45.13    9.49   1
 -13   1  -1  344.50   13.62   1
 -12   1  -1  538.19   14.36   1
 -10   1  -1  387.36   11.21   1
  -9   1  -1  405.46   10.45   1
  -8   1  -1   23.13    5.76   1
  -7   1  -1  245.16    8.03   1
  -6   1  -1 1459.05   25.95   1
  -5   1  -1   36.18    5.90   1
  -4   1  -1   63.91    6.12   1
  -3   1  -1   55.05    5.90   1
  -2   1  -1  557.16   10.60   1
  -1   1  -1   53.14    5.82   1
   0   1  -1   41.29    6.12   1
   1   1  -1  562.84   11.28   1
   2   1  -1   51.15    7.51   1
   3   1  -1   56.10    7.23   1
   4   1  -1   37.72    6.72   1
   5   1  -1 1589.44   30.25   1
   6   1  -1  233.99    8.91   1
   7   1  -1    9.71    6.39   1
   8   1  -1  402.47   11.75   1
   9   1  -1  383.29   11.91   1
  10   1  -1    0.02    6.50   1
  11   1  -1  543.16   14.97   1
  12   1  -1  355.33   13.74   1
  14   1  -1   52.24    9.28   1
  15   1  -1  221.24   12.43   1
  16   1  -1   20.51    9.46   1
  17   1  -1  166.73   12.83   1
  18   1  -1   29.67   10.02   1
  19   1  -1   45.15   11.53   1
  21   1  -1   80.16   11.51   1
  22   1  -1   12.54   11.32   1
  23   1  -1   59.36   13.88   1
  26   1  -1   15.86   11.44   1
  27   1  -1   46.77   13.45   1
  28   1  -1   28.35   13.26   1
  29   1  -1   36.94   13.61   1
  30   1  -1   17.24   13.40   1
  29   0  -1    8.31   13.21   1
  28   0  -1   24.16   14.29   1
  27   0  -1   35.41   14.18   1
  26   0  -1   75.23   13.26   1
  25   0  -1   97.99   13.02   1
  24   0  -1  111.46   14.57   1
  23   0  -1  163.82   15.90   1
  22   0  -1   11.64    9.63   1
  20   0  -1  129.59   13.18   1
  19   0  -1   68.52   11.88   1
  18   0  -1   26.52    9.90   1
  17   0  -1  131.48   12.63   1
  15   0  -1  599.70   18.54   1
  14   0  -1  184.60   11.47   1
  13   0  -1   26.58    9.54   1
  12   0  -1  195.25   11.42   1
  11   0  -1  290.07   10.69   1
  10   0  -1    0.77    6.79   1
   9   0  -1  304.48   10.51   1
   7   0  -1  260.80    9.51   1
   6   0  -1  501.58   11.74   1
   5   0  -1 1546.18   29.51   1
   4   0  -1   10.06    6.75   1
   2   0  -1  130.55    8.39   1
   1   0  -1   50.10    6.97   1
   0   0  -1   17.75    5.74   1
  -1   0  -1   55.62    6.16   1
  -2   0  -1  126.77    6.62   1
  -3   0  -1   29.89    5.69   1
  -4   0  -1   15.08    5.41   1
  -5   0  -1 1592.65   24.96   1
  -6   0  -1  471.91   10.64   1
  -7   0  -1  262.45    8.42   1
  -9   0  -1  293.20    9.72   1
 -11   0  -1  284.57   10.57   1
 -12   0  -1  208.38   10.75   1
 -13   0  -1   27.71    8.24   1
 -14   0  -1  186.72   11.43   1
 -15   0  -1  578.62   18.04   1
 -17   0  -1  120.18   12.40   1
 -18   0  -1   15.35    9.85   1
 -19   0  -1   72.56   11.63   1
 -20   0  -1  111.85   12.79   1
 -21   0  -1    1.76    9.82   1
 -23   0  -1  178.68   15.14   1
 -24   0  -1   98.43   14.20   1
 -25   0  -1  100.33   14.39   1
 -26   0  -1   60.91   13.87   1
 -27   0  -1   33.75   13.49   1
 -28   0  -1   14.48   13.95   1
 -29   0   0  132.56   15.64   1
 -26   0   0    0.45   10.90   1
 -25   0   0   27.33   11.91   1
 -24   0   0   20.42   11.45   1
 -23   0   0  127.06   14.08   1
 -21   0   0   84.74   12.68   1
 -20   0   0   31.95   10.08   1
 -19   0   0   38.73    8.80   1
 -18   0   0   20.07    9.15   1
 -15   0   0   33.51    8.72   1
 -14   0   0  133.57   10.70   1
 -13   0   0  308.97   12.75   1
 -12   0   0  191.88   11.73   1
 -11   0   0   95.32    8.21   1
 -10   0   0  402.27   11.58   1
  -9   0   0  201.10    8.40   1
  -8   0   0    5.32    5.60   1
  -6   0   0 1081.92   22.66   1
  -5   0   0   21.55    5.96   1
  -4   0   0  153.97    6.70   1
  -3   0   0  382.19    7.68   1
   2   0   0    6.54    4.56   1
   3   0   0  379.93    8.17   1
   4   0   0  158.67    6.71   1
   5   0   0   21.97    5.87   1
   6   0   0 1089.94   22.38   1
   9   0   0  206.87    8.13   1
  10   0   0  395.52   11.58   1
  11   0   0   88.17    8.26   1
  12   0   0  209.58   10.85   1
  13   0   0  310.39   12.83   1
  14   0   0  127.32   10.51   1
  15   0   0   34.49    8.32   1
  18   0   0   18.19    8.52   1
  19   0   0   30.15   10.15   1
  20   0   0   32.67   10.22   1
  21   0   0   77.54   12.70   1
  23   0   0  141.80   15.32   1
  29   0   0  117.57   16.77   1
  29   1   0    1.08   12.78   1
  27   1   0   20.43   12.51   1
  26   1   0   49.82   12.36   1
  24   1   0   62.77   13.55   1
  21   1   0    3.98    9.99   1
  20   1   0  135.33   14.01   1
  19   1   0   91.03   10.91   1
  18   1   0   76.75   10.96   1
  17   1   0  211.89   12.97   1
  16   1   0   80.76    9.81   1
  14   1   0  391.89   14.21   1
  13   1   0   29.70    8.35   1
  12   1   0  457.54   13.26   1
  11   1   0  846.42   15.60   1
  10   1   0   46.25    6.67   1
   9   1   0   86.14    6.88   1
   8   1   0  288.45    8.81   1
   7   1   0   82.18    6.57   1
   6   1   0  770.51   14.93   1
   5   1   0   34.46    5.86   1
   4   1   0  603.51   12.36   1
   3   1   0   59.00    5.55   1
   2   1   0  107.24    5.27   1
   1   1   0   22.58    4.06   1
  -2   1   0   22.49    4.57   1
  -3   1   0  105.24    6.06   1
  -4   1   0   51.43    6.23   1
  -5   1   0  605.47   11.95   1
  -6   1   0   49.69    6.20   1
  -7   1   0  763.21   15.96   1
  -8   1   0   66.97    6.53   1
  -9   1   0  293.95    9.42   1
 -10   1   0   92.01    7.03   1
 -11   1   0   42.74    6.58   1
 -12   1   0  873.58   16.92   1
 -13   1   0  422.36   13.90   1
 -14   1   0   39.11    8.49   1
 -15   1   0  416.36   13.89   1
 -17   1   0   62.60    9.85   1
 -18   1   0  189.85   12.48   1
 -19   1   0   64.80   11.01   1
 -20   1   0  101.33   11.39   1
 -21   1   0  139.54   12.35   1
 -25   1   0   55.88   11.86   1
 -26   1   0   17.57   11.29   1
 -27   1   0   48.83   12.56   1
 -29   1   0    0.01   10.21   1
 -31   1   0   31.22   12.93   1
 -30   2   0   50.94   12.73   1
 -28   2   0   74.46   13.33   1
 -27   2   0  118.22   14.32   1
 -26   2   0    0.04    9.33   1
 -25   2   0   19.73    9.88   1
 -24   2   0   69.77   11.65   1
 -23   2   0   71.23   11.38   1
 -22   2   0   61.87   11.02   1
 -21   2   0  216.70   13.68   1
 -20   2   0   51.32   10.91   1
 -19   2   0  168.32   12.43   1
 -18   2   0  240.93   13.02   1
 -17   2   0   35.67    8.17   1
 -15   2   0   18.06    7.85   1
 -14   2   0   65.53    8.81   1
 -13   2   0  312.67   12.14   1
 -12   2   0  218.72    9.83   1
 -11   2   0  138.52    8.41   1
 -10   2   0  168.70    8.49   1
  -9   2   0  280.98    8.71   1
  -8   2   0  436.23    9.77   1
  -7   2   0  285.71    8.61   1
  -6   2   0   74.91    6.71   1
  -5   2   0   14.42    6.30   1
  -4   2   0  102.25    6.61   1
  -3   2   0   90.69    6.16   1
  -1   2   0   17.92    4.86   1
   1   2   0   99.35    6.01   1
   2   2   0  102.14    5.95   1
   3   2   0   17.09    5.49   1
   4   2   0   75.76    5.94   1
   5   2   0  310.07    7.60   1
   6   2   0  424.91    9.22   1
   7   2   0  275.70    8.44   1
   8   2   0  180.69    7.94   1
   9   2   0  135.68    8.02   1
  10   2   0  218.01    9.30   1
  11   2   0  311.25   11.57   1
  12   2   0   64.78    8.02   1
  13   2   0   20.21    8.13   1
  14   2   0    2.73    7.57   1
  15   2   0   38.01    9.35   1
  16   2   0  257.93   13.05   1
  17   2   0  165.94   11.86   1
  18   2   0   54.30   10.30   1
  19   2   0  228.68   15.11   1
  20   2   0   47.27   11.37   1
  21   2   0   82.08   13.19   1
  22   2   0   60.80   11.50   1
  23   2   0   12.06   10.10   1
  25   2   0  114.17   14.59   1
  26   2   0   78.52   13.36   1
  28   2   0   18.54   13.32   1
  27   3   0   21.69   13.14   1
  25   3   0   20.75   12.86   1
  23   3   0   74.39   13.09   1
  22   3   0  166.74   13.60   1
  21   3   0   29.21   11.26   1
  20   3   0   46.75   11.17   1
  19   3   0   95.46   11.57   1
  18   3   0   73.55   10.57   1
  16   3   0   43.97    9.09   1
  15   3   0   83.69    9.57   1
  14   3   0  101.56    9.57   1
  13   3   0  175.86   10.57   1
  11   3   0  135.58    9.44   1
  10   3   0  373.72   11.80   1
   9   3   0   55.16    7.09   1
   8   3   0  434.15   10.68   1
   7   3   0  280.24    8.80   1
   6   3   0  278.27    8.31   1
   5   3   0  798.90   15.57   1
   4   3   0  969.93   20.46   1
   3   3   0  164.88    6.80   1
   2   3   0   19.97    5.82   1
   1   3   0   56.53    6.56   1
   0   3   0  406.08    9.97   1
  -1   3   0   94.44    6.22   1
  -2   3   0   95.81    6.54   1
  -3   3   0  385.85    8.12   1
  -4   3   0   57.68    6.55   1
  -5   3   0   12.76    6.44   1
  -6   3   0  176.97    7.59   1
  -7   3   0  974.46   19.12   1
  -8   3   0  784.72   16.85   1
  -9   3   0  283.42    8.92   1
 -10   3   0  280.36    9.09   1
 -11   3   0  446.06   11.14   1
 -12   3   0   65.03    7.21   1
 -13   3   0  364.11   12.37   1
 -14   3   0  143.92   10.03   1
 -15   3   0    8.80    7.47   1
 -16   3   0  188.27   11.33   1
 -17   3   0   98.28    9.95   1
 -18   3   0   82.13    9.61   1
 -19   3   0   42.68    9.19   1
 -21   3   0   59.59   10.02   1
 -22   3   0   89.70   11.39   1
 -23   3   0   29.25   10.31   1
 -24   3   0   37.96   10.29   1
 -25   3   0  137.28   13.66   1
 -26   3   0   59.56   13.53   1
 -28   3   0   30.53   12.30   1
 -30   3   0   24.38   12.90   1
 -31   4   0   16.98   11.40   1
 -30   4   0   18.46   12.41   1
 -28   4   0    6.35   11.00   1
 -27   4   0   33.02   12.26   1
 -26   4   0   62.49   11.94   1
 -25   4   0   90.59   12.25   1
 -24   4   0   23.40   10.61   1
 -23   4   0   40.10   10.12   1
 -22   4   0   82.46   11.72   1
 -21   4   0   30.47    9.24   1
 -20   4   0  105.52   11.09   1
 -19   4   0   85.50   10.18   1
 -18   4   0   16.64    8.37   1
 -17   4   0  183.18   11.07   1
 -16   4   0  314.97   13.20   1
 -15   4   0  269.25   11.82   1
 -14   4   0   91.98    8.70   1
 -13   4   0   45.17    7.46   1
 -11   4   0  374.67   10.42   1
 -10   4   0  204.00    9.28   1
  -9   4   0  230.07    8.71   1
  -8   4   0  809.66   17.71   1
  -7   4   0  960.79   19.98   1
  -6   4   0   70.96    7.02   1
  -5   4   0  613.64   12.02   1
  -4   4   0  157.00    7.70   1
  -3   4   0   59.16    7.03   1
  -2   4   0   99.99    7.05   1
  -1   4   0   58.22    6.75   1
   0   4   0  146.93    7.78   1
   1   4   0  730.08   15.60   1
   2   4   0   66.55    6.98   1
   3   4   0  948.81   22.38   1
   4   4   0  855.10   18.32   1
   5   4   0  232.02    7.56   1
   6   4   0  209.30    8.15   1
   7   4   0  371.46   10.11   1
   8   4   0   18.47    6.20   1
   9   4   0   43.34    7.38   1
  10   4   0   96.75    8.84   1
  11   4   0  254.07   11.97   1
  12   4   0  331.15   13.06   1
  13   4   0  183.53   11.37   1
  15   4   0   68.33   10.64   1
  16   4   0   92.98   11.12   1
  17   4   0   37.86    9.78   1
  18   4   0   91.08   11.97   1
  19   4   0   46.78   11.49   1
  20   4   0   31.41   10.84   1
  21   4   0   93.62   11.59   1
  22   4   0   53.86   13.12   1
  23   4   0   36.94   11.93   1
  24   4   0   20.05   10.77   1
  25   4   0   25.01   12.09   1
  27   4   0   18.48   13.60   1
  27   5   0    5.53   12.43   1
  26   5   0   17.49   12.48   1
  25   5   0   54.82   14.09   1
  22   5   0   47.05   12.65   1
  21   5   0   30.13   10.75   1
  20   5   0   92.24   11.98   1
  19   5   0   45.35   10.91   1
  17   5   0  109.27   12.44   1
  16   5   0   33.67    9.56   1
  15   5   0  173.57   12.29   1
  14   5   0   99.43   10.33   1
  13   5   0   38.15    8.55   1
  12   5   0   93.15   11.68   1
  11   5   0  140.21   10.02   1
  10   5   0  245.42   11.51   1
   9   5   0  223.16   10.55   1
   8   5   0  141.37    8.33   1
   7   5   0   91.48    7.12   1
   6   5   0  223.77    8.50   1
   5   5   0  619.64   13.56   1
   4   5   0  218.65    8.22   1
   3   5   0  811.14   19.44   1
   2   5   0  324.86    9.35   1
   1   5   0   30.56    6.97   1
   0   5   0   11.69    6.86   1
  -1   5   0  591.15   13.01   1
  -4   5   0  600.48   12.22   1
  -5   5   0   13.63    7.04   1
  -6   5   0   33.02    6.71   1
  -7   5   0  302.61    9.01   1
  -8   5   0  804.31   15.97   1
  -9   5   0  224.29    8.53   1
 -10   5   0  617.77   13.12   1
 -11   5   0  211.15    8.99   1
 -12   5   0   89.61    7.89   1
 -13   5   0  137.62    8.77   1
 -14   5   0  245.86   11.17   1
 -15   5   0  266.14   12.84   1
 -16   5   0  141.09    9.85   1
 -17   5   0  105.02    9.67   1
 -18   5   0   22.00    8.24   1
 -19   5   0   94.95   10.47   1
 -20   5   0  194.71   12.45   1
 -21   5   0   39.85   10.21   1
 -22   5   0   99.40   11.30   1
 -25   5   0   76.43   10.57   1
 -27   5   0   45.20   12.22   1
 -28   5   0   12.65   12.34   1
 -30   5   0   31.67   13.53   1
 -30   6   0   29.13   12.38   1
 -29   6   0   91.94   13.22   1
 -28   6   0  132.62   13.71   1
 -27   6   0   11.49   10.70   1
 -25   6   0  107.17   11.02   1
 -24   6   0   14.62    8.87   1
 -23   6   0   87.32   12.46   1
 -22   6   0   62.64    9.98   1
 -21   6   0   68.96   10.30   1
 -20   6   0   38.78    9.42   1
 -18   6   0  285.78   13.54   1
 -17   6   0  180.19   10.80   1
 -16   6   0  767.80   18.37   1
 -15   6   0  106.62    9.24   1
 -13   6   0   85.85    8.04   1
 -12   6   0  178.70    9.32   1
 -11   6   0  223.32    9.24   1
 -10   6   0  214.21    9.49   1
  -9   6   0  264.47    9.79   1
  -8   6   0  414.16   10.55   1
  -7   6   0  762.27   14.53   1
  -6   6   0 1110.07   21.68   1
  -4   6   0   71.52    7.49   1
  -3   6   0  162.12    8.00   1
  -2   6   0   76.52    7.27   1
  -1   6   0   27.56    6.87   1
   0   6   0 1180.02   26.25   1
   1   6   0  852.43   18.65   1
   2   6   0  465.94   11.28   1
   3   6   0  272.05    9.41   1
   4   6   0  196.50    8.57   1
   5   6   0  211.04    8.73   1
   6   6   0  180.17    8.81   1
   7   6   0   86.34    7.70   1
   9   6   0  100.70    8.93   1
  10   6   0  753.76   18.01   1
  11   6   0  187.32   11.76   1
  12   6   0  293.46   13.44   1
  13   6   0    0.84    8.08   1
  14   6   0   42.31    9.70   1
  15   6   0   63.50   10.20   1
  16   6   0   67.31   10.79   1
  17   6   0   85.20   12.09   1
  19   6   0  120.00   13.27   1
  22   6   0  133.97   14.00   1
  23   6   0   76.76   13.37   1
  26   6   0   38.83   13.09   1
  26   7   0   72.87   12.38   1
  25   7   0   27.87   11.31   1
  22   7   0   12.95   11.11   1
  21   7   0   28.60   11.19   1
  20   7   0   49.37   12.03   1
  18   7   0   27.17   10.42   1
  17   7   0   68.85   11.58   1
  16   7   0   43.41   10.49   1
  15   7   0   51.60   10.31   1
  14   7   0  162.75   12.73   1
  13   7   0   93.13   10.44   1
  12   7   0   15.86    8.32   1
  11   7   0   61.95    9.09   1
  10   7   0   36.18    7.84   1
   9   7   0  356.82   13.21   1
   8   7   0  187.21   10.41   1
   7   7   0   36.55    7.83   1
   6   7   0   78.40    7.42   1
   5   7   0   88.77    7.77   1
   4   7   0  353.07   10.64   1
   3   7   0  278.25    9.98   1
   2   7   0  287.26   10.36   1
   1   7   0   68.73    7.59   1
   0   7   0   28.64    6.96   1
  -1   7   0  744.78   17.42   1
  -2   7   0  287.80    9.31   1
  -3   7   0  958.16   20.82   1
  -4   7   0  975.92   21.16   1
  -5   7   0  305.78    9.81   1
  -6   7   0  770.90   15.89   1
  -7   7   0   28.69    7.12   1
  -8   7   0   66.97    7.10   1
  -9   7   0  284.73   10.50   1
 -10   7   0  296.51    9.71   1
 -11   7   0  364.62   10.90   1
 -12   7   0   87.21    7.87   1
 -13   7   0   80.16    8.17   1
 -14   7   0   46.41    8.02   1
 -15   7   0  196.46   10.76   1
 -16   7   0  360.31   13.58   1
 -17   7   0   18.25    7.80   1
 -18   7   0   76.21    9.13   1
 -20   7   0  103.01   10.57   1
 -21   7   0  147.31   11.87   1
 -22   7   0   38.68    9.82   1
 -23   7   0   43.81    9.76   1
 -24   7   0  109.79   11.85   1
 -27   7   0   47.01   11.22   1
 -29   7   0    9.02   11.14   1
 -32   7   0   14.22   12.55   1
 -33   7   0   78.38   13.95   1
 -30   8   0   14.11   11.47   1
 -28   8   0   58.82   11.74   1
 -27   8   0  106.62   12.89   1
 -25   8   0   10.61    9.99   1
 -24   8   0    5.84    9.79   1
 -23   8   0   45.32   10.90   1
 -22   8   0  114.68   11.29   1
 -21   8   0  110.72   11.30   1
 -20   8   0   20.72    8.24   1
 -18   8   0   34.79    8.81   1
 -17   8   0  167.01   10.90   1
 -16   8   0  263.51   12.37   1
 -15   8   0  195.51   11.37   1
 -13   8   0  152.53    8.77   1
 -12   8   0   14.31    7.03   1
 -11   8   0  441.66   11.57   1
 -10   8   0  180.45    9.15   1
  -9   8   0  301.77   10.13   1
  -8   8   0   12.58    6.33   1
  -7   8   0   67.34    7.50   1
  -6   8   0  435.39   11.08   1
  -5   8   0  772.25   16.70   1
  -4   8   0  819.39   18.59   1
  -3   8   0  751.38   15.98   1
  -2   8   0  442.62   10.78   1
  -1   8   0   67.45    7.11   1
   0   8   0   17.09    5.94   1
   1   8   0  325.50   10.62   1
   2   8   0  189.68    9.65   1
   3   8   0  437.17   12.43   1
   4   8   0   19.29    6.25   1
   5   8   0  130.13    8.09   1
   6   8   0    9.93    7.11   1
   7   8   0  180.46   10.48   1
   8   8   0  259.79   11.59   1
   9   8   0  166.58   10.90   1
  10   8   0   28.98    8.19   1
  12   8   0   21.22    8.51   1
  13   8   0  122.80   11.00   1
  14   8   0  134.10   11.61   1
  15   8   0   42.49    9.99   1
  18   8   0   23.28   10.21   1
  19   8   0  125.96   13.50   1
  20   8   0   60.21   11.82   1
  22   8   0   12.41   11.08   1
  26   8   0   13.29   10.98   1
  21   9   0   60.30   11.83   1
  19   9   0   31.22   11.03   1
  18   9   0   31.44   10.99   1
  17   9   0   46.82   11.50   1
  16   9   0    1.29    8.49   1
  15   9   0  606.50   19.35   1
  14   9   0   57.04   10.18   1
  13   9   0   14.05    9.03   1
  12   9   0  112.72   10.88   1
  11   9   0  120.12   10.84   1
  10   9   0   13.95    8.28   1
   9   9   0  237.26   11.69   1
   8   9   0  171.78   10.93   1
   7   9   0  353.47   13.22   1
   6   9   0  102.44    8.99   1
   5   9   0  217.33   11.51   1
   4   9   0   51.86    7.87   1
   3   9   0   53.91    8.09   1
   2   9   0  138.14    9.45   1
   1   9   0   82.46    8.28   1
   0   9   0  187.64    9.38   1
  -1   9   0  301.38   10.64   1
  -2   9   0  250.69    9.45   1
  -3   9   0  285.82    9.59   1
  -4   9   0  236.58    9.38   1
  -5   9   0  244.74    9.21   1
  -6   9   0  299.86   10.14   1
  -7   9   0  258.35    9.60   1
  -8   9   0  323.62   10.59   1
  -9   9   0  194.00    9.15   1
 -10   9   0   81.54    8.15   1
 -11   9   0  142.01    8.99   1
 -12   9   0   48.23    7.63   1
 -13   9   0   41.77    8.20   1
 -14   9   0  232.62   11.13   1
 -15   9   0  100.29    9.63   1
 -16   9   0  341.85   13.97   1
 -17   9   0  155.36   11.19   1
 -18   9   0  203.51   11.99   1
 -19   9   0   21.70    8.74   1
 -20   9   0  121.69   11.36   1
 -21   9   0  128.85   11.04   1
 -23   9   0   72.91   10.98   1
 -24   9   0  590.94   18.91   1
 -26   9   0   36.25   10.73   1
 -28   9   0   16.28   10.32   1
 -30   9   0   65.21   10.76   1
 -31   9   0   14.53   12.02   1
 -32   9   0   51.29   12.70   1
 -34   9   0    9.78   11.01   1
 -34  10   0   28.08   11.19   1
 -32  10   0   42.88   11.45   1
 -31  10   0   57.20   12.80   1
 -29  10   0  167.02   13.27   1
 -27  10   0  100.08   11.47   1
 -26  10   0   18.63    9.82   1
 -23  10   0  174.52   12.50   1
 -21  10   0   18.92    8.47   1
 -20  10   0  123.54   10.64   1
 -19  10   0   21.13    7.72   1
 -17  10   0   17.92    8.67   1
 -16  10   0  782.76   18.09   1
 -15  10   0  267.87   12.60   1
 -14  10   0   81.66    9.79   1
 -13  10   0  402.20   13.22   1
 -12  10   0  237.26   10.57   1
 -11  10   0   36.93    7.76   1
 -10  10   0  405.58   12.74   1
  -9  10   0   85.42    8.28   1
  -8  10   0  143.38    9.17   1
  -7  10   0  309.66   10.46   1
  -6  10   0  193.67    9.47   1
  -5  10   0  626.04   13.49   1
  -4  10   0  206.67    9.36   1
  -3  10   0  306.07   10.27   1
  -2  10   0  150.58    9.09   1
  -1  10   0   86.66    7.93   1
   0  10   0  438.90   13.13   1
   1  10   0   39.13    7.97   1
   2  10   0  236.55   11.46   1
   3  10   0  387.92   13.78   1
   4  10   0   76.55    9.54   1
   5  10   0  261.35   12.94   1
   6  10   0  763.13   19.05   1
   7  10   0   24.29    7.90   1
   8  10   0   31.71    7.87   1
   9  10   0   26.89    8.45   1
  10  10   0  114.25   10.65   1
  11  10   0    9.51    9.25   1
  12  10   0   14.44    8.66   1
  13  10   0  168.24   11.97   1
  16  10   0   29.84   10.15   1
  17  10   0   47.34   11.08   1
  19  10   0  145.32   14.39   1
  21  10   0   56.36   12.87   1
  22  10   0   41.55   12.78   1
  24  10   0   32.23   12.16   1
  20  11   0   19.63   13.77   1
  18  11   0   17.12   10.24   1
  15  11   0   27.62    9.64   1
  13  11   0   19.19   10.35   1
  12  11   0  103.86   11.71   1
  11  11   0   27.99    9.88   1
   9  11   0  132.74   10.81   1
   7  11   0   60.77    8.60   1
   6  11   0  173.99   11.60   1
   5  11   0  137.82   10.54   1
   4  11   0  237.27   13.43   1
   3  11   0  133.84   11.10   1
   2  11   0  295.24   14.04   1
   1  11   0  902.10   20.55   1
   0  11   0   85.80    9.64   1
  -1  11   0   44.41    7.18   1
  -2  11   0  164.79    9.66   1
  -3  11   0  404.17   12.28   1
  -4  11   0  320.22   11.08   1
  -5  11   0  210.15    9.68   1
  -6  11   0  215.40   10.21   1
  -7  11   0  319.03   11.26   1
  -8  11   0  420.53   12.27   1
  -9  11   0  165.58    9.86   1
 -10  11   0   38.41    7.27   1
 -11  11   0   94.98    9.09   1
 -12  11   0  860.11   17.14   1
 -13  11   0  319.97   13.30   1
 -14  11   0  126.04   10.70   1
 -15  11   0  263.27   12.75   1
 -16  11   0  132.29   10.53   1
 -17  11   0  188.58   12.11   1
 -18  11   0   61.54    9.20   1
 -20  11   0  126.11   11.99   1
 -22  11   0   38.29   10.01   1
 -23  11   0  115.13   11.68   1
 -25  11   0   18.13    9.65   1
 -26  11   0   19.98    9.93   1
 -27  11   0   44.95   10.94   1
 -28  11   0   31.28   11.30   1
 -30  11   0   30.19   10.50   1
 -31  11   0   25.93   12.04   1
 -32  11   0   13.84   11.93   1
 -34  12   0   76.37   13.09   1
 -32  12   0   13.03   10.92   1
 -29  12   0   11.53   10.06   1
 -28  12   0  115.62   11.83   1
 -27  12   0   18.24   11.04   1
 -26  12   0   24.16   10.20   1
 -24  12   0  411.88   18.52   1
 -23  12   0  132.04   11.67   1
 -21  12   0  116.35   11.23   1
 -19  12   0   18.45    9.08   1
 -18  12   0  281.86   13.59   1
 -17  12   0  117.97   10.81   1
 -16  12   0  325.39   13.98   1
 -14  12   0   65.38    9.21   1
 -13  12   0  421.46   14.98   1
 -12  12   0  187.37   12.13   1
 -11  12   0  832.15   17.42   1
 -10  12   0  218.90   10.79   1
  -9  12   0   66.70    8.69   1
  -7  12   0   84.72    8.54   1
  -6  12   0  181.39   10.05   1
  -5  12   0   95.63    8.52   1
  -4  12   0   20.76    7.29   1
  -3  12   0   61.91    8.35   1
  -2  12   0  193.43   10.86   1
  -1  12   0  833.74   17.85   1
   0  12   0  185.00   12.33   1
   1  12   0  430.85   15.84   1
   2  12   0   59.44    9.59   1
   4  12   0  334.04   14.83   1
   5  12   0  107.54   10.66   1
   6  12   0  312.19   14.56   1
   7  12   0   10.22    8.09   1
   9  12   0  123.83   11.15   1
  10  12   0   14.33    9.20   1
  11  12   0  114.55   11.87   1
  12  12   0  411.00   17.74   1
  13  12   0   18.93    9.64   1
  16  12   0   83.51   13.34   1
  19  12   0   41.14   11.30   1
  22  12   0   55.53   13.20   1
  22  13   0   49.45   11.58   1
  21  13   0    4.17   11.73   1
  19  13   0   41.13   11.18   1
  18  13   0  101.35   12.97   1
  14  13   0   38.14   11.20   1
  13  13   0   19.70   10.31   1
  12  13   0   25.33    9.85   1
  10  13   0  153.00   11.87   1
   8  13   0  111.33   11.49   1
   7  13   0   88.89   10.53   1
   6  13   0    0.08    8.38   1
   5  13   0   21.93    8.84   1
   4  13   0  174.59   12.45   1
   3  13   0  172.82   12.92   1
   2  13   0   13.08    8.16   1
   1  13   0   40.48    9.76   1
   0  13   0  310.54   14.19   1
  -1  13   0  419.59   14.96   1
  -2  13   0  365.03   13.74   1
  -3  13   0  337.95   13.26   1
  -4  13   0   47.26    8.15   1
  -5  13   0  137.55    9.55   1
  -6  13   0   81.34    8.91   1
  -7  13   0   81.48    8.85   1
  -8  13   0  131.04    9.76   1
  -9  13   0   54.18    8.59   1
 -10  13   0  349.13   13.03   1
 -11  13   0  370.49   13.82   1
 -12  13   0  439.04   15.36   1
 -13  13   0  310.00   13.40   1
 -14  13   0   29.14    8.58   1
 -15  13   0   22.55    8.57   1
 -16  13   0  185.97   11.14   1
 -17  13   0  172.01   11.99   1
 -18  13   0   29.70    8.80   1
 -20  13   0  100.51   10.59   1
 -21  13   0  120.02   11.10   1
 -23  13   0  142.68   12.46   1
 -25  13   0   17.91   10.63   1
 -27  13   0   27.34   11.06   1
 -28  13   0    3.14    9.77   1
 -30  13   0    3.18    9.79   1
 -31  13   0  100.11   12.33   1
 -32  13   0   52.86   12.88   1
 -35  14   0   13.10   10.55   1
 -34  14   0   65.78   13.53   1
 -33  14   0    1.76   10.39   1
 -32  14   0   41.62   12.78   1
 -28  14   0  252.14   15.08   1
 -27  14   0   29.30   10.88   1
 -25  14   0   23.17    9.08   1
 -23  14   0   73.36   11.04   1
 -22  14   0  104.52   11.72   1
 -21  14   0  150.80   11.68   1
 -20  14   0   35.45    9.87   1
 -19  14   0  113.85   11.23   1
 -18  14   0   18.13    8.73   1
 -17  14   0  108.67   10.99   1
 -15  14   0  390.23   14.87   1
 -14  14   0  126.65   11.21   1
 -12  14   0   56.82    9.44   1
 -11  14   0  130.16   10.81   1
 -10  14   0   87.36    9.66   1
  -9  14   0  237.75   12.25   1
  -8  14   0    4.65    8.21   1
  -7  14   0   38.57    8.45   1
  -5  14   0  230.73   11.76   1
  -4  14   0   87.82   10.00   1
  -3  14   0  129.35   10.35   1
  -2  14   0   53.51    9.39   1
  -1  14   0   42.18    8.80   1
   0  14   0  112.41   11.69   1
   1  14   0  362.90   15.91   1
   2  14   0    1.77    8.08   1
   3  14   0   95.79   11.11   1
   4  14   0   20.74    8.79   1
   5  14   0   94.04   11.34   1
   7  14   0  147.22   12.31   1
   8  14   0   98.92   11.61   1
   9  14   0   57.65   10.28   1
  10  14   0    0.39    9.41   1
  12  14   0   23.63   10.04   1
  13  14   0   36.26   11.21   1
  14  14   0  243.69   14.95   1
  15  14   0   23.13   10.52   1
  17  14   0   15.72   11.23   1
  18  14   0   65.26   13.07   1
  20  14   0   85.57   13.52   1
  18  15   0   15.94   10.26   1
  17  15   0   24.73   11.84   1
  16  15   0   26.76   11.63   1
  15  15   0  130.66   12.34   1
  14  15   0   17.48   10.67   1
  11  15   0   11.87    9.83   1
  10  15   0   20.71   10.36   1
   9  15   0  570.47   19.68   1
   8  15   0   48.21    9.36   1
   7  15   0   54.59   10.53   1
   6  15   0   77.67   10.52   1
   5  15   0  175.24   13.41   1
   4  15   0   85.46   10.25   1
   3  15   0   70.57   11.15   1
   2  15   0   45.74    9.52   1
   0  15   0   37.04    9.17   1
  -1  15   0  355.84   14.75   1
  -4  15   0  232.35   12.35   1
  -5  15   0  244.58   12.81   1
  -6  15   0  101.32    9.92   1
  -7  15   0  199.84   11.92   1
  -8  15   0  188.57   12.01   1
  -9  15   0   95.36    9.82   1
 -10  15   0  235.65   13.21   1
 -11  15   0  242.59   12.57   1
 -13  15   0   11.22    8.85   1
 -14  15   0  370.46   14.64   1
 -15  15   0   48.60    9.53   1
 -16  15   0    3.96    7.71   1
 -17  15   0   33.90    9.23   1
 -18  15   0   84.58   10.22   1
 -19  15   0   90.77   10.59   1
 -20  15   0  180.14   12.68   1
 -21  15   0   65.81   10.64   1
 -22  15   0   55.72   10.06   1
 -23  15   0   33.57   10.49   1
 -24  15   0  599.70   19.22   1
 -27  15   0    7.43    9.25   1
 -29  15   0   13.67   10.06   1
 -30  15   0   87.10   12.84   1
 -34  15   0    1.35   10.14   1
 -35  16   0   13.60   11.39   1
 -34  16   0   25.46   11.80   1
 -33  16   0   16.86   12.29   1
 -29  16   0   14.99    9.92   1
 -28  16   0   98.08   12.60   1
 -27  16   0   43.45   10.08   1
 -26  16   0   15.30   10.51   1
 -23  16   0   34.66   10.76   1
 -22  16   0   59.92   10.39   1
 -21  16   0   42.78   10.20   1
 -20  16   0   88.60   11.54   1
 -19  16   0   35.81    9.61   1
 -18  16   0  234.64   13.89   1
 -17  16   0   79.29   10.77   1
 -16  16   0    1.52    8.02   1
 -13  16   0  163.45   11.93   1
 -12  16   0  364.65   14.69   1
 -11  16   0  138.53   11.70   1
 -10  16   0  777.42   19.17   1
  -9  16   0  351.79   14.61   1
  -8  16   0  259.13   12.98   1
  -7  16   0  356.91   14.15   1
  -6  16   0  796.96   18.98   1
  -5  16   0  134.16   11.01   1
  -4  16   0  347.79   14.57   1
  -3  16   0  176.10   11.31   1
  -2  16   0    3.93    8.02   1
   0  16   0    0.62    8.32   1
   1  16   0   64.26   10.57   1
   2  16   0  215.82   14.53   1
   3  16   0   41.80    9.26   1
   4  16   0   94.73   12.31   1
   5  16   0   52.17   10.50   1
   6  16   0   63.13   10.55   1
   7  16   0   32.26    9.91   1
  10  16   0   32.77    9.35   1
  11  16   0   25.65   11.81   1
  12  16   0   88.34   12.45   1
  15  16   0   45.09   10.78   1
  17  16   0   16.47   11.41   1
  18  16   0   29.07   12.04   1
  19  16   0   14.70   11.58   1
  18  17   0   16.34   10.71   1
  14  17   0   23.88   10.86   1
  12  17   0   17.08   10.81   1
  11  17   0   43.06   11.97   1
  10  17   0   54.92   10.37   1
   9  17   0   42.72    9.92   1
   8  17   0   21.84   10.32   1
   7  17   0   88.64   11.61   1
   6  17   0   77.96   12.80   1
   5  17   0   85.59   12.38   1
   4  17   0   25.08    9.89   1
   3  17   0    9.62    9.05   1
   2  17   0  164.80   14.05   1
   1  17   0  183.20   13.03   1
  -1  17   0   74.10   10.75   1
  -2  17   0   49.02    9.35   1
  -3  17   0  106.60   10.94   1
  -4  17   0  169.88   12.21   1
  -5  17   0  100.54   11.10   1
  -6  17   0  176.99   12.03   1
  -7  17   0   22.56    8.79   1
  -8  17   0  158.03   11.86   1
  -9  17   0  177.64   12.20   1
 -10  17   0   34.28    8.83   1
 -11  17   0  186.80   11.85   1
 -12  17   0  104.90   11.08   1
 -13  17   0  181.78   12.50   1
 -14  17   0  101.55   10.69   1
 -15  17   0   51.22    9.76   1
 -16  17   0   94.89   10.33   1
 -18  17   0  195.57   12.70   1
 -19  17   0  176.11   13.25   1
 -21  17   0   40.01    9.74   1
 -22  17   0  105.35   11.87   1
 -23  17   0   96.81   11.83   1
 -24  17   0   72.04   12.03   1
 -26  17   0   34.87   11.10   1
 -27  17   0   42.86    9.78   1
 -28  17   0   30.13   10.55   1
 -29  17   0   25.62   10.25   1
 -32  17   0   33.59   11.13   1
 -34  17   0    0.03    9.09   1
 -35  18   0   26.17   11.77   1
 -34  18   0   50.17   11.64   1
 -33  18   0    3.60   10.10   1
 -32  18   0   57.04   12.90   1
 -31  18   0   94.59   11.46   1
 -27  18   0   36.74   10.36   1
 -26  18   0   20.95   10.76   1
 -25  18   0   26.35   10.31   1
 -24  18   0   16.01    9.88   1
 -22  18   0   96.60   11.08   1
 -21  18   0   53.89   10.92   1
 -20  18   0   55.01   10.66   1
 -19  18   0   72.56   11.10   1
 -17  18   0  173.73   12.50   1
 -16  18   0  234.55   13.58   1
 -15  18   0   80.29   10.09   1
 -13  18   0   23.28    8.49   1
 -12  18   0  269.93   14.19   1
 -11  18   0   90.20   10.37   1
 -10  18   0   39.82    9.25   1
  -9  18   0  220.63   12.97   1
  -7  18   0   67.18   10.10   1
  -6  18   0  263.39   14.13   1
  -5  18   0   18.98    9.11   1
  -4  18   0   11.78    9.17   1
  -3  18   0   73.45   10.39   1
  -2  18   0  223.82   13.44   1
  -1  18   0  173.36   12.63   1
   1  18   0   73.24   10.97   1
   2  18   0   55.98   11.13   1
   3  18   0   63.88   10.38   1
   4  18   0   98.46   12.45   1
   6  18   0    5.77   10.37   1
   7  18   0   22.33   11.09   1
   8  18   0   20.08   10.00   1
   9  18   0   54.92   10.67   1
  13  18   0  128.07   14.10   1
  14  18   0   46.03   12.11   1
  15  19   0    1.93   11.33   1
  14  19   0    2.50    9.42   1
  13  19   0   35.78   12.11   1
  12  19   0   38.90   10.65   1
  11  19   0   29.49   11.07   1
  10  19   0  132.60   12.46   1
   9  19   0   28.58   10.72   1
   8  19   0  114.78   13.16   1
   6  19   0   99.34   13.30   1
   5  19   0   51.02   11.62   1
   4  19   0   43.43   11.23   1
   3  19   0   81.89   13.27   1
   2  19   0  219.09   14.91   1
   1  19   0   89.45   12.65   1
   0  19   0   34.86   10.10   1
  -1  19   0   56.95   11.83   1
  -2  19   0  155.28   12.56   1
  -4  19   0   80.59   10.48   1
  -5  19   0  111.76   11.38   1
  -8  19   0   17.58    8.87   1
 -10  19   0   22.58    9.60   1
 -12  19   0   10.06    9.09   1
 -14  19   0  100.03   11.03   1
 -15  19   0   75.90   10.36   1
 -16  19   0   36.66    9.95   1
 -17  19   0  171.66   13.25   1
 -18  19   0   64.83   11.04   1
 -20  19   0   90.60   11.87   1
 -21  19   0  239.78   14.59   1
 -22  19   0   89.17   12.05   1
 -23  19   0   39.74    9.98   1
 -25  19   0  103.39   12.18   1
 -27  19   0  109.21   13.72   1
 -28  19   0   25.69   10.15   1
 -29  19   0  151.36   13.47   1
 -31  19   0   41.05   10.03   1
 -32  19   0   56.36   11.56   1
 -34  19   0    0.51    9.09   1
 -35  19   0   18.11   10.43   1
 -35  20   0    5.99   10.34   1
 -34  20   0  107.38   12.99   1
 -31  20   0   29.43   10.44   1
 -30  20   0   47.00   11.64   1
 -28  20   0   56.24   11.26   1
 -27  20   0   34.30   10.72   1
 -25  20   0   87.96   12.02   1
 -23  20   0   27.72   10.59   1
 -22  20   0   59.59   10.66   1
 -21  20   0  129.20   13.04   1
 -20  20   0   31.84   10.13   1
 -19  20   0   81.38   11.11   1
 -18  20   0   54.88   11.19   1
 -16  20   0   95.19   11.65   1
 -15  20   0  197.95   13.47   1
 -14  20   0   46.70   10.38   1
 -13  20   0  103.81   11.26   1
 -11  20   0  134.71   12.29   1
 -10  20   0   90.03   11.46   1
  -9  20   0  143.73   11.29   1
  -8  20   0   10.39    8.39   1
  -7  20   0   92.87   10.91   1
  -6  20   0   42.82   10.50   1
  -5  20   0  205.59   13.83   1
  -4  20   0  106.31   11.76   1
  -3  20   0   16.73    8.49   1
  -2  20   0   67.90   10.85   1
  -1  20   0  100.38   11.67   1
   0  20   0   17.40   10.52   1
   1  20   0  122.57   12.63   1
   2  20   0   55.58   11.32   1
   3  20   0   43.43   11.04   1
   4  20   0   18.72   10.55   1
   5  20   0   76.03   13.31   1
   7  20   0   48.47   12.08   1
   8  20   0   61.63   12.15   1
  10  20   0   40.53   11.63   1
  11  20   0   34.85   10.71   1
  13  20   0   23.05   11.10   1
  14  20   0   83.79   13.86   1
  14  21   0   13.10   11.14   1
  10  21   0   71.78   12.65   1
   9  21   0   77.93   11.57   1
   7  21   0   32.84   10.03   1
   6  21   0    1.57    9.61   1
   5  21   0   35.11   10.79   1
   4  21   0   94.73   12.61   1
   3  21   0   50.85   12.13   1
   2  21   0   84.19   12.95   1
   0  21   0   98.86   12.14   1
  -1  21   0  130.05   12.36   1
  -2  21   0  231.76   15.22   1
  -3  21   0   66.58   11.49   1
  -4  21   0   45.92   10.56   1
  -5  21   0   50.64   11.29   1
  -6  21   0   71.32   10.85   1
  -7  21   0  135.81   11.88   1
  -8  21   0  117.16   12.05   1
  -9  21   0  100.64   11.06   1
 -10  21   0   19.32    9.42   1
 -11  21   0   18.83   10.10   1
 -12  21   0  114.59   11.56   1
 -13  21   0  105.43   11.48   1
 -14  21   0  133.32   12.41   1
 -15  21   0   89.11   10.48   1
 -16  21   0   43.86    9.93   1
 -18  21   0   65.03   11.11   1
 -19  21   0  260.58   14.09   1
 -20  21   0  130.52   11.76   1
 -21  21   0   95.45   12.23   1
 -23  21   0   81.57   11.54   1
 -24  21   0   24.36   10.77   1
 -25  21   0  107.74   11.75   1
 -26  21   0   29.54   10.76   1
 -30  21   0   99.65   11.96   1
 -31  21   0   66.04   12.58   1
 -32  21   0   11.64   10.04   1
 -34  21   0   12.75   10.12   1
 -35  22   0   54.36   11.15   1
 -34  22   0   71.56   11.68   1
 -33  22   0    2.52   10.08   1
 -32  22   0   31.99   10.59   1
 -31  22   0   19.77   10.38   1
 -30  22   0   17.31    8.53   1
 -28  22   0  134.74   13.13   1
 -27  22   0   53.55   11.36   1
 -26  22   0   55.99   11.51   1
 -25  22   0  135.57   13.59   1
 -24  22   0   89.62   11.16   1
 -22  22   0   13.39   10.74   1
 -20  22   0   96.22   11.88   1
 -19  22   0  115.37   11.98   1
 -18  22   0  101.58   11.52   1
 -17  22   0  134.94   11.84   1
 -16  22   0   77.16   11.51   1
 -15  22   0   47.44    9.67   1
 -14  22   0  113.31   12.33   1
 -11  22   0   51.37   10.38   1
  -8  22   0  121.78   12.51   1
  -7  22   0   32.95   10.22   1
  -6  22   0   70.11   10.67   1
  -5  22   0  117.85   12.06   1
  -4  22   0  102.30   12.22   1
  -3  22   0   84.98   11.78   1
  -2  22   0   88.26   10.96   1
   2  22   0   45.47   11.45   1
   3  22   0  124.75   13.30   1
   4  22   0   69.50   12.12   1
   5  22   0   59.74   12.73   1
   6  22   0  139.07   13.94   1
   7  22   0   20.52   11.70   1
   8  22   0   14.60   11.17   1
   9  22   0   14.94   11.05   1
  10  22   0   52.23   12.23   1
  12  22   0   66.06   12.88   1
  13  22   0   42.98   11.96   1
   9  23   0   22.47   12.02   1
   8  23   0    1.17   10.99   1
   6  23   0   74.20   14.47   1
   5  23   0   30.11   11.20   1
   4  23   0   33.16   12.16   1
   3  23   0   69.72   11.38   1
   2  23   0    6.83   10.12   1
   0  23   0  152.69   13.71   1
  -1  23   0    5.81   10.23   1
  -2  23   0   77.86   11.97   1
  -3  23   0   41.72   10.47   1
  -4  23   0   48.05   10.73   1
  -6  23   0   88.70   11.99   1
  -8  23   0   52.20   10.62   1
  -9  23   0   75.08   11.46   1
 -10  23   0  142.86   12.19   1
 -11  23   0  102.44   12.35   1
 -12  23   0  124.10   11.68   1
 -13  23   0  169.69   12.86   1
 -14  23   0   62.06   11.00   1
 -15  23   0   47.21   10.80   1
 -16  23   0   54.20   10.59   1
 -17  23   0   76.05   11.83   1
 -19  23   0   34.65    9.85   1
 -20  23   0   35.67   10.78   1
 -21  23   0   85.28   11.64   1
 -22  23   0   17.20    9.93   1
 -23  23   0  128.36   13.17   1
 -24  23   0    4.73    9.50   1
 -26  23   0  103.74   12.57   1
 -27  23   0   36.85   11.42   1
 -28  23   0   30.74   10.52   1
 -29  23   0   89.56   12.61   1
 -32  23   0   37.79    9.69   1
 -34  24   0   22.32   11.25   1
 -32  24   0   15.95    9.99   1
 -30  24   0   22.08   11.41   1
 -25  24   0   59.51   11.84   1
 -22  24   0   68.16   10.96   1
 -21  24   0   32.17   11.40   1
 -20  24   0   30.61   10.66   1
 -19  24   0   32.61   10.88   1
 -17  24   0   75.51   12.23   1
 -15  24   0  627.11   20.46   1
 -13  24   0   24.79   11.16   1
 -12  24   0  425.62   18.05   1
 -11  24   0   22.56   10.58   1
 -10  24   0    1.99    9.73   1
  -9  24   0  611.79   20.12   1
  -8  24   0    7.14    9.16   1
  -7  24   0   83.25   12.03   1
  -5  24   0   32.23   11.22   1
  -4  24   0   25.50   10.26   1
  -3  24   0   43.22   10.66   1
   0  24   0   10.03    9.83   1
   1  24   0   51.49   12.30   1
   4  24   0   12.94    9.69   1
   6  24   0   19.99   11.97   1
   7  24   0    1.25   10.45   1
   8  24   0    2.22   11.27   1
   9  24   0    4.58   10.25   1
   9  25   0   15.66   11.34   1
   8  25   0   12.93   12.06   1
   7  25   0   26.28   12.36   1
   5  25   0   47.59   12.76   1
   4  25   0   26.04   10.92   1
   3  25   0   19.40   10.75   1
   2  25   0  128.30   13.27   1
   1  25   0   15.00   10.02   1
   0  25   0   26.44    9.78   1
  -1  25   0   61.70   11.17   1
  -2  25   0   16.97   10.15   1
  -3  25   0  125.05   13.47   1
  -4  25   0   84.65   12.08   1
  -5  25   0   89.06   12.14   1
  -6  25   0  105.36   12.28   1
  -7  25   0   12.39   10.66   1
  -8  25   0   12.07    9.78   1
 -11  25   0   18.10   10.63   1
 -12  25   0   22.18   10.25   1
 -13  25   0   20.98   10.58   1
 -14  25   0   12.83   10.28   1
 -15  25   0   13.65   11.20   1
 -18  25   0   24.27    9.70   1
 -19  25   0   91.86   13.14   1
 -20  25   0   72.80   11.43   1
 -21  25   0   81.18   11.46   1
 -22  25   0  146.89   13.71   1
 -24  25   0   53.46   11.48   1
 -25  25   0   34.84   10.56   1
 -27  25   0  148.44   13.57   1
 -28  25   0   30.34   10.47   1
 -30  25   0   35.99   11.96   1
 -32  25   0   22.36   10.76   1
 -33  26   0   99.59   11.48   1
 -32  26   0   50.66   11.96   1
 -30  26   0   23.66    9.91   1
 -28  26   0   68.30   12.01   1
 -27  26   0   54.80   12.45   1
 -25  26   0   23.72   11.07   1
 -23  26   0   88.51   12.75   1
 -22  26   0   69.49   12.54   1
 -21  26   0   32.49   11.47   1
 -19  26   0    0.36    9.59   1
 -17  26   0   33.28   11.36   1
 -15  26   0   15.51   10.66   1
 -14  26   0   13.65   11.02   1
 -13  26   0   16.75   10.68   1
 -12  26   0   17.39   11.56   1
 -11  26   0   23.00   11.00   1
 -10  26   0   12.46   12.05   1
  -9  26   0   40.53   11.43   1
  -8  26   0   13.99   10.76   1
  -6  26   0   15.69   10.66   1
  -5  26   0   42.80   10.60   1
  -4  26   0   50.50   12.12   1
  -3  26   0   72.93   12.83   1
  -1  26   0   24.36   10.92   1
   1  26   0   61.90   11.92   1
   2  26   0   65.08   11.44   1
   4  26   0   21.58   10.82   1
   6  26   0   50.53   12.02   1
   7  26   0   63.01   13.81   1
   5  27   0    1.42   12.36   1
   3  27   0   21.04   12.69   1
   1  27   0   20.88   11.92   1
   0  27   0    0.41   10.09   1
  -1  27   0   45.94   10.61   1
  -2  27   0  110.31   13.36   1
  -4  27   0   25.05   10.96   1
  -5  27   0   47.43   10.81   1
  -7  27   0   58.93   11.83   1
  -8  27   0   97.84   13.33   1
  -9  27   0   38.34   11.49   1
 -10  27   0   57.38   11.09   1
 -11  27   0   32.21   10.88   1
 -13  27   0   27.38   10.83   1
 -14  27   0   27.37   10.83   1
 -16  27   0   52.16   11.49   1
 -17  27   0   58.74   11.79   1
 -18  27   0   34.20   11.27   1
 -19  27   0  102.02   12.51   1
 -20  27   0   36.08   12.17   1
 -22  27   0   43.67   11.75   1
 -25  27   0  145.74   13.40   1
 -26  27   0   53.23   12.24   1
 -29  27   0   17.46   12.44   1
 -33  27   0    0.68   10.54   1
 -31  28   0   14.00   10.85   1
 -30  28   0   44.05   10.60   1
 -26  28   0   62.90   11.68   1
 -25  28   0   28.61   11.19   1
 -23  28   0   15.98   10.94   1
 -22  28   0  144.51   13.79   1
 -21  28   0   20.34   10.92   1
 -20  28   0   72.66   11.65   1
 -19  28   0   18.11    9.97   1
 -17  28   0   47.47   11.27   1
 -16  28   0   89.39   12.03   1
 -14  28   0  224.89   17.35   1
 -12  28   0   86.62   12.92   1
 -11  28   0   28.63   12.38   1
 -10  28   0   11.71   10.45   1
  -9  28   0   15.90   10.23   1
  -8  28   0   65.42   12.19   1
  -7  28   0   18.90   10.98   1
  -6  28   0  149.50   13.76   1
  -5  28   0   14.90   11.10   1
  -3  28   0   17.48   11.49   1
  -2  28   0   75.05   11.69   1
  -1  28   0    5.97   11.77   1
   2  28   0   25.82   12.24   1
   3  29   0   19.88   10.83   1
   0  29   0   97.48   12.89   1
  -2  29   0   19.81   11.45   1
  -4  29   0   23.67   10.92   1
  -6  29   0   67.76   12.29   1
  -9  29   0    0.79   10.48   1
 -10  29   0  156.13   13.31   1
 -11  29   0   19.76   10.70   1
 -12  29   0   27.71   10.97   1
 -16  29   0   11.18   10.10   1
 -19  29   0  141.79   13.31   1
 -22  29   0   10.86   10.93   1
 -23  29   0   69.13   11.89   1
 -25  29   0   14.85   11.10   1
 -26  29   0    2.47   10.56   1
 -27  29   0   13.72   10.40   1
 -29  29   0   95.54   13.58   1
 -31  29   0   11.34   10.64   1
 -31  30   0   29.25   10.91   1
 -29  30   0    0.24    9.67   1
 -28  30   0   20.38   10.34   1
 -27  30   0   14.68   11.28   1
 -26  30   0   49.32   11.96   1
 -25  30   0   42.92   12.65   1
 -24  30   0   14.82   11.38   1
 -22  30   0   23.37   10.31   1
 -21  30   0   64.91   11.32   1
 -20  30   0   35.70   10.43   1
 -19  30   0   23.35   10.66   1
 -16  30   0    3.86   10.29   1
 -15  30   0  104.44   12.59   1
 -11  30   0   31.63   10.87   1
 -10  30   0   44.42   10.88   1
  -9  30   0   72.21   12.04   1
  -8  30   0   15.96   10.29   1
  -6  30   0   27.46   10.95   1
  -5  30   0   51.57   12.36   1
  -4  30   0   43.50   11.08   1
  -2  30   0   40.41    9.66   1
 -10  31   0   99.07   12.38   1
 -12  31   0   53.59   10.58   1
 -13  31   0   91.31   12.25   1
 -14  31   0   18.18    9.76   1
 -16  31   0   42.90   10.57   1
 -18  31   0   88.43   11.87   1
 -19  31   0   58.32   11.86   1
 -21  31   0   51.89   12.28   1
 -26  31   0   18.27    9.99   1
 -30  31   0   15.56    9.26   1
 -29  32   0   15.26   10.28   1
 -26  32   0   36.72   11.22   1
 -22  32   0   32.32   12.24   1
 -19  32   0   56.57   12.39   1
 -18  32   0   47.29   12.10   1
 -17  32   0   35.47   11.88   1
 -15  32   0   30.22   11.54   1
 -14  32   0   70.00   12.76   1
 -13  32   0   31.51   11.51   1
 -10  32   0   53.59   12.57   1
  -9  32   0   44.29   10.98   1
  -8  32   0    4.76    9.20   1
  -7  32   0   11.89   11.74   1
  -6  32   0   33.90   11.01   1
  -4  32   0   10.09   10.09   1
  -7  33   0   76.71   11.96   1
 -10  33   0    2.45    9.83   1
 -16  33   0   13.81   11.43   1
 -25  34   0   17.32   10.62   1
 -24  34   0   25.86   11.25   1
 -20  34   0   84.54   11.89   1
 -16  34   0   30.46   11.92   1
 -14  34   0   82.51   11.94   1
 -12  34   0   76.32   11.38   1
 -10  34   0   27.62   10.28   1
  -9  34   0    7.81    9.30   1
 -16  35   0   21.16    8.87   1
 -17  35   0   22.42   10.33   1
 -18  35   0   28.19   11.53   1
 -22  35   0   32.17   10.59   1
 -20  35   1   66.74   11.73   1
 -19  35   1    4.67    9.78   1
 -15  35   1   64.15   12.23   1
 -10  34   1   30.16   11.55   1
 -11  34   1   18.40   11.13   1
 -13  34   1   23.67   10.17   1
 -15  34   1   30.39   11.48   1
 -17  34   1   28.35   11.74   1
 -18  34   1   35.63   11.28   1
 -19  34   1   33.44   12.28   1
 -20  34   1    3.18   10.55   1
 -24  34   1   26.28   11.04   1
 -25  34   1   27.45   11.12   1
 -27  33   1   52.26   11.57   1
 -25  33   1   10.87   10.72   1
 -23  33   1   22.17   10.01   1
 -22  33   1    9.45   10.24   1
 -21  33   1   54.12   11.36   1
 -20  33   1   43.13   11.47   1
 -19  33   1   41.72   11.45   1
 -17  33   1   36.54   11.58   1
 -16  33   1   35.77   11.41   1
 -15  33   1   17.10   10.90   1
 -14  33   1   29.67   11.31   1
 -13  33   1   43.63   11.42   1
 -12  33   1   98.29   12.18   1
 -10  33   1   31.31   10.72   1
  -9  33   1   13.75   10.04   1
  -8  33   1   16.52   11.11   1
  -7  33   1   21.39   11.32   1
  -6  33   1   50.65   11.72   1
  -4  32   1    3.37    9.21   1
  -6  32   1   25.65   11.19   1
  -8  32   1  102.40   12.21   1
  -9  32   1   24.90    9.88   1
 -10  32   1    0.09   10.49   1
 -16  32   1   22.71   12.44   1
 -18  32   1   13.89   11.31   1
 -24  32   1   81.58   13.35   1
 -27  32   1   18.89   11.15   1
 -29  32   1   26.10    9.95   1
 -27  31   1  114.48   13.05   1
 -23  31   1    9.01   11.58   1
 -22  31   1    2.22   10.62   1
 -21  31   1   28.14   11.35   1
 -17  31   1   12.98   11.19   1
 -16  31   1   11.45   10.65   1
 -10  31   1   16.43   10.91   1
  -8  31   1    9.14   11.38   1
  -4  31   1  120.54   14.04   1
  -1  31   1   16.29   12.95   1
  -1  30   1   44.76   14.04   1
  -4  30   1   52.60   12.02   1
  -5  30   1   30.41   13.13   1
  -6  30   1   40.23   13.26   1
  -8  30   1   11.39   10.77   1
  -9  30   1   46.53   11.13   1
 -10  30   1   88.51   12.65   1
 -11  30   1    1.84   10.57   1
 -12  30   1   47.32   12.54   1
 -14  30   1   83.45   12.85   1
 -15  30   1   12.01   10.09   1
 -16  30   1   85.05   11.66   1
 -18  30   1   52.76   10.99   1
 -20  30   1   76.77   13.00   1
 -22  30   1   21.34   12.48   1
 -23  30   1   12.20   11.90   1
 -24  30   1   37.28   11.37   1
 -25  30   1   41.73   11.02   1
 -26  30   1   50.62   11.87   1
 -27  30   1    0.72   10.40   1
 -29  30   1   33.84   10.62   1
 -31  30   1   11.37    9.95   1
 -32  29   1   13.46   10.43   1
 -31  29   1    1.51   10.41   1
 -30  29   1   43.47   11.11   1
 -28  29   1   21.09   12.61   1
 -26  29   1    8.01   10.94   1
 -24  29   1  100.11   13.64   1
 -23  29   1   15.34   10.94   1
 -22  29   1   50.00   11.61   1
 -21  29   1   48.61   11.32   1
 -20  29   1   73.17   13.47   1
 -18  29   1   59.74   11.37   1
 -17  29   1   21.24   11.30   1
 -15  29   1  205.20   15.67   1
 -14  29   1  202.04   14.25   1
 -13  29   1    1.77    9.54   1
 -12  29   1   17.22   11.18   1
 -11  29   1   59.65   12.25   1
  -9  29   1   70.89   11.94   1
  -8  29   1   64.34   11.74   1
  -6  29   1   19.97   10.69   1
  -5  29   1   96.97   12.85   1
  -1  29   1   30.82   13.41   1
   1  29   1   43.43   13.21   1
   3  28   1   21.93   13.60   1
   2  28   1    0.03   11.90   1
   1  28   1   27.21   13.86   1
   0  28   1   30.55   13.14   1
  -1  28   1   57.44   12.48   1
  -2  28   1   32.94   12.27   1
  -7  28   1  129.74   13.94   1
  -9  28   1   57.00   11.88   1
 -11  28   1  109.99   13.57   1
 -13  28   1   48.30   11.14   1
 -14  28   1   55.19   12.01   1
 -17  28   1   98.18   12.80   1
 -18  28   1   22.90   10.40   1
 -19  28   1   36.09   11.46   1
 -20  28   1   47.94   11.19   1
 -21  28   1  156.18   14.47   1
 -22  28   1   17.69   10.45   1
 -23  28   1    6.37   11.04   1
 -26  28   1   52.96   11.97   1
 -27  28   1   43.72   12.12   1
 -28  28   1   20.28   11.34   1
 -29  28   1   30.97   12.82   1
 -31  28   1   19.62   12.30   1
 -33  27   1   31.47   11.51   1
 -32  27   1   17.10   11.18   1
 -31  27   1  104.57   12.37   1
 -29  27   1   17.94   10.62   1
 -28  27   1   26.65   12.82   1
 -27  27   1   44.74   12.68   1
 -26  27   1   10.91   11.55   1
 -25  27   1   75.95   13.89   1
 -24  27   1   70.69   13.11   1
 -23  27   1   55.59   12.82   1
 -22  27   1   10.79   10.41   1
 -21  27   1   18.64   10.67   1
 -19  27   1   72.52   12.32   1
 -13  27   1   21.06   11.10   1
 -12  27   1   16.36    9.71   1
  -9  27   1   17.83   10.42   1
  -8  27   1   67.57   13.37   1
  -6  27   1   26.73   11.06   1
  -4  27   1   54.32   12.38   1
  -3  27   1   54.27   11.92   1
  -2  27   1   68.85   13.03   1
  -1  27   1   21.49   11.63   1
   1  27   1   41.90   14.07   1
   4  27   1   90.51   14.40   1
   6  27   1   39.25   13.24   1
   7  26   1   13.65   13.47   1
   6  26   1   37.84   14.18   1
   4  26   1   61.37   14.18   1
   3  26   1   17.23   12.02   1
   2  26   1   58.83   14.61   1
   1  26   1   16.39   12.32   1
   0  26   1  106.59   12.73   1
  -3  26   1    8.79   10.63   1
  -7  26   1   89.58   11.84   1
  -8  26   1   50.06   11.21   1
  -9  26   1   40.63   11.34   1
 -10  26   1   61.14   12.18   1
 -12  26   1   16.05   10.80   1
 -13  26   1  185.54   15.25   1
 -14  26   1   21.86   10.05   1
 -16  26   1   62.61   11.85   1
 -17  26   1   54.48   12.00   1
 -18  26   1   47.50   11.28   1
 -19  26   1   88.61   13.11   1
 -23  26   1   19.49   11.37   1
 -24  26   1   15.56   10.72   1
 -26  26   1   73.95   12.98   1
 -28  26   1   53.02   11.58   1
 -29  26   1   14.12   12.15   1
 -30  26   1   74.57   13.14   1
 -31  26   1    4.91   10.19   1
 -34  25   1   13.89   11.33   1
 -33  25   1   20.25   11.40   1
 -31  25   1   17.85   11.21   1
 -30  25   1   44.60   12.36   1
 -27  25   1   80.42   13.64   1
 -25  25   1   74.47   13.10   1
 -21  25   1  189.05   14.68   1
 -19  25   1   17.94   11.49   1
 -17  25   1   94.32   12.98   1
 -16  25   1   37.13   11.43   1
 -15  25   1  121.65   13.86   1
 -13  25   1   19.03    9.76   1
 -11  25   1   25.16   10.50   1
 -10  25   1  138.76   13.50   1
  -9  25   1   38.16   11.42   1
  -8  25   1   71.02   12.12   1
  -6  25   1   12.56   10.61   1
  -5  25   1    1.73   10.02   1
  -4  25   1  188.07   14.01   1
  -3  25   1    5.24   11.28   1
   0  25   1   97.54   12.68   1
   2  25   1   72.80   12.65   1
   5  25   1   26.47   13.90   1
   6  25   1   12.85   12.14   1
   7  25   1   13.68   12.52   1
   8  25   1   25.47   13.79   1
   9  25   1    8.31   12.66   1
  10  24   1   14.43   14.23   1
   8  24   1   87.64   14.99   1
   6  24   1   24.01   13.70   1
   5  24   1   77.56   14.49   1
   3  24   1   46.56   13.64   1
   1  24   1    0.48   10.65   1
   0  24   1  105.63   15.44   1
  -1  24   1   75.09   12.49   1
  -3  24   1   82.84   11.82   1
  -4  24   1   72.89   10.66   1
  -6  24   1   18.73   11.29   1
  -7  24   1   56.01   11.37   1
  -8  24   1   54.70   11.47   1
  -9  24   1   10.09    9.85   1
 -10  24   1   57.31   11.39   1
 -13  24   1   13.67    9.95   1
 -14  24   1   59.64   12.00   1
 -16  24   1   44.54   11.15   1
 -17  24   1   51.50   12.07   1
 -18  24   1   19.55   11.12   1
 -20  24   1   78.10   12.08   1
 -21  24   1   99.07   12.54   1
 -23  24   1   69.87   11.73   1
 -24  24   1  117.53   13.48   1
 -26  24   1   16.00   10.83   1
 -27  24   1   71.17   12.08   1
 -28  24   1    1.01    9.24   1
 -29  24   1   88.23   13.84   1
 -30  24   1   45.51   10.99   1
 -32  24   1   76.89   14.20   1
 -33  23   1   25.45   11.97   1
 -32  23   1   14.44   12.53   1
 -30  23   1    8.25   12.09   1
 -27  23   1   64.18   11.70   1
 -26  23   1   10.70   10.10   1
 -24  23   1   71.01   11.65   1
 -23  23   1  176.62   13.83   1
 -21  23   1   64.06   12.27   1
 -20  23   1   58.97   11.27   1
 -18  23   1   67.87   12.45   1
 -17  23   1  111.39   13.04   1
 -16  23   1  114.25   11.93   1
 -15  23   1   49.29   11.57   1
 -14  23   1   19.03   10.89   1
 -10  23   1   52.55   10.54   1
  -9  23   1   20.00   10.08   1
  -8  23   1   65.73   11.62   1
  -7  23   1  140.09   12.61   1
  -6  23   1  113.34   12.92   1
  -5  23   1   83.89   12.85   1
  -4  23   1   11.89    9.82   1
  -3  23   1   70.21   11.62   1
  -2  23   1   60.62   11.85   1
   0  23   1  184.72   14.52   1
   1  23   1   81.90   13.14   1
   3  23   1   14.24   11.72   1
   4  23   1   58.53   13.41   1
  13  22   1    7.65   12.17   1
  11  22   1   17.44   12.15   1
   8  22   1   16.20   14.24   1
   7  22   1   57.04   13.98   1
   6  22   1   20.44   11.12   1
  -1  22   1   93.09   12.14   1
  -2  22   1   29.11   11.65   1
  -3  22   1  179.81   13.52   1
  -4  22   1   31.38   10.57   1
  -5  22   1  114.17   12.91   1
  -8  22   1  277.98   16.00   1
  -9  22   1  142.27   13.22   1
 -10  22   1   41.05   11.09   1
 -11  22   1  492.94   18.62   1
 -12  22   1   35.06   11.43   1
 -13  22   1  134.34   13.01   1
 -14  22   1  283.92   15.20   1
 -16  22   1    1.15    9.17   1
 -17  22   1  126.71   12.48   1
 -18  22   1   31.32   11.63   1
 -19  22   1  182.73   13.14   1
 -20  22   1   40.59   11.53   1
 -21  22   1   75.85   11.67   1
 -27  22   1    2.93    9.31   1
 -29  22   1   30.33   11.26   1
 -35  22   1   10.04    9.97   1
 -33  21   1   62.56   12.51   1
 -30  21   1   44.47   11.42   1
 -29  21   1   53.07   11.18   1
 -28  21   1  143.84   13.74   1
 -27  21   1   25.07   11.37   1
 -25  21   1  210.64   14.66   1
 -24  21   1  121.58   13.41   1
 -23  21   1   50.08   12.15   1
 -22  21   1   82.49   11.67   1
 -20  21   1   14.02   10.88   1
 -19  21   1  118.66   12.32   1
 -18  21   1   51.92   11.33   1
 -17  21   1   65.11   11.23   1
 -16  21   1  184.80   14.04   1
 -15  21   1  118.11   13.23   1
 -14  21   1   47.18   11.03   1
 -13  21   1   15.41   10.24   1
 -12  21   1   36.96    9.82   1
  -9  21   1   28.77   10.42   1
  -7  21   1   54.79   10.67   1
  -6  21   1  115.67   12.08   1
  -5  21   1  210.85   13.57   1
  -4  21   1   64.24   11.05   1
  -3  21   1   50.29   10.59   1
  -2  21   1   99.98   13.66   1
  -1  21   1   18.74   10.29   1
   0  21   1    3.04   10.69   1
   1  21   1   85.85   12.99   1
   2  21   1   38.62   12.79   1
   3  21   1  121.83   13.78   1
   4  21   1  195.84   16.71   1
   5  21   1    0.09   10.45   1
   7  21   1  139.88   15.38   1
   8  21   1   64.49   13.15   1
   9  21   1   46.67   12.56   1
  10  21   1   31.35   13.99   1
  12  21   1   63.04   14.07   1
  14  20   1    0.67   13.00   1
  13  20   1   41.95   15.00   1
  12  20   1    1.22   11.87   1
  10  20   1   94.04   13.90   1
   9  20   1   62.81   13.64   1
   8  20   1   23.90   12.59   1
   5  20   1    2.54   10.86   1
   4  20   1   72.95   12.62   1
   3  20   1   46.80   12.52   1
   2  20   1   42.05   12.02   1
   0  20   1  114.42   12.73   1
  -1  20   1   44.14   11.56   1
  -2  20   1   47.60   11.53   1
  -6  20   1   97.26   11.00   1
  -7  20   1  157.66   12.42   1
  -8  20   1   50.35   10.08   1
 -10  20   1  307.75   15.21   1
 -11  20   1    0.04    8.90   1
 -12  20   1   52.09   10.80   1
 -13  20   1  179.28   13.04   1
 -14  20   1  118.25   11.24   1
 -16  20   1    0.00    0.00   1
 -17  20   1   28.06    9.85   1
 -18  20   1   31.02   10.60   1
 -19  20   1   44.77   10.72   1
 -20  20   1  139.41   12.71   1
 -22  20   1   53.91   12.16   1
 -23  20   1   77.39   12.69   1
 -24  20   1   70.46   12.74   1
 -29  20   1   77.63   12.00   1
 -30  20   1   83.93   12.29   1
 -32  20   1    1.91   10.45   1
 -33  20   1   54.44   12.29   1
 -35  20   1   40.58   11.42   1
 -35  19   1   18.19   10.86   1
 -34  19   1   30.50   11.80   1
 -33  19   1   50.72   12.68   1
 -27  19   1   75.97   12.57   1
 -26  19   1   77.90   12.64   1
 -25  19   1   30.70   10.42   1
 -22  19   1  145.83   14.51   1
 -21  19   1  123.97   12.32   1
 -20  19   1   48.99   11.34   1
 -19  19   1   59.49   10.96   1
 -17  19   1  206.22   14.53   1
 -16  19   1  176.69   12.54   1
 -15  19   1  102.39   11.70   1
 -14  19   1  191.08   13.26   1
 -13  19   1   10.19    9.53   1
 -12  19   1   36.88   10.69   1
 -10  19   1  172.80   12.79   1
  -9  19   1  162.66   12.63   1
  -7  19   1   50.67    9.49   1
  -6  19   1   14.18    9.38   1
  -5  19   1  168.00   13.46   1
  -4  19   1  100.81   11.38   1
  -3  19   1  191.66   12.42   1
  -2  19   1  215.22   14.17   1
  -1  19   1   51.29   10.75   1
   0  19   1   62.31   10.95   1
   1  19   1   52.14   12.68   1
   2  19   1  123.04   12.35   1
   3  19   1  173.95   14.76   1
   6  19   1   30.95   11.27   1
   7  19   1   81.23   13.26   1
   8  19   1   67.46   12.55   1
   9  19   1   40.66   12.30   1
  11  19   1    3.46   11.71   1
  15  19   1   24.75   12.30   1
  16  19   1   18.55   11.50   1
  17  18   1    1.86   11.84   1
  16  18   1   34.91   13.66   1
  15  18   1    5.24   11.98   1
  14  18   1   16.44   12.95   1
  12  18   1   57.50   12.96   1
  11  18   1   77.18   14.49   1
   7  18   1   17.56   12.08   1
   6  18   1   12.13   10.70   1
   5  18   1   81.50   13.52   1
   4  18   1   45.27   11.55   1
   3  18   1   59.69   11.82   1
   2  18   1   44.62   10.92   1
   1  18   1   33.61   11.48   1
   0  18   1   16.83   10.82   1
  -1  18   1  135.13   12.55   1
  -2  18   1   55.92    9.93   1
  -3  18   1  273.50   14.31   1
  -4  18   1   97.86   10.49   1
  -5  18   1  207.76   12.16   1
  -6  18   1   34.28    9.59   1
  -7  18   1  425.50   15.65   1
  -8  18   1  178.93   12.02   1
  -9  18   1  191.12   12.41   1
 -10  18   1  154.46   11.77   1
 -11  18   1  426.18   15.98   1
 -12  18   1   40.51    9.38   1
 -13  18   1  187.99   12.33   1
 -14  18   1  109.80   10.97   1
 -15  18   1  292.77   14.55   1
 -16  18   1   44.49   10.33   1
 -17  18   1  135.72   11.75   1
 -18  18   1   19.64    9.83   1
 -19  18   1   26.87   10.60   1
 -20  18   1   34.09   11.14   1
 -21  18   1   62.35   11.36   1
 -22  18   1   47.29   10.71   1
 -23  18   1   90.34   11.68   1
 -25  18   1   32.46   11.00   1
 -26  18   1   59.41   11.44   1
 -29  18   1  103.96   12.96   1
 -30  18   1   48.76   11.79   1
 -34  18   1   30.24   11.96   1
 -34  17   1   17.70   10.88   1
 -33  17   1   41.15   13.11   1
 -29  17   1   16.25   10.94   1
 -28  17   1   97.52   12.10   1
 -27  17   1   28.40    9.71   1
 -26  17   1   51.35   11.54   1
 -25  17   1   75.65   12.31   1
 -24  17   1   54.35   11.33   1
 -23  17   1  118.70   12.72   1
 -22  17   1  128.34   12.21   1
 -21  17   1   53.86   10.89   1
 -20  17   1   21.94   10.51   1
 -19  17   1  224.26   14.11   1
 -18  17   1  150.24   12.39   1
 -17  17   1  162.57   12.09   1
 -16  17   1   28.09    9.11   1
 -15  17   1   47.93    9.60   1
 -13  17   1  112.80   10.68   1
 -12  17   1  114.69   10.90   1
 -11  17   1   78.49   10.54   1
 -10  17   1  319.82   13.69   1
  -9  17   1   57.66   10.18   1
  -8  17   1   66.70    9.55   1
  -7  17   1  316.34   13.40   1
  -6  17   1   83.21   10.24   1
  -5  17   1  113.75   10.58   1
  -4  17   1  118.57   11.16   1
  -3  17   1   37.62    9.26   1
  -2  17   1   56.86    9.58   1
  -1  17   1   19.11    9.23   1
   0  17   1  137.34   13.34   1
   1  17   1  150.76   12.65   1
   2  17   1  207.87   14.37   1
   3  17   1   16.99   11.84   1
   4  17   1   54.36   11.62   1
   5  17   1  103.34   12.82   1
   6  17   1  115.13   13.77   1
   7  17   1   45.81   11.40   1
   8  17   1   79.83   13.36   1
   9  17   1   55.12   12.47   1
  11  17   1   93.86   13.20   1
  12  17   1   12.40   11.46   1
  15  17   1   12.84   11.91   1
  16  17   1   46.54   13.13   1
  17  17   1   27.87   12.92   1
  18  16   1   36.36   13.08   1
  17  16   1   65.10   13.22   1
  16  16   1   23.83   12.46   1
  15  16   1    2.75   11.05   1
  14  16   1   80.56   13.35   1
  10  16   1   68.17   11.76   1
   9  16   1   47.13   10.82   1
   8  16   1   29.83   11.06   1
   7  16   1  126.37   12.37   1
   6  16   1    0.07   10.46   1
   5  16   1  195.43   14.73   1
   3  16   1  172.30   13.46   1
   2  16   1   66.05   10.77   1
  -1  16   1  217.01   12.80   1
  -2  16   1  143.36   11.90   1
  -3  16   1  496.21   15.90   1
  -4  16   1   41.41    8.56   1
  -5  16   1   81.80   10.05   1
  -6  16   1   36.32    9.31   1
  -7  16   1    8.81    8.57   1
  -9  16   1   19.31    8.91   1
 -10  16   1   49.61    9.86   1
 -11  16   1   81.95    9.85   1
 -12  16   1   30.75    8.71   1
 -13  16   1  473.90   15.61   1
 -14  16   1  147.35   11.47   1
 -15  16   1  215.98   12.76   1
 -17  16   1   18.31    9.79   1
 -18  16   1   59.89   10.01   1
 -19  16   1  163.74   13.00   1
 -21  16   1  211.06   13.79   1
 -23  16   1  132.36   12.84   1
 -24  16   1   34.64   11.13   1
 -25  16   1   55.91   11.26   1
 -26  16   1   58.65   11.19   1
 -27  16   1   23.53   10.96   1
 -30  16   1   85.34   11.84   1
 -32  16   1   11.15   11.15   1
 -33  16   1   65.49   12.46   1
 -34  16   1   35.16   11.07   1
 -35  15   1   51.80   11.96   1
 -32  15   1   13.38   11.80   1
 -30  15   1   15.47    9.86   1
 -29  15   1  175.04   13.72   1
 -28  15   1   32.56   10.69   1
 -25  15   1  139.07   12.89   1
 -23  15   1   48.67   10.89   1
 -21  15   1   97.11   12.46   1
 -19  15   1   80.25   11.41   1
 -18  15   1  292.37   14.52   1
 -17  15   1   52.35   10.20   1
 -16  15   1  207.15   12.45   1
 -15  15   1  605.78   17.75   1
 -14  15   1   62.92    9.32   1
 -12  15   1   14.70    8.55   1
 -11  15   1    9.11    8.20   1
 -10  15   1  170.80   11.28   1
  -9  15   1  195.36   11.19   1
  -8  15   1   38.70    8.48   1
  -7  15   1   39.15    8.48   1
  -6  15   1  203.55   11.35   1
  -5  15   1  157.44   11.09   1
  -3  15   1    5.87    7.88   1
  -2  15   1    7.90    7.95   1
  -1  15   1   51.40    9.36   1
   0  15   1  586.69   19.14   1
   1  15   1  215.23   13.85   1
   2  15   1   57.03   10.52   1
   3  15   1  277.78   15.13   1
   4  15   1   88.73   11.46   1
   6  15   1  110.27   12.93   1
   8  15   1   56.08   11.95   1
   9  15   1    4.25    9.51   1
  10  15   1  116.22   12.75   1
  12  15   1   18.17   10.94   1
  13  15   1   47.61   11.17   1
  14  15   1  174.04   14.34   1
  17  15   1   13.41   11.56   1
  19  15   1   38.51   12.06   1
  20  15   1   40.98   11.95   1
  21  14   1   18.45   10.65   1
  18  14   1   13.36   12.61   1
  16  14   1   66.95   13.28   1
  15  14   1  189.58   14.10   1
  14  14   1   47.74   10.39   1
  12  14   1   17.91   10.15   1
  11  14   1   28.89   10.54   1
  10  14   1   54.93   11.51   1
   9  14   1   27.35   10.33   1
   8  14   1  281.33   16.02   1
   7  14   1   64.81   11.35   1
   6  14   1   68.73   10.70   1
   5  14   1  181.53   12.94   1
   4  14   1  105.85   12.04   1
   2  14   1  108.92   11.82   1
   1  14   1   43.00   10.84   1
   0  14   1  174.03   12.48   1
  -2  14   1   36.09    8.54   1
  -3  14   1   58.58    8.28   1
  -4  14   1   69.59    8.34   1
  -5  14   1   37.26    7.99   1
  -6  14   1  484.20   14.37   1
  -7  14   1  119.94    9.82   1
  -8  14   1  486.72   14.53   1
  -9  14   1   31.86    8.72   1
 -10  14   1   68.00    9.02   1
 -11  14   1   51.71    9.67   1
 -12  14   1   46.15    8.88   1
 -14  14   1  172.11   11.48   1
 -15  14   1   50.76    8.72   1
 -16  14   1  132.92   10.95   1
 -17  14   1   29.03    8.56   1
 -18  14   1  130.66   10.31   1
 -19  14   1  185.36   12.29   1
 -20  14   1   80.52   10.43   1
 -21  14   1   75.26   10.23   1
 -22  14   1  255.76   14.45   1
 -23  14   1   27.71    9.63   1
 -24  14   1   72.27   10.97   1
 -25  14   1   35.64   10.13   1
 -27  14   1   19.65   10.65   1
 -28  14   1   36.45   10.74   1
 -29  14   1  182.30   13.83   1
 -30  14   1   80.26   12.11   1
 -31  14   1   14.46   10.67   1
 -32  14   1   23.96   11.18   1
 -33  14   1   54.26   11.74   1
 -34  14   1   13.61   10.71   1
 -35  14   1   17.59   10.50   1
 -34  13   1   14.12   10.46   1
 -33  13   1   58.03   12.23   1
 -32  13   1   13.08   11.25   1
 -28  13   1   42.93   10.55   1
 -27  13   1   17.15   10.71   1
 -26  13   1  205.75   14.41   1
 -25  13   1   19.20   10.23   1
 -24  13   1   13.59    9.98   1
 -23  13   1   52.04    9.52   1
 -22  13   1  164.07   12.32   1
 -20  13   1  185.71   12.03   1
 -19  13   1   25.03    8.92   1
 -18  13   1  191.83   11.81   1
 -17  13   1   93.71   10.23   1
 -16  13   1  510.61   15.69   1
 -13  13   1   29.77    8.47   1
 -12  13   1  339.43   13.61   1
 -11  13   1   18.64    8.20   1
 -10  13   1  223.20   10.79   1
  -9  13   1  107.48    9.58   1
  -8  13   1   17.17    7.81   1
  -7  13   1  129.11    9.96   1
  -6  13   1  136.68    9.34   1
  -5  13   1   29.61    7.58   1
  -4  13   1   99.50    8.99   1
  -3  13   1  230.46   10.99   1
  -2  13   1   14.56    8.01   1
  -1  13   1  360.02   13.69   1
   0  13   1   22.93    9.48   1
   3  13   1  485.61   16.88   1
   4  13   1  102.16   11.02   1
   5  13   1  184.47   12.85   1
   6  13   1   21.93    9.13   1
   7  13   1  158.74   12.34   1
   8  13   1   22.05    9.57   1
   9  13   1  153.84   12.26   1
  10  13   1   51.99    9.88   1
  13  13   1  196.71   14.09   1
  14  13   1   23.34    9.66   1
  15  13   1   37.77   11.77   1
  18  13   1    2.14   10.11   1
  20  13   1   37.62   12.91   1
  21  13   1   15.03   11.58   1
  22  12   1   14.44   10.05   1
  21  12   1   59.86   12.74   1
  20  12   1    0.01   10.06   1
  19  12   1   11.41   10.92   1
  18  12   1   59.61   12.27   1
  17  12   1    6.66    9.90   1
  15  12   1   20.92    9.34   1
  14  12   1    7.42    9.91   1
  11  12   1    7.93    7.97   1
  10  12   1   31.65   10.16   1
   8  12   1   60.48    9.34   1
   7  12   1   37.94   10.32   1
   6  12   1   47.12    9.02   1
   5  12   1  102.46   10.37   1
   4  12   1   30.72    9.05   1
   3  12   1    8.59    7.96   1
   2  12   1   40.36    9.01   1
   1  12   1  328.78   14.76   1
   0  12   1  190.19   11.64   1
  -1  12   1  524.10   14.78   1
  -2  12   1   46.49    8.22   1
  -3  12   1  351.17   11.41   1
  -4  12   1  734.76   15.10   1
  -5  12   1  414.72   11.66   1
  -6  12   1  299.91   10.62   1
  -7  12   1  415.37   11.85   1
  -8  12   1  753.55   15.26   1
  -9  12   1  349.88   11.76   1
 -10  12   1   59.33    8.78   1
 -11  12   1  541.80   14.43   1
 -12  12   1  219.92   11.21   1
 -13  12   1  343.11   13.60   1
 -14  12   1   34.84    8.65   1
 -15  12   1   15.97    8.49   1
 -16  12   1   17.46    8.79   1
 -17  12   1  101.80   11.07   1
 -18  12   1   41.72    9.35   1
 -19  12   1   50.84    9.28   1
 -20  12   1   49.56    9.59   1
 -22  12   1   32.94   10.90   1
 -23  12   1    7.72    9.62   1
 -25  12   1   27.93   10.46   1
 -26  12   1    8.04   10.15   1
 -29  12   1   15.78   11.27   1
 -30  12   1   43.12   10.83   1
 -33  12   1   68.31   12.95   1
 -34  12   1   16.22   10.79   1
 -30  11   1    0.12    9.49   1
 -29  11   1   64.42   11.36   1
 -28  11   1   98.20   11.17   1
 -26  11   1    6.59    9.27   1
 -24  11   1   11.54    9.98   1
 -23  11   1    4.93    9.32   1
 -22  11   1  492.31   17.67   1
 -18  11   1  398.90   15.50   1
 -17  11   1   85.43   10.01   1
 -16  11   1   74.80    9.55   1
 -15  11   1    7.13    7.96   1
 -14  11   1   55.63    9.00   1
 -13  11   1   20.27    8.32   1
 -12  11   1  577.61   15.29   1
 -11  11   1  310.72   11.67   1
  -9  11   1   74.69    8.34   1
  -8  11   1  283.85   10.85   1
  -7  11   1  240.05   10.34   1
  -6  11   1  375.59   11.37   1
  -5  11   1  365.77   11.20   1
  -4  11   1  240.40   10.08   1
  -3  11   1  281.66   10.50   1
  -2  11   1   80.48    8.09   1
  -1  11   1    1.13    6.76   1
   0  11   1  299.89   12.28   1
   1  11   1  549.60   16.35   1
   2  11   1   10.67    8.69   1
   3  11   1   40.01    9.80   1
   5  11   1   77.23   10.51   1
   6  11   1  102.55   10.30   1
   7  11   1  409.81   15.75   1
   9  11   1    0.31    8.09   1
  11  11   1  504.87   17.12   1
  13  11   1   15.67    9.52   1
  14  11   1   21.49    9.53   1
  16  11   1   32.01    9.96   1
  17  11   1  118.05   13.63   1
  18  11   1   65.10   12.22   1
  22  11   1   12.54   13.26   1
  23  11   1   10.20   11.11   1
  24  10   1   24.40   12.90   1
  21  10   1   18.08   12.62   1
  20  10   1   92.88   12.94   1
  19  10   1    0.02   10.58   1
  18  10   1   18.01   10.29   1
  17  10   1   22.33   10.41   1
  16  10   1   73.54   11.77   1
  15  10   1  115.55   13.15   1
  14  10   1   65.60   10.03   1
  13  10   1   40.19    9.69   1
  12  10   1   30.04    9.75   1
  10  10   1  317.52   14.07   1
   9  10   1  165.53   11.55   1
   8  10   1  161.78   11.69   1
   7  10   1  314.88   13.35   1
   6  10   1   48.64    9.28   1
   5  10   1  186.41   11.64   1
   4  10   1   41.39    8.67   1
   3  10   1  204.85   12.25   1
   2  10   1   51.04    9.44   1
  -1  10   1  392.52   12.36   1
  -2  10   1  108.18    8.14   1
  -3  10   1  379.10   11.04   1
  -4  10   1  180.02    8.75   1
  -5  10   1  231.60    9.33   1
  -6  10   1  178.27    8.62   1
  -7  10   1  408.12   11.28   1
  -8  10   1  108.26    8.77   1
  -9  10   1  383.44   11.99   1
 -12  10   1   56.89    8.76   1
 -13  10   1  246.29   11.72   1
 -14  10   1   43.74    9.13   1
 -15  10   1  193.83   11.51   1
 -16  10   1   39.42    9.65   1
 -17  10   1  342.03   13.62   1
 -18  10   1  171.74   11.64   1
 -19  10   1  165.84   11.87   1
 -20  10   1  311.52   14.23   1
 -21  10   1    2.56    7.56   1
 -22  10   1   42.37    9.89   1
 -23  10   1   41.43    9.46   1
 -24  10   1   67.16   11.52   1
 -25  10   1  128.43   11.62   1
 -26  10   1   72.58   11.30   1
 -27  10   1   29.48   10.24   1
 -30  10   1   95.82   12.03   1
 -33  10   1   29.19   11.38   1
 -34  10   1   31.04   12.00   1
 -32   9   1   22.32   12.49   1
 -30   9   1   51.11   10.78   1
 -29   9   1   67.41   11.72   1
 -28   9   1   43.24   11.53   1
 -27   9   1   21.32    9.99   1
 -26   9   1   46.58   10.34   1
 -25   9   1   47.23   11.80   1
 -24   9   1   10.41    9.99   1
 -23   9   1   30.05    9.86   1
 -22   9   1  133.02   13.21   1
 -21   9   1   40.26    9.17   1
 -19   9   1  167.18   11.41   1
 -18   9   1  183.46   11.42   1
 -17   9   1   65.13    9.31   1
 -16   9   1   29.39    8.10   1
 -15   9   1  178.31   11.04   1
 -14   9   1   33.87    8.90   1
 -13   9   1  122.61    9.84   1
 -12   9   1  319.15   11.92   1
 -11   9   1   70.62    8.70   1
 -10   9   1  378.74   12.12   1
  -9   9   1  306.97   10.78   1
  -8   9   1  397.86   11.04   1
  -7   9   1  123.00    8.22   1
  -6   9   1  190.62    8.87   1
  -5   9   1  253.15    9.25   1
  -4   9   1  233.94    9.06   1
  -3   9   1  190.74    8.80   1
  -2   9   1  117.12    7.99   1
  -1   9   1  384.19   11.55   1
   0   9   1  290.34   11.56   1
   1   9   1  368.52   13.24   1
   2   9   1   75.71    8.69   1
   3   9   1  325.37   12.57   1
   4   9   1  105.29   10.30   1
   5   9   1   32.16    8.89   1
   6   9   1  187.69   11.47   1
   8   9   1   70.15    8.84   1
   9   9   1  183.68   10.86   1
  10   9   1  166.23   11.49   1
  13   9   1  174.13   12.10   1
  16   9   1   50.26   10.46   1
  17   9   1   38.26   11.57   1
  19   9   1   40.63   11.49   1
  20   9   1   70.02   12.99   1
  21   9   1   42.71   11.25   1
  23   9   1   23.23   12.83   1
  25   8   1   20.71   13.29   1
  24   8   1   74.83   14.15   1
  22   8   1   17.48   12.10   1
  20   8   1   27.23   12.37   1
  19   8   1   68.61   12.05   1
  17   8   1   86.63   11.61   1
  16   8   1   35.89   10.70   1
  14   8   1  280.00   14.39   1
  13   8   1   20.80    9.49   1
  12   8   1   47.54    9.73   1
  10   8   1  164.87   10.84   1
   9   8   1   81.57    8.80   1
   8   8   1   12.82    7.68   1
   7   8   1   12.13    8.05   1
   6   8   1  474.75   14.25   1
   5   8   1   38.08    7.43   1
   4   8   1  708.67   16.54   1
   3   8   1  282.04   11.55   1
   2   8   1   95.73    9.11   1
   1   8   1  391.25   12.52   1
  -1   8   1   12.53    6.57   1
  -2   8   1   40.94    6.45   1
  -3   8   1  273.38    9.02   1
  -4   8   1   50.40    6.94   1
  -5   8   1  290.64    9.65   1
  -6   8   1   39.89    7.19   1
  -7   8   1   10.75    6.46   1
  -9   8   1  417.33   11.56   1
 -10   8   1  106.76    8.85   1
 -11   8   1  304.70   10.84   1
 -12   8   1  765.26   15.72   1
 -13   8   1   26.84    7.97   1
 -14   8   1  491.24   14.52   1
 -17   8   1   65.19    9.07   1
 -18   8   1  179.95   11.44   1
 -19   8   1   15.36    8.34   1
 -20   8   1   59.39    9.76   1
 -22   8   1  264.69   14.70   1
 -23   8   1   53.28   11.24   1
 -24   8   1   40.13   10.27   1
 -25   8   1   89.20   11.46   1
 -26   8   1   67.83   10.90   1
 -27   8   1   75.43   11.68   1
 -28   8   1   28.41    9.97   1
 -29   8   1   62.85   11.26   1
 -30   8   1   14.31   11.55   1
 -31   8   1   15.24   11.70   1
 -32   8   1   76.56   14.19   1
 -33   7   1   21.29   10.48   1
 -32   7   1    1.60   11.06   1
 -29   7   1   35.30   10.64   1
 -28   7   1  120.01   12.54   1
 -26   7   1   91.13   11.84   1
 -25   7   1   29.98   10.24   1
 -24   7   1   57.59   10.87   1
 -23   7   1  129.40   12.41   1
 -21   7   1   78.56   10.48   1
 -20   7   1  157.09   11.93   1
 -19   7   1   39.85    9.24   1
 -18   7   1  417.21   14.98   1
 -17   7   1  350.58   13.71   1
 -16   7   1   34.61    8.45   1
 -15   7   1   20.72    8.32   1
 -14   7   1  126.91    9.78   1
 -13   7   1  123.04   10.03   1
 -12   7   1  383.39   11.70   1
 -11   7   1  254.70   10.58   1
 -10   7   1  385.44   11.28   1
  -9   7   1  111.74    8.41   1
  -8   7   1    8.15    6.46   1
  -7   7   1  273.23    9.58   1
  -6   7   1  254.87    9.00   1
  -5   7   1  460.87   10.71   1
  -4   7   1  128.57    7.55   1
  -3   7   1  135.25    7.56   1
  -2   7   1  464.90   10.56   1
  -1   7   1  241.02    9.03   1
   0   7   1  266.14   10.36   1
   1   7   1   12.03    6.69   1
   2   7   1  120.10    8.82   1
   3   7   1  372.88   12.27   1
   4   7   1  235.47   10.59   1
   5   7   1  379.89   11.30   1
   6   7   1  119.75    9.40   1
   7   7   1  126.61    9.29   1
   8   7   1   14.57    7.17   1
  10   7   1  346.83   12.75   1
  11   7   1  398.41   14.49   1
  12   7   1   40.07    8.51   1
  13   7   1  168.98   11.86   1
  14   7   1   75.88   10.20   1
  16   7   1  119.55   12.20   1
  17   7   1   54.77   11.61   1
  18   7   1   32.96   10.91   1
  19   7   1   82.10   12.17   1
  21   7   1  124.47   13.96   1
  22   7   1   28.97   11.71   1
  27   6   1   48.59   12.06   1
  26   6   1   22.69   12.66   1
  21   6   1   20.55   11.49   1
  19   6   1   20.82   10.24   1
  18   6   1   11.67   10.83   1
  17   6   1  101.78   12.62   1
  15   6   1  108.59   10.90   1
  14   6   1   89.40   10.48   1
  12   6   1   38.69    9.33   1
  11   6   1  103.26    9.48   1
   9   6   1  186.69   10.08   1
   8   6   1  508.10   13.73   1
   7   6   1  119.90    9.45   1
   6   6   1  270.12   10.02   1
   5   6   1  381.46   10.68   1
   4   6   1  191.63    8.81   1
   3   6   1  180.25    9.20   1
   2   6   1   33.91    7.01   1
   1   6   1  236.83    9.69   1
   0   6   1  526.09   12.43   1
  -1   6   1 1449.38   28.75   1
  -2   6   1  739.10   14.86   1
  -3   6   1  713.47   13.14   1
  -4   6   1  766.31   13.86   1
  -5   6   1 1460.14   27.72   1
  -6   6   1  486.00   11.26   1
  -7   6   1  247.38    9.13   1
  -8   6   1   32.33    6.90   1
  -9   6   1  178.30    8.73   1
 -10   6   1  201.80    8.96   1
 -11   6   1  360.50   11.27   1
 -12   6   1  283.12   10.83   1
 -13   6   1  145.59    9.39   1
 -14   6   1  504.58   14.42   1
 -15   6   1  191.08   11.22   1
 -16   6   1   36.55    8.81   1
 -17   6   1  101.68   10.28   1
 -18   6   1   44.08    9.48   1
 -19   6   1   14.92    9.11   1
 -20   6   1   69.84   10.13   1
 -21   6   1  107.53   11.10   1
 -23   6   1  125.52   12.22   1
 -25   6   1   26.26   10.26   1
 -26   6   1    0.81   10.04   1
 -27   6   1   33.27   10.64   1
 -30   6   1   31.99   12.27   1
 -32   6   1   30.04   12.25   1
 -33   6   1   41.82   11.65   1
 -32   5   1   24.00   12.88   1
 -30   5   1   28.73   11.90   1
 -29   5   1   91.98   13.55   1
 -24   5   1    0.17    8.95   1
 -23   5   1   91.43   10.98   1
 -22   5   1  106.83   11.82   1
 -21   5   1  222.24   13.31   1
 -19   5   1  178.17   12.03   1
 -18   5   1  193.61   11.44   1
 -17   5   1  131.02    9.65   1
 -16   5   1   79.30    9.50   1
 -15   5   1  186.73   10.81   1
 -14   5   1   36.06    8.29   1
 -13   5   1   37.37    8.17   1
 -12   5   1  391.73   11.60   1
 -11   5   1  352.64   11.37   1
 -10   5   1  231.45    9.39   1
  -9   5   1  237.63    9.40   1
  -8   5   1  256.15    9.28   1
  -7   5   1  456.57   10.74   1
  -6   5   1 1482.18   27.91   1
  -5   5   1 1593.87   28.52   1
  -4   5   1   28.91    6.83   1
  -3   5   1  177.45    8.14   1
  -2   5   1  177.88    7.63   1
  -1   5   1   34.57    6.78   1
   0   5   1 1660.98   32.36   1
   1   5   1 1487.81   31.60   1
   2   5   1  442.43   11.41   1
   3   5   1  249.33    9.74   1
   4   5   1  228.07    8.69   1
   5   5   1  212.12    8.83   1
   6   5   1  362.38   10.61   1
   7   5   1  391.21   10.53   1
   8   5   1   36.11    7.20   1
   9   5   1   37.51    7.66   1
  10   5   1  186.54   10.17   1
  11   5   1   75.24    8.53   1
  12   5   1  117.32    9.36   1
  13   5   1  207.06   11.42   1
  14   5   1  186.13   12.71   1
  15   5   1    9.95    9.12   1
  16   5   1  204.51   13.26   1
  17   5   1   96.19   12.28   1
  18   5   1  111.71   11.59   1
  24   5   1  120.82   14.17   1
  25   5   1   50.11   12.15   1
  27   5   1   30.13   13.40   1
  28   4   1    4.98   11.55   1
  27   4   1   88.67   15.28   1
  25   4   1    1.52   11.48   1
  23   4   1   71.85   12.92   1
  21   4   1  219.02   14.43   1
  20   4   1   74.36   12.15   1
  18   4   1   50.28   11.23   1
  17   4   1   61.07   12.73   1
  15   4   1   89.62    9.99   1
  14   4   1   99.68   10.28   1
  13   4   1  112.74   10.14   1
  12   4   1   21.91    8.04   1
  11   4   1   16.86    7.68   1
  10   4   1   57.36    8.15   1
   9   4   1  106.63    8.76   1
   8   4   1  716.53   15.44   1
   7   4   1  252.98    9.50   1
   6   4   1  190.31    8.11   1
   5   4   1  235.58    8.47   1
   4   4   1   79.46    6.99   1
   3   4   1  140.65    7.42   1
   2   4   1  743.98   16.11   1
   1   4   1   31.40    7.13   1
  -1   4   1   68.62    7.33   1
  -2   4   1 1807.04   32.77   1
  -3   4   1   73.65    7.02   1
  -5   4   1   42.87    7.03   1
  -6   4   1  739.06   14.72   1
  -7   4   1  154.73    8.03   1
  -8   4   1   85.77    7.02   1
  -9   4   1  228.59    9.06   1
 -10   4   1  177.44    8.93   1
 -11   4   1  256.19    9.87   1
 -12   4   1  741.51   15.30   1
 -13   4   1   92.83    9.39   1
 -14   4   1   45.99    8.63   1
 -16   4   1   22.00    8.23   1
 -17   4   1  127.31   10.62   1
 -18   4   1  115.56   10.13   1
 -19   4   1   89.42    9.90   1
 -21   4   1   53.43   11.23   1
 -22   4   1   25.67   10.55   1
 -24   4   1   59.51   11.51   1
 -25   4   1  208.27   14.30   1
 -27   4   1   62.01   11.84   1
 -30   4   1   74.86   13.91   1
 -31   4   1   82.62   13.13   1
 -32   4   1    1.61   11.32   1
 -32   3   1   21.00   11.82   1
 -31   3   1   38.79   12.29   1
 -30   3   1    3.56   10.86   1
 -27   3   1   49.36   12.90   1
 -26   3   1   11.02   10.96   1
 -25   3   1   13.73   10.99   1
 -24   3   1   86.89   11.65   1
 -23   3   1   57.85   12.05   1
 -22   3   1  162.19   12.62   1
 -21   3   1   48.65   10.43   1
 -20   3   1   40.01    9.97   1
 -19   3   1  159.66   11.47   1
 -18   3   1  298.52   13.50   1
 -17   3   1   33.41    8.34   1
 -16   3   1  482.25   15.73   1
 -14   3   1   41.58    8.62   1
 -13   3   1  238.07   11.02   1
 -12   3   1  321.81   11.26   1
 -11   3   1  301.78   10.43   1
 -10   3   1  380.40   11.20   1
  -9   3   1  191.58    8.60   1
  -8   3   1  255.41    9.12   1
  -7   3   1  147.55    7.93   1
  -6   3   1  701.69   13.87   1
  -5   3   1  186.92    8.65   1
  -4   3   1   67.59    7.49   1
  -3   3   1   29.26    6.91   1
  -2   3   1   55.53    6.71   1
  -1   3   1   54.36    7.16   1
   0   3   1   35.15    7.61   1
   1   3   1   74.12    7.47   1
   2   3   1  186.70    8.24   1
   3   3   1  690.16   15.47   1
   4   3   1  151.59    7.13   1
   5   3   1  265.89    8.29   1
   6   3   1  186.25    8.05   1
   7   3   1  371.90   10.30   1
   8   3   1  286.69    9.75   1
   9   3   1  323.76   10.92   1
  10   3   1  212.58   10.61   1
  11   3   1   58.46    8.56   1
  13   3   1  467.50   15.80   1
  14   3   1   17.40    8.69   1
  15   3   1  303.34   13.94   1
  16   3   1  158.33   12.23   1
  17   3   1   26.06    9.97   1
  18   3   1   70.49   12.07   1
  19   3   1  163.15   14.01   1
  20   3   1   70.49   11.45   1
  21   3   1  126.37   13.28   1
  22   3   1    7.94   10.18   1
  24   3   1   44.88   12.76   1
  28   3   1   15.13   14.27   1
  29   3   1   16.47   13.12   1
  27   2   1   17.07   12.61   1
  26   2   1   35.54   13.76   1
  25   2   1   83.55   14.05   1
  21   2   1   53.88   12.60   1
  20   2   1   28.57   11.85   1
  19   2   1  118.25   12.19   1
  18   2   1   42.37   11.34   1
  17   2   1  223.40   13.93   1
  16   2   1   74.50   10.45   1
  15   2   1   49.56    9.38   1
  14   2   1  130.34   10.44   1
  12   2   1   38.00    8.54   1
  11   2   1   16.69    6.93   1
  10   2   1   74.32    8.21   1
   9   2   1   78.53    7.56   1
   8   2   1  111.51    7.37   1
   7   2   1  121.66    7.05   1
   6   2   1   45.41    5.85   1
   5   2   1  457.25    9.53   1
   4   2   1  756.90   13.78   1
   3   2   1  195.61    7.35   1
   2   2   1 1694.01   34.13   1
   1   2   1   46.43    7.41   1
   0   2   1  128.48    8.51   1
  -1   2   1  549.87   12.47   1
  -2   2   1  123.68    7.43   1
  -3   2   1   58.28    7.35   1
  -4   2   1 1747.41   27.59   1
  -5   2   1  190.39    8.30   1
  -6   2   1  763.98   13.98   1
  -7   2   1  443.38   10.43   1
  -8   2   1   34.13    6.71   1
  -9   2   1  113.32    8.06   1
 -10   2   1   95.48    8.32   1
 -11   2   1   86.52    9.20   1
 -12   2   1   45.61    8.53   1
 -13   2   1   20.06    8.31   1
 -14   2   1   38.33    8.84   1
 -16   2   1  125.60   11.45   1
 -17   2   1   38.42    8.58   1
 -18   2   1   90.48    9.91   1
 -19   2   1  221.92   14.13   1
 -21   2   1  102.14   12.25   1
 -22   2   1   37.01   10.96   1
 -23   2   1   57.66   10.67   1
 -27   2   1   79.35   12.78   1
 -28   2   1   59.10   13.64   1
 -29   2   1   20.30   12.45   1
 -31   1   1   14.47   12.29   1
 -30   1   1   32.75   12.94   1
 -28   1   1   44.24   13.31   1
 -27   1   1   12.73   11.98   1
 -24   1   1   75.46   12.74   1
 -22   1   1   82.09   12.47   1
 -20   1   1   58.96   11.97   1
 -19   1   1   48.83   10.63   1
 -18   1   1  163.58   12.49   1
 -16   1   1  218.05   12.31   1
 -15   1   1   44.18    9.41   1
 -13   1   1  340.32   13.20   1
 -12   1   1  557.64   14.96   1
 -11   1   1    6.86    6.65   1
 -10   1   1  381.29   11.45   1
  -9   1   1  401.23   11.27   1
  -8   1   1    9.39    6.20   1
  -7   1   1  241.98    9.02   1
  -6   1   1 1475.32   28.27   1
  -5   1   1   30.12    6.85   1
  -4   1   1   63.09    7.58   1
  -3   1   1   59.20    7.67   1
  -2   1   1  565.52   11.53   1
  -1   1   1   43.13    6.93   1
   0   1   1   46.53    7.92   1
   1   1   1  557.42   12.93   1
   2   1   1   56.33    6.24   1
   3   1   1   70.09    6.26   1
   4   1   1   32.15    5.72   1
   5   1   1 1480.55   24.88   1
   6   1   1  246.27    7.80   1
   7   1   1   12.91    5.45   1
   8   1   1  390.21   10.61   1
   9   1   1  380.76   10.88   1
  11   1   1  552.95   14.12   1
  12   1   1  334.59   13.19   1
  14   1   1   43.75    9.46   1
  15   1   1  222.13   11.85   1
  17   1   1  156.52   12.74   1
  19   1   1   41.69   10.90   1
  20   1   1   18.07    9.49   1
  21   1   1   79.96   12.68   1
  22   1   1   18.10   10.59   1
  23   1   1   65.30   12.47   1
  24   1   1   11.22   10.41   1
  26   1   1   22.97   11.65   1
  27   1   1   41.23   13.96   1
  28   1   1   38.84   13.46   1
  29   1   1   29.14   13.40   1
  30   0   1    3.39   12.27   1
  28   0   1   23.51   13.58   1
  27   0   1   50.02   13.30   1
  26   0   1  116.72   14.54   1
  25   0   1   97.99   14.04   1
  24   0   1  121.00   13.85   1
  23   0   1  188.23   15.00   1
  21   0   1    3.07   10.67   1
  20   0   1  124.57   11.67   1
  19   0   1   65.09   11.56   1
  18   0   1   18.59   10.01   1
  17   0   1  147.81   11.81   1
  15   0   1  602.46   18.22   1
  14   0   1  201.41   11.49   1
  13   0   1   20.88    8.33   1
  12   0   1  200.37   10.90   1
  11   0   1  310.33   10.73   1
   9   0   1  298.35    9.98   1
   7   0   1  275.79    8.67   1
   6   0   1  483.44   10.24   1
   5   0   1 1545.41   26.12   1
   3   0   1   34.88    5.94   1
   2   0   1  130.49    6.66   1
   1   0   1   55.69    6.49   1
   0   0   1   16.49    7.69   1
  -1   0   1   45.64    7.10   1
  -2   0   1  127.46    8.11   1
  -3   0   1   31.19    7.28   1
  -5   0   1 1504.58   29.03   1
  -6   0   1  487.72   11.37   1
  -7   0   1  274.80    9.32   1
  -9   0   1  287.58   10.71   1
 -10   0   1    1.91    6.75   1
 -11   0   1  293.09   11.30   1
 -12   0   1  207.98   11.74   1
 -13   0   1   23.00    8.73   1
 -14   0   1  194.34   11.36   1
 -15   0   1  597.20   18.61   1
 -17   0   1  139.26   12.40   1
 -18   0   1   22.02   10.67   1
 -19   0   1   59.31   11.41   1
 -20   0   1  120.55   12.48   1
 -22   0   1    1.46   10.12   1
 -23   0   1  180.30   15.39   1
 -24   0   1  101.01   14.94   1
 -25   0   1   92.67   14.21   1
 -26   0   1  105.77   12.48   1
 -27   0   1   36.35   13.62   1
 -28   0   1   18.56   12.23   1
 -29   0   2  100.54   15.57   1
 -24   0   2    8.88   12.48   1
 -23   0   2  146.30   13.94   1
 -21   0   2   79.82   14.05   1
 -20   0   2   19.97   11.61   1
 -19   0   2   29.39   11.15   1
 -18   0   2   13.14   10.99   1
 -16   0   2    0.20    9.08   1
 -14   0   2   92.65   10.91   1
 -13   0   2  248.48   13.89   1
 -12   0   2  123.15   12.03   1
 -11   0   2   74.24   10.40   1
 -10   0   2  288.20   14.10   1
  -9   0   2  112.43   11.05   1
  -8   0   2   11.42    7.97   1
  -6   0   2  749.06   15.28   1
  -5   0   2    7.71    7.57   1
  -4   0   2  109.64    9.25   1
  -3   0   2  245.08   10.12   1
   0   0   214430.33  113.56   1
   3   0   2  237.81    9.82   1
   4   0   2  106.98    7.98   1
   6   0   2  750.65   14.26   1
   8   0   2   10.00    6.41   1
   9   0   2  132.59    9.91   1
  10   0   2  287.69   13.42   1
  11   0   2   66.86    9.26   1
  12   0   2  147.71   10.88   1
  13   0   2  224.75   13.54   1
  14   0   2  100.75   10.49   1
  15   0   2   24.73   10.59   1
  19   0   2   31.01   11.30   1
  21   0   2   86.38   13.33   1
  23   0   2  121.73   14.51   1
  26   0   2    3.86   13.66   1
  29   0   2   83.36   15.76   1
  27   1   2    3.29   12.11   1
  26   1   2   38.07   13.54   1
  25   1   2   23.70   11.86   1
  24   1   2   32.83   13.46   1
  23   1   2   13.02   11.07   1
  22   1   2    8.54   10.93   1
  20   1   2  109.08   13.99   1
  19   1   2   87.41   13.63   1
  18   1   2   53.82   10.93   1
  17   1   2  146.42   13.30   1
  16   1   2   57.12   10.49   1
  14   1   2  306.21   14.68   1
  13   1   2   19.60    8.43   1
  12   1   2  328.81   13.86   1
  11   1   2  612.98   16.77   1
  10   1   2   33.01    8.36   1
   9   1   2   58.20    8.56   1
   8   1   2  216.95    9.29   1
   7   1   2   41.37    7.24   1
   6   1   2  511.28   12.45   1
   5   1   2   24.97    6.59   1
   4   1   2  380.99   11.24   1
   3   1   2   40.62    7.24   1
   2   1   2   56.89    7.77   1
   1   1   2    7.71    6.89   1
  -2   1   2   12.28    7.04   1
  -3   1   2   72.54    7.96   1
  -4   1   2   52.39    7.89   1
  -5   1   2  398.34   12.10   1
  -6   1   2   32.58    7.90   1
  -7   1   2  510.42   14.01   1
  -8   1   2   55.97    8.79   1
  -9   1   2  206.10   11.00   1
 -10   1   2   53.13    9.72   1
 -12   1   2  614.54   17.25   1
 -13   1   2  318.87   14.24   1
 -14   1   2   20.95    9.24   1
 -15   1   2  303.89   14.56   1
 -17   1   2   46.31    9.90   1
 -18   1   2  171.47   13.55   1
 -19   1   2   58.44   10.96   1
 -20   1   2   78.16   12.97   1
 -21   1   2  114.64   14.45   1
 -25   1   2   45.74   12.76   1
 -26   1   2   15.62   10.86   1
 -27   1   2   46.53   12.60   1
 -30   2   2   19.81   11.80   1
 -29   2   2   20.80   11.37   1
 -27   2   2  113.14   14.47   1
 -25   2   2   15.06   10.95   1
 -24   2   2   46.63   11.48   1
 -23   2   2   81.16   13.10   1
 -21   2   2  196.72   14.31   1
 -20   2   2   45.97   12.10   1
 -19   2   2  147.97   13.69   1
 -18   2   2  203.15   13.96   1
 -17   2   2   33.82    9.95   1
 -15   2   2   22.15    9.11   1
 -14   2   2   40.74    9.95   1
 -13   2   2  232.37   12.69   1
 -12   2   2  175.81   11.68   1
 -11   2   2  102.17   10.53   1
 -10   2   2  133.11   10.94   1
  -9   2   2  191.34   10.52   1
  -8   2   2  288.13   11.50   1
  -7   2   2  192.72   10.30   1
  -6   2   2   41.03    8.13   1
  -4   2   2   76.58    8.09   1
  -3   2   2   67.58    7.54   1
   0   2   2    3.29    7.04   1
   1   2   2   67.66    7.93   1
   2   2   2   71.23    8.17   1
   3   2   2   13.36    6.72   1
   4   2   2   42.01    7.27   1
   5   2   2  183.40    9.50   1
   6   2   2  278.94   10.61   1
   7   2   2  199.43    9.67   1
   8   2   2  131.91    9.87   1
   9   2   2  112.78    9.70   1
  10   2   2  168.39   10.32   1
  11   2   2  222.06   11.95   1
  12   2   2   57.49    9.12   1
  13   2   2   15.78    8.64   1
  14   2   2    0.22    8.55   1
  15   2   2   29.74   10.75   1
  16   2   2  209.93   13.03   1
  17   2   2  133.97   13.64   1
  18   2   2   47.15   11.26   1
  19   2   2  193.35   15.14   1
  20   2   2   36.12   10.87   1
  21   2   2   78.34   13.12   1
  22   2   2   33.69   12.63   1
  24   2   2    0.87   11.33   1
  25   2   2  115.07   15.89   1
  26   2   2   67.39   13.75   1
  28   2   2   14.93   13.58   1
  27   3   2   24.54   13.19   1
  25   3   2   25.29   13.81   1
  24   3   2    1.88   10.61   1
  23   3   2   53.55   12.85   1
  22   3   2  110.52   14.51   1
  21   3   2   21.56   11.79   1
  20   3   2   23.68   10.79   1
  19   3   2   81.80   12.24   1
  18   3   2   61.46   12.47   1
  16   3   2   19.96    8.87   1
  15   3   2   62.68   10.70   1
  14   3   2   84.25   10.49   1
  13   3   2  150.76   11.38   1
  12   3   2    2.53    8.38   1
  11   3   2  113.52   10.16   1
  10   3   2  285.67   12.84   1
   9   3   2   41.38    8.49   1
   8   3   2  318.66   12.51   1
   7   3   2  196.70    9.88   1
   6   3   2  188.06    9.79   1
   5   3   2  531.54   14.38   1
   4   3   2  650.65   14.89   1
   3   3   2   93.99    8.43   1
   2   3   2    8.96    6.79   1
   1   3   2   32.87    7.78   1
   0   3   2  233.10   10.57   1
  -1   3   2   71.66    8.61   1
  -2   3   2   67.98    8.21   1
  -3   3   2  223.25    9.95   1
  -4   3   2   36.10    7.74   1
  -5   3   2   18.10    7.36   1
  -6   3   2   98.55    9.05   1
  -7   3   2  658.51   15.02   1
  -8   3   2  543.06   14.60   1
  -9   3   2  193.69   11.12   1
 -10   3   2  202.43   10.92   1
 -11   3   2  310.40   13.66   1
 -12   3   2   44.66    9.28   1
 -13   3   2  290.51   13.47   1
 -14   3   2  103.17   10.47   1
 -15   3   2    8.68    8.64   1
 -16   3   2  141.04   12.57   1
 -17   3   2   89.80   11.78   1
 -18   3   2   95.60   11.21   1
 -19   3   2   39.20   10.40   1
 -21   3   2   56.92   11.51   1
 -22   3   2   70.31   12.40   1
 -23   3   2   32.86   11.66   1
 -25   3   2  124.93   14.38   1
 -26   3   2   59.39   12.84   1
 -28   3   2   19.90   13.92   1
 -30   3   2   33.34   12.69   1
 -30   4   2   30.61   13.30   1
 -29   4   2    4.77   12.61   1
 -26   4   2   61.25   12.82   1
 -25   4   2   63.11   11.05   1
 -24   4   2   28.27   10.60   1
 -23   4   2   33.06   11.26   1
 -22   4   2   77.08   13.43   1
 -21   4   2   24.49   10.74   1
 -20   4   2   74.79   11.51   1
 -19   4   2   71.31   11.26   1
 -18   4   2   13.49    9.43   1
 -17   4   2  149.16   12.19   1
 -16   4   2  242.39   14.19   1
 -15   4   2  196.36   12.16   1
 -14   4   2   64.78   10.14   1
 -13   4   2   32.51   10.00   1
 -12   4   2    8.47    8.36   1
 -11   4   2  265.64   13.16   1
 -10   4   2  155.81   10.61   1
  -9   4   2  152.16   10.37   1
  -8   4   2  573.46   15.04   1
  -7   4   2  647.39   15.44   1
  -5   4   2  403.88   11.57   1
  -4   4   2  100.13    8.15   1
  -3   4   2   45.60    7.08   1
  -2   4   2   83.22    8.68   1
  -1   4   2   32.12    8.09   1
   0   4   2  103.63    8.70   1
   1   4   2  391.40   12.42   1
   2   4   2   49.06    7.44   1
   3   4   2  668.06   15.38   1
   4   4   2  548.74   14.83   1
   5   4   2  140.17    9.87   1
   6   4   2  155.05   10.07   1
   7   4   2  251.98   12.15   1
   9   4   2   35.32    8.61   1
  10   4   2   64.86    9.54   1
  11   4   2  179.31   12.62   1
  12   4   2  251.55   13.46   1
  13   4   2  153.51   11.94   1
  14   4   2    9.43    8.75   1
  15   4   2   62.45   10.21   1
  16   4   2   89.87   11.75   1
  18   4   2   71.48   12.65   1
  19   4   2   46.95   11.75   1
  21   4   2   70.87   13.96   1
  22   4   2   42.49   13.01   1
  23   4   2   25.57   12.60   1
  27   4   2   23.77   13.88   1
  23   5   2   23.51   11.77   1
  22   5   2   38.60   13.06   1
  20   5   2   71.68   12.43   1
  19   5   2   41.43   11.25   1
  17   5   2   82.10   12.24   1
  16   5   2   42.11   10.67   1
  15   5   2  164.23   13.27   1
  14   5   2   77.03   10.73   1
  13   5   2   11.15    9.71   1
  12   5   2   89.98   11.52   1
  11   5   2  114.30   10.59   1
  10   5   2  191.61   12.75   1
   9   5   2  181.53   11.72   1
   8   5   2  109.22   10.22   1
   7   5   2   62.41    9.92   1
   6   5   2  156.80   11.17   1
   5   5   2  423.29   14.33   1
   4   5   2  150.71    9.58   1
   3   5   2  530.45   14.71   1
   2   5   2  178.56   10.22   1
   1   5   2   20.43    7.59   1
  -1   5   2  380.95   12.62   1
  -3   5   2   16.83    7.25   1
  -4   5   2  383.78   11.64   1
  -6   5   2   22.02    7.18   1
  -7   5   2  202.22   10.10   1
  -8   5   2  520.70   13.63   1
  -9   5   2  142.64   10.19   1
 -10   5   2  436.50   14.12   1
 -11   5   2  148.81   11.10   1
 -12   5   2   60.21    9.29   1
 -13   5   2   92.93   10.35   1
 -14   5   2  177.65   11.96   1
 -15   5   2  203.11   12.78   1
 -16   5   2  108.18   10.81   1
 -17   5   2   86.35   10.39   1
 -18   5   2   18.47    9.46   1
 -19   5   2   75.81   10.90   1
 -20   5   2  165.11   12.82   1
 -21   5   2   35.12   10.57   1
 -22   5   2   86.10   11.81   1
 -23   5   2    3.35   10.35   1
 -24   5   2   48.55   10.72   1
 -25   5   2   65.98   11.98   1
 -27   5   2   41.21   12.43   1
 -30   5   2   39.46   12.28   1
 -29   6   2   60.63   13.46   1
 -28   6   2  110.41   14.91   1
 -27   6   2   11.15   10.77   1
 -26   6   2   10.51    9.85   1
 -25   6   2   98.37   11.92   1
 -23   6   2   77.56   11.92   1
 -22   6   2   45.70   11.46   1
 -21   6   2   64.31   10.34   1
 -20   6   2   38.06    9.47   1
 -18   6   2  239.57   13.85   1
 -17   6   2  151.02   11.37   1
 -16   6   2  595.87   18.41   1
 -15   6   2   82.45   10.12   1
 -13   6   2   56.24    9.58   1
 -12   6   2  128.28   11.22   1
 -11   6   2  167.05   11.25   1
 -10   6   2  165.45   10.88   1
  -9   6   2  188.87   11.07   1
  -8   6   2  269.63   12.00   1
  -7   6   2  520.86   13.21   1
  -6   6   2  757.53   14.66   1
  -5   6   2   21.35    7.23   1
  -4   6   2   43.52    7.22   1
  -3   6   2   97.29    8.10   1
  -2   6   2   31.18    7.93   1
  -1   6   2   28.48    7.23   1
   0   6   2  733.63   17.04   1
   1   6   2  497.97   14.10   1
   2   6   2  282.74   11.27   1
   3   6   2  181.71   10.48   1
   4   6   2  148.77    9.92   1
   5   6   2  157.70   10.78   1
   6   6   2  130.97   10.84   1
   7   6   2   59.06    9.83   1
   8   6   2    7.82    7.92   1
   9   6   2   81.01    9.53   1
  10   6   2  603.09   17.85   1
  11   6   2  161.75   12.11   1
  12   6   2  217.31   13.73   1
  14   6   2   24.83    9.60   1
  15   6   2   50.72   11.05   1
  16   6   2   52.87   10.86   1
  17   6   2   60.39   12.70   1
  18   6   2   11.38   10.51   1
  19   6   2  100.85   12.13   1
  20   6   2   15.05   10.16   1
  22   6   2  117.42   14.48   1
  23   6   2   71.45   14.14   1
  22   7   2   17.55   12.35   1
  20   7   2   36.31   12.17   1
  17   7   2   63.05   11.72   1
  16   7   2   35.19   10.91   1
  15   7   2   30.68   10.96   1
  14   7   2  122.04   12.80   1
  13   7   2   73.39   11.16   1
  12   7   2   11.71    9.10   1
  11   7   2   60.78   10.16   1
   9   7   2  257.51   13.60   1
   8   7   2  139.63   10.97   1
   7   7   2   24.05    8.96   1
   6   7   2   57.74    9.55   1
   5   7   2   74.11    9.66   1
   4   7   2  249.28   12.56   1
   3   7   2  181.51   10.95   1
   2   7   2  184.30   10.57   1
   1   7   2   49.23    8.39   1
  -1   7   2  507.26   14.27   1
  -2   7   2  190.42   10.30   1
  -3   7   2  654.00   14.67   1
  -4   7   2  682.93   14.03   1
  -5   7   2  202.74    9.57   1
  -6   7   2  537.90   13.13   1
  -7   7   2   14.84    7.50   1
  -8   7   2   51.60    8.37   1
  -9   7   2  202.09   10.88   1
 -10   7   2  203.60   10.82   1
 -11   7   2  259.40   12.80   1
 -12   7   2   72.07    9.98   1
 -13   7   2   62.30    9.92   1
 -14   7   2   33.43    9.30   1
 -15   7   2  144.88   10.87   1
 -16   7   2  273.95   13.56   1
 -18   7   2   66.37    9.88   1
 -19   7   2   14.79    8.88   1
 -20   7   2  111.95   11.97   1
 -21   7   2  137.27   11.92   1
 -22   7   2   35.24   10.19   1
 -24   7   2   69.00   11.41   1
 -26   7   2    3.03    9.00   1
 -27   7   2   34.05   11.54   1
 -32   7   2   21.79   12.88   1
 -33   8   2   20.65   12.21   1
 -28   8   2   41.16   12.00   1
 -27   8   2   85.84   12.03   1
 -26   8   2   10.08   11.13   1
 -23   8   2   32.42   11.38   1
 -22   8   2   78.79   11.81   1
 -21   8   2   86.20   12.22   1
 -20   8   2   11.41    9.74   1
 -19   8   2   12.96    9.66   1
 -18   8   2   29.22    9.46   1
 -17   8   2  136.98   11.84   1
 -16   8   2  201.56   12.74   1
 -15   8   2  152.53   11.67   1
 -13   8   2   92.22   10.19   1
 -11   8   2  309.25   13.59   1
 -10   8   2  131.79   11.01   1
  -9   8   2  201.34   11.16   1
  -7   8   2   57.90    8.59   1
  -6   8   2  311.25   11.14   1
  -5   8   2  528.08   12.93   1
  -4   8   2  548.87   13.82   1
  -3   8   2  489.01   14.03   1
  -2   8   2  303.16   12.02   1
  -1   8   2   36.53    8.11   1
   1   8   2  196.59   10.96   1
   2   8   2  108.84   10.72   1
   3   8   2  320.95   13.77   1
   5   8   2   96.10   10.36   1
   6   8   2   10.56    7.80   1
   7   8   2  143.80   11.41   1
   8   8   2  205.85   12.61   1
   9   8   2  111.48   11.82   1
  10   8   2   25.11    9.27   1
  11   8   2   11.72    9.15   1
  12   8   2   17.03    9.95   1
  13   8   2   85.23   12.13   1
  14   8   2   78.87   12.82   1
  15   8   2   45.76   10.59   1
  19   8   2  109.78   14.12   1
  20   8   2   64.92   13.27   1
  21   8   2    2.57   10.29   1
  22   8   2   14.40   12.46   1
  23   8   2    0.56   12.12   1
  25   8   2    8.98   11.91   1
  24   9   2    2.08   12.39   1
  21   9   2   47.65   15.10   1
  19   9   2   16.12   11.84   1
  18   9   2   32.13   12.87   1
  17   9   2   33.81   11.62   1
  15   9   2  513.86   20.18   1
  14   9   2   41.65   11.43   1
  13   9   2    0.27   10.84   1
  12   9   2   91.94   11.82   1
  11   9   2   93.97   12.36   1
  10   9   2   14.76    9.78   1
   9   9   2  166.30   13.40   1
   8   9   2  133.50   11.39   1
   7   9   2  256.32   13.86   1
   6   9   2   67.39    9.73   1
   5   9   2  198.30   11.92   1
   4   9   2   34.14    9.43   1
   3   9   2   36.27    8.79   1
   2   9   2  107.58   10.65   1
   1   9   2   50.78    9.53   1
   0   9   2  133.63   10.85   1
  -1   9   2  211.77   11.61   1
  -2   9   2  173.47   10.45   1
  -3   9   2  193.47   10.67   1
  -4   9   2  156.43    9.32   1
  -5   9   2  151.12    9.48   1
  -6   9   2  208.84   10.45   1
  -7   9   2  181.63   10.29   1
  -8   9   2  218.25   11.06   1
  -9   9   2  120.84   10.76   1
 -10   9   2   70.52   10.21   1
 -11   9   2  111.40   11.10   1
 -12   9   2   44.87    9.41   1
 -13   9   2   31.26   10.34   1
 -14   9   2  188.68   12.64   1
 -15   9   2   72.36   10.87   1
 -16   9   2  258.51   13.96   1
 -17   9   2  124.41   11.69   1
 -18   9   2  200.99   12.96   1
 -19   9   2   11.04    9.97   1
 -20   9   2  113.83   12.01   1
 -21   9   2  119.37   11.29   1
 -22   9   2    4.32    9.57   1
 -23   9   2   56.23   10.91   1
 -24   9   2  494.99   19.50   1
 -26   9   2   35.44   11.53   1
 -27   9   2   34.35   11.87   1
 -28   9   2   15.21   10.73   1
 -30   9   2   63.31   14.66   1
 -32   9   2   21.71   13.26   1
 -32  10   2   24.75   12.47   1
 -31  10   2   44.86   12.47   1
 -30  10   2   19.93   13.97   1
 -29  10   2  116.09   13.85   1
 -28  10   2   17.00   10.69   1
 -26  10   2   30.69   10.34   1
 -25  10   2   17.81   10.98   1
 -23  10   2  127.92   13.59   1
 -20  10   2   83.57   12.16   1
 -19  10   2   16.76   10.37   1
 -18  10   2   19.66   10.59   1
 -17  10   2   18.00    9.89   1
 -16  10   2  581.68   19.70   1
 -15  10   2  208.76   13.25   1
 -14  10   2   70.01   10.85   1
 -13  10   2  275.38   14.20   1
 -12  10   2  163.85   12.23   1
 -11  10   2   27.55    9.97   1
 -10  10   2  308.76   14.41   1
  -9  10   2   52.38   10.18   1
  -8  10   2  113.31   10.48   1
  -7  10   2  212.38   11.13   1
  -6  10   2  138.39   10.12   1
  -5  10   2  441.15   13.45   1
  -4  10   2  152.71   10.40   1
  -3  10   2  205.83   11.84   1
  -2  10   2   88.76   11.08   1
  -1  10   2   67.17    9.84   1
   0  10   2  293.39   14.60   1
   1  10   2   36.12    9.27   1
   2  10   2  174.99   12.00   1
   3  10   2  283.10   13.99   1
   4  10   2   67.96   10.34   1
   5  10   2  182.91   13.53   1
   6  10   2  562.00   19.33   1
   7  10   2   21.74    8.58   1
   8  10   2   31.79    9.71   1
  10  10   2   93.55   12.80   1
  11  10   2    8.39   10.46   1
  13  10   2  130.30   14.15   1
  14  10   2    0.16   11.25   1
  15  10   2   13.56   11.22   1
  16  10   2   25.55   12.55   1
  17  10   2   46.47   11.50   1
  18  10   2   18.63   11.58   1
  19  10   2  110.30   15.83   1
  21  10   2   65.45   15.10   1
  20  11   2   32.09   14.34   1
  17  11   2   35.34   13.53   1
  16  11   2   20.91   12.63   1
  13  11   2   13.96   12.33   1
  12  11   2  102.43   13.73   1
  11  11   2   26.07   11.84   1
  10  11   2   16.13   10.44   1
   9  11   2  109.71   12.56   1
   7  11   2   61.32   10.12   1
   6  11   2  143.99   12.48   1
   5  11   2  118.49   10.92   1
   4  11   2  185.78   13.27   1
   3  11   2  100.88   11.25   1
   2  11   2  225.11   13.69   1
   1  11   2  624.69   18.70   1
   0  11   2   62.09   10.44   1
  -1  11   2   24.90    9.05   1
  -2  11   2  114.82   11.23   1
  -3  11   2  292.61   14.36   1
  -4  11   2  239.78   12.51   1
  -5  11   2  150.26   11.07   1
  -6  11   2  149.47   11.02   1
  -7  11   2  241.29   12.54   1
  -8  11   2  302.93   13.79   1
  -9  11   2   99.11   10.87   1
 -10  11   2   19.23    9.48   1
 -11  11   2   74.70   10.90   1
 -12  11   2  618.55   18.46   1
 -13  11   2  217.55   13.84   1
 -14  11   2  102.09   11.33   1
 -15  11   2  216.32   13.79   1
 -16  11   2  101.80   11.31   1
 -17  11   2  137.48   13.09   1
 -18  11   2   64.64   10.70   1
 -20  11   2   96.52   12.40   1
 -21  11   2   18.71   10.05   1
 -22  11   2   35.18   11.57   1
 -23  11   2   85.85   12.62   1
 -24  11   2   23.65   11.14   1
 -25  11   2   23.02   10.51   1
 -26  11   2   25.54   11.62   1
 -28  11   2   36.10   11.65   1
 -31  11   2   32.00   12.96   1
 -34  12   2   44.11   12.78   1
 -33  12   2   13.41   12.20   1
 -31  12   2   31.84   12.27   1
 -28  12   2   80.47   11.95   1
 -26  12   2   23.68   10.44   1
 -24  12   2  350.39   18.45   1
 -23  12   2   92.96   13.37   1
 -22  12   2   14.21   10.16   1
 -21  12   2   85.44   11.66   1
 -18  12   2  245.52   14.88   1
 -17  12   2   88.59   12.03   1
 -16  12   2  234.91   14.91   1
 -15  12   2   13.23    9.80   1
 -14  12   2   49.07   11.19   1
 -13  12   2  331.02   15.03   1
 -12  12   2  134.17   11.98   1
 -11  12   2  595.51   18.16   1
 -10  12   2  165.91   11.64   1
  -9  12   2   49.50    9.60   1
  -8  12   2   16.82    8.76   1
  -7  12   2   81.83    9.71   1
  -6  12   2  150.28   11.00   1
  -5  12   2   77.22    9.32   1
  -4  12   2   19.12    8.98   1
  -3  12   2   42.25    9.89   1
  -2  12   2  139.45   12.16   1
  -1  12   2  619.27   18.23   1
   0  12   2  139.29   11.74   1
   1  12   2  299.68   15.42   1
   2  12   2   43.81    9.18   1
   4  12   2  258.47   14.39   1
   5  12   2   93.42   11.13   1
   6  12   2  223.52   14.72   1
   9  12   2   84.22   11.84   1
  10  12   2    0.25    9.49   1
  11  12   2   85.13   12.99   1
  12  12   2  349.71   19.44   1
  13  12   2   14.21   11.54   1
  14  12   2   25.32   10.90   1
  16  12   2   66.16   14.34   1
  17  12   2    7.79   12.12   1
  19  12   2   34.47   15.29   1
  21  12   2   19.87   12.64   1
  22  12   2   47.09   13.56   1
  21  13   2    6.23   12.46   1
  19  13   2   49.05   14.07   1
  18  13   2   93.18   15.84   1
  14  13   2   37.63   12.75   1
  13  13   2   21.64   11.23   1
  11  13   2   12.23   11.50   1
  10  13   2  131.23   12.67   1
   9  13   2   13.56   10.51   1
   8  13   2  101.00   12.05   1
   7  13   2   79.49   11.96   1
   5  13   2   24.00    9.42   1
   4  13   2  144.44   13.18   1
   3  13   2  150.88   11.64   1
   2  13   2   17.58    8.81   1
   0  13   2  223.21   13.62   1
  -1  13   2  332.19   15.21   1
  -2  13   2  279.60   14.40   1
  -3  13   2  260.92   13.81   1
  -4  13   2   48.17    9.70   1
  -5  13   2  111.77   10.10   1
  -6  13   2   62.23    9.58   1
  -7  13   2   66.16    9.31   1
  -8  13   2  127.76   10.34   1
  -9  13   2   37.99    9.39   1
 -10  13   2  273.43   13.20   1
 -11  13   2  311.41   13.63   1
 -12  13   2  324.35   14.84   1
 -13  13   2  265.11   13.68   1
 -14  13   2   11.80   10.22   1
 -16  13   2  148.58   12.49   1
 -17  13   2  157.30   12.32   1
 -20  13   2   80.66   11.52   1
 -21  13   2   95.71   12.34   1
 -23  13   2  108.13   13.55   1
 -24  13   2   14.86   10.37   1
 -25  13   2   16.53   10.38   1
 -27  13   2   18.54   11.31   1
 -29  13   2   11.12    9.82   1
 -31  13   2   71.47   13.21   1
 -34  14   2   68.42   13.67   1
 -32  14   2   47.76   12.16   1
 -28  14   2  207.16   15.38   1
 -27  14   2   17.33   12.25   1
 -26  14   2   17.00   11.83   1
 -24  14   2    0.90   10.27   1
 -23  14   2   40.82   11.47   1
 -22  14   2   86.70   13.04   1
 -21  14   2  117.77   13.41   1
 -19  14   2   78.43   11.78   1
 -18  14   2   17.45    9.57   1
 -17  14   2   77.20   11.00   1
 -16  14   2    0.21    8.98   1
 -15  14   2  299.67   14.92   1
 -14  14   2  104.85   10.88   1
 -13  14   2   43.30   10.29   1
 -12  14   2   41.79    9.77   1
 -11  14   2   89.30   10.45   1
 -10  14   2   64.05   10.30   1
  -9  14   2  186.50   12.27   1
  -7  14   2   22.89    9.31   1
  -5  14   2  185.50   11.95   1
  -4  14   2   63.92   10.23   1
  -3  14   2   96.05   11.41   1
  -2  14   2   39.84    9.84   1
   0  14   2   88.80   11.10   1
   1  14   2  326.01   15.22   1
   3  14   2   93.35   10.74   1
   5  14   2   86.29   11.27   1
   6  14   2   19.64   11.34   1
   7  14   2  103.15   13.35   1
   8  14   2   79.66   12.88   1
   9  14   2   47.96   11.96   1
  11  14   2   15.34   11.19   1
  12  14   2   16.65   11.38   1
  13  14   2   23.11   11.53   1
  14  14   2  190.10   17.03   1
  18  14   2   36.40   14.01   1
  20  14   2   81.71   15.26   1
  19  15   2    5.77   11.67   1
  15  15   2   98.65   13.71   1
  13  15   2    0.91   10.57   1
  10  15   2   10.29   11.15   1
   9  15   2  468.17   20.92   1
   8  15   2   21.74   12.07   1
   7  15   2   47.28   11.08   1
   6  15   2   61.77   10.39   1
   5  15   2  154.94   13.11   1
   4  15   2   74.10   10.84   1
   3  15   2   67.84   11.58   1
   2  15   2   44.14   10.67   1
  -1  15   2  304.23   15.27   1
  -2  15   2    4.92    9.69   1
  -4  15   2  220.21   15.00   1
  -5  15   2  209.55   12.90   1
  -6  15   2  106.10   11.18   1
  -7  15   2  149.58   12.25   1
  -8  15   2  138.26   12.07   1
  -9  15   2   68.58   10.54   1
 -10  15   2  189.45   13.64   1
 -11  15   2  194.15   12.68   1
 -13  15   2    9.59   10.20   1
 -14  15   2  313.06   15.16   1
 -15  15   2   30.81   10.21   1
 -16  15   2    9.31    9.06   1
 -17  15   2   26.04   10.27   1
 -18  15   2   56.72   11.45   1
 -19  15   2   69.81   11.33   1
 -20  15   2  157.09   13.56   1
 -21  15   2   66.09   10.91   1
 -22  15   2   30.37   11.05   1
 -23  15   2   30.54   11.83   1
 -24  15   2  503.64   19.60   1
 -25  15   2    8.58   11.16   1
 -30  15   2  101.70   13.67   1
 -31  15   2   25.15   12.61   1
 -32  15   2   30.88   11.73   1
 -34  15   2    0.70   10.57   1
 -34  16   2   22.26   13.02   1
 -30  16   2    0.25   10.84   1
 -29  16   2   18.10   11.09   1
 -28  16   2   74.51   13.19   1
 -22  16   2   54.16   11.83   1
 -21  16   2   31.82   10.71   1
 -20  16   2   80.13   11.96   1
 -19  16   2   20.54   10.90   1
 -18  16   2  215.67   14.42   1
 -17  16   2   67.95   10.89   1
 -15  16   2    0.05    9.19   1
 -14  16   2    0.67    9.23   1
 -13  16   2  153.48   12.55   1
 -12  16   2  271.47   14.30   1
 -11  16   2  108.34   11.76   1
 -10  16   2  594.48   18.57   1
  -9  16   2  274.14   14.70   1
  -8  16   2  199.01   12.20   1
  -7  16   2  263.96   13.80   1
  -6  16   2  618.95   18.62   1
  -5  16   2  103.80   11.71   1
  -4  16   2  253.06   15.14   1
  -3  16   2  152.44   12.60   1
  -2  16   2    1.45    9.72   1
   1  16   2   57.36   10.13   1
   2  16   2  181.70   14.73   1
   3  16   2   26.54   10.12   1
   4  16   2   70.97   11.47   1
   5  16   2   44.40   10.97   1
   6  16   2   41.03   11.85   1
   7  16   2   28.01   10.98   1
  11  16   2   25.77   11.89   1
  12  16   2   72.26   12.81   1
  18  16   2   23.14   15.01   1
  16  17   2   25.00   13.59   1
  15  17   2   25.92   14.00   1
  14  17   2   21.30   13.06   1
  13  17   2    2.92   12.83   1
  12  17   2   12.77   12.46   1
  11  17   2   38.85   12.41   1
  10  17   2   29.21   12.44   1
   9  17   2   46.33   11.24   1
   8  17   2   18.75   10.71   1
   7  17   2   58.87   11.63   1
   6  17   2   58.49   12.92   1
   5  17   2   76.29   12.24   1
   4  17   2   21.38   10.69   1
   3  17   2   12.17    9.78   1
   2  17   2  144.87   13.39   1
   1  17   2  151.93   14.21   1
  -1  17   2   55.27   11.20   1
  -2  17   2   32.26   10.77   1
  -3  17   2   89.63   11.76   1
  -4  17   2  147.09   12.84   1
  -5  17   2   96.62   11.83   1
  -6  17   2  142.55   12.48   1
  -7  17   2   16.54    9.79   1
  -8  17   2  133.69   13.21   1
  -9  17   2  139.60   12.86   1
 -11  17   2  135.90   12.62   1
 -12  17   2   96.29   11.33   1
 -13  17   2  144.36   12.58   1
 -14  17   2   85.65   11.66   1
 -15  17   2   43.36   10.42   1
 -16  17   2   53.81   10.10   1
 -18  17   2  186.08   13.43   1
 -19  17   2  142.47   13.25   1
 -20  17   2    1.99    9.63   1
 -21  17   2   25.37   10.65   1
 -22  17   2   73.66   12.77   1
 -23  17   2   73.88   12.40   1
 -24  17   2   66.92   12.25   1
 -26  17   2   47.33   10.99   1
 -32  17   2   26.90   10.78   1
 -34  18   2   26.69   11.78   1
 -32  18   2   58.12   12.63   1
 -31  18   2   93.28   14.01   1
 -30  18   2    0.33   10.28   1
 -28  18   2    6.85   10.43   1
 -26  18   2   16.52   11.10   1
 -22  18   2   78.13   11.73   1
 -21  18   2   52.72   11.73   1
 -20  18   2   38.71   11.12   1
 -19  18   2   55.73   11.61   1
 -17  18   2  147.94   12.74   1
 -16  18   2  201.69   13.87   1
 -15  18   2   50.02   11.64   1
 -13  18   2   16.46    9.88   1
 -12  18   2  235.95   14.42   1
 -11  18   2   51.61    9.43   1
 -10  18   2   40.97    8.80   1
  -9  18   2  184.26   12.59   1
  -8  18   2   39.47    9.17   1
  -7  18   2   51.10    9.90   1
  -6  18   2  230.31   14.29   1
  -3  18   2   63.50   10.43   1
  -2  18   2  188.39   14.61   1
  -1  18   2  170.67   12.43   1
   1  18   2   44.57   10.55   1
   2  18   2   37.34   11.91   1
   3  18   2   43.96   11.18   1
   4  18   2   68.99   11.95   1
   7  18   2    8.84   10.40   1
   8  18   2   20.75   11.27   1
  11  18   2    9.85   10.50   1
  13  18   2   81.14   14.80   1
  14  18   2   42.90   13.84   1
  12  19   2   53.85   12.91   1
  10  19   2  135.52   14.63   1
   8  19   2  107.29   13.05   1
   6  19   2   88.33   12.98   1
   5  19   2   47.24   11.44   1
   4  19   2   44.93   11.13   1
   3  19   2   64.73   12.66   1
   2  19   2  199.93   14.53   1
   1  19   2   86.57   12.01   1
   0  19   2   32.60   10.43   1
  -1  19   2   61.07   10.90   1
  -2  19   2  147.54   13.72   1
  -3  19   2   21.03   11.42   1
  -4  19   2   75.49   11.96   1
  -5  19   2   85.52   11.34   1
  -7  19   2   14.11    9.53   1
  -9  19   2   10.86    9.85   1
 -10  19   2   20.24    9.28   1
 -12  19   2   14.76    9.20   1
 -14  19   2   81.51   11.70   1
 -15  19   2   65.63   12.18   1
 -16  19   2   23.37   10.91   1
 -17  19   2  164.06   13.07   1
 -18  19   2   57.57   10.70   1
 -20  19   2  114.60   13.04   1
 -21  19   2  196.63   14.29   1
 -22  19   2   75.12   12.75   1
 -23  19   2   53.16   11.55   1
 -24  19   2   39.33   12.03   1
 -25  19   2   90.46   12.33   1
 -27  19   2  106.00   12.31   1
 -29  19   2  147.13   14.15   1
 -30  19   2   12.28   10.56   1
 -31  19   2   53.44   13.03   1
 -32  19   2   33.08   12.53   1
 -33  19   2    0.09   11.09   1
 -34  20   2   56.06   12.34   1
 -28  20   2   64.77   12.68   1
 -27  20   2   32.52   11.98   1
 -25  20   2   81.15   12.87   1
 -24  20   2   26.05   11.56   1
 -23  20   2   35.86   11.58   1
 -22  20   2   35.26   11.58   1
 -21  20   2  107.06   13.30   1
 -20  20   2   17.65   10.72   1
 -19  20   2   78.90   12.71   1
 -18  20   2   59.80   11.23   1
 -16  20   2   73.82   12.02   1
 -15  20   2  159.78   13.64   1
 -14  20   2   30.27   10.26   1
 -12  20   2    1.47    9.62   1
 -11  20   2  127.24   12.22   1
 -10  20   2   80.64   10.86   1
  -9  20   2  117.43   12.38   1
  -7  20   2   74.10   11.52   1
  -6  20   2   25.88   10.78   1
  -5  20   2  177.14   14.97   1
  -4  20   2   69.36   12.45   1
  -2  20   2   41.41   11.04   1
   0  20   2   18.53   10.98   1
   1  20   2  116.31   13.51   1
   3  20   2   32.50   10.79   1
   4  20   2   29.96   11.11   1
   5  20   2   77.61   12.02   1
   7  20   2   29.18   11.17   1
   8  20   2   57.96   12.74   1
  10  20   2   32.74   13.53   1
  11  20   2   32.24   12.25   1
  14  20   2   55.81   13.83   1
  13  21   2   21.10   12.00   1
  12  21   2    2.39   11.63   1
  10  21   2   53.34   13.61   1
   9  21   2   46.39   13.31   1
   7  21   2   29.08   10.60   1
   4  21   2   74.60   12.35   1
   3  21   2   44.39   10.82   1
   2  21   2   67.46   11.83   1
   0  21   2   75.82   12.29   1
  -1  21   2   96.15   13.43   1
  -2  21   2  195.39   14.93   1
  -3  21   2   49.99   11.73   1
  -4  21   2   18.23   11.33   1
  -5  21   2   50.55   11.81   1
  -6  21   2   60.16   10.92   1
  -7  21   2  108.88   12.25   1
  -8  21   2   95.28   10.92   1
  -9  21   2   91.31   11.71   1
 -10  21   2   16.14   10.02   1
 -11  21   2   10.70   10.61   1
 -12  21   2   96.87   11.69   1
 -13  21   2   90.77   11.88   1
 -14  21   2  114.21   12.72   1
 -15  21   2   74.15   11.59   1
 -17  21   2   19.75   10.31   1
 -18  21   2   43.37   12.18   1
 -19  21   2  205.87   13.60   1
 -20  21   2  108.98   13.12   1
 -21  21   2   75.34   12.24   1
 -23  21   2   67.72   11.79   1
 -24  21   2   35.66   10.54   1
 -25  21   2   69.64   11.23   1
 -26  21   2   22.88   11.35   1
 -28  21   2   24.96    9.80   1
 -30  21   2   69.68   13.26   1
 -31  21   2   59.05   12.98   1
 -32  21   2    4.18   11.36   1
 -33  21   2   15.59    9.87   1
 -34  21   2    5.88   10.95   1
 -34  22   2   66.03   12.29   1
 -32  22   2   16.86   11.47   1
 -31  22   2   12.24   11.95   1
 -29  22   2   17.03   11.17   1
 -28  22   2   98.10   14.45   1
 -27  22   2   51.19   10.78   1
 -26  22   2   59.51   12.56   1
 -25  22   2  121.10   14.11   1
 -19  22   2   62.70   12.23   1
 -18  22   2  104.67   12.28   1
 -17  22   2  103.67   12.61   1
 -16  22   2   61.59   11.97   1
 -15  22   2   30.71   11.10   1
 -14  22   2   89.41   12.86   1
 -11  22   2   31.31    9.96   1
  -8  22   2   72.01   12.54   1
  -7  22   2   43.88   11.10   1
  -6  22   2   67.38   11.59   1
  -5  22   2  105.74   13.10   1
  -4  22   2   68.77   12.58   1
  -3  22   2   75.28   12.20   1
   2  22   2   59.61   11.41   1
   3  22   2  146.02   13.42   1
   5  22   2   36.24   11.93   1
   6  22   2  104.66   13.04   1
   7  22   2    3.01   12.48   1
  10  22   2   33.43   12.93   1
  12  22   2   56.14   13.43   1
   9  23   2   42.01   12.14   1
   7  23   2    4.85   10.87   1
   6  23   2   59.22   13.47   1
   5  23   2   18.73   11.22   1
   4  23   2   26.79   11.36   1
   3  23   2  100.42   12.53   1
   1  23   2   10.69   10.43   1
   0  23   2  133.39   12.65   1
  -1  23   2    3.69   10.68   1
  -2  23   2   83.25   12.65   1
  -6  23   2   82.31   13.55   1
  -7  23   2   24.73   11.59   1
  -9  23   2   48.31   11.84   1
 -10  23   2  106.92   13.95   1
 -11  23   2   85.27   13.07   1
 -12  23   2   98.33   13.66   1
 -13  23   2  144.35   14.17   1
 -14  23   2   46.42   12.68   1
 -15  23   2   49.92   12.18   1
 -16  23   2   39.92   11.18   1
 -17  23   2   71.95   12.96   1
 -20  23   2   35.31   12.09   1
 -21  23   2   75.37   13.25   1
 -23  23   2  110.00   12.90   1
 -25  23   2    2.86    9.96   1
 -26  23   2   49.47   12.44   1
 -29  23   2   56.99   14.60   1
 -32  23   2   38.67   11.63   1
 -29  24   2    0.01   12.68   1
 -28  24   2   18.74   10.72   1
 -26  24   2    0.75    9.67   1
 -25  24   2   49.36   12.65   1
 -21  24   2   22.54   12.56   1
 -20  24   2   19.64   10.72   1
 -19  24   2   26.22   12.04   1
 -17  24   2   69.65   14.01   1
 -15  24   2  500.53   20.06   1
 -13  24   2   20.24   10.63   1
 -12  24   2  376.47   18.30   1
  -9  24   2  497.26   20.30   1
  -8  24   2   13.32   11.34   1
  -7  24   2   57.80   11.55   1
  -5  24   2   33.61   12.48   1
  -3  24   2   37.47   11.72   1
  -2  24   2   61.86   13.71   1
  -1  24   2    0.41   11.17   1
   0  24   2    6.16   10.97   1
   6  24   2    8.79   13.10   1
   9  24   2    3.06   11.52   1
   5  25   2   29.95   13.59   1
   2  25   2  124.74   15.21   1
   1  25   2   21.12   11.80   1
   0  25   2   28.30   11.45   1
  -1  25   2   51.65   12.96   1
  -3  25   2  110.68   14.76   1
  -4  25   2   73.23   13.47   1
  -5  25   2   65.17   12.65   1
  -6  25   2   64.15   13.20   1
 -11  25   2   18.85   11.13   1
 -19  25   2   71.13   13.32   1
 -20  25   2   59.14   12.31   1
 -21  25   2   73.28   13.17   1
 -22  25   2  126.27   13.47   1
 -23  25   2   14.00   11.41   1
 -24  25   2   61.95   12.61   1
 -25  25   2   29.04   11.75   1
 -26  25   2   25.60   11.69   1
 -27  25   2  124.44   15.02   1
 -30  25   2   28.07   14.41   1
 -32  25   2   20.18   10.97   1
 -32  26   2   48.49   11.93   1
 -30  26   2   23.22   11.88   1
 -28  26   2   54.24   12.73   1
 -27  26   2   41.41   13.13   1
 -25  26   2   13.49   11.57   1
 -23  26   2   71.94   12.47   1
 -22  26   2   58.95   12.60   1
 -21  26   2   22.40   11.67   1
 -20  26   2   19.52   11.01   1
 -18  26   2   20.07   11.85   1
 -17  26   2   29.40   11.06   1
 -11  26   2   26.91   10.21   1
 -10  26   2   17.33   11.03   1
  -9  26   2   42.64   12.00   1
  -5  26   2   25.82   13.37   1
  -4  26   2   58.92   13.41   1
  -3  26   2   55.86   12.82   1
   1  26   2   41.88   14.12   1
   2  26   2   39.54   12.54   1
   4  26   2   38.33   12.18   1
   5  26   2    8.11   12.44   1
   4  27   2   27.02   11.61   1
   3  27   2   25.60   12.99   1
   2  27   2   12.10   11.42   1
   1  27   2    7.49   11.98   1
  -1  27   2   39.29   13.82   1
  -2  27   2  110.59   16.05   1
  -4  27   2   12.83   12.24   1
  -5  27   2   41.71   13.92   1
  -7  27   2   45.61   12.64   1
  -8  27   2   98.97   14.39   1
  -9  27   2   46.45   11.47   1
 -10  27   2   55.75   12.96   1
 -13  27   2   29.88   11.68   1
 -18  27   2   34.91   12.83   1
 -19  27   2   83.47   14.02   1
 -20  27   2   29.32   12.11   1
 -22  27   2   38.77   13.51   1
 -25  27   2  114.57   14.77   1
 -26  27   2   32.91   13.31   1
 -29  27   2   14.57   11.55   1
 -30  27   2   23.97   12.68   1
 -31  27   2   25.90   11.29   1
 -30  28   2   16.54   12.72   1
 -27  28   2   20.39   11.66   1
 -26  28   2   70.38   12.45   1
 -25  28   2   14.80   13.65   1
 -24  28   2    3.00   11.14   1
 -23  28   2   28.81   12.43   1
 -22  28   2  125.64   13.59   1
 -21  28   2   24.48   11.11   1
 -20  28   2   55.45   12.57   1
 -17  28   2   19.42   12.27   1
 -16  28   2   73.42   13.31   1
 -14  28   2  243.20   16.78   1
 -13  28   2    1.37   10.66   1
 -12  28   2   82.66   12.97   1
 -11  28   2   29.80   12.44   1
 -10  28   2   11.38   12.01   1
  -8  28   2   62.74   12.39   1
  -7  28   2   14.60   12.50   1
  -6  28   2  130.16   14.94   1
  -5  28   2   28.95   12.56   1
  -4  28   2   16.46   12.92   1
  -3  28   2   22.65   12.37   1
  -2  28   2   52.20   14.23   1
   3  28   2    8.57   11.22   1
   0  29   2   90.26   13.64   1
  -2  29   2   22.00   11.97   1
  -6  29   2   64.66   13.91   1
  -9  29   2    1.95   11.44   1
 -10  29   2  127.16   14.13   1
 -11  29   2   17.63   10.93   1
 -12  29   2   21.20   10.72   1
 -13  29   2   20.42   11.11   1
 -15  29   2   17.43   11.26   1
 -17  29   2   15.22   11.85   1
 -19  29   2  105.61   13.75   1
 -23  29   2   76.30   13.81   1
 -25  29   2   17.16   12.08   1
 -28  29   2    0.09   10.97   1
 -29  29   2   90.62   13.54   1
 -28  30   2   33.79   11.57   1
 -27  30   2   18.39   11.68   1
 -25  30   2   29.92   13.01   1
 -21  30   2   68.62   14.61   1
 -20  30   2   42.05   12.85   1
 -19  30   2   23.96   11.60   1
 -16  30   2    3.13   10.71   1
 -15  30   2   75.71   13.03   1
 -14  30   2    1.53   10.21   1
 -10  30   2   22.92   14.01   1
  -9  30   2   57.77   14.84   1
  -5  30   2   31.67   14.41   1
  -3  30   2   20.94   12.85   1
 -10  31   2   53.49   13.57   1
 -13  31   2   79.00   15.50   1
 -14  31   2   14.94   13.33   1
 -15  31   2   53.47   13.20   1
 -16  31   2   37.20   13.20   1
 -18  31   2   66.72   13.30   1
 -19  31   2   28.73   13.47   1
 -20  31   2   19.64   13.15   1
 -21  31   2   59.95   13.46   1
 -23  31   2    1.37   11.75   1
 -27  31   2   29.64   11.98   1
 -28  31   2   22.31   12.05   1
 -26  32   2   26.24   12.06   1
 -25  32   2   12.56   10.89   1
 -22  32   2   41.56   13.67   1
 -19  32   2   25.31   12.00   1
 -18  32   2   63.99   13.55   1
 -17  32   2   16.72   11.62   1
 -15  32   2   30.36   13.04   1
 -14  32   2   52.01   12.06   1
 -13  32   2   31.28   12.80   1
 -10  32   2   22.45   14.03   1
  -9  33   2    3.53   10.34   1
 -11  33   2    2.23   11.46   1
 -12  33   2   14.18   11.59   1
 -17  33   2    7.15   10.46   1
 -22  34   2   60.30   11.52   1
 -18  34   2   21.89   11.66   1
 -14  34   2   53.15   12.97   1
 -13  34   2   18.27   10.88   1
 -12  34   2   48.34   12.53   1
 -19  33   3   35.00   12.50   1
 -17  33   3   27.17   13.69   1
 -16  33   3   27.87   14.39   1
 -15  33   3    5.61   11.34   1
 -14  33   3   33.99   12.17   1
  -9  32   3   16.82   11.61   1
 -14  32   3   13.00   11.72   1
 -18  32   3   15.96   13.91   1
 -23  32   3   25.41   12.79   1
 -24  31   3    5.85   12.56   1
 -23  31   3    2.90   10.71   1
 -21  31   3   18.87   13.65   1
 -15  31   3    3.07   12.05   1
 -13  31   3    0.22   12.08   1
 -10  31   3   10.25   11.75   1
  -3  30   3    1.45   10.93   1
  -4  30   3   42.35   13.40   1
  -5  30   3   17.06   12.83   1
  -6  30   3   25.60   11.85   1
 -10  30   3   73.30   14.33   1
 -12  30   3   44.94   12.90   1
 -14  30   3   53.17   15.66   1
 -16  30   3   74.33   14.81   1
 -20  30   3   81.73   15.86   1
 -24  30   3   30.95   13.16   1
 -25  30   3   26.52   13.10   1
 -26  30   3   41.86   13.66   1
 -27  29   3    4.18   12.93   1
 -24  29   3   82.33   15.78   1
 -21  29   3   38.49   14.06   1
 -20  29   3   61.25   14.26   1
 -18  29   3   41.53   15.35   1
 -15  29   3  151.30   16.35   1
 -14  29   3  165.46   16.11   1
  -9  29   3   53.75   13.52   1
  -8  29   3   39.99   13.91   1
  -7  29   3   23.17   13.87   1
  -5  29   3   77.57   13.17   1
  -3  29   3   12.16   11.82   1
  -1  29   3   18.05   11.96   1
  -1  28   3   27.57   12.36   1
  -2  28   3   33.50   11.99   1
  -3  28   3    0.09   11.37   1
  -7  28   3  104.41   15.00   1
 -11  28   3   81.95   14.76   1
 -13  28   3   21.18   13.45   1
 -14  28   3   27.95   13.14   1
 -15  28   3   33.91   14.02   1
 -17  28   3   67.17   14.44   1
 -19  28   3   30.04   15.03   1
 -20  28   3   31.60   13.07   1
 -21  28   3  140.52   16.01   1
 -22  28   3   14.25   12.09   1
 -26  28   3   21.57   13.55   1
 -27  28   3   32.62   13.58   1
 -28  28   3   15.79   13.07   1
 -28  27   3   15.16   14.01   1
 -27  27   3   40.10   13.04   1
 -25  27   3   40.83   13.10   1
 -24  27   3   32.59   12.17   1
 -23  27   3   35.17   15.62   1
 -21  27   3   11.14   12.05   1
 -19  27   3   70.00   13.70   1
 -17  27   3   10.23   11.55   1
 -16  27   3   11.81   11.40   1
 -15  27   3   26.20   12.10   1
  -8  27   3   70.58   12.70   1
  -4  27   3   37.61   13.65   1
  -3  27   3   32.27   11.73   1
  -2  27   3   45.08   13.79   1
   1  27   3   30.95   12.17   1
   4  26   3   60.83   12.54   1
   3  26   3   15.08   10.32   1
   2  26   3   20.01   12.12   1
  -1  26   3    0.04   11.60   1
  -6  26   3    3.83   11.93   1
  -7  26   3   79.26   13.87   1
  -8  26   3   55.61   13.23   1
  -9  26   3   30.06   13.00   1
 -10  26   3   55.35   12.93   1
 -11  26   3    1.73   11.86   1
 -13  26   3  131.98   16.52   1
 -16  26   3   37.28   15.01   1
 -17  26   3   47.81   13.32   1
 -18  26   3   57.50   12.73   1
 -19  26   3   64.49   14.48   1
 -21  26   3    0.81   11.24   1
 -26  26   3   59.00   14.63   1
 -28  26   3   54.05   13.50   1
 -30  25   3   21.68   13.46   1
 -27  25   3   50.24   13.83   1
 -25  25   3   70.35   15.58   1
 -21  25   3  132.08   16.47   1
 -19  25   3   23.81   13.06   1
 -17  25   3   74.11   13.90   1
 -15  25   3   90.45   15.56   1
 -13  25   3   16.76   13.47   1
 -12  25   3   30.01   12.30   1
 -10  25   3   91.16   14.85   1
  -8  25   3   48.24   13.35   1
  -5  25   3    0.47   11.77   1
  -4  25   3  140.18   14.37   1
   0  25   3   57.83   13.19   1
   2  25   3   60.58   11.44   1
   6  24   3   35.26   12.00   1
   5  24   3   57.19   12.90   1
   4  24   3   11.29   10.88   1
   3  24   3   47.64   12.49   1
   2  24   3    4.93   11.43   1
   0  24   3   74.21   13.59   1
  -1  24   3   51.97   11.66   1
  -3  24   3   81.16   12.95   1
  -4  24   3   65.41   12.58   1
  -7  24   3   26.32   12.35   1
  -8  24   3   33.48   12.55   1
 -10  24   3   26.67   13.69   1
 -11  24   3   21.57   12.33   1
 -14  24   3   17.29   14.23   1
 -19  24   3    0.52   10.99   1
 -20  24   3   37.23   12.93   1
 -21  24   3   81.53   13.47   1
 -23  24   3   42.79   13.29   1
 -24  24   3   78.04   13.90   1
 -27  24   3   46.99   14.76   1
 -29  24   3   69.24   13.65   1
 -30  24   3   17.68   13.62   1
 -29  23   3   14.62   13.29   1
 -27  23   3   51.43   14.91   1
 -24  23   3   48.79   13.67   1
 -23  23   3  118.55   13.54   1
 -22  23   3    0.03   10.97   1
 -21  23   3   35.13   12.89   1
 -20  23   3   49.22   13.17   1
 -18  23   3   43.70   13.56   1
 -17  23   3  101.35   14.43   1
 -16  23   3   86.46   14.37   1
 -15  23   3   42.86   12.90   1
 -14  23   3   26.80   12.74   1
  -8  23   3   33.12   12.38   1
  -7  23   3   89.58   13.12   1
  -6  23   3  100.30   13.11   1
  -4  23   3   14.67   11.04   1
  -3  23   3   43.80   12.21   1
  -2  23   3   30.03   11.84   1
   0  23   3  118.43   13.61   1
   1  23   3   64.52   13.26   1
   4  23   3   57.69   12.86   1
   9  22   3    3.18   11.54   1
   6  22   3   16.12   11.56   1
   4  22   3    0.25   10.28   1
  -1  22   3   49.50   12.78   1
  -2  22   3   33.89   12.23   1
  -3  22   3  101.25   13.81   1
  -4  22   3   36.17   12.05   1
  -5  22   3   83.99   13.76   1
  -8  22   3  187.71   16.19   1
  -9  22   3   95.43   15.74   1
 -10  22   3   35.62   11.69   1
 -11  22   3  347.42   20.38   1
 -12  22   3   34.93   12.73   1
 -13  22   3  107.13   13.99   1
 -14  22   3  186.16   17.12   1
 -17  22   3   91.31   13.40   1
 -18  22   3   14.50   11.62   1
 -19  22   3  124.94   15.42   1
 -20  22   3   33.12   11.34   1
 -21  22   3   78.63   14.42   1
 -26  22   3    0.50   11.10   1
 -27  22   3    5.16   13.74   1
 -29  22   3   36.01   13.62   1
 -30  22   3   16.69   12.34   1
 -31  22   3    2.29   10.47   1
 -32  21   3    0.56   11.86   1
 -31  21   3   25.11   12.97   1
 -30  21   3   33.15   12.58   1
 -29  21   3   33.53   13.39   1
 -28  21   3   85.60   14.75   1
 -25  21   3  173.48   16.07   1
 -24  21   3  112.63   14.02   1
 -23  21   3   26.86   12.53   1
 -22  21   3   56.09   14.30   1
 -21  21   3    1.46   11.87   1
 -19  21   3   74.23   13.45   1
 -16  21   3  161.76   15.39   1
 -15  21   3   77.28   13.79   1
 -14  21   3   32.22   13.25   1
 -13  21   3   16.85   12.03   1
  -9  21   3   26.57   12.96   1
  -8  21   3   22.08   12.35   1
  -7  21   3   32.35   11.49   1
  -6  21   3   67.91   12.79   1
  -5  21   3  121.63   14.30   1
  -4  21   3   40.56   10.93   1
  -3  21   3   39.67   11.67   1
  -2  21   3  110.65   12.93   1
   1  21   3   58.67   11.73   1
   2  21   3   28.89   12.10   1
   3  21   3  105.54   12.99   1
   4  21   3  159.44   12.86   1
   7  21   3   98.62   13.92   1
  10  20   3   79.16   14.70   1
   9  20   3   64.29   14.05   1
   8  20   3   17.05   13.70   1
   7  20   3    1.54   10.55   1
   6  20   3    1.19   10.36   1
   4  20   3   51.73   11.15   1
   3  20   3   39.79   12.16   1
   2  20   3   28.83   11.28   1
   0  20   3  100.23   12.62   1
  -1  20   3   23.26   10.16   1
  -6  20   3   64.76   13.05   1
  -7  20   3   99.40   13.92   1
  -8  20   3   34.85   11.91   1
 -10  20   3  238.87   16.90   1
 -12  20   3   34.81   12.90   1
 -13  20   3   91.67   15.39   1
 -14  20   3   66.35   12.76   1
 -17  20   3   16.81   11.18   1
 -18  20   3   22.33   11.89   1
 -19  20   3   35.95   12.87   1
 -20  20   3   83.99   13.02   1
 -22  20   3   34.87   11.81   1
 -23  20   3   59.07   13.09   1
 -24  20   3   52.55   12.54   1
 -26  20   3    0.45   11.75   1
 -27  20   3    0.91   10.72   1
 -29  20   3   39.34   13.68   1
 -30  20   3   72.47   14.18   1
 -33  19   3   25.51   11.92   1
 -29  19   3    1.50   11.30   1
 -27  19   3   50.29   13.27   1
 -26  19   3   56.79   13.55   1
 -25  19   3   25.21   13.20   1
 -22  19   3  110.69   14.81   1
 -21  19   3   91.30   14.14   1
 -20  19   3   35.33   10.88   1
 -19  19   3   44.39   13.35   1
 -18  19   3   20.57   12.79   1
 -17  19   3  147.09   14.86   1
 -16  19   3  122.05   14.54   1
 -15  19   3   67.72   12.69   1
 -14  19   3  113.18   13.93   1
 -13  19   3   12.15   11.42   1
 -12  19   3   18.15   11.41   1
 -10  19   3  105.37   14.43   1
  -9  19   3  115.56   13.50   1
  -7  19   3   31.22   12.41   1
  -5  19   3  101.87   13.43   1
  -3  19   3  123.22   14.02   1
  -2  19   3  175.76   14.59   1
  -1  19   3   17.92   11.10   1
   0  19   3   54.31   11.38   1
   1  19   3   36.91   11.57   1
   2  19   3   72.13   12.59   1
   3  19   3  103.26   12.94   1
   4  19   3   11.07    9.56   1
   7  19   3   75.61   13.20   1
   8  19   3   56.64   12.17   1
   9  19   3   23.54   13.44   1
  14  19   3   22.84   13.06   1
  14  18   3   14.21   13.26   1
  12  18   3   42.65   13.03   1
  11  18   3   40.24   13.63   1
   8  18   3   43.37   11.63   1
   5  18   3   51.03   11.19   1
   4  18   3   22.18   10.95   1
   3  18   3   35.46   11.55   1
  -1  18   3   87.00   13.07   1
  -2  18   3   27.62    9.84   1
  -3  18   3  200.23   14.24   1
  -4  18   3   59.09   12.44   1
  -5  18   3  148.97   13.07   1
  -6  18   3   24.33   11.20   1
  -7  18   3  286.56   16.83   1
  -8  18   3   96.43   14.26   1
  -9  18   3  157.78   14.73   1
 -10  18   3  103.29   13.93   1
 -11  18   3  268.78   16.84   1
 -12  18   3   12.69   12.55   1
 -13  18   3  115.38   14.19   1
 -14  18   3   80.68   13.31   1
 -15  18   3  191.34   15.85   1
 -16  18   3   20.32   12.77   1
 -17  18   3   89.69   13.87   1
 -22  18   3   24.19   13.23   1
 -23  18   3   65.59   13.60   1
 -24  18   3   10.21   11.94   1
 -25  18   3   21.78   11.32   1
 -26  18   3   37.95   12.43   1
 -27  18   3   19.45   12.46   1
 -29  18   3   43.55   14.71   1
 -31  18   3    1.34   12.70   1
 -33  17   3   56.20   13.09   1
 -29  17   3   19.60   12.13   1
 -28  17   3   64.99   14.12   1
 -25  17   3   65.90   13.64   1
 -24  17   3   39.13   12.67   1
 -23  17   3   90.05   13.78   1
 -22  17   3   58.42   14.52   1
 -21  17   3   47.15   13.08   1
 -19  17   3  142.90   15.62   1
 -18  17   3  123.75   13.85   1
 -17  17   3   85.94   13.60   1
 -16  17   3    7.11   10.31   1
 -15  17   3   26.81   12.18   1
 -13  17   3   75.69   13.35   1
 -12  17   3   70.85   13.58   1
 -11  17   3   48.39   11.98   1
 -10  17   3  201.50   15.58   1
  -8  17   3   45.14   11.03   1
  -7  17   3  178.17   16.05   1
  -6  17   3   62.32   11.85   1
  -5  17   3   69.30   12.01   1
  -4  17   3   80.47   12.68   1
  -3  17   3   14.63   10.23   1
  -2  17   3   36.24   11.21   1
  -1  17   3   10.56   10.17   1
   0  17   3  100.32   12.62   1
   1  17   3  118.63   12.30   1
   2  17   3  152.28   13.64   1
   4  17   3   36.34   11.74   1
   5  17   3   67.87   10.83   1
   6  17   3   92.44   13.07   1
   8  17   3   41.61   11.80   1
   9  17   3   44.49   11.28   1
  11  17   3   86.17   12.96   1
  12  17   3   23.09   13.16   1
  16  17   3   59.47   13.80   1
  17  16   3   62.17   14.60   1
  15  16   3    1.20   12.19   1
  14  16   3   68.41   13.68   1
  11  16   3   13.29   11.90   1
  10  16   3   56.85   12.48   1
   9  16   3   40.82   11.08   1
   8  16   3   19.52   11.14   1
   7  16   3  116.27   13.00   1
   6  16   3    1.04   10.18   1
   5  16   3  138.88   13.70   1
   3  16   3  123.98   12.83   1
   2  16   3   44.24   10.93   1
   1  16   3   12.05    9.89   1
  -1  16   3  133.58   13.35   1
  -2  16   3   92.11   12.35   1
  -3  16   3  310.85   15.85   1
  -5  16   3   57.57   11.66   1
  -6  16   3   24.84   11.68   1
  -7  16   3    8.11   11.37   1
  -9  16   3   12.47   11.79   1
 -10  16   3   20.92   12.17   1
 -11  16   3   47.44   11.90   1
 -12  16   3   18.65   10.38   1
 -13  16   3  311.75   17.47   1
 -14  16   3   98.79   13.47   1
 -15  16   3  138.38   14.30   1
 -17  16   3    3.64   11.16   1
 -18  16   3   47.87   12.82   1
 -19  16   3  104.82   14.25   1
 -21  16   3  133.82   14.59   1
 -23  16   3   70.90   14.43   1
 -24  16   3   30.11   12.30   1
 -25  16   3   35.00   12.34   1
 -26  16   3   47.39   14.58   1
 -27  16   3   28.80   12.07   1
 -30  16   3   60.33   14.41   1
 -31  16   3    5.09   10.88   1
 -33  16   3   56.17   13.30   1
 -29  15   3  115.82   15.90   1
 -28  15   3   20.44   12.64   1
 -25  15   3  104.06   13.77   1
 -24  15   3   13.85   12.13   1
 -23  15   3   35.46   13.61   1
 -22  15   3   16.21   11.94   1
 -21  15   3   87.83   13.86   1
 -19  15   3   54.65   13.83   1
 -18  15   3  200.36   15.68   1
 -16  15   3  165.48   14.49   1
 -15  15   3  403.98   18.97   1
 -14  15   3   49.13   11.70   1
 -12  15   3    0.97   11.00   1
 -10  15   3  102.28   13.34   1
  -9  15   3  133.29   14.58   1
  -7  15   3   27.76   10.95   1
  -6  15   3  111.42   13.29   1
  -5  15   3  122.27   13.43   1
  -4  15   3   15.73   10.61   1
  -1  15   3   45.90   11.29   1
   0  15   3  385.47   17.44   1
   1  15   3  127.97   13.07   1
   3  15   3  197.12   14.31   1
   6  15   3   82.52   12.11   1
   8  15   3   46.99   11.54   1
  10  15   3   96.09   13.54   1
  13  15   3   36.11   11.93   1
  14  15   3  120.71   16.03   1
  15  15   3   13.28   12.34   1
  19  14   3   22.83   14.66   1
  16  14   3   56.41   14.46   1
  15  14   3  140.85   15.41   1
  13  14   3   29.05   11.60   1
  11  14   3   29.51   11.15   1
  10  14   3   36.02   11.64   1
   9  14   3   11.84   11.26   1
   8  14   3  195.57   14.87   1
   7  14   3   42.37   11.80   1
   6  14   3   57.33   10.94   1
   5  14   3  125.82   12.37   1
   4  14   3   72.93   11.28   1
   2  14   3   83.92   11.10   1
   1  14   3   31.79   10.74   1
   0  14   3  144.21   12.30   1
  -2  14   3   25.54    9.61   1
  -4  14   3   39.36   10.36   1
  -6  14   3  267.80   16.09   1
  -7  14   3   66.22   12.24   1
  -8  14   3  275.83   15.75   1
  -9  14   3   19.76   11.12   1
 -10  14   3   55.71   11.58   1
 -11  14   3   32.47   11.31   1
 -14  14   3  112.20   13.93   1
 -15  14   3   43.51   11.08   1
 -16  14   3   89.99   12.37   1
 -17  14   3   22.66   10.73   1
 -18  14   3   78.66   12.02   1
 -19  14   3  124.81   13.56   1
 -20  14   3   47.55   12.42   1
 -21  14   3   51.06   11.48   1
 -22  14   3  195.65   15.89   1
 -24  14   3   59.45   12.59   1
 -28  14   3   38.68   10.86   1
 -29  14   3  168.55   16.03   1
 -30  14   3   48.95   13.61   1
 -31  14   3    4.44   11.62   1
 -29  13   3   13.30   10.89   1
 -26  13   3  148.72   14.71   1
 -24  13   3    9.57   10.56   1
 -22  13   3   97.18   13.66   1
 -21  13   3   28.22   10.79   1
 -20  13   3  125.60   15.02   1
 -18  13   3  112.00   13.60   1
 -17  13   3   60.25   12.84   1
 -16  13   3  350.45   17.22   1
 -15  13   3    0.62    9.65   1
 -12  13   3  198.95   15.40   1
 -10  13   3  126.83   12.67   1
  -9  13   3   69.82   11.96   1
  -8  13   3   22.41   10.00   1
  -7  13   3   74.21   11.83   1
  -6  13   3   79.57   11.33   1
  -4  13   3   64.97   10.65   1
  -3  13   3  163.39   12.09   1
  -2  13   3   12.96    8.69   1
  -1  13   3  199.99   13.62   1
   0  13   3   26.72    8.82   1
   3  13   3  322.30   14.71   1
   4  13   3   60.41    9.94   1
   5  13   3  108.77   12.69   1
   6  13   3   11.16    9.42   1
   7  13   3  114.34   13.43   1
   8  13   3   16.75    9.72   1
   9  13   3   94.07   11.97   1
  11  13   3   17.94   11.47   1
  12  13   3   19.28   12.23   1
  13  13   3  128.61   14.37   1
  14  13   3   23.38   11.78   1
  15  13   3   28.38   12.86   1
  18  12   3   39.09   13.12   1
  16  12   3    1.12   11.04   1
  15  12   3   17.05   12.02   1
  14  12   3    4.54   11.92   1
  13  12   3   20.24   11.82   1
  10  12   3   34.88   11.44   1
   8  12   3   21.87   11.66   1
   7  12   3   23.84   10.79   1
   6  12   3   23.01   10.65   1
   5  12   3   82.66   11.24   1
   4  12   3   21.64    9.14   1
   3  12   3    1.36    8.17   1
   2  12   3   23.05    9.75   1
   1  12   3  193.10   13.29   1
   0  12   3  112.72   11.09   1
  -1  12   3  331.75   15.13   1
  -2  12   3   28.11   10.21   1
  -3  12   3  205.29   13.47   1
  -4  12   3  416.92   17.23   1
  -5  12   3  243.14   14.06   1
  -6  12   3  176.30   13.63   1
  -7  12   3  256.27   14.38   1
  -8  12   3  440.01   18.16   1
  -9  12   3  213.21   14.01   1
 -11  12   3  336.47   15.58   1
 -12  12   3  105.77   12.98   1
 -13  12   3  209.70   14.92   1
 -14  12   3   41.00   10.48   1
 -16  12   3   12.49   10.79   1
 -17  12   3   76.02   12.37   1
 -19  12   3   18.45   11.23   1
 -20  12   3   27.34   11.97   1
 -22  12   3   29.25   12.65   1
 -25  12   3   21.08   11.55   1
 -27  12   3    7.49   11.18   1
 -29  12   3    3.50   12.57   1
 -30  12   3   40.42   14.74   1
 -29  11   3   32.60   12.84   1
 -28  11   3   77.90   13.47   1
 -27  11   3   16.48   11.49   1
 -22  11   3  343.61   18.09   1
 -21  11   3    0.49   10.53   1
 -18  11   3  275.56   15.79   1
 -17  11   3   45.71   13.06   1
 -16  11   3   99.66   12.41   1
 -15  11   3   14.55   10.75   1
 -14  11   3   30.57   11.21   1
 -13  11   3    5.98    9.98   1
 -12  11   3  346.12   16.76   1
 -11  11   3  187.85   13.54   1
  -9  11   3   33.82   10.28   1
  -8  11   3  152.71   12.57   1
  -7  11   3  124.59   13.35   1
  -6  11   3  216.39   13.84   1
  -5  11   3  220.86   13.03   1
  -4  11   3  127.79   11.74   1
  -3  11   3  164.19   12.41   1
  -2  11   3   49.97    9.32   1
   0  11   3  157.97   12.12   1
   1  11   3  332.18   14.85   1
   2  11   3    3.07    9.44   1
   3  11   3   35.32    9.18   1
   5  11   3   59.77   10.15   1
   6  11   3   58.74   10.62   1
   7  11   3  270.54   15.11   1
  11  11   3  366.78   17.49   1
  13  11   3   17.78   11.28   1
  14  11   3   24.12   11.86   1
  15  11   3    0.02   11.70   1
  17  11   3   74.68   14.63   1
  18  11   3   40.20   15.40   1
  20  10   3   64.60   16.19   1
  18  10   3    8.43   12.41   1
  17  10   3   22.97   11.86   1
  16  10   3   59.59   12.95   1
  15  10   3   90.86   14.34   1
  14  10   3   43.80   12.44   1
  13  10   3   32.05   11.78   1
  12  10   3   18.55   11.30   1
  10  10   3  210.83   15.44   1
   9  10   3   96.36   12.25   1
   8  10   3  107.82   12.15   1
   7  10   3  224.98   13.56   1
   6  10   3   22.80    9.67   1
   5  10   3  127.30   11.76   1
   4  10   3   27.06    9.55   1
   3  10   3  150.43   11.38   1
   2  10   3   36.67    9.36   1
   0  10   3    0.47    8.86   1
  -1  10   3  207.68   13.20   1
  -2  10   3   64.97    9.97   1
  -3  10   3  213.41   13.07   1
  -4  10   3  102.28   11.04   1
  -5  10   3  138.90   12.12   1
  -6  10   3  101.48   12.11   1
  -7  10   3  223.86   13.89   1
  -8  10   3   73.91   10.65   1
  -9  10   3  212.17   13.39   1
 -13  10   3  143.56   13.24   1
 -14  10   3   36.03   11.12   1
 -15  10   3  108.64   13.01   1
 -16  10   3   26.54   11.14   1
 -17  10   3  226.41   13.56   1
 -18  10   3  102.70   13.40   1
 -19  10   3  114.50   15.09   1
 -20  10   3  237.00   15.40   1
 -22  10   3   21.98   12.44   1
 -24  10   3   47.21   11.79   1
 -25  10   3  124.59   13.89   1
 -26  10   3   43.80   12.87   1
 -27  10   3   22.14   11.08   1
 -28  10   3   21.37   12.31   1
 -30  10   3   75.51   14.06   1
 -31  10   3   20.38   11.16   1
 -30   9   3   44.42   12.57   1
 -29   9   3   40.39   13.43   1
 -28   9   3   21.35   13.54   1
 -27   9   3    6.95   11.35   1
 -25   9   3   25.86   11.39   1
 -24   9   3   13.63   10.75   1
 -22   9   3   89.18   14.36   1
 -21   9   3   11.71   10.62   1
 -19   9   3  116.44   12.82   1
 -18   9   3  107.46   13.23   1
 -17   9   3   34.30   11.79   1
 -15   9   3  122.98   12.84   1
 -14   9   3   13.26   11.10   1
 -13   9   3   51.18   11.52   1
 -12   9   3  172.52   14.28   1
 -11   9   3   32.59   10.88   1
 -10   9   3  222.90   13.86   1
  -9   9   3  188.10   12.56   1
  -8   9   3  212.35   13.70   1
  -7   9   3   58.41   10.64   1
  -6   9   3   94.77   11.77   1
  -5   9   3  124.79   11.84   1
  -4   9   3  129.05   12.41   1
  -3   9   3   92.79   10.67   1
  -2   9   3   61.69   10.50   1
  -1   9   3  205.85   13.67   1
   0   9   3  166.02   12.41   1
   1   9   3  215.86   13.22   1
   2   9   3   33.60    9.55   1
   3   9   3  207.34   13.10   1
   4   9   3   61.24   10.34   1
   6   9   3  121.05   11.65   1
   7   9   3   15.76   10.21   1
   9   9   3  131.51   12.78   1
  10   9   3   93.24   13.09   1
  12   9   3   27.46   11.62   1
  13   9   3   97.60   13.62   1
  16   9   3   33.90   12.46   1
  17   9   3   36.53   13.30   1
  20   9   3   42.33   15.01   1
  21   9   3   23.58   15.35   1
  23   9   3   14.37   13.84   1
  22   8   3   29.50   13.23   1
  21   8   3   42.80   15.00   1
  20   8   3   16.97   14.05   1
  19   8   3   70.94   14.63   1
  17   8   3   75.95   13.89   1
  15   8   3   29.89   12.53   1
  14   8   3  182.73   14.91   1
  12   8   3   36.61   13.05   1
  10   8   3  102.39   11.95   1
   9   8   3   30.04   10.46   1
   8   8   3   13.81    9.07   1
   7   8   3   15.19    9.38   1
   6   8   3  288.71   14.72   1
   4   8   3  420.30   16.91   1
   3   8   3  150.38   12.33   1
   2   8   3   48.43   10.11   1
   1   8   3  222.70   12.45   1
  -2   8   3   33.96    9.39   1
  -3   8   3  118.33   11.54   1
  -4   8   3   16.14   10.36   1
  -5   8   3   96.93   11.41   1
  -6   8   3   26.15   10.60   1
  -7   8   3    7.04   10.14   1
  -8   8   3    3.48    9.48   1
  -9   8   3  231.65   13.96   1
 -11   8   3  153.48   13.79   1
 -12   8   3  416.00   17.62   1
 -14   8   3  300.48   16.97   1
 -15   8   3    8.85   11.15   1
 -17   8   3   38.37   11.31   1
 -18   8   3  114.75   13.59   1
 -19   8   3    6.42   10.21   1
 -20   8   3   24.67   11.54   1
 -21   8   3   16.25   11.40   1
 -22   8   3  205.28   16.48   1
 -23   8   3   35.35   12.75   1
 -24   8   3   13.27   12.12   1
 -25   8   3   61.18   13.76   1
 -26   8   3   33.26   13.10   1
 -27   8   3   55.66   12.64   1
 -30   8   3   11.74   12.11   1
 -30   7   3    2.57   13.78   1
 -29   7   3   22.83   12.96   1
 -28   7   3   94.82   15.20   1
 -26   7   3   76.79   13.13   1
 -25   7   3   15.69   11.03   1
 -24   7   3   28.61   13.22   1
 -23   7   3   92.14   13.74   1
 -21   7   3   37.28   12.11   1
 -20   7   3  114.09   13.75   1
 -19   7   3   38.57   11.95   1
 -18   7   3  283.53   16.72   1
 -17   7   3  207.09   14.95   1
 -16   7   3   19.60   10.88   1
 -14   7   3   74.95   12.67   1
 -13   7   3   82.94   12.48   1
 -12   7   3  202.93   14.62   1
 -11   7   3  149.33   13.46   1
 -10   7   3  210.08   15.14   1
  -9   7   3   65.29   11.44   1
  -7   7   3  126.36   11.75   1
  -6   7   3  120.67   12.15   1
  -5   7   3  230.10   14.12   1
  -4   7   3   53.02   11.20   1
  -3   7   3   59.52   10.76   1
  -2   7   3  208.98   13.39   1
  -1   7   3  127.91   11.51   1
   0   7   3  111.69   11.19   1
   1   7   3   13.05    8.95   1
   2   7   3   72.49   10.85   1
   3   7   3  226.72   13.35   1
   4   7   3  132.06   11.53   1
   5   7   3  214.85   13.15   1
   6   7   3   62.89   10.75   1
   7   7   3   77.82   11.07   1
   9   7   3   28.47    9.43   1
  10   7   3  195.75   14.76   1
  11   7   3  273.86   16.46   1
  12   7   3   25.32   11.90   1
  13   7   3  116.03   13.65   1
  14   7   3   41.46   12.42   1
  15   7   3    1.09   10.86   1
  16   7   3   87.67   13.79   1
  17   7   3   31.03   13.34   1
  18   7   3   21.30   12.27   1
  19   7   3   67.64   15.29   1
  21   7   3  100.45   16.53   1
  22   7   3   25.01   14.76   1
  23   7   3   16.32   15.00   1
  22   6   3   18.37   13.86   1
  18   6   3    3.03   12.86   1
  17   6   3   71.28   15.02   1
  15   6   3   77.58   13.86   1
  14   6   3   44.25   13.14   1
  12   6   3   35.72   10.63   1
  11   6   3   67.19   11.82   1
   9   6   3  114.67   12.42   1
   8   6   3  295.35   15.30   1
   7   6   3   78.37   10.59   1
   6   6   3  166.94   12.54   1
   5   6   3  198.37   13.55   1
   4   6   3  103.79   11.28   1
   3   6   3  100.50   10.48   1
   2   6   3   20.00    8.92   1
   1   6   3  108.66   11.19   1
   0   6   3  244.96   13.50   1
  -1   6   3  694.18   20.09   1
  -2   6   3  342.06   15.71   1
  -3   6   3  334.02   15.88   1
  -4   6   3  340.42   16.62   1
  -5   6   3  680.30   21.16   1
  -6   6   3  262.85   14.26   1
  -7   6   3  108.63   11.89   1
  -8   6   3   21.30   10.61   1
  -9   6   3  105.95   12.26   1
 -10   6   3   97.92   13.06   1
 -11   6   3  196.15   15.17   1
 -12   6   3  156.53   14.52   1
 -13   6   3   79.21   12.35   1
 -14   6   3  301.99   16.51   1
 -15   6   3  129.62   14.13   1
 -16   6   3   14.27   10.74   1
 -17   6   3   53.06   12.07   1
 -20   6   3   58.88   12.68   1
 -21   6   3   73.16   14.48   1
 -23   6   3   75.84   13.75   1
 -29   6   3   10.31   13.27   1
 -30   6   3   40.56   14.77   1
 -29   5   3   48.82   14.68   1
 -28   5   3    8.07   12.88   1
 -25   5   3    0.90   12.42   1
 -23   5   3  101.72   12.71   1
 -22   5   3   88.48   13.17   1
 -21   5   3  142.86   15.11   1
 -19   5   3  113.78   14.64   1
 -18   5   3  113.17   13.78   1
 -17   5   3   64.07   13.18   1
 -16   5   3   63.94   12.51   1
 -15   5   3  121.25   13.69   1
 -13   5   3   13.94   10.90   1
 -12   5   3  202.36   14.71   1
 -11   5   3  208.55   14.36   1
 -10   5   3  118.79   13.82   1
  -9   5   3  133.44   12.99   1
  -8   5   3   95.31   12.58   1
  -7   5   3  226.11   14.04   1
  -6   5   3  732.40   19.98   1
  -5   5   3  718.54   21.62   1
  -4   5   3   11.17   10.43   1
  -3   5   3   78.40   11.23   1
  -2   5   3   80.38   11.06   1
   0   5   3  740.84   19.64   1
   1   5   3  683.96   19.42   1
   2   5   3  212.42   13.04   1
   3   5   3   85.81   11.13   1
   4   5   3  128.55   10.86   1
   5   5   3  133.18   12.33   1
   6   5   3  190.90   13.00   1
   7   5   3  216.90   13.65   1
   8   5   3   18.74    9.71   1
   9   5   3   32.52   10.31   1
  10   5   3  132.49   12.57   1
  11   5   3   58.69   11.53   1
  12   5   3   71.84   11.59   1
  13   5   3  122.88   14.23   1
  14   5   3  109.28   14.78   1
  15   5   3    0.69   11.70   1
  16   5   3  130.04   15.61   1
  17   5   3   69.09   14.40   1
  18   5   3   48.64   12.79   1
  19   5   3    0.20   12.71   1
  20   5   3    0.11   13.59   1
  22   5   3    0.65   13.96   1
  23   5   3   14.91   14.11   1
  24   5   3   51.73   17.50   1
  25   5   3   28.59   15.25   1
  26   4   3   60.28   14.54   1
  24   4   3    0.35   14.86   1
  21   4   3  141.49   17.98   1
  20   4   3   35.20   15.83   1
  18   4   3   35.80   14.44   1
  15   4   3   68.98   12.91   1
  14   4   3   64.21   12.15   1
  13   4   3   56.69   12.71   1
  12   4   3   13.63    9.76   1
  10   4   3   42.94   10.37   1
   9   4   3   60.76   11.37   1
   8   4   3  408.99   17.68   1
   7   4   3  127.26   11.65   1
   6   4   3  108.29   11.33   1
   5   4   3  122.81   11.88   1
   4   4   3   43.28    9.89   1
   3   4   3   68.35   10.15   1
   2   4   3  337.58   15.42   1
   1   4   3   14.14    9.44   1
  -1   4   3   22.85   10.23   1
  -2   4   3  835.60   21.01   1
  -3   4   3   26.37   10.61   1
  -6   4   3  362.56   15.51   1
  -7   4   3   84.68   11.54   1
  -8   4   3   44.12   10.68   1
  -9   4   3  116.53   12.97   1
 -10   4   3  107.32   12.30   1
 -11   4   3  151.14   13.71   1
 -12   4   3  428.84   18.33   1
 -13   4   3   53.33   11.76   1
 -14   4   3   40.29   11.17   1
 -15   4   3    6.28   10.78   1
 -16   4   3   25.74   10.76   1
 -17   4   3   53.07   12.00   1
 -18   4   3   59.36   12.42   1
 -19   4   3   52.68   12.80   1
 -21   4   3   51.55   11.80   1
 -22   4   3   34.73   12.19   1
 -23   4   3    2.97   12.42   1
 -24   4   3   66.77   14.13   1
 -25   4   3  128.59   14.96   1
 -27   4   3   38.12   14.74   1
 -30   4   3   45.67   12.97   1
 -29   3   3   21.03   13.58   1
 -27   3   3   32.47   13.63   1
 -26   3   3    7.53   12.03   1
 -25   3   3    4.11   13.40   1
 -24   3   3   58.39   14.01   1
 -23   3   3   55.47   12.79   1
 -22   3   3  123.09   14.18   1
 -21   3   3   38.15   12.53   1
 -19   3   3  123.37   14.61   1
 -18   3   3  208.98   15.24   1
 -16   3   3  316.86   16.69   1
 -14   3   3   36.14   12.14   1
 -13   3   3  152.30   13.14   1
 -12   3   3  203.08   14.26   1
 -11   3   3  151.04   13.69   1
 -10   3   3  231.54   13.87   1
  -9   3   3   97.69   12.65   1
  -8   3   3  110.11   13.10   1
  -7   3   3   72.96   11.65   1
  -6   3   3  352.70   15.86   1
  -5   3   3   91.37   11.78   1
  -4   3   3   26.14   11.60   1
  -3   3   3   14.24   10.47   1
  -2   3   3   36.74   10.31   1
  -1   3   3   30.33    9.80   1
   0   3   3   11.02    9.47   1
   1   3   3   30.06   10.05   1
   2   3   3   84.79   10.80   1
   3   3   3  331.52   14.89   1
   4   3   3   59.92   10.07   1
   5   3   3  101.80   11.01   1
   6   3   3   93.66   11.03   1
   7   3   3  211.37   13.45   1
   8   3   3  164.75   12.88   1
   9   3   3  186.34   13.58   1
  10   3   3  137.27   13.26   1
  11   3   3   26.38   10.63   1
  13   3   3  316.00   17.77   1
  14   3   3   20.78   10.86   1
  15   3   3  197.13   16.98   1
  16   3   3  104.80   15.20   1
  17   3   3   28.41   12.62   1
  18   3   3   41.60   12.65   1
  19   3   3  110.69   15.95   1
  20   3   3   40.12   15.28   1
  21   3   3   81.20   15.37   1
  22   3   3    6.15   11.70   1
  24   3   3   36.05   18.04   1
  27   3   3    0.94   14.44   1
  26   2   3   18.22   15.67   1
  25   2   3   41.51   16.96   1
  21   2   3   36.87   14.95   1
  20   2   3   38.00   14.26   1
  19   2   3   64.75   14.60   1
  17   2   3  137.39   16.01   1
  16   2   3   51.82   12.82   1
  14   2   3   70.09   13.22   1
  13   2   3    4.20    9.64   1
  12   2   3   31.16   10.80   1
  11   2   3    7.71    9.91   1
  10   2   3   34.98    9.82   1
   9   2   3   36.98   10.06   1
   8   2   3   66.07   10.52   1
   7   2   3   60.29   10.25   1
   6   2   3   34.61    9.60   1
   5   2   3  214.50   12.54   1
   4   2   3  336.84   15.09   1
   3   2   3   82.90   10.10   1
   2   2   3  813.71   20.20   1
   0   2   3   38.01    9.59   1
  -1   2   3  248.35   13.01   1
  -2   2   3   47.01   10.37   1
  -3   2   3   31.92   11.03   1
  -4   2   3  818.21   21.59   1
  -5   2   3   85.81   11.64   1
  -6   2   3  342.67   15.51   1
  -7   2   3  211.33   14.47   1
  -9   2   3   67.47   11.92   1
 -10   2   3   58.19   12.81   1
 -11   2   3   31.48   11.59   1
 -12   2   3   32.92   10.92   1
 -16   2   3   79.87   13.75   1
 -17   2   3   24.22   12.01   1
 -18   2   3   51.40   12.71   1
 -19   2   3  148.59   16.27   1
 -20   2   3   16.63   12.73   1
 -21   2   3   69.86   13.77   1
 -22   2   3   24.38   12.17   1
 -23   2   3   37.88   12.94   1
 -25   2   3    0.91   11.82   1
 -26   2   3   18.07   13.33   1
 -28   2   3   41.05   13.85   1
 -29   1   3   28.22   14.30   1
 -28   1   3   27.00   14.90   1
 -26   1   3    4.49   13.60   1
 -24   1   3   36.52   14.15   1
 -22   1   3   74.26   14.28   1
 -20   1   3   40.13   13.10   1
 -19   1   3   17.18   11.58   1
 -18   1   3  112.99   14.78   1
 -16   1   3  131.95   14.90   1
 -13   1   3  190.79   15.36   1
 -12   1   3  357.79   16.98   1
 -10   1   3  204.23   15.88   1
  -9   1   3  232.86   14.89   1
  -8   1   3   17.33   11.53   1
  -7   1   3  107.76   14.50   1
  -6   1   3  715.78   21.08   1
  -5   1   3   12.87   10.52   1
  -4   1   3   23.24   11.72   1
  -3   1   3   27.63   11.51   1
  -2   1   3  237.45   13.82   1
  -1   1   3   24.53   10.27   1
   0   1   3   30.37    9.90   1
   1   1   3  250.14   12.60   1
   2   1   3   32.36    9.85   1
   3   1   3   30.32    9.44   1
   4   1   3   12.78    9.35   1
   5   1   3  708.96   19.55   1
   6   1   3  122.82   12.06   1
   7   1   3   12.77    9.41   1
   8   1   3  209.31   14.71   1
   9   1   3  219.43   13.63   1
  11   1   3  336.18   16.87   1
  12   1   3  201.69   15.59   1
  14   1   3   31.26   12.29   1
  15   1   3  111.72   15.33   1
  16   1   3   19.16   12.52   1
  17   1   3  126.22   14.79   1
  18   1   3   19.75   11.55   1
  19   1   3   19.72   13.34   1
  21   1   3   55.12   15.50   1
  23   1   3   51.81   15.48   1
  27   1   3   24.62   14.86   1
  27   0   3   32.59   16.51   1
  26   0   3   58.75   15.91   1
  25   0   3   61.90   16.58   1
  24   0   3   69.55   16.27   1
  23   0   3  133.76   16.24   1
  21   0   3    2.51   11.43   1
  20   0   3  100.47   14.52   1
  19   0   3   32.01   14.09   1
  18   0   3    7.04   11.75   1
  17   0   3   89.43   14.93   1
  15   0   3  351.76   20.03   1
  14   0   3  132.43   13.89   1
  13   0   3   12.86   11.49   1
  12   0   3  102.04   13.22   1
  11   0   3  148.98   13.84   1
   9   0   3  171.33   14.02   1
   7   0   3  117.15   12.21   1
   6   0   3  226.71   14.20   1
   5   0   3  781.49   20.89   1
   4   0   3   11.96    9.10   1
   2   0   3   52.20    9.79   1
   1   0   3   21.92    9.87   1
   0   0   3   11.07   10.24   1
  -1   0   3   38.71   10.69   1
  -2   0   3   40.79   11.58   1
  -3   0   3    8.65   11.17   1
  -5   0   3  749.76   21.12   1
  -6   0   3  225.45   15.63   1
  -7   0   3  115.36   13.63   1
  -9   0   3  187.20   14.23   1
 -11   0   3  166.47   13.99   1
 -12   0   3  116.80   13.86   1
 -13   0   3   29.10   10.96   1
 -14   0   3  115.23   14.09   1
 -15   0   3  366.14   20.22   1
 -17   0   3   78.17   13.48   1
 -18   0   3   12.81   12.46   1
 -19   0   3   33.62   13.66   1
 -20   0   3   91.31   14.34   1
 -23   0   3  138.75   16.46   1
 -24   0   3   90.60   15.05   1
 -25   0   3   67.06   16.30   1
 -26   0   3   79.45   17.31   1
 -28   0   3   23.33   14.30   1
 -26   0   4    2.15   17.28   1
 -25   0   4   13.29   16.73   1
 -24   0   4    1.40   15.82   1
 -23   0   4   63.53   20.22   1
 -21   0   4   37.04   15.71   1
 -19   0   4    5.54   15.06   1
 -18   0   4   14.95   14.26   1
 -17   0   4    0.00   14.15   1
 -15   0   4    7.18   13.11   1
 -14   0   4   44.31   16.36   1
 -13   0   4  110.98   16.73   1
 -12   0   4   53.24   15.31   1
 -10   0   4  174.31   17.98   1
  -9   0   4   54.40   15.28   1
  -7   0   4    0.23   13.55   1
  -6   0   4  335.44   20.40   1
  -4   0   4   57.44   12.02   1
  -3   0   4   91.78   13.43   1
  -2   0   4    5.04   10.32   1
   0   0   4 5232.71  110.95   1
   1   0   4    0.01   11.18   1
   3   0   4  109.02   12.90   1
   4   0   4   63.79   11.84   1
   6   0   4  328.99   17.46   1
   7   0   4    3.54   10.04   1
   9   0   4   40.83   12.25   1
  10   0   4  150.41   15.63   1
  11   0   4   40.51   12.93   1
  12   0   4   52.23   14.66   1
  13   0   4   99.35   15.94   1
  14   0   4   31.92   14.29   1
  18   0   4   20.79   13.99   1
  20   0   4    4.26   13.79   1
  21   0   4   34.41   16.67   1
  23   0   4   75.82   18.28   1
  26   0   4    0.16   15.29   1
  22   1   4   18.86   15.19   1
  20   1   4   78.54   16.58   1
  19   1   4   54.94   15.70   1
  18   1   4   18.63   13.56   1
  17   1   4   85.98   15.72   1
  16   1   4   50.27   14.16   1
  14   1   4  182.11   17.10   1
  12   1   4  160.56   15.44   1
  11   1   4  297.97   18.46   1
   9   1   4   28.01   11.63   1
   8   1   4  121.61   13.90   1
   7   1   4   22.06   10.84   1
   6   1   4  192.23   15.07   1
   5   1   4    2.81   10.83   1
   4   1   4  162.10   14.24   1
   3   1   4   20.79   11.85   1
   2   1   4   50.16   11.74   1
  -3   1   4   28.46   12.93   1
  -5   1   4  142.98   16.59   1
  -7   1   4  224.31   18.82   1
  -8   1   4   27.55   14.21   1
  -9   1   4  106.18   17.16   1
 -10   1   4   19.48   13.82   1
 -11   1   4   26.41   14.58   1
 -12   1   4  302.70   20.69   1
 -13   1   4  144.18   18.79   1
 -14   1   4    6.96   14.91   1
 -15   1   4  184.47   18.95   1
 -17   1   4   30.65   14.83   1
 -18   1   4   88.56   16.48   1
 -19   1   4   33.84   16.52   1
 -20   1   4   44.82   16.15   1
 -21   1   4   77.86   17.07   1
 -23   1   4   19.59   16.59   1
 -25   1   4   41.05   20.17   1
 -26   1   4   20.38   17.99   1
 -27   1   4   35.88   18.09   1
 -27   2   4   92.83   20.42   1
 -25   2   4    2.99   15.50   1
 -24   2   4   38.91   15.92   1
 -23   2   4   43.19   16.45   1
 -21   2   4  134.04   16.40   1
 -19   2   4  100.79   15.77   1
 -18   2   4  107.26   17.24   1
 -17   2   4   15.51   14.39   1
 -14   2   4   22.27   13.81   1
 -13   2   4   94.91   16.87   1
 -12   2   4   81.03   16.50   1
 -11   2   4   40.44   16.34   1
 -10   2   4   52.88   14.66   1
  -9   2   4   87.81   16.01   1
  -8   2   4  105.56   16.44   1
  -7   2   4   81.47   15.45   1
  -6   2   4   22.78   12.84   1
  -4   2   4   52.23   12.19   1
  -3   2   4   43.03   11.60   1
   1   2   4   34.60   11.83   1
   2   2   4   36.61   10.98   1
   4   2   4   10.47   10.95   1
   5   2   4   94.56   12.34   1
   6   2   4  137.37   13.29   1
   7   2   4  102.30   12.44   1
   8   2   4   60.01   12.11   1
   9   2   4   49.68   11.76   1
  10   2   4   77.32   13.56   1
  11   2   4   97.79   14.91   1
  13   2   4    7.39   12.14   1
  15   2   4   10.10   13.55   1
  16   2   4  125.04   16.46   1
  17   2   4   82.04   16.17   1
  18   2   4   30.87   13.73   1
  19   2   4  136.64   16.23   1
  21   2   4   40.36   14.21   1
  22   2   4   23.19   15.16   1
  24   2   4    4.71   12.95   1
  25   2   4   73.61   17.67   1
  24   3   4    3.68   13.84   1
  23   3   4   47.44   14.99   1
  22   3   4   93.78   18.35   1
  21   3   4   16.98   16.01   1
  19   3   4   41.15   15.29   1
  15   3   4   36.32   12.10   1
  14   3   4   54.95   13.79   1
  13   3   4   94.08   14.35   1
  12   3   4    0.16   11.46   1
  11   3   4   50.04   12.34   1
  10   3   4  140.24   14.75   1
   8   3   4  150.94   14.05   1
   7   3   4  100.09   12.88   1
   6   3   4   86.28   12.63   1
   5   3   4  221.68   15.16   1
   4   3   4  301.34   16.24   1
   3   3   4   36.42   10.48   1
   1   3   4   24.54   10.19   1
   0   3   4   94.71   12.29   1
  -1   3   4   46.94   11.52   1
  -2   3   4   33.01   11.94   1
  -3   3   4   88.34   12.55   1
  -4   3   4   27.55   11.13   1
  -6   3   4   40.65   12.13   1
  -7   3   4  297.13   19.19   1
  -8   3   4  194.38   19.25   1
  -9   3   4   77.32   15.90   1
 -10   3   4  109.69   15.31   1
 -11   3   4  126.95   17.08   1
 -13   3   4  134.46   17.17   1
 -14   3   4   49.66   14.91   1
 -16   3   4   83.98   16.05   1
 -17   3   4   45.15   14.18   1
 -18   3   4   42.34   14.63   1
 -19   3   4   25.17   13.41   1
 -22   3   4   68.32   16.33   1
 -24   3   4   20.64   16.24   1
 -25   3   4   68.11   15.46   1
 -26   3   4   42.43   16.22   1
 -28   4   4    1.70   13.96   1
 -27   4   4   25.11   15.21   1
 -23   4   4   13.08   13.88   1
 -22   4   4   53.66   15.12   1
 -20   4   4   45.47   16.05   1
 -19   4   4   39.10   13.44   1
 -17   4   4   71.37   16.30   1
 -16   4   4  141.51   16.79   1
 -15   4   4   97.69   15.92   1
 -14   4   4   34.97   14.64   1
 -13   4   4   26.09   14.26   1
 -11   4   4  112.00   17.01   1
 -10   4   4   72.61   16.18   1
  -9   4   4   67.59   14.87   1
  -8   4   4  262.79   18.39   1
  -7   4   4  287.81   18.22   1
  -5   4   4  169.08   14.58   1
  -4   4   4   53.88   11.79   1
  -2   4   4   42.22   11.08   1
  -1   4   4   28.12   10.16   1
   0   4   4   44.10   10.44   1
   1   4   4  143.76   13.51   1
   3   4   4  292.42   15.99   1
   4   4   4  258.30   14.66   1
   5   4   4   60.05   11.04   1
   6   4   4   90.71   12.05   1
   7   4   4  138.52   13.81   1
   9   4   4   16.70   10.92   1
  10   4   4   30.60   11.13   1
  11   4   4   80.95   13.22   1
  12   4   4  144.80   14.00   1
  13   4   4   93.49   13.46   1
  14   4   4    1.17   11.68   1
  16   4   4   34.68   13.91   1
  18   4   4   41.35   13.52   1
  19   4   4   15.13   15.13   1
  20   4   4   14.58   14.23   1
  23   5   4    6.55   13.85   1
  22   5   4   37.37   15.30   1
  20   5   4   58.51   14.92   1
  19   5   4   37.79   14.62   1
  17   5   4   48.79   14.03   1
  15   5   4  106.22   15.23   1
  14   5   4   34.84   12.14   1
  12   5   4   54.40   13.35   1
  11   5   4   50.87   12.69   1
  10   5   4   94.81   13.56   1
   9   5   4  127.16   13.45   1
   8   5   4   66.51   11.16   1
   7   5   4   35.39   10.50   1
   6   5   4   75.51   11.70   1
   5   5   4  206.06   14.95   1
   4   5   4   42.73   10.82   1
   3   5   4  232.06   13.90   1
   2   5   4   90.17   12.05   1
   0   5   4    0.45    9.26   1
  -1   5   4  161.09   13.06   1
  -4   5   4  177.52   13.74   1
  -6   5   4   21.16   10.75   1
  -7   5   4   86.41   14.16   1
  -8   5   4  224.50   17.75   1
  -9   5   4   63.16   13.39   1
 -10   5   4  193.69   17.78   1
 -11   5   4   73.01   15.73   1
 -12   5   4   29.36   14.52   1
 -13   5   4   47.45   14.69   1
 -14   5   4   98.62   16.82   1
 -15   5   4   90.92   16.55   1
 -16   5   4   59.05   13.79   1
 -17   5   4   65.34   14.98   1
 -18   5   4   19.97   12.92   1
 -19   5   4   61.04   14.58   1
 -20   5   4   92.44   17.18   1
 -21   5   4   19.90   13.72   1
 -22   5   4   54.35   15.35   1
 -24   5   4   30.41   13.86   1
 -27   5   4   19.08   14.24   1
 -29   6   4   37.31   16.98   1
 -28   6   4   83.56   16.88   1
 -25   6   4   40.13   16.29   1
 -23   6   4   35.10   14.59   1
 -22   6   4   37.81   14.62   1
 -21   6   4   27.53   15.34   1
 -20   6   4   28.69   14.47   1
 -19   6   4    0.74   13.65   1
 -18   6   4  121.51   16.88   1
 -17   6   4   73.35   15.07   1
 -16   6   4  323.93   20.83   1
 -13   6   4   37.17   14.09   1
 -12   6   4   80.43   15.86   1
 -11   6   4   96.18   16.32   1
 -10   6   4   76.11   15.28   1
  -9   6   4   64.23   14.87   1
  -8   6   4  140.65   15.83   1
  -7   6   4  218.73   16.78   1
  -6   6   4  372.04   17.44   1
  -5   6   4   17.14   10.67   1
  -4   6   4   15.64   10.98   1
  -3   6   4   33.18   10.50   1
  -1   6   4   19.04    9.69   1
   0   6   4  331.63   16.07   1
   1   6   4  228.81   14.24   1
   2   6   4  139.03   12.63   1
   3   6   4   72.32   10.99   1
   4   6   4   80.66   11.53   1
   5   6   4   68.85   11.27   1
   6   6   4   61.04   11.44   1
   7   6   4   33.99   11.35   1
   9   6   4   29.79   10.84   1
  10   6   4  303.81   17.41   1
  11   6   4   81.03   12.78   1
  12   6   4  121.54   15.15   1
  13   6   4    1.22   10.53   1
  15   6   4   31.07   12.84   1
  16   6   4   31.33   12.53   1
  17   6   4   37.07   13.35   1
  19   6   4   67.20   15.73   1
  20   6   4   16.51   14.42   1
  22   6   4   71.69   15.99   1
  23   6   4   52.49   15.72   1
  20   7   4   30.75   13.78   1
  17   7   4   26.17   13.16   1
  16   7   4   26.02   12.14   1
  15   7   4   25.99   13.48   1
  14   7   4   70.26   13.43   1
  13   7   4   46.37   12.19   1
  11   7   4   43.55   11.87   1
   9   7   4  129.90   14.19   1
   8   7   4   82.94   11.47   1
   6   7   4   24.29   11.01   1
   5   7   4   24.86   10.03   1
   4   7   4  119.17   12.38   1
   3   7   4  100.92   11.69   1
   2   7   4   98.91   11.48   1
   1   7   4   23.07    9.72   1
   0   7   4    0.66    9.73   1
  -1   7   4  230.41   14.70   1
  -2   7   4   79.11   11.98   1
  -3   7   4  299.18   16.37   1
  -4   7   4  310.27   16.03   1
  -5   7   4   86.42   12.42   1
  -6   7   4  238.03   15.90   1
  -8   7   4   21.15   12.36   1
  -9   7   4   98.78   15.60   1
 -10   7   4  116.08   15.65   1
 -11   7   4  119.41   16.77   1
 -12   7   4   47.28   15.10   1
 -13   7   4   27.58   14.00   1
 -14   7   4   26.32   14.67   1
 -15   7   4   77.22   15.11   1
 -16   7   4  140.34   16.95   1
 -17   7   4    6.53   12.65   1
 -18   7   4   22.39   15.36   1
 -19   7   4    1.14   13.78   1
 -20   7   4   47.11   15.25   1
 -21   7   4   71.37   15.72   1
 -23   7   4   17.48   13.54   1
 -24   7   4   37.00   15.31   1
 -28   7   4    8.97   13.72   1
 -29   7   4   17.97   15.65   1
 -28   8   4   20.62   15.56   1
 -27   8   4   48.59   18.17   1
 -24   8   4    0.29   13.29   1
 -23   8   4   23.63   14.28   1
 -22   8   4   35.91   15.45   1
 -21   8   4   74.83   16.28   1
 -17   8   4   62.07   15.75   1
 -16   8   4  105.78   16.59   1
 -15   8   4   75.40   16.81   1
 -13   8   4   60.14   14.00   1
 -11   8   4  165.31   18.16   1
 -10   8   4   60.69   14.90   1
  -9   8   4  101.85   14.75   1
  -7   8   4   18.93   12.08   1
  -6   8   4  154.21   14.45   1
  -5   8   4  211.99   15.20   1
  -4   8   4  251.20   16.03   1
  -3   8   4  222.76   14.49   1
  -2   8   4  169.24   12.26   1
  -1   8   4   18.46   10.25   1
   1   8   4  112.69   12.18   1
   2   8   4   59.40   10.94   1
   3   8   4  128.26   13.63   1
   4   8   4    5.93   10.00   1
   5   8   4   65.34   10.69   1
   7   8   4   60.72   13.72   1
   8   8   4  106.64   12.86   1
   9   8   4   75.78   12.74   1
  11   8   4   20.40   11.31   1
  12   8   4    0.97   10.86   1
  13   8   4   54.77   13.67   1
  14   8   4   47.69   13.19   1
  20   8   4   37.42   14.20   1
  21   9   4   29.69   14.43   1
  17   9   4   20.56   15.48   1
  15   9   4  309.08   19.46   1
  14   9   4   22.94   12.57   1
  12   9   4   67.40   13.30   1
  11   9   4   67.16   13.05   1
   9   9   4   97.39   13.51   1
   8   9   4   69.18   13.35   1
   7   9   4  129.15   14.23   1
   5   9   4  110.08   12.34   1
   4   9   4   28.41   10.52   1
   3   9   4   15.57   10.55   1
   2   9   4   59.67   11.13   1
   1   9   4   24.06   10.17   1
   0   9   4   57.90   11.69   1
  -1   9   4  130.34   12.53   1
  -2   9   4   74.97   12.06   1
  -3   9   4   75.95   11.69   1
  -4   9   4   64.55   12.27   1
  -5   9   4   69.29   12.14   1
  -6   9   4   68.09   12.96   1
  -7   9   4   88.12   13.18   1
  -8   9   4  113.65   15.02   1
  -9   9   4   50.17   14.11   1
 -11   9   4   59.93   14.91   1
 -14   9   4  119.89   17.13   1
 -15   9   4   36.77   13.46   1
 -16   9   4  142.40   18.35   1
 -17   9   4   68.30   17.07   1
 -18   9   4   96.03   16.39   1
 -20   9   4   70.16   15.53   1
 -21   9   4   60.42   15.47   1
 -24   9   4  298.39   21.27   1
 -28   9   4   20.59   14.90   1
 -30   9   4   25.75   15.96   1
 -29  10   4   76.08   16.73   1
 -27  10   4   22.06   13.12   1
 -23  10   4   73.21   14.34   1
 -21  10   4    3.49   12.94   1
 -20  10   4   70.54   16.10   1
 -18  10   4   16.83   14.62   1
 -16  10   4  270.66   21.66   1
 -15  10   4  118.14   17.79   1
 -14  10   4   38.10   14.37   1
 -13  10   4  158.96   18.01   1
 -12  10   4   92.18   15.65   1
 -10  10   4  156.29   17.23   1
  -9  10   4   16.50   13.89   1
  -8  10   4   44.35   12.56   1
  -7  10   4   98.64   14.52   1
  -6  10   4   81.07   12.24   1
  -5  10   4  194.64   15.57   1
  -4  10   4   87.91   11.56   1
  -3  10   4  139.03   12.47   1
  -2  10   4   50.47   11.81   1
  -1  10   4   16.65   10.71   1
   0  10   4  175.18   14.29   1
   2  10   4  104.36   11.80   1
   3  10   4  160.23   12.64   1
   4  10   4   32.91   10.97   1
   5  10   4   93.76   13.20   1
   6  10   4  301.29   17.61   1
   8  10   4   12.76   11.41   1
  10  10   4   59.92   12.57   1
  13  10   4   80.57   12.54   1
  14  10   4    1.43   12.03   1
  15  10   4    2.46   11.88   1
  17  10   4   17.48   13.63   1
  19  10   4   75.46   14.99   1
  19  11   4   11.28   13.51   1
  18  11   4   15.12   14.56   1
  17  11   4   20.80   15.31   1
  14  11   4    0.97   10.97   1
  12  11   4   48.76   13.12   1
  11  11   4    9.78   11.66   1
  10  11   4    1.49   10.99   1
   9  11   4   60.73   13.06   1
   8  11   4    9.25   10.55   1
   7  11   4   44.15   12.26   1
   6  11   4   82.10   12.54   1
   5  11   4   54.79   12.68   1
   4  11   4  108.95   12.42   1
   3  11   4   66.90   11.68   1
   2  11   4  103.45   13.26   1
   1  11   4  300.15   16.81   1
   0  11   4   22.75   11.29   1
  -1  11   4   12.05   10.23   1
  -2  11   4   51.49   11.94   1
  -3  11   4  161.27   14.22   1
  -4  11   4  105.07   13.00   1
  -5  11   4   64.30   12.86   1
  -6  11   4   62.73   13.55   1
  -7  11   4  119.79   14.38   1
  -8  11   4  134.59   16.32   1
  -9  11   4   74.86   13.83   1
 -10  11   4   15.35   12.75   1
 -12  11   4  296.34   21.31   1
 -13  11   4  125.92   17.41   1
 -14  11   4   50.48   15.27   1
 -15  11   4   96.38   16.33   1
 -16  11   4   51.42   16.62   1
 -17  11   4   97.80   16.61   1
 -18  11   4   26.59   15.26   1
 -22  11   4   21.76   15.85   1
 -23  11   4   52.46   15.73   1
 -24  11   4    7.60   14.99   1
 -25  11   4    3.08   13.98   1
 -28  11   4   21.36   14.99   1
 -28  12   4   41.61   15.29   1
 -27  12   4    0.34   14.20   1
 -26  12   4   25.60   15.70   1
 -25  12   4    4.03   13.38   1
 -24  12   4  196.82   21.70   1
 -23  12   4   47.03   15.16   1
 -21  12   4   52.86   15.63   1
 -18  12   4  137.80   18.35   1
 -17  12   4   37.47   15.64   1
 -16  12   4  149.93   19.38   1
 -14  12   4   33.56   14.29   1
 -13  12   4  185.94   18.69   1
 -12  12   4   68.88   15.79   1
 -11  12   4  287.87   20.23   1
 -10  12   4   80.18   14.63   1
  -9  12   4   28.99   12.61   1
  -8  12   4    0.46   10.95   1
  -7  12   4   38.28   12.31   1
  -6  12   4   78.77   12.75   1
  -5  12   4   55.32   11.32   1
  -2  12   4   88.55   12.47   1
  -1  12   4  301.59   16.71   1
   0  12   4   69.60   11.89   1
   1  12   4  183.67   14.75   1
   2  12   4   15.51   11.13   1
   4  12   4  139.03   13.65   1
   5  12   4   44.84   12.92   1
   6  12   4  130.68   15.10   1
   7  12   4   10.63   10.24   1
   9  12   4   57.68   13.10   1
  11  12   4   40.24   13.65   1
  12  12   4  232.11   17.05   1
  16  12   4   51.26   13.73   1
  14  13   4   16.39   13.39   1
  12  13   4   17.74   11.16   1
  10  13   4   63.97   13.79   1
   9  13   4    2.50   11.81   1
   8  13   4   60.65   12.59   1
   7  13   4   44.16   11.74   1
   4  13   4   92.66   12.99   1
   3  13   4   88.44   13.46   1
   1  13   4   19.40   11.05   1
   0  13   4  122.70   13.17   1
  -1  13   4  165.84   14.54   1
  -2  13   4  126.23   13.93   1
  -3  13   4  129.67   13.47   1
  -4  13   4   20.60   11.34   1
  -5  13   4   52.16   12.06   1
  -6  13   4   39.42   12.41   1
  -7  13   4   39.12   12.38   1
  -8  13   4   50.88   13.33   1
  -9  13   4   34.22   13.14   1
 -10  13   4  125.07   17.26   1
 -11  13   4  137.41   16.80   1
 -12  13   4  147.72   18.94   1
 -13  13   4  118.88   17.22   1
 -16  13   4   73.00   15.90   1
 -17  13   4   84.20   16.15   1
 -18  13   4   10.23   13.43   1
 -19  13   4    0.01   14.56   1
 -20  13   4   35.26   14.82   1
 -21  13   4   70.45   16.06   1
 -23  13   4   87.91   16.31   1
 -25  13   4   16.57   14.35   1
 -26  13   4   10.04   16.17   1
 -29  13   4    0.42   13.82   1
 -28  14   4  145.79   18.58   1
 -26  14   4   19.03   14.95   1
 -23  14   4   27.75   14.32   1
 -22  14   4   37.03   17.15   1
 -21  14   4   64.85   14.94   1
 -17  14   4   48.89   14.87   1
 -15  14   4  180.33   19.38   1
 -14  14   4   35.08   15.70   1
 -11  14   4   62.06   15.10   1
 -10  14   4   30.67   13.91   1
  -9  14   4  129.17   15.21   1
  -5  14   4  114.19   13.71   1
  -4  14   4   25.98   11.33   1
  -3  14   4   99.35   12.08   1
   0  14   4   38.38   12.44   1
   1  14   4  209.06   14.56   1
   3  14   4   44.88   10.39   1
   4  14   4    3.34   10.36   1
   5  14   4   60.38   12.93   1
   6  14   4   22.32   10.37   1
   7  14   4   70.53   12.37   1
   9  14   4   20.24   11.65   1
  12  14   4    4.63   11.90   1
  14  14   4  140.10   16.20   1
  15  14   4   14.94   13.42   1
  15  15   4   46.59   13.54   1
  14  15   4   13.00   13.00   1
  13  15   4    0.03   12.13   1
  12  15   4    5.33   11.38   1
  10  15   4   15.28   12.03   1
   9  15   4  332.18   18.66   1
   7  15   4   21.67   11.24   1
   6  15   4   46.47   11.25   1
   5  15   4   98.61   12.15   1
   4  15   4   39.37   11.64   1
   3  15   4   42.60   11.04   1
   2  15   4   13.16   11.04   1
  -1  15   4  213.52   14.61   1
  -4  15   4   86.83   14.62   1
  -5  15   4   96.23   13.87   1
  -6  15   4   39.43   11.33   1
  -7  15   4   78.76   13.62   1
  -8  15   4   63.39   13.85   1
  -9  15   4   29.51   13.58   1
 -10  15   4   96.01   15.25   1
 -11  15   4   93.71   15.15   1
 -14  15   4  158.85   18.30   1
 -15  15   4    6.40   14.73   1
 -18  15   4   37.02   15.23   1
 -19  15   4   46.09   14.62   1
 -20  15   4   97.01   17.05   1
 -21  15   4   23.31   14.73   1
 -22  15   4   23.47   14.96   1
 -24  15   4  281.92   21.56   1
 -26  15   4   22.16   15.35   1
 -28  15   4    1.77   13.06   1
 -30  15   4   57.60   15.83   1
 -31  15   4   16.35   15.80   1
 -31  16   4   27.91   15.42   1
 -29  16   4   20.79   14.84   1
 -28  16   4   51.03   14.79   1
 -27  16   4   11.80   15.60   1
 -22  16   4   21.05   14.89   1
 -21  16   4   30.60   15.54   1
 -20  16   4   39.64   15.50   1
 -18  16   4  100.95   17.90   1
 -17  16   4   42.51   16.07   1
 -13  16   4   88.99   15.73   1
 -12  16   4  138.52   17.30   1
 -11  16   4   72.73   13.77   1
 -10  16   4  331.22   20.39   1
  -9  16   4  137.19   15.51   1
  -8  16   4  136.71   14.66   1
  -7  16   4  148.84   15.64   1
  -6  16   4  313.62   18.96   1
  -5  16   4   55.51   12.87   1
  -4  16   4  154.27   15.23   1
  -3  16   4  115.84   12.30   1
   2  16   4  119.98   13.86   1
   3  16   4   22.79   10.56   1
   4  16   4   48.87   11.81   1
   6  16   4   47.37   11.48   1
   7  16   4   15.45   11.59   1
  12  16   4   47.77   12.77   1
  13  16   4   16.25   11.70   1
  13  17   4    5.37   12.30   1
  11  17   4   17.79   12.51   1
   9  17   4   21.53   12.55   1
   7  17   4   31.74   12.76   1
   6  17   4   40.26   11.73   1
   5  17   4   52.68   11.47   1
   4  17   4   19.55   10.67   1
   3  17   4    1.08   10.67   1
   2  17   4   84.39   12.86   1
   1  17   4   98.83   12.91   1
  -1  17   4   27.91   11.92   1
  -2  17   4   16.87   11.83   1
  -3  17   4   44.96   12.41   1
  -4  17   4  113.18   13.35   1
  -5  17   4   61.69   12.28   1
  -6  17   4   65.18   13.30   1
  -8  17   4   73.95   14.77   1
  -9  17   4   68.43   14.35   1
 -10  17   4   15.39   12.63   1
 -11  17   4   68.54   15.33   1
 -12  17   4   48.78   14.99   1
 -13  17   4   65.31   16.62   1
 -14  17   4   55.62   16.20   1
 -16  17   4   31.52   14.85   1
 -18  17   4   85.87   17.37   1
 -19  17   4   84.02   16.89   1
 -22  17   4   57.65   15.78   1
 -23  17   4   35.64   15.10   1
 -24  17   4   47.19   14.78   1
 -25  17   4   19.62   13.58   1
 -26  17   4   19.31   16.03   1
 -27  17   4   25.13   14.29   1
 -28  17   4   20.08   16.56   1
 -29  17   4   20.92   13.92   1
 -28  18   4    3.66   14.85   1
 -25  18   4   17.44   15.24   1
 -22  18   4   42.16   14.73   1
 -21  18   4   45.56   14.69   1
 -19  18   4   38.71   15.31   1
 -18  18   4   18.69   15.18   1
 -17  18   4   93.84   16.61   1
 -16  18   4  118.03   16.45   1
 -15  18   4   30.37   15.62   1
 -12  18   4  101.45   17.03   1
 -11  18   4   32.13   13.10   1
 -10  18   4   26.12   13.17   1
  -9  18   4  106.40   14.66   1
  -8  18   4   20.70   11.43   1
  -6  18   4  139.17   15.70   1
  -3  18   4   41.47   12.72   1
  -2  18   4  143.32   13.21   1
  -1  18   4   81.20   12.45   1
   0  18   4    7.35   10.72   1
   1  18   4   49.21   11.35   1
   2  18   4   20.73   11.06   1
   3  18   4   48.46   11.96   1
   4  18   4   52.02   11.83   1
   5  18   4    1.12   10.55   1
  11  18   4    4.92   11.99   1
  10  19   4   67.55   15.06   1
   9  19   4   11.45   11.82   1
   8  19   4   60.83   13.41   1
   6  19   4   64.06   13.04   1
   5  19   4   26.73   12.21   1
   4  19   4   24.41   10.64   1
   3  19   4   37.35   12.67   1
   2  19   4  136.03   13.78   1
   0  19   4   28.63   10.94   1
  -2  19   4   93.50   12.38   1
  -3  19   4   18.51   11.58   1
  -4  19   4   35.90   12.17   1
  -5  19   4   44.31   11.65   1
  -8  19   4    5.10   12.43   1
 -10  19   4    5.58   12.08   1
 -12  19   4    2.52   13.14   1
 -14  19   4   59.91   15.26   1
 -17  19   4   81.92   17.73   1
 -19  19   4   15.30   15.73   1
 -20  19   4   37.98   16.26   1
 -21  19   4  121.97   17.73   1
 -22  19   4   53.38   16.35   1
 -24  19   4   29.36   16.25   1
 -25  19   4   72.70   18.45   1
 -27  19   4   56.23   17.01   1
 -29  19   4   72.49   17.28   1
 -28  20   4   21.44   16.50   1
 -27  20   4   19.06   15.39   1
 -25  20   4   62.14   17.66   1
 -23  20   4   25.96   14.33   1
 -21  20   4   73.01   17.66   1
 -20  20   4    1.73   14.19   1
 -19  20   4   35.65   15.19   1
 -18  20   4   37.36   14.29   1
 -16  20   4   38.84   15.01   1
 -15  20   4  111.95   15.94   1
 -13  20   4   44.62   15.42   1
 -12  20   4    0.02   12.93   1
 -11  20   4   76.42   14.58   1
 -10  20   4   56.14   13.17   1
  -9  20   4   64.59   13.28   1
  -7  20   4   60.57   13.09   1
  -6  20   4   10.80   11.07   1
  -5  20   4  122.20   13.49   1
  -4  20   4   57.46   12.75   1
  -2  20   4   35.15   11.29   1
  -1  20   4   37.75   11.37   1
   1  20   4   82.24   12.40   1
   3  20   4   12.90   11.06   1
   4  20   4   13.66   10.26   1
   9  21   4   39.47   11.61   1
   4  21   4   60.10   13.16   1
   2  21   4   40.38   11.46   1
   0  21   4   45.83   10.89   1
  -1  21   4   69.86   12.24   1
  -2  21   4  144.43   13.08   1
  -4  21   4   16.74   10.67   1
  -8  21   4   62.57   13.10   1
  -9  21   4   68.65   13.08   1
 -12  21   4   56.04   14.45   1
 -13  21   4   46.68   14.29   1
 -14  21   4   60.67   14.67   1
 -15  21   4   27.51   15.89   1
 -16  21   4   16.11   15.55   1
 -19  21   4  138.17   17.12   1
 -20  21   4   81.90   16.50   1
 -21  21   4   35.61   15.67   1
 -23  21   4   51.81   15.73   1
 -24  21   4   12.36   15.41   1
 -25  21   4   34.53   14.84   1
 -28  21   4   16.69   14.60   1
 -30  21   4   29.98   14.57   1
 -28  22   4   68.08   15.19   1
 -26  22   4   34.03   15.23   1
 -25  22   4   73.65   16.98   1
 -22  22   4    2.43   12.66   1
 -20  22   4   23.85   14.92   1
 -19  22   4   43.89   14.81   1
 -18  22   4   59.20   14.50   1
 -17  22   4   77.32   15.73   1
 -14  22   4   37.94   15.09   1
 -11  22   4   27.41   12.42   1
  -9  22   4    0.19   12.01   1
  -8  22   4   54.39   13.40   1
  -6  22   4   42.71   12.76   1
  -5  22   4   59.95   13.37   1
  -4  22   4   38.26   12.76   1
  -2  22   4   25.11   12.08   1
   0  22   4   12.44   10.59   1
   4  22   4   27.45   12.14   1
   5  22   4   18.78   12.28   1
   6  22   4   77.25   13.35   1
   7  22   4    0.82   10.46   1
   3  23   4   41.49   11.65   1
   0  23   4  114.74   13.83   1
  -2  23   4   53.30   11.79   1
  -3  23   4   24.13   11.50   1
  -4  23   4   21.47   11.90   1
  -6  23   4   32.97   13.61   1
  -7  23   4   22.56   10.96   1
  -9  23   4   41.32   12.57   1
 -10  23   4   64.52   14.62   1
 -11  23   4   44.24   14.52   1
 -12  23   4   66.38   14.49   1
 -14  23   4   32.32   12.58   1
 -17  23   4   39.40   15.19   1
 -19  23   4   30.66   13.87   1
 -21  23   4   63.70   15.82   1
 -22  23   4    5.95   14.53   1
 -23  23   4   82.62   17.09   1
 -26  23   4   28.81   16.08   1
 -27  23   4    5.91   15.47   1
 -29  23   4   42.89   15.90   1
 -28  24   4    1.57   14.07   1
 -24  24   4    4.84   15.49   1
 -22  24   4   24.71   16.21   1
 -19  24   4   19.92   15.01   1
 -17  24   4   43.72   15.19   1
 -15  24   4  314.47   21.60   1
 -12  24   4  241.93   18.73   1
 -11  24   4   20.61   13.57   1
 -10  24   4    0.17   12.25   1
  -9  24   4  349.44   19.35   1
  -7  24   4   32.63   13.19   1
  -2  24   4   17.60   13.23   1
   4  24   4    3.93   11.05   1
   3  25   4   21.26   11.65   1
   2  25   4  108.13   12.41   1
  -1  25   4   21.47   12.69   1
  -3  25   4   65.05   14.15   1
  -4  25   4   38.46   13.82   1
  -5  25   4   32.92   14.28   1
  -6  25   4   62.31   12.69   1
  -7  25   4    4.17   13.33   1
  -9  25   4   12.83   12.83   1
 -13  25   4   14.44   14.08   1
 -19  25   4   42.89   17.62   1
 -20  25   4   38.29   15.68   1
 -22  25   4   71.41   17.22   1
 -23  25   4    2.79   15.47   1
 -24  25   4   44.88   15.48   1
 -27  25   4   56.00   17.45   1
 -27  26   4   30.77   16.03   1
 -23  26   4   51.49   16.49   1
 -22  26   4   27.39   15.83   1
 -20  26   4   16.28   16.09   1
 -17  26   4   30.16   15.58   1
 -16  26   4   21.95   15.21   1
  -6  26   4    0.48   11.74   1
  -4  26   4   26.04   13.41   1
  -3  26   4   40.18   12.98   1
  -1  27   4   17.50   12.43   1
  -2  27   4   72.62   15.01   1
  -3  27   4   12.34   11.48   1
  -4  27   4   13.35   11.69   1
  -6  27   4   12.94   12.05   1
  -7  27   4   16.11   13.62   1
  -8  27   4   44.48   15.31   1
  -9  27   4   22.58   13.50   1
 -11  27   4   19.55   12.79   1
 -18  27   4   25.91   14.71   1
 -19  27   4   74.95   16.22   1
 -20  27   4   36.01   15.51   1
 -25  27   4   54.29   16.52   1
 -25  28   4    8.49   14.88   1
 -22  28   4   63.21   15.96   1
 -20  28   4   32.32   14.89   1
 -16  28   4   65.43   16.14   1
 -15  28   4   13.42   12.04   1
 -14  28   4  125.32   16.76   1
 -12  28   4   42.64   15.51   1
 -11  28   4   24.70   14.06   1
  -8  28   4   35.80   12.43   1
  -6  28   4   67.53   14.23   1
  -6  29   4   53.21   13.11   1
  -7  29   4    7.31   12.11   1
 -10  29   4  127.65   15.54   1
 -11  29   4   18.73   12.84   1
 -19  29   4   69.60   15.88   1
 -23  29   4   42.15   13.47   1
 -21  30   4   66.80   16.69   1
 -19  30   4   13.83   13.66   1
 -15  30   4   72.34   15.52   1
 -10  30   4   16.90   12.98   1
 -19  27   5   31.25   13.81   1
 -11  27   5   22.43   13.41   1
 -10  27   5   14.14   13.27   1
  -8  27   5   19.60   13.02   1
  -7  26   5   31.05   13.86   1
  -9  26   5   30.38   13.60   1
 -10  26   5   18.18   14.98   1
 -13  26   5   85.15   16.75   1
 -16  26   5   20.84   13.58   1
 -19  26   5   38.11   15.41   1
 -21  25   5   87.38   16.80   1
 -18  25   5   18.04   14.55   1
 -17  25   5   20.00   15.96   1
 -16  25   5   26.87   14.10   1
 -12  25   5   18.15   13.68   1
 -10  25   5   52.85   15.31   1
  -9  25   5   27.37   12.26   1
  -4  25   5  124.87   14.02   1
   0  24   5   58.34   13.76   1
  -1  24   5   31.63   12.17   1
  -3  24   5   55.61   12.46   1
  -4  24   5   25.56   13.19   1
  -7  24   5   17.92   12.85   1
  -8  24   5   23.66   13.26   1
 -10  24   5   18.81   14.46   1
 -12  24   5    0.08   13.28   1
 -17  24   5   18.36   14.59   1
 -20  24   5   36.81   15.24   1
 -21  24   5   41.68   15.52   1
 -23  24   5   43.82   14.50   1
 -24  24   5   27.32   15.39   1
 -24  23   5   31.13   15.97   1
 -23  23   5   92.02   17.85   1
 -21  23   5   28.01   16.75   1
 -20  23   5   22.92   15.88   1
 -18  23   5   37.49   16.34   1
 -17  23   5   61.16   17.01   1
 -15  23   5   30.58   15.99   1
 -13  23   5   25.84   12.73   1
 -10  23   5   19.91   13.23   1
  -7  23   5   31.61   13.25   1
  -6  23   5   57.76   14.58   1
  -5  23   5   23.62   14.29   1
   0  23   5   77.68   13.34   1
   1  22   5   12.25   11.04   1
  -1  22   5   28.38   13.20   1
  -3  22   5   57.27   14.53   1
  -5  22   5   59.92   14.70   1
  -8  22   5  152.58   16.43   1
  -9  22   5   70.92   15.68   1
 -11  22   5  166.98   17.59   1
 -13  22   5   54.04   16.08   1
 -14  22   5  100.55   18.03   1
 -17  22   5   71.67   17.71   1
 -18  22   5    7.69   15.28   1
 -19  22   5   76.27   16.42   1
 -21  22   5   24.41   15.51   1
 -22  22   5    0.74   16.09   1
 -25  22   5    2.11   16.17   1
 -25  21   5   78.10   17.73   1
 -24  21   5   53.25   16.48   1
 -22  21   5   29.86   14.91   1
 -21  21   5    4.90   15.34   1
 -19  21   5   55.79   16.36   1
 -16  21   5   68.88   16.77   1
 -14  21   5   15.85   13.14   1
  -8  21   5   12.86   12.10   1
  -6  21   5   26.79   12.58   1
  -4  21   5   26.84   13.60   1
  -3  21   5   15.28   12.82   1
   2  21   5   22.69   12.19   1
   4  21   5   90.61   12.92   1
   4  20   5   33.07   11.66   1
   3  20   5   13.78   11.88   1
   1  20   5    1.55   11.74   1
   0  20   5   61.85   11.85   1
  -3  20   5   17.02   12.01   1
  -4  20   5    0.00   11.07   1
  -7  20   5   70.81   14.29   1
 -10  20   5  121.01   16.70   1
 -13  20   5   74.24   17.08   1
 -14  20   5   41.79   15.66   1
 -19  20   5    7.16   17.09   1
 -20  20   5   64.71   16.71   1
 -23  20   5   33.01   16.52   1
 -24  20   5   35.81   17.05   1
 -27  19   5   33.28   15.14   1
 -26  19   5   49.62   16.59   1
 -23  19   5    3.47   14.55   1
 -21  19   5   28.34   18.57   1
 -20  19   5   12.98   16.68   1
 -19  19   5   20.93   16.26   1
 -17  19   5   80.36   17.32   1
 -16  19   5   62.70   16.93   1
 -15  19   5   46.27   16.70   1
 -13  19   5    2.91   13.16   1
 -10  19   5   49.90   14.75   1
  -9  19   5   75.02   14.75   1
  -5  19   5   81.09   14.64   1
  -4  19   5   24.47   13.42   1
  -3  19   5   66.80   12.22   1
  -2  19   5  111.25   12.78   1
   2  19   5   31.82   12.07   1
   3  19   5   63.52   13.16   1
   5  19   5    0.00   10.77   1
   7  19   5   41.14   10.89   1
   5  18   5   25.26   12.96   1
   3  18   5   29.29   13.07   1
  -1  18   5   65.71   12.92   1
  -3  18   5  103.45   13.77   1
  -4  18   5   48.39   12.30   1
  -5  18   5   73.58   13.75   1
  -6  18   5   13.55   12.49   1
  -7  18   5  128.40   15.44   1
  -8  18   5   45.93   13.99   1
  -9  18   5   46.06   14.65   1
 -11  18   5  155.24   16.65   1
 -12  18   5    4.81   13.78   1
 -13  18   5   50.83   14.75   1
 -15  18   5   89.13   15.97   1
 -16  18   5   19.45   16.14   1
 -17  18   5   47.20   16.23   1
 -21  18   5   33.06   15.52   1
 -23  18   5   31.71   17.12   1
 -24  18   5    1.72   14.43   1
 -26  17   5   27.61   17.53   1
 -25  17   5   19.79   15.30   1
 -23  17   5   24.30   18.88   1
 -22  17   5   46.67   16.77   1
 -21  17   5   32.29   15.86   1
 -20  17   5   18.47   15.64   1
 -19  17   5   70.63   17.78   1
 -18  17   5   68.09   16.92   1
 -17  17   5   48.99   17.67   1
 -15  17   5   25.54   15.11   1
 -13  17   5   59.08   14.76   1
 -12  17   5   39.83   13.58   1
 -10  17   5   95.87   15.71   1
  -9  17   5   21.20   13.28   1
  -7  17   5   78.56   14.08   1
  -6  17   5   20.03   11.55   1
  -5  17   5   36.55   12.46   1
  -4  17   5   49.34   12.30   1
  -2  17   5   14.22   11.73   1
   0  17   5   47.28   12.03   1
   2  17   5   66.29   11.84   1
   3  17   5   15.44   11.10   1
   4  17   5   21.75   12.55   1
   6  17   5   38.95   13.34   1
   7  17   5   29.28   11.96   1
   8  17   5   34.21   13.23   1
   9  17   5   15.45   12.29   1
  10  16   5   20.56   13.09   1
   7  16   5   43.28   13.11   1
   5  16   5   72.90   12.73   1
  -1  16   5   74.09   12.22   1
  -2  16   5   58.05   12.56   1
  -3  16   5  179.21   14.99   1
  -4  16   5   16.22   11.82   1
  -5  16   5   14.97   12.18   1
 -12  16   5   19.23   14.45   1
 -13  16   5  157.42   18.79   1
 -14  16   5   41.55   15.87   1
 -15  16   5   68.92   16.58   1
 -16  16   5    1.17   13.89   1
 -18  16   5   24.89   16.79   1
 -21  16   5   64.32   17.88   1
 -26  16   5   32.99   16.94   1
 -27  15   5    2.37   15.53   1
 -26  15   5    0.95   14.12   1
 -25  15   5   51.45   17.33   1
 -24  15   5    0.29   16.49   1
 -21  15   5   38.11   16.37   1
 -19  15   5   31.17   16.44   1
 -17  15   5   21.85   16.45   1
 -16  15   5   84.53   19.29   1
 -15  15   5  199.45   20.88   1
 -10  15   5   61.04   16.16   1
  -9  15   5   64.66   14.10   1
  -6  15   5   54.64   12.48   1
  -5  15   5   68.79   13.61   1
  -4  15   5    1.86   10.89   1
   0  15   5  190.58   15.11   1
   1  15   5   77.08   12.64   1
   3  15   5  104.75   13.24   1
   4  15   5   29.22   11.04   1
   6  15   5   48.15   11.69   1
   8  15   5   31.32   13.13   1
  10  15   5   68.17   13.84   1
  13  14   5    4.63   13.16   1
  11  14   5    1.99   11.33   1
   8  14   5  139.87   13.97   1
   7  14   5   14.98   11.92   1
   6  14   5   35.21   11.22   1
   5  14   5   75.66   13.50   1
   4  14   5   48.31   12.06   1
   2  14   5   35.90   12.51   1
   0  14   5  105.04   12.51   1
  -2  14   5   12.86   11.00   1
  -5  14   5   10.82   11.73   1
  -6  14   5  170.39   15.24   1
  -8  14   5  146.13   16.27   1
 -10  14   5   23.28   13.59   1
 -15  14   5   17.41   14.89   1
 -16  14   5   24.39   17.26   1
 -18  14   5   36.97   17.06   1
 -19  14   5   50.20   18.15   1
 -20  14   5   28.67   17.42   1
 -21  14   5   34.68   16.62   1
 -22  14   5  107.54   21.97   1
 -24  14   5   25.72   17.28   1
 -27  14   5   17.98   15.50   1
 -26  13   5   88.46   19.93   1
 -22  13   5   43.41   18.36   1
 -20  13   5   54.82   18.14   1
 -18  13   5   71.55   17.82   1
 -17  13   5   36.70   16.95   1
 -16  13   5  170.96   19.64   1
 -12  13   5  108.59   15.98   1
 -10  13   5   86.33   15.13   1
  -8  13   5   15.17   13.86   1
  -7  13   5   47.85   13.61   1
  -6  13   5   51.01   13.33   1
  -3  13   5   77.11   12.95   1
  -1  13   5  101.57   13.32   1
   3  13   5  162.34   15.90   1
   5  13   5   58.63   13.02   1
   7  13   5   71.14   13.53   1
   8  13   5   18.19   10.43   1
   9  13   5   59.89   13.05   1
  13  13   5   94.62   15.68   1
  10  12   5   24.70   12.09   1
   9  12   5    1.02   11.32   1
   5  12   5   28.31   10.54   1
   4  12   5    2.07    9.95   1
   1  12   5   86.06   13.54   1
   0  12   5   61.59   12.10   1
  -1  12   5  156.10   14.14   1
  -3  12   5   84.93   12.79   1
  -4  12   5  171.86   14.88   1
  -5  12   5  112.05   13.46   1
  -6  12   5   74.13   13.54   1
  -7  12   5   74.48   14.25   1
  -8  12   5  226.34   17.36   1
  -9  12   5  104.82   14.98   1
 -11  12   5  173.15   17.92   1
 -12  12   5   62.33   14.79   1
 -13  12   5   85.95   17.90   1
 -14  12   5   23.68   15.96   1
 -16  12   5   17.39   15.16   1
 -17  12   5   28.59   18.35   1
 -20  12   5   27.42   16.62   1
 -24  12   5    2.10   17.01   1
 -22  11   5  175.43   22.68   1
 -20  11   5    4.96   16.75   1
 -18  11   5  127.13   22.10   1
 -17  11   5   28.86   18.23   1
 -12  11   5  153.19   19.34   1
 -11  11   5   92.93   17.04   1
  -9  11   5   13.34   12.75   1
  -8  11   5   71.59   13.86   1
  -7  11   5   46.49   14.02   1
  -6  11   5   85.72   13.82   1
  -5  11   5  130.86   13.98   1
  -4  11   5   58.35   12.94   1
  -3  11   5   53.24   13.15   1
  -2  11   5   22.66   11.97   1
   0  11   5   70.11   13.22   1
   1  11   5  191.73   14.60   1
   3  11   5   13.97   11.92   1
   6  11   5   17.37   11.44   1
   7  11   5  147.56   13.95   1
  11  11   5  206.73   16.83   1
  16  11   5   14.25   13.74   1
  17  10   5    6.05   13.63   1
  16  10   5   39.18   12.45   1
  15  10   5   61.98   14.86   1
  14  10   5   19.05   14.13   1
  12  10   5   13.91   12.44   1
  11  10   5    2.39   10.62   1
  10  10   5  148.52   14.66   1
   9  10   5   56.92   13.12   1
   8  10   5   62.89   12.33   1
   7  10   5   98.34   14.63   1
   5  10   5   69.54   12.83   1
   4  10   5   20.61   11.88   1
   3  10   5   63.01   13.17   1
  -1  10   5   94.43   13.59   1
  -3  10   5   93.54   13.71   1
  -4  10   5   41.36   11.93   1
  -5  10   5   49.12   13.19   1
  -6  10   5   46.80   12.34   1
  -7  10   5   98.88   14.38   1
  -8  10   5   31.28   14.16   1
  -9  10   5   96.19   14.81   1
 -13  10   5   88.43   18.70   1
 -14  10   5   16.32   17.02   1
 -15  10   5   68.27   18.54   1
 -16  10   5    3.92   17.20   1
 -17  10   5   80.71   19.58   1
 -18  10   5   51.90   18.59   1
 -19  10   5   40.04   19.21   1
 -20  10   5   88.16   19.62   1
 -22  10   5   27.92   16.89   1
 -24  10   5   32.62   18.18   1
 -25  10   5   67.64   19.00   1
 -26  10   5   20.19   19.03   1
 -27  10   5    4.62   16.35   1
 -27   9   5    2.25   15.71   1
 -26   9   5   27.46   17.90   1
 -25   9   5   20.24   16.54   1
 -22   9   5   54.41   19.03   1
 -21   9   5   18.33   17.29   1
 -19   9   5   65.71   19.32   1
 -18   9   5   45.17   18.30   1
 -15   9   5   61.92   18.05   1
 -13   9   5   23.13   16.30   1
 -12   9   5   79.37   16.38   1
 -10   9   5  105.69   16.97   1
  -9   9   5   75.56   15.02   1
  -8   9   5   92.66   14.51   1
  -7   9   5   23.99   14.12   1
  -6   9   5   36.86   12.52   1
  -5   9   5   45.55   12.51   1
  -4   9   5   62.36   12.29   1
  -3   9   5   55.62   12.10   1
  -2   9   5   33.86   11.80   1
   0   9   5   82.12   13.21   1
   1   9   5  104.37   13.34   1
   3   9   5   68.89   13.09   1
   6   9   5   58.49   11.81   1
   7   9   5   15.58   11.37   1
   9   9   5   48.19   12.31   1
  10   9   5   50.63   13.19   1
  12   9   5    2.03   11.54   1
  14   9   5    5.37   12.03   1
  19   8   5   28.06   14.39   1
  17   8   5   33.16   15.31   1
  14   8   5   93.42   16.38   1
  12   8   5   18.14   10.95   1
  11   8   5    3.00   10.69   1
  10   8   5   43.26   13.22   1
   7   8   5    1.84   11.09   1
   6   8   5  129.55   14.92   1
   5   8   5   18.72   10.93   1
   4   8   5  203.50   15.03   1
   3   8   5   81.44   12.15   1
   2   8   5   38.43   11.38   1
   1   8   5   95.80   12.69   1
  -1   8   5   12.78   10.99   1
  -2   8   5   12.17   11.19   1
  -3   8   5   22.01   12.44   1
  -5   8   5   23.63   12.47   1
  -9   8   5   90.76   15.40   1
 -10   8   5   33.73   13.97   1
 -11   8   5   87.69   16.63   1
 -12   8   5  199.80   19.78   1
 -13   8   5   17.12   16.54   1
 -14   8   5  134.04   19.46   1
 -16   8   5    1.24   16.54   1
 -18   8   5   48.47   18.96   1
 -22   8   5  121.79   21.90   1
 -23   8   5   24.45   18.15   1
 -25   8   5   38.40   20.43   1
 -26   8   5   26.42   18.31   1
 -26   7   5   45.24   17.91   1
 -23   7   5   43.30   19.69   1
 -21   7   5    7.38   16.09   1
 -20   7   5   47.52   18.89   1
 -18   7   5  129.67   21.10   1
 -17   7   5   73.89   20.17   1
 -13   7   5   54.16   17.10   1
 -12   7   5  102.27   17.45   1
 -11   7   5   46.26   15.69   1
 -10   7   5   94.82   16.86   1
  -9   7   5   21.97   14.88   1
  -7   7   5   33.15   13.11   1
  -6   7   5   34.64   12.49   1
  -5   7   5  100.84   13.72   1
  -4   7   5   14.71   11.28   1
  -3   7   5   32.10   12.32   1
  -2   7   5  100.13   14.46   1
  -1   7   5   56.08   12.36   1
   0   7   5   29.62   12.13   1
   2   7   5   30.29   12.40   1
   3   7   5   89.92   13.08   1
   4   7   5   69.20   11.65   1
   5   7   5  123.98   13.46   1
   6   7   5   46.87   11.93   1
   7   7   5   44.55   11.64   1
  10   7   5  105.33   14.09   1
  11   7   5  144.18   15.50   1
  13   7   5   61.76   13.69   1
  16   7   5   56.62   14.41   1
  19   7   5   50.14   14.55   1
  19   6   5    9.98   13.64   1
  17   6   5   47.31   14.91   1
  15   6   5   24.29   13.85   1
  14   6   5   26.39   12.53   1
   9   6   5   47.05   13.22   1
   8   6   5  170.20   15.05   1
   7   6   5   38.94   11.91   1
   6   6   5   69.23   13.02   1
   5   6   5   87.24   13.69   1
   4   6   5   34.36   11.66   1
   3   6   5   35.71   12.82   1
   1   6   5   43.35   11.83   1
   0   6   5  111.67   12.57   1
  -1   6   5  312.62   16.24   1
  -2   6   5  152.96   14.06   1
  -3   6   5  125.05   14.16   1
  -4   6   5  150.69   14.54   1
  -5   6   5  268.11   17.12   1
  -6   6   5   84.11   14.07   1
  -8   6   5   10.18   13.02   1
  -9   6   5   49.69   14.37   1
 -10   6   5   49.91   15.34   1
 -11   6   5   93.11   16.63   1
 -12   6   5   65.17   17.70   1
 -13   6   5   34.19   17.56   1
 -14   6   5  149.23   20.40   1
 -15   6   5   60.73   19.55   1
 -20   6   5   23.90   16.95   1
 -21   6   5   29.24   17.17   1
 -23   6   5   51.02   17.80   1
 -24   6   5    0.55   17.65   1
 -26   5   5    0.03   15.66   1
 -25   5   5    2.57   15.59   1
 -22   5   5   29.47   19.40   1
 -21   5   5   81.82   19.84   1
 -19   5   5   46.42   20.12   1
 -18   5   5   55.31   18.95   1
 -17   5   5   31.44   18.49   1
 -15   5   5   42.70   19.20   1
 -12   5   5   94.01   19.21   1
 -11   5   5   87.93   18.85   1
 -10   5   5   45.52   17.45   1
  -9   5   5   47.65   14.45   1
  -8   5   5   16.88   13.38   1
  -7   5   5  129.42   14.41   1
  -6   5   5  300.17   18.91   1
  -5   5   5  307.89   17.82   1
  -3   5   5   25.85   11.93   1
  -2   5   5   21.74   11.51   1
   0   5   5  291.45   17.33   1
   1   5   5  284.03   16.63   1
   2   5   5   89.22   13.21   1
   3   5   5   10.16   11.83   1
   4   5   5   62.06   12.55   1
   5   5   5   54.31   11.78   1
   6   5   5   88.80   13.03   1
   7   5   5   81.72   12.64   1
  10   5   5   66.84   13.75   1
  11   5   5   33.66   11.62   1
  13   5   5   56.07   13.31   1
  14   5   5   60.67   14.63   1
  16   5   5   61.00   14.02   1
  21   4   5   84.18   16.85   1
  20   4   5   19.30   15.00   1
  15   4   5   31.89   12.61   1
  13   4   5   27.97   12.19   1
  10   4   5   27.69   12.19   1
   9   4   5   26.81   11.97   1
   8   4   5  200.41   15.81   1
   7   4   5   64.54   12.81   1
   6   4   5   52.88   12.13   1
   5   4   5   52.19   13.22   1
   2   4   5  143.29   13.70   1
   1   4   5    4.79   11.56   1
  -1   4   5    9.48   11.35   1
  -2   4   5  377.66   17.98   1
  -4   4   5    5.75   11.76   1
  -6   4   5  137.12   15.71   1
  -7   4   5   28.03   13.47   1
  -9   4   5   45.20   15.76   1
 -11   4   5   71.34   18.26   1
 -12   4   5  192.47   23.41   1
 -15   4   5    1.20   16.65   1
 -17   4   5   12.42   18.96   1
 -19   4   5   36.47   18.75   1
 -20   4   5    0.53   16.62   1
 -21   4   5   22.71   21.14   1
 -25   4   5  105.80   19.61   1
 -24   3   5   35.91   19.69   1
 -23   3   5   30.70   18.62   1
 -22   3   5   69.41   21.07   1
 -21   3   5   34.99   20.65   1
 -20   3   5   25.39   18.50   1
 -19   3   5   81.14   21.63   1
 -18   3   5   92.18   22.46   1
 -17   3   5   17.05   16.83   1
 -16   3   5  179.38   24.98   1
 -13   3   5   91.79   21.97   1
 -12   3   5  103.99   21.70   1
 -10   3   5  102.31   20.27   1
  -9   3   5   32.14   16.00   1
  -8   3   5   22.42   15.45   1
  -6   3   5  143.59   16.23   1
  -5   3   5   50.00   13.26   1
  -2   3   5   24.12   11.78   1
   3   3   5  135.53   14.65   1
   4   3   5   30.86   11.34   1
   5   3   5   23.82   12.87   1
   6   3   5   38.93   12.72   1
   7   3   5   96.48   14.76   1
   8   3   5   65.89   13.87   1
   9   3   5   83.64   15.15   1
  10   3   5   72.08   12.94   1
  11   3   5   26.95   11.98   1
  13   3   5  168.82   17.11   1
  15   3   5  121.28   16.47   1
  16   3   5   56.68   14.90   1
  18   3   5   31.76   15.99   1
  20   3   5   23.13   15.36   1
  21   3   5   50.08   14.99   1
  23   2   5    4.09   14.02   1
  21   2   5   20.40   14.84   1
  19   2   5   26.34   15.76   1
  17   2   5   63.65   16.64   1
  16   2   5   35.34   14.14   1
  15   2   5   14.75   14.15   1
  12   2   5   13.52   12.39   1
  10   2   5   16.23   13.13   1
   9   2   5   21.23   12.33   1
   7   2   5   24.68   13.36   1
   6   2   5   22.89   12.57   1
   5   2   5   97.60   13.67   1
   4   2   5  117.45   15.08   1
   3   2   5   43.88   11.47   1
   2   2   5  341.69   18.82   1
   0   2   5   15.00   12.39   1
  -1   2   5  100.05   14.05   1
  -4   2   5  341.43   19.71   1
  -5   2   5   41.63   14.35   1
  -6   2   5  123.76   16.36   1
  -7   2   5   99.24   15.75   1
  -9   2   5   45.46   16.85   1
 -11   2   5   13.16   18.22   1
 -13   2   5    0.00   18.38   1
 -14   2   5   35.58   19.80   1
 -16   2   5   29.28   20.11   1
 -19   2   5   54.12   20.29   1
 -22   1   5   24.56   21.68   1
 -18   1   5   70.99   21.49   1
 -17   1   5    0.04   18.65   1
 -16   1   5   60.40   21.67   1
 -14   1   5    7.11   18.44   1
 -13   1   5   85.06   23.02   1
 -12   1   5  154.07   22.14   1
 -10   1   5  114.11   22.46   1
  -9   1   5   90.24   18.89   1
  -6   1   5  281.70   20.68   1
  -3   1   5   14.03   12.97   1
  -2   1   5  113.38   14.75   1
  -1   1   5   14.57   13.05   1
   1   1   5   93.97   14.73   1
   3   1   5    6.10   12.20   1
   5   1   5  294.97   18.02   1
   6   1   5   47.70   12.13   1
   8   1   5   89.44   14.80   1
   9   1   5  113.62   14.66   1
  10   1   5    1.06   12.68   1
  11   1   5  182.34   17.06   1
  12   1   5   83.37   15.88   1
  15   1   5   44.84   15.55   1
  17   1   5   77.24   15.11   1
  19   1   5   16.19   15.18   1
  23   0   5   83.41   17.56   1
  20   0   5   67.90   16.16   1
  17   0   5   40.30   15.05   1
  15   0   5  203.89   18.99   1
  14   0   5   52.18   16.55   1
  12   0   5   47.03   14.54   1
  11   0   5   66.12   15.62   1
   9   0   5  100.81   15.69   1
   8   0   5    0.01   12.33   1
   7   0   5   23.85   11.65   1
   6   0   5  115.58   14.74   1
   5   0   5  279.33   18.95   1
   2   0   5   16.56   12.96   1
  -1   0   5   27.73   12.57   1
  -4   0   5    5.89   12.45   1
  -5   0   5  306.21   20.59   1
  -6   0   5   90.22   17.52   1
  -9   0   5   96.27   20.24   1
 -11   0   5   62.86   21.78   1
 -14   0   5   68.42   22.79   1
 -15   0   5  146.58   25.91   1
 -16   0   5    1.50   19.48   1
 -17   0   5   65.44   20.80   1
 -19   0   5   10.61   20.13   1
 -20   0   5   58.47   22.60   1
 -23   0   5   91.23   24.70   1
 -24   0   5   43.78   19.71   1
 -13   0   6   65.15   23.09   1
 -12   0   6   29.88   23.21   1
 -11   0   6    5.75   20.21   1
 -10   0   6   75.30   19.94   1
  -8   0   6   20.07   17.69   1
  -6   0   6  131.83   18.27   1
  -5   0   6    1.98   14.68   1
   0   0   6 1748.65   40.98   1
   3   0   6   29.95   16.56   1
   6   0   6  106.77   18.05   1
  10   0   6   68.24   17.81   1
  13   0   6   35.58   16.93   1
  15   0   6   16.79   16.59   1
  20   1   6   34.95   16.43   1
  18   1   6    8.75   15.92   1
  17   1   6   51.39   15.02   1
  16   1   6   33.41   14.32   1
  14   1   6   75.66   17.23   1
  12   1   6   63.12   16.70   1
  11   1   6  128.43   17.70   1
  10   1   6    0.45   13.58   1
   8   1   6   52.40   13.66   1
   6   1   6  101.86   16.48   1
   4   1   6   85.98   16.01   1
   3   1   6   23.60   13.07   1
   2   1   6   27.27   13.24   1
  -5   1   6   58.59   16.54   1
  -6   1   6    6.69   13.53   1
  -7   1   6   77.81   17.04   1
  -9   1   6   42.32   18.18   1
 -12   1   6  108.70   24.49   1
 -13   1   6   64.10   23.17   1
 -15   1   6   72.04   26.02   1
 -18   1   6   30.96   22.76   1
 -20   1   6    8.26   19.09   1
 -21   1   6   26.60   22.59   1
 -21   2   6   52.00   24.58   1
 -20   2   6    3.13   21.50   1
 -18   2   6   41.69   23.83   1
 -15   2   6    4.36   21.35   1
 -13   2   6   27.56   24.17   1
 -12   2   6   34.20   20.23   1
 -11   2   6    5.89   19.26   1
 -10   2   6   32.72   18.89   1
  -9   2   6   33.92   18.00   1
  -8   2   6   54.73   16.31   1
  -7   2   6   21.88   16.05   1
  -3   2   6   22.32   14.24   1
  -1   2   6    0.00   13.13   1
   0   2   6    3.39   13.66   1
   6   2   6   67.73   14.20   1
   7   2   6   34.13   13.26   1
   8   2   6   23.83   13.71   1
  10   2   6   33.14   15.41   1
  11   2   6   56.52   14.35   1
  12   2   6   24.89   13.93   1
  13   2   6    6.37   13.76   1
  15   2   6   18.27   14.70   1
  16   2   6   62.30   15.85   1
   1   1   1  581.47   13.17   1
   4   1   0  607.92   12.04   1
   1   1   1  570.34   12.93   1
   1   1   1  607.37   12.97   1
   1   1   1  582.32   13.09   1
   1   1   1  552.75   12.41   1
   1   1   1  497.34   11.45   1
   1   1   1  436.44   11.28   1
   1   1   1  546.23   12.92   1
   1   1   1  537.70   13.01   1
   1   1   1  558.19   13.35   1
   1   1   1  566.90   13.32   1
   1   1   1  576.05   13.28   1
   1   1   1  544.72   13.58   1
   1   1   1  567.24   13.04   1
   1   1   1  573.39   11.80   1
   1   1   1  574.49   11.16   1
   1   1   1  568.06   11.26   1
   1   1   1  569.60   11.48   1
   1   1   1  554.40   11.64   1
   1   1   1  604.57   12.85   1
   1   1   1  600.72   12.97   1
   1   1   1  611.54   13.30   1
   1   1   1  618.43   12.89   1
   1   1   1  574.17   12.90   1
   1   1   1  557.91   12.66   1
   1   1   1  551.89   12.52   1
   1   1   1  572.09   12.60   1
   1   1   1  537.15   13.27   1
   1   1   1  559.22   14.01   1
   1   1   1  553.89   14.32   1
   1   1   1  537.84   13.99   1
   1   1   1  540.11   13.35   1
   1   1   1  565.38   12.12   1
   1   1   1  553.45   11.49   1
   1   1   1  563.83   11.15   1
   1   1   1  566.47   11.62   1
   1   1   1  559.86   11.98   1
   1   1   1  604.89   12.85   1
   4   1   0  606.80   12.07   1
   4   1   0  589.73   13.02   1
   4   1   0  795.45   15.67   1
   4   1   0  688.38   13.07   1
   4   1   0  619.20   12.79   1
   4   1   0  590.36   12.97   1
   4   1   0  591.86   14.16   1
   4   1   0  633.96   16.32   1
   4   1   0  616.87   19.38   1
   4   1   0  289.00   18.98   1
   4   1   0  419.97   34.29   1
   4   1   0  636.23   28.11   1
   4   1   0  591.76   22.02   1
   4   1   0  580.78   18.32   1
   4   1   0  604.21   15.30   1
   4   1   0  617.55   13.50   1
   4   1   0  607.94   12.31   1
   4   1   0  617.01   12.10   1
   4   1   0  581.91   12.88   1
   4   1   0  741.10   15.35   1
   4   1   0  708.45   13.20   1
   4   1   0  633.87   12.76   1
   4   1   0  601.13   13.11   1
   4   1   0  613.31   14.32   1
   4   1   0  607.74   16.28   1
   4   1   0  590.57   18.35   1
   4   1   0  288.63   17.12   1
   4   1   0  419.49   33.23   1
   4   1   0  470.84   27.06   1
   4   1   0  533.62   21.14   1
   4   1   0  594.88   16.95   1
   4   1   0  609.51   15.16   1
   4   1   0  610.88   13.04   1
   4   1   0  605.25   12.72   1
   4   1   0  610.14   12.07   1
  -2  -2  -1 1732.75   33.47   1
  -2  -2  -1 1720.76   34.00   1
  -2  -2  -1 1724.85   34.78   1
  -2  -2  -1 1718.30   36.25   1
  -2  -2  -1 1731.62   36.61   1
  -2  -2  -1 1774.35   38.90   1
  -2  -2  -1 1779.01   41.18   1
  -2  -2  -1 1797.42   48.41   1
  -2  -2  -1 1757.08   40.34   1
  -2  -2  -1 1394.03   32.64   1
  -2  -2  -1 1619.37   33.42   1
  -2  -2  -1 1779.27   35.45   1
  -2  -2  -1 1701.34   35.35   1
  -2  -2  -1 1815.82   35.88   1
  -2  -2  -1 1803.24   30.01   1
  -2  -2  -1 1695.97   32.99   1
  -2  -2  -1 1695.46   33.54   1
  -2  -2  -1 1746.02   35.14   1
  -2  -2  -1 1707.92   36.09   1
  -2  -2  -1 1742.67   37.63   1
  -2  -2  -1 1780.20   40.22   1
  -2  -2  -1 1780.73   44.48   1
  -2  -2  -1 1751.99   47.00   1
  -2  -2  -1 1710.93   39.11   1
  -2  -2  -1 1805.09   39.06   1
  -2  -2  -1 1948.53   39.79   1
  -2  -2  -1 1911.96   38.24   1
  -2  -2  -1 1956.32   37.57   1
  -2  -2  -1 1811.06   35.69   1
  -2  -2  -1 1764.53   30.45   1
  -2  -2  -1 1764.89   33.61   1
   4   3   0  934.32   21.30   1
   4   3   0 1063.93   23.43   1
   4   3   0 1025.57   22.61   1
   4   3   0 1011.77   22.15   1
   4   3   0  997.79   22.55   1
   4   3   0 1021.33   25.01   1
   4   3   0 1009.87   28.12   1
   4   3   0 1001.20   28.34   1
   4   3   0  921.19   28.42   1
   4   3   0  498.36   23.19   1
   4   3   0  380.82   26.02   1
   4   3   0  606.67   44.73   1
   4   3   0  999.45   39.60   1
   4   3   0  917.03   35.40   1
   4   3   0  927.73   28.74   1
   4   3   0  940.01   26.30   1
   4   3   0  937.34   22.46   1
   4   3   0  953.56   20.82   1
   4   3   0  986.02   20.43   1
   4   3   0 1091.44   23.50   1
   4   3   0 1050.54   22.44   1
   4   3   0 1017.42   22.05   1
   4   3   0 1020.11   22.72   1
   4   3   0 1081.42   25.17   1
   4   3   0 1000.21   27.18   1
   4   3   0  996.01   28.49   1
   4   3   0  847.82   27.46   1
   4   3   0  472.55   22.37   1
   4   3   0  371.51   26.10   1
   4   3   0  619.66   42.93   1
   4   3   0  839.61   37.30   1
   4   3   0 1000.29   31.73   1
   4   3   0 1016.07   26.69   1
   4   3   0 1018.06   24.25   1
   4   3   0  995.51   21.95   1
   4   3   0  979.69   20.69   1
   4   3   0  934.06   20.95   1
   5   0   1 1563.54   25.68   1
   5   0   1 1527.59   28.76   1
   5   0   1 2172.31   39.80   1
   5   0   1 1927.38   35.70   1
   5   0   1 1588.90   28.27   1
   5   0   1 1556.19   27.74   1
   5   0   1 1725.80   32.69   1
   5   0   1 1617.95   32.86   1
   5   0   1 1602.95   31.07   1
   5   0   1 1542.39   32.33   1
   5   0   1 1534.94   29.36   1
   5   0   1 1562.07   26.85   1
   5   0   1 1570.26   25.78   1
   5   0   1 1599.90   25.55   1
   5   0   1 1640.39   29.91   1
   5   0   1 2222.14   39.96   1
   5   0   1 1978.82   36.22   1
   5   0   1 1636.51   30.27   1
   5   0   1 1635.59   30.10   1
   5   0   1 1710.40   32.41   1
   5   0   1 1622.17   33.76   1
   5   0   1 1585.74   32.13   1
   5   0   1 1503.00   31.64   1
   5   0   1 1562.43   29.44   1
   5   0   1 1559.11   27.14   1
   5   0   1 1572.67   25.11   1
   5   0   1 1536.01   25.75   1
  -3  -3  -1  687.23   16.25   1
  -3  -3  -1  712.55   16.46   1
  -3  -3  -1  735.53   17.29   1
  -3  -3  -1  715.92   18.31   1
  -3  -3  -1  725.38   19.62   1
  -3  -3  -1  689.16   21.80   1
  -3  -3  -1  731.91   24.51   1
  -3  -3  -1  728.62   21.36   1
  -3  -3  -1  726.68   19.77   1
  -3  -3  -1  802.83   20.62   1
  -3  -3  -1  816.15   19.66   1
  -3  -3  -1  763.17   17.92   1
  -3  -3  -1  681.67   15.28   1
  -3  -3  -1  704.18   16.00   1
  -3  -3  -1  702.92   16.28   1
  -3  -3  -1  696.55   17.05   1
  -3  -3  -1  716.60   18.39   1
  -3  -3  -1  748.54   19.76   1
  -3  -3  -1  739.78   22.31   1
  -3  -3  -1  779.55   25.94   1
  -3  -3  -1  830.57   23.52   1
  -3  -3  -1  914.67   22.21   1
  -3  -3  -1  883.59   20.81   1
  -3  -3  -1  862.60   19.57   1
  -3  -3  -1  809.47   18.05   1
  -3  -3  -1  681.53   15.31   1
  -3  -3  -1  707.12   16.18   1
   2   4   1  755.59   17.77   1
   2   4   1  754.18   17.46   1
   2   4   1  739.78   15.05   1
   2   4   1  767.11   14.55   1
   2   4   1  626.24   13.46   1
   2   4   1  652.48   14.44   1
   2   4   1  674.62   16.03   1
   2   4   1  723.69   15.32   1
   2   4   1  747.80   15.30   1
   2   4   1  751.46   14.91   1
   2   4   1  750.78   15.54   1
   2   4   1  747.46   17.81   1
   2   4   1  769.89   17.34   1
   2   4   1  734.61   15.01   1
   2   4   1  743.34   14.84   1
   2   4   1  748.16   14.73   1
   2   4   1  741.45   15.11   1
   2   4   1  742.76   16.53   1
   2   4   1  755.92   15.51   1
   2   4   1  760.81   15.12   1
   2   4   1  751.27   14.81   1
   2   4   1  731.20   15.51   1
   2   4   1  741.31   17.65   1
  -5  -1  -1 1448.67   25.63   1
  -5  -1  -1 1479.39   26.13   1
  -5  -1  -1 1425.15   27.94   1
  -5  -1  -1 1395.37   30.97   1
  -5  -1  -1 1443.18   35.11   1
  -5  -1  -1 1408.31   38.96   1
  -5  -1  -1 1407.14   42.71   1
  -5  -1  -1 1407.22   32.87   1
  -5  -1  -1 1398.38   32.48   1
  -5  -1  -1 1435.86   31.93   1
  -5  -1  -1 1585.48   32.94   1
  -5  -1  -1 1419.12   27.14   1
  -5  -1  -1 1426.89   26.93   1
  -5  -1  -1 1438.06   25.20   1
  -5  -1  -1 1449.26   25.72   1
  -5  -1  -1 1427.41   27.53   1
  -5  -1  -1 1418.34   30.93   1
  -5  -1  -1 1456.24   35.52   1
  -5  -1  -1 1483.67   39.80   1
  -5  -1  -1 1435.66   43.48   1
  -5  -1  -1 1728.01   35.75   1
  -5  -1  -1 1786.20   35.28   1
  -5  -1  -1 1631.01   33.86   1
  -5  -1  -1 1699.15   33.85   1
  -5  -1  -1 1434.82   27.46   1
  -5  -1  -1 1404.11   27.28   1
  -5  -1  -1 1416.58   25.77   1
   0   0   214225.54  111.84   1
   0   0   213413.78  107.37   1
   0   0   213224.94  105.73   1
   0   0   212880.41  107.66   1
   0   0   211532.80  107.73   1
   0   0   210188.72  108.56   1
   0   0   2 9947.86  113.20   1
   0   0   210833.53  120.74   1
   0   0   211085.01  121.00   1
   0   0   213025.83  127.14   1
   0   0   214346.24  130.29   1
   0   0   212997.00  120.53   1
   0   0   214006.25  122.41   1
   0   0   214569.22  121.46   1
   0   0   214577.89  118.73   1
   0   0   213911.45  113.80   1
   0   0   214017.41  112.75   1
   0   0   214307.30  112.89   1
   0   0   214291.33  111.88   1
   0   0   214118.63  109.93   1
   0   0   214236.35  109.94   1
   0   0   214312.60  116.29   1
   0   0   214282.60  125.35   1
   0   0   215059.21  139.94   1
   0   0   215527.20  149.65   1
   0   0   215296.06  152.22   1
   0   0   214853.29  148.71   1
   0   0   216089.39  150.34   1
   0   0   214781.27  140.05   1
   0   0   214433.56  131.26   1
   0   0   214181.26  130.08   1
   0   0   214395.33  124.81   1
   0   0   214576.71  119.35   1
   0   0   214326.76  115.72   1
   0   0   214021.37  112.80   1
   0   0   214382.68  113.55   1
   0   0   210990.02   87.06   1
;
_shelx_hkl_checksum              27037
_shelx_res_file
;
TITL Gd3 Ni7 Al14
CELL 0.71073  17.9657  17.9657   4.0448  90.000  90.000 120.000
ZERR    3.00   0.0051   0.0051   0.0006   0.000   0.000   0.000
LATT   -1
SYMM  +X,+Y,-Z
SYMM  +Y,+X,+Z
SYMM  +Y,+X,-Z
SYMM  +X-Y,-Y,-Z
SYMM  +X-Y,-Y,+Z
SYMM  -X,-X+Y,+Z
SYMM  -X,-X+Y,-Z
SYMM  -Y,+X-Y,+Z
SYMM  -Y,+X-Y,-Z
SYMM  -X+Y,-X,-Z
SYMM  -X+Y,-X,+Z
SFAC GD NI AL
UNIT 9 21 42
MERG 2
OMIT -1 70
L.S. 16
BOND
FMAP 2
PLAN 20
LIST 4
ACTA
rem EXTI    0.000015
WGHT    0.005000
FVAR       0.09986
GD1   1    0.306798    0.481218    0.500000    10.50000    0.00689    0.00654 =
         0.00604    0.00000    0.00000    0.00352
GD2   1    0.203168    0.000000    0.000000    10.25000    0.00689    0.00661 =
         0.00659    0.00000    0.00000    0.00331
NI1   2    0.140117    0.227826    0.500000    10.50000    0.00678    0.00630 =
         0.00662    0.00000    0.00000    0.00285
NI2   2    0.085421    0.535357    0.000000    10.50000    0.00693    0.00608 =
         0.00718    0.00000    0.00000    0.00306
NI3   2    0.152160    0.428231    0.000000    10.50000    0.00663    0.00661 =
         0.00747    0.00000    0.00000    0.00364
NI4   2    0.333333    0.666667    0.500000    10.16667    0.00569    0.00569 =
         0.00543    0.00000    0.00000    0.00285
NI5   2    0.000000    0.000000    0.000000    10.08333    0.00826    0.00826 =
         0.01063    0.00000    0.00000    0.00413
AL1   3    0.099822    0.340048    0.500000    10.50000    0.00921    0.01066 =
         0.00813    0.00000    0.00000    0.00628
AL2   3    0.145418    0.504992    0.500000    10.50000    0.00685    0.00688 =
         0.01107    0.00000    0.00000    0.00292
AL3   3    0.200216    0.323395    0.000000    10.50000    0.00878    0.01015 =
         0.00798    0.00000    0.00000    0.00382
AL4   3    0.241964    0.588169    0.000000    10.50000    0.01050    0.00983 =
         0.00902    0.00000    0.00000    0.00611
AL5   3    0.085095    0.000000    0.500000    10.25000    0.00789    0.00382 =
         0.01107    0.00000    0.00000    0.00191
AL6   3    0.512712    0.000000    0.500000    10.25000    0.00995    0.01156 =
         0.00768    0.00000    0.00000    0.00578
AL7   3    0.705494    0.000000    0.500000    10.25000    0.00892    0.00758 =
         0.01113    0.00000    0.00000    0.00379
AL8   3    0.376581    0.000000    0.000000    10.25000    0.01732    0.01626 =
         0.01001    0.00000    0.00000    0.00813
AL9   3    0.609305    0.000000    0.000000    10.25000    0.02413    0.00953 =
         0.01214    0.00000    0.00000    0.00477
AL10  3    0.858968    0.000000    0.000000    10.25000    0.00884    0.01137 =
         0.01014    0.00000    0.00000    0.00569
HKLF 4
REM  Gd3 Ni7 Al14
REM R1 =  0.0226 for    1575 Fo > 4sig(Fo)  and  0.0322 for all    1834 data
REM     81 parameters refined using      0 restraints
END
WGHT      0.0000      0.0000
REM Highest difference peak  1.302,  deepest hole -1.586,  1-sigma level  0.251
Q1    1   0.3093  0.4802  0.3071  11.00000  0.05    1.30
Q2    1   0.2958  0.4357  0.5000  10.50000  0.05    1.10
Q3    1   0.5503  0.0000  0.5000  10.25000  0.05    1.04
Q4    1   0.1161  0.0000  0.3273  10.50000  0.05    0.98
Q5    1   0.0000  0.4907  0.0000  10.25000  0.05    0.98
Q6    1   0.0000  0.3339  0.4158  10.50000  0.05    0.97
Q7    1   0.0311  0.0000  0.5000  10.25000  0.05    0.96
Q8    1   0.1737  0.3347  0.0000  10.50000  0.05    0.95
Q9    1   0.8824  0.0000  0.2108  10.50000  0.05    0.95
Q10   1   0.1168  0.2277  0.2905  11.00000  0.05    0.93
Q11   1   0.1071  0.1503  0.5000  10.50000  0.05    0.92
Q12   1   0.6445  0.0000  0.0000  10.25000  0.05    0.91
Q13   1   0.1100  0.0000  0.1474  10.50000  0.05    0.90
Q14   1   0.3026  0.4841  0.1169  11.00000  0.05    0.90
Q15   1   0.1632  0.4032  0.5000  10.50000  0.05    0.90
Q16   1   0.0000  0.0000  0.1888  10.16667  0.05    0.89
Q17   1   0.1461 -0.0247  0.0000  10.50000  0.05    0.89
Q18   1   0.3333  0.6667  0.1180  10.33333  0.05    0.86
Q19   1   0.4021  0.0000  0.3320  10.50000  0.05    0.85
Q20   1   0.2499  0.0000  0.0741  10.50000  0.05    0.85
;
_shelx_res_checksum              44347
_shelxl_version_number           2.014
loop_
_space_group_symop_operation_xyz
'x, y, z'
'x, y, -z'
'y, x, z'
'y, x, -z'
'x-y, -y, -z'
'x-y, -y, z'
'-x, -x+y, z'
'-x, -x+y, -z'
'-y, x-y, z'
'-y, x-y, -z'
'-x+y, -x, -z'
'-x+y, -x, z'
loop_
_atom_site_type_symbol
_atom_site_label
_atom_site_fract_x
_atom_site_fract_y
_atom_site_fract_z
_atom_site_U_iso_or_equiv
_atom_site_adp_type
_atom_site_calc_flag
_atom_site_occupancy
Gd Gd1 0.30680(3) 0.48122(3) 0.5000 0.00642(7) Uani d 1
Gd Gd2 0.20317(3) 0.0000 0.0000 0.00673(10) Uani d 1
Ni Ni1 0.14012(7) 0.22783(7) 0.5000 0.0068(2) Uani d 1
Ni Ni2 0.08542(7) 0.53536(7) 0.0000 0.0068(2) Uani d 1
Ni Ni3 0.15216(7) 0.42823(7) 0.0000 0.0068(2) Uani d 1
Ni Ni4 0.3333 0.6667 0.5000 0.0056(3) Uani d 1
Ni Ni5 0.0000 0.0000 0.0000 0.0090(5) Uani d 1
Al Al1 0.09982(17) 0.34005(19) 0.5000 0.0088(5) Uani d 1
Al Al2 0.14542(17) 0.50499(16) 0.5000 0.0085(5) Uani d 1
Al Al3 0.20022(18) 0.32339(18) 0.0000 0.0094(5) Uani d 1
Al Al4 0.24196(19) 0.58817(19) 0.0000 0.0093(5) Uani d 1
Al Al5 0.0851(2) 0.0000 0.5000 0.0080(7) Uani d 1
Al Al6 0.5127(2) 0.0000 0.5000 0.0096(8) Uani d 1
Al Al7 0.7055(2) 0.0000 0.5000 0.0094(7) Uani d 1
Al Al8 0.3766(2) 0.0000 0.0000 0.0146(9) Uani d 1
Al Al9 0.6093(3) 0.0000 0.0000 0.0169(9) Uani d 1
Al Al10 0.8590(2) 0.0000 0.0000 0.0098(7) Uani d 1
loop_
_atom_site_aniso_label
_atom_site_aniso_U_11
_atom_site_aniso_U_22
_atom_site_aniso_U_33
_atom_site_aniso_U_12
_atom_site_aniso_U_13
_atom_site_aniso_U_23
Gd1 0.00689(17) 0.00654(18) 0.00604(15) 0.00352(15) 0.000 0.000
Gd2 0.00689(18) 0.0066(3) 0.0066(3) 0.00331(14) 0.000 0.000
Ni1 0.0068(5) 0.0063(5) 0.0066(5) 0.0028(4) 0.000 0.000
Ni2 0.0069(5) 0.0061(5) 0.0072(5) 0.0031(4) 0.000 0.000
Ni3 0.0066(5) 0.0066(5) 0.0075(5) 0.0036(4) 0.000 0.000
Ni4 0.0057(5) 0.0057(5) 0.0054(9) 0.0028(2) 0.000 0.000
Ni5 0.0083(8) 0.0083(8) 0.0106(14) 0.0041(4) 0.000 0.000
Al1 0.0092(13) 0.0107(14) 0.0081(14) 0.0063(11) 0.000 0.000
Al2 0.0069(13) 0.0069(12) 0.0111(13) 0.0029(11) 0.000 0.000
Al3 0.0088(12) 0.0102(12) 0.0080(13) 0.0038(10) 0.000 0.000
Al4 0.0105(11) 0.0098(12) 0.0090(13) 0.0061(10) 0.000 0.000
Al5 0.0079(12) 0.0038(15) 0.0111(19) 0.0019(8) 0.000 0.000
Al6 0.0100(14) 0.0116(19) 0.0077(19) 0.0058(10) 0.000 0.000
Al7 0.0089(12) 0.0076(17) 0.011(2) 0.0038(9) 0.000 0.000
Al8 0.0173(16) 0.016(2) 0.0100(18) 0.0081(10) 0.000 0.000
Al9 0.0241(17) 0.0095(19) 0.012(2) 0.0048(9) 0.000 0.000
Al10 0.0088(12) 0.0114(19) 0.0101(18) 0.0057(9) 0.000 0.000
loop_
_atom_type_symbol
_atom_type_description
_atom_type_scat_dispersion_real
_atom_type_scat_dispersion_imag
_atom_type_scat_source
Gd Gd -0.1653 3.9035 'International Tables Vol C Tables 4.2.6.8 and 6.1.1.4'
Ni Ni 0.3393 1.1124 'International Tables Vol C Tables 4.2.6.8 and 6.1.1.4'
Al Al 0.0645 0.0514 'International Tables Vol C Tables 4.2.6.8 and 6.1.1.4'
loop_
_geom_angle_atom_site_label_1
_geom_angle_atom_site_label_2
_geom_angle_atom_site_label_3
_geom_angle_site_symmetry_1
_geom_angle_site_symmetry_3
_geom_angle
Ni4 Gd1 Al2 . . 60.83(5)
Ni4 Gd1 Al2 . 9_665 60.63(5)
Al2 Gd1 Al2 . 9_665 121.45(8)
Ni4 Gd1 Ni3 . 1_556 87.92(2)
Al2 Gd1 Ni3 . 1_556 46.39(3)
Al2 Gd1 Ni3 9_665 1_556 130.77(3)
Ni4 Gd1 Ni3 . . 87.92(2)
Al2 Gd1 Ni3 . . 46.39(3)
Al2 Gd1 Ni3 9_665 . 130.77(3)
Ni3 Gd1 Ni3 1_556 . 79.18(3)
Ni4 Gd1 Ni2 . 9_666 87.38(2)
Al2 Gd1 Ni2 . 9_666 130.64(3)
Al2 Gd1 Ni2 9_665 9_666 46.00(3)
Ni3 Gd1 Ni2 1_556 9_666 100.82(3)
Ni3 Gd1 Ni2 . 9_666 175.30(3)
Ni4 Gd1 Ni2 . 9_665 87.38(2)
Al2 Gd1 Ni2 . 9_665 130.64(3)
Al2 Gd1 Ni2 9_665 9_665 46.00(3)
Ni3 Gd1 Ni2 1_556 9_665 175.30(3)
Ni3 Gd1 Ni2 . 9_665 100.82(3)
Ni2 Gd1 Ni2 9_666 9_665 78.79(3)
Ni4 Gd1 Al6 . 7_665 110.70(6)
Al2 Gd1 Al6 . 7_665 171.53(7)
Al2 Gd1 Al6 9_665 7_665 50.08(7)
Ni3 Gd1 Al6 1_556 7_665 137.13(3)
Ni3 Gd1 Al6 . 7_665 137.13(3)
Ni2 Gd1 Al6 9_666 7_665 45.13(3)
Ni2 Gd1 Al6 9_665 7_665 45.13(3)
Ni4 Gd1 Al3 . 1_556 130.26(4)
Al2 Gd1 Al3 . 1_556 86.37(6)
Al2 Gd1 Al3 9_665 1_556 134.00(5)
Ni3 Gd1 Al3 1_556 1_556 44.73(5)
Ni3 Gd1 Al3 . 1_556 95.17(5)
Ni2 Gd1 Al3 9_666 1_556 88.00(5)
Ni2 Gd1 Al3 9_665 1_556 139.68(6)
Al6 Gd1 Al3 7_665 1_556 100.19(7)
Ni4 Gd1 Al3 . . 130.26(4)
Al2 Gd1 Al3 . . 86.37(6)
Al2 Gd1 Al3 9_665 . 134.00(5)
Ni3 Gd1 Al3 1_556 . 95.17(5)
Ni3 Gd1 Al3 . . 44.73(5)
Ni2 Gd1 Al3 9_666 . 139.68(6)
Ni2 Gd1 Al3 9_665 . 88.00(5)
Al6 Gd1 Al3 7_665 . 100.19(7)
Al3 Gd1 Al3 1_556 . 77.82(7)
Ni4 Gd1 Al7 . 7_665 175.77(6)
Al2 Gd1 Al7 . 7_665 123.40(7)
Al2 Gd1 Al7 9_665 7_665 115.15(9)
Ni3 Gd1 Al7 1_556 7_665 95.33(5)
Ni3 Gd1 Al7 . 7_665 95.33(5)
Ni2 Gd1 Al7 9_666 7_665 89.35(5)
Ni2 Gd1 Al7 9_665 7_665 89.35(5)
Al6 Gd1 Al7 7_665 7_665 65.07(8)
Al3 Gd1 Al7 1_556 7_665 52.22(6)
Al3 Gd1 Al7 . 7_665 52.22(6)
Ni4 Gd1 Al1 . . 109.47(5)
Al2 Gd1 Al1 . . 48.65(7)
Al2 Gd1 Al1 9_665 . 170.10(7)
Ni3 Gd1 Al1 1_556 . 44.47(3)
Ni3 Gd1 Al1 . . 44.47(3)
Ni2 Gd1 Al1 9_666 . 137.95(2)
Ni2 Gd1 Al1 9_665 . 137.95(2)
Al6 Gd1 Al1 7_665 . 139.82(8)
Al3 Gd1 Al1 1_556 . 51.39(5)
Al3 Gd1 Al1 . . 51.39(5)
Al7 Gd1 Al1 7_665 . 74.75(8)
Al5 Gd2 Al5 1_554 . 87.27(10)
Al5 Gd2 Al1 1_554 3 147.65(5)
Al5 Gd2 Al1 . 3 84.92(6)
Al5 Gd2 Al1 1_554 11 84.92(6)
Al5 Gd2 Al1 . 11 147.65(5)
Al1 Gd2 Al1 3 11 117.00(10)
Al5 Gd2 Al1 1_554 11_556 147.65(5)
Al5 Gd2 Al1 . 11_556 84.92(6)
Al1 Gd2 Al1 3 11_556 62.58(9)
Al1 Gd2 Al1 11 11_556 85.10(8)
Al5 Gd2 Al1 1_554 3_554 84.92(6)
Al5 Gd2 Al1 . 3_554 147.65(5)
Al1 Gd2 Al1 3 3_554 85.10(8)
Al1 Gd2 Al1 11 3_554 62.58(9)
Al1 Gd2 Al1 11_556 3_554 117.00(10)
Al5 Gd2 Ni1 1_554 3 105.14(4)
Al5 Gd2 Ni1 . 3 49.91(3)
Al1 Gd2 Ni1 3 3 47.74(5)
Al1 Gd2 Ni1 11 3 161.61(5)
Al1 Gd2 Ni1 11_556 3 93.54(4)
Al1 Gd2 Ni1 3_554 3 102.39(5)
Al5 Gd2 Ni1 1_554 3_554 49.91(3)
Al5 Gd2 Ni1 . 3_554 105.14(4)
Al1 Gd2 Ni1 3 3_554 102.39(5)
Al1 Gd2 Ni1 11 3_554 93.54(4)
Al1 Gd2 Ni1 11_556 3_554 161.61(5)
Al1 Gd2 Ni1 3_554 3_554 47.74(5)
Ni1 Gd2 Ni1 3 3_554 81.97(3)
Al5 Gd2 Ni1 1_554 11 49.91(3)
Al5 Gd2 Ni1 . 11 105.14(4)
Al1 Gd2 Ni1 3 11 161.61(5)
Al1 Gd2 Ni1 11 11 47.74(5)
Al1 Gd2 Ni1 11_556 11 102.39(5)
Al1 Gd2 Ni1 3_554 11 93.55(4)
Ni1 Gd2 Ni1 3 11 149.32(5)
Ni1 Gd2 Ni1 3_554 11 89.98(3)
Al5 Gd2 Ni1 1_554 11_556 105.14(4)
Al5 Gd2 Ni1 . 11_556 49.91(3)
Al1 Gd2 Ni1 3 11_556 93.55(4)
Al1 Gd2 Ni1 11 11_556 102.39(5)
Al1 Gd2 Ni1 11_556 11_556 47.74(5)
Al1 Gd2 Ni1 3_554 11_556 161.61(5)
Ni1 Gd2 Ni1 3 11_556 89.98(3)
Ni1 Gd2 Ni1 3_554 11_556 149.32(5)
Ni1 Gd2 Ni1 11 11_556 81.97(3)
Al5 Gd2 Al8 1_554 . 136.37(5)
Al5 Gd2 Al8 . . 136.37(5)
Al1 Gd2 Al8 3 . 58.50(5)
Al1 Gd2 Al8 11 . 58.50(5)
Al1 Gd2 Al8 11_556 . 58.50(5)
Al1 Gd2 Al8 3_554 . 58.50(5)
Ni1 Gd2 Al8 3 . 105.34(2)
Ni1 Gd2 Al8 3_554 . 105.34(2)
Ni1 Gd2 Al8 11 . 105.34(2)
Ni1 Gd2 Al8 11_556 . 105.34(2)
Al5 Gd2 Al3 1_554 3 94.78(4)
Al5 Gd2 Al3 . 3 94.78(4)
Al1 Gd2 Al3 3 3 54.82(5)
Al1 Gd2 Al3 11 3 117.11(6)
Al1 Gd2 Al3 11_556 3 117.11(6)
Al1 Gd2 Al3 3_554 3 54.82(5)
Ni1 Gd2 Al3 3 3 47.79(3)
Ni1 Gd2 Al3 3_554 3 47.79(3)
Ni1 Gd2 Al3 11 3 137.12(2)
Ni1 Gd2 Al3 11_556 3 137.12(2)
Al8 Gd2 Al3 . 3 83.38(5)
Al7 Ni1 Al1 7_665 . 109.26(10)
Al7 Ni1 Al3 7_665 . 70.53(8)
Al1 Ni1 Al3 . . 69.08(7)
Al7 Ni1 Al3 7_665 1_556 70.53(8)
Al1 Ni1 Al3 . 1_556 69.08(7)
Al3 Ni1 Al3 . 1_556 106.75(12)
Al7 Ni1 Al5 7_665 3 144.59(10)
Al1 Ni1 Al5 . 3 106.15(11)
Al3 Ni1 Al5 . 3 123.94(6)
Al3 Ni1 Al5 1_556 3 123.94(6)
Al7 Ni1 Al10 7_665 7_665 86.93(8)
Al1 Ni1 Al10 . 7_665 126.43(3)
Al3 Ni1 Al10 . 7_665 69.50(8)
Al3 Ni1 Al10 1_556 7_665 156.70(10)
Al5 Ni1 Al10 3 7_665 71.94(9)
Al7 Ni1 Al10 7_665 7_666 86.93(8)
Al1 Ni1 Al10 . 7_666 126.43(3)
Al3 Ni1 Al10 . 7_666 156.70(10)
Al3 Ni1 Al10 1_556 7_666 69.50(8)
Al5 Ni1 Al10 3 7_666 71.94(9)
Al10 Ni1 Al10 7_665 7_666 104.44(8)
Al7 Ni1 Ni1 7_665 3 55.50(6)
Al1 Ni1 Ni1 . 3 164.77(7)
Al3 Ni1 Ni1 . 3 102.65(7)
Al3 Ni1 Ni1 1_556 3 102.65(7)
Al5 Ni1 Ni1 3 3 89.08(8)
Al10 Ni1 Ni1 7_665 3 57.77(3)
Al10 Ni1 Ni1 7_666 3 57.77(3)
Al7 Ni1 Gd2 7_665 3 136.52(3)
Al1 Ni1 Gd2 . 3 64.15(5)
Al3 Ni1 Gd2 . 3 67.19(6)
Al3 Ni1 Gd2 1_556 3 131.70(8)
Al5 Ni1 Gd2 3 3 61.92(6)
Al10 Ni1 Gd2 7_665 3 69.37(4)
Al10 Ni1 Gd2 7_666 3 133.19(9)
Ni1 Ni1 Gd2 3 3 125.63(2)
Al7 Ni1 Gd2 7_665 3_556 136.52(3)
Al1 Ni1 Gd2 . 3_556 64.15(5)
Al3 Ni1 Gd2 . 3_556 131.69(8)
Al3 Ni1 Gd2 1_556 3_556 67.20(6)
Al5 Ni1 Gd2 3 3_556 61.92(6)
Al10 Ni1 Gd2 7_665 3_556 133.19(9)
Al10 Ni1 Gd2 7_666 3_556 69.37(4)
Ni1 Ni1 Gd2 3 3_556 125.63(2)
Gd2 Ni1 Gd2 3 3_556 81.97(3)
Al6 Ni2 Al6 3_554 3 111.50(6)
Al6 Ni2 Al8 3_554 3 80.34(9)
Al6 Ni2 Al8 3 3 80.34(9)
Al6 Ni2 Al2 3_554 . 160.72(11)
Al6 Ni2 Al2 3 . 66.07(7)
Al8 Ni2 Al2 3 . 80.41(7)
Al6 Ni2 Al2 3_554 1_554 66.07(7)
Al6 Ni2 Al2 3 1_554 160.72(11)
Al8 Ni2 Al2 3 1_554 80.41(7)
Al2 Ni2 Al2 . 1_554 109.44(11)
Al6 Ni2 Al4 3_554 . 124.13(3)
Al6 Ni2 Al4 3 . 124.13(3)
Al8 Ni2 Al4 3 . 111.88(10)
Al2 Ni2 Al4 . . 63.18(7)
Al2 Ni2 Al4 1_554 . 63.19(7)
Al6 Ni2 Al9 3_554 3 65.46(9)
Al6 Ni2 Al9 3 3 65.46(9)
Al8 Ni2 Al9 3 3 115.11(9)
Al2 Ni2 Al9 . 3 124.85(6)
Al2 Ni2 Al9 1_554 3 124.85(6)
Al4 Ni2 Al9 . 3 133.02(10)
Al6 Ni2 Ni2 3_554 7 57.10(2)
Al6 Ni2 Ni2 3 7 57.10(2)
Al8 Ni2 Ni2 3 7 57.49(6)
Al2 Ni2 Ni2 . 7 112.14(6)
Al2 Ni2 Ni2 1_554 7 112.13(6)
Al4 Ni2 Ni2 . 7 169.36(7)
Al9 Ni2 Ni2 3 7 57.62(7)
Al6 Ni2 Ni3 3_554 . 110.05(9)
Al6 Ni2 Ni3 3 . 110.05(9)
Al8 Ni2 Ni3 3 . 54.87(6)
Al2 Ni2 Ni3 . . 56.76(6)
Al2 Ni2 Ni3 1_554 . 56.76(6)
Al4 Ni2 Ni3 . . 57.00(8)
Al9 Ni2 Ni3 3 . 169.98(8)
Ni2 Ni2 Ni3 7 . 112.36(3)
Al6 Ni2 Gd1 3_554 11_566 131.80(10)
Al6 Ni2 Gd1 3 11_566 67.50(6)
Al8 Ni2 Gd1 3 11_566 140.573(16)
Al2 Ni2 Gd1 . 11_566 66.29(6)
Al2 Ni2 Gd1 1_554 11_566 129.35(7)
Al4 Ni2 Gd1 . 11_566 71.99(5)
Al9 Ni2 Gd1 3 11_566 72.13(6)
Ni2 Ni2 Gd1 7 11_566 115.76(2)
Ni3 Ni2 Gd1 . 11_566 115.19(3)
Al6 Ni2 Gd1 3_554 11_565 67.50(6)
Al6 Ni2 Gd1 3 11_565 131.80(10)
Al8 Ni2 Gd1 3 11_565 140.573(16)
Al2 Ni2 Gd1 . 11_565 129.35(7)
Al2 Ni2 Gd1 1_554 11_565 66.29(6)
Al4 Ni2 Gd1 . 11_565 71.99(5)
Al9 Ni2 Gd1 3 11_565 72.13(6)
Ni2 Ni2 Gd1 7 11_565 115.76(2)
Ni3 Ni2 Gd1 . 11_565 115.19(3)
Gd1 Ni2 Gd1 11_566 11_565 78.79(3)
Al8 Ni3 Al3 3 . 118.40(14)
Al8 Ni3 Al1 3 1_554 75.87(9)
Al3 Ni3 Al1 . 1_554 70.68(7)
Al8 Ni3 Al1 3 . 75.87(9)
Al3 Ni3 Al1 . . 70.68(7)
Al1 Ni3 Al1 1_554 . 111.38(12)
Al8 Ni3 Al2 3 1_554 81.54(9)
Al3 Ni3 Al2 . 1_554 124.36(6)
Al1 Ni3 Al2 1_554 1_554 64.99(8)
Al1 Ni3 Al2 . 1_554 157.21(10)
Al8 Ni3 Al2 3 . 81.54(9)
Al3 Ni3 Al2 . . 124.36(6)
Al1 Ni3 Al2 1_554 . 157.21(10)
Al1 Ni3 Al2 . . 64.99(8)
Al2 Ni3 Al2 1_554 . 108.97(11)
Al8 Ni3 Al4 3 . 113.56(15)
Al3 Ni3 Al4 . . 128.04(11)
Al1 Ni3 Al4 1_554 . 124.28(6)
Al1 Ni3 Al4 . . 124.28(6)
Al2 Ni3 Al4 1_554 . 62.85(7)
Al2 Ni3 Al4 . . 62.85(7)
Al8 Ni3 Ni2 3 . 57.14(11)
Al3 Ni3 Ni2 . . 175.54(9)
Al1 Ni3 Ni2 1_554 . 107.11(7)
Al1 Ni3 Ni2 . . 107.12(7)
Al2 Ni3 Ni2 1_554 . 56.50(6)
Al2 Ni3 Ni2 . . 56.50(6)
Al4 Ni3 Ni2 . . 56.42(8)
Al8 Ni3 Gd1 3 . 140.408(16)
Al3 Ni3 Gd1 . . 68.65(5)
Al1 Ni3 Gd1 1_554 . 135.72(7)
Al1 Ni3 Gd1 . . 70.31(6)
Al2 Ni3 Gd1 1_554 . 129.09(7)
Al2 Ni3 Gd1 . . 65.99(6)
Al4 Ni3 Gd1 . . 71.91(6)
Ni2 Ni3 Gd1 . . 114.57(3)
Al8 Ni3 Gd1 3 1_554 140.408(16)
Al3 Ni3 Gd1 . 1_554 68.65(5)
Al1 Ni3 Gd1 1_554 1_554 70.31(6)
Al1 Ni3 Gd1 . 1_554 135.72(7)
Al2 Ni3 Gd1 1_554 1_554 65.99(6)
Al2 Ni3 Gd1 . 1_554 129.09(8)
Al4 Ni3 Gd1 . 1_554 71.91(6)
Ni2 Ni3 Gd1 . 1_554 114.57(3)
Gd1 Ni3 Gd1 . 1_554 79.18(3)
Al4 Ni4 Al4 11_566 11_565 105.46(11)
Al4 Ni4 Al4 11_566 . 144.75(4)
Al4 Ni4 Al4 11_565 . 63.26(9)
Al4 Ni4 Al4 11_566 1_556 63.26(9)
Al4 Ni4 Al4 11_565 1_556 144.75(4)
Al4 Ni4 Al4 . 1_556 105.46(11)
Al4 Ni4 Al4 11_566 9_666 63.26(9)
Al4 Ni4 Al4 11_565 9_666 144.75(4)
Al4 Ni4 Al4 . 9_666 144.75(4)
Al4 Ni4 Al4 1_556 9_666 63.26(9)
Al4 Ni4 Al4 11_566 9_665 144.75(4)
Al4 Ni4 Al4 11_565 9_665 63.26(9)
Al4 Ni4 Al4 . 9_665 63.26(9)
Al4 Ni4 Al4 1_556 9_665 144.75(4)
Al4 Ni4 Al4 9_666 9_665 105.46(11)
Al4 Ni4 Gd1 11_566 11_566 72.31(6)
Al4 Ni4 Gd1 11_565 11_566 72.31(6)
Al4 Ni4 Gd1 . 11_566 72.44(6)
Al4 Ni4 Gd1 1_556 11_566 72.45(6)
Al4 Ni4 Gd1 9_666 11_566 127.27(5)
Al4 Ni4 Gd1 9_665 11_566 127.27(5)
Al4 Ni4 Gd1 11_566 9_665 72.44(6)
Al4 Ni4 Gd1 11_565 9_665 72.44(6)
Al4 Ni4 Gd1 . 9_665 127.27(5)
Al4 Ni4 Gd1 1_556 9_665 127.27(5)
Al4 Ni4 Gd1 9_666 9_665 72.31(6)
Al4 Ni4 Gd1 9_665 9_665 72.31(6)
Gd1 Ni4 Gd1 11_566 9_665 120.0020(10)
Al4 Ni4 Gd1 11_566 . 127.27(5)
Al4 Ni4 Gd1 11_565 . 127.27(5)
Al4 Ni4 Gd1 . . 72.31(6)
Al4 Ni4 Gd1 1_556 . 72.30(6)
Al4 Ni4 Gd1 9_666 . 72.44(6)
Al4 Ni4 Gd1 9_665 . 72.44(6)
Gd1 Ni4 Gd1 11_566 . 120.0
Gd1 Ni4 Gd1 9_665 . 120.0
Al10 Ni5 Al10 7_665 3_545 120.0
Al10 Ni5 Al10 7_665 1_455 120.0
Al10 Ni5 Al10 3_545 1_455 120.0
Al10 Ni5 Al5 7_665 . 72.45(3)
Al10 Ni5 Al5 3_545 . 72.45(3)
Al10 Ni5 Al5 1_455 . 127.09(7)
Al10 Ni5 Al5 7_665 7_554 127.09(7)
Al10 Ni5 Al5 3_545 7_554 72.45(3)
Al10 Ni5 Al5 1_455 7_554 72.45(3)
Al5 Ni5 Al5 . 7_554 144.90(6)
Al10 Ni5 Al5 7_665 3 72.45(3)
Al10 Ni5 Al5 3_545 3 127.09(7)
Al10 Ni5 Al5 1_455 3 72.45(3)
Al5 Ni5 Al5 . 3 62.97(11)
Al5 Ni5 Al5 7_554 3 144.90(6)
Al10 Ni5 Al5 7_665 1_554 72.45(3)
Al10 Ni5 Al5 3_545 1_554 72.45(3)
Al10 Ni5 Al5 1_455 1_554 127.09(7)
Al5 Ni5 Al5 . 1_554 105.83(14)
Al5 Ni5 Al5 7_554 1_554 62.97(11)
Al5 Ni5 Al5 3 1_554 144.90(6)
Al10 Ni5 Al5 7_665 3_554 72.45(3)
Al10 Ni5 Al5 3_545 3_554 127.09(7)
Al10 Ni5 Al5 1_455 3_554 72.45(3)
Al5 Ni5 Al5 . 3_554 144.90(6)
Al5 Ni5 Al5 7_554 3_554 62.97(11)
Al5 Ni5 Al5 3 3_554 105.82(14)
Al5 Ni5 Al5 1_554 3_554 62.97(11)
Al10 Ni5 Al5 7_665 7 127.09(7)
Al10 Ni5 Al5 3_545 7 72.45(3)
Al10 Ni5 Al5 1_455 7 72.45(3)
Al5 Ni5 Al5 . 7 62.97(11)
Al5 Ni5 Al5 7_554 7 105.82(14)
Al5 Ni5 Al5 3 7 62.97(11)
Al5 Ni5 Al5 1_554 7 144.90(6)
Al5 Ni5 Al5 3_554 7 144.90(6)
Ni3 Al1 Ni3 1_556 . 111.38(12)
Ni3 Al1 Ni1 1_556 . 110.81(7)
Ni3 Al1 Ni1 . . 110.81(7)
Ni3 Al1 Al2 1_556 . 58.17(6)
Ni3 Al1 Al2 . . 58.17(7)
Ni1 Al1 Al2 . . 149.71(13)
Ni3 Al1 Al3 1_556 . 126.96(11)
Ni3 Al1 Al3 . . 54.40(6)
Ni1 Al1 Al3 . . 56.47(7)
Al2 Al1 Al3 . . 105.17(10)
Ni3 Al1 Al3 1_556 1_556 54.40(6)
Ni3 Al1 Al3 . 1_556 126.96(11)
Ni1 Al1 Al3 . 1_556 56.47(7)
Al2 Al1 Al3 . 1_556 105.17(10)
Al3 Al1 Al3 . 1_556 91.49(11)
Ni3 Al1 Al8 1_556 3 119.73(13)
Ni3 Al1 Al8 . 3 51.45(5)
Ni1 Al1 Al8 . 3 129.46(10)
Al2 Al1 Al8 . 3 68.78(10)
Al3 Al1 Al8 . 3 91.37(6)
Al3 Al1 Al8 1_556 3 173.83(13)
Ni3 Al1 Al8 1_556 3_556 51.45(5)
Ni3 Al1 Al8 . 3_556 119.73(13)
Ni1 Al1 Al8 . 3_556 129.46(10)
Al2 Al1 Al8 . 3_556 68.78(10)
Al3 Al1 Al8 . 3_556 173.83(13)
Al3 Al1 Al8 1_556 3_556 91.37(6)
Al8 Al1 Al8 3 3_556 85.28(11)
Ni3 Al1 Gd2 1_556 3 165.71(10)
Ni3 Al1 Gd2 . 3 81.48(3)
Ni1 Al1 Gd2 . 3 68.11(7)
Al2 Al1 Gd2 . 3 129.97(6)
Al3 Al1 Gd2 . 3 65.21(6)
Al3 Al1 Gd2 1_556 3 123.33(11)
Al8 Al1 Gd2 3 3 62.84(8)
Al8 Al1 Gd2 3_556 3 117.37(9)
Ni3 Al1 Gd2 1_556 3_556 81.48(3)
Ni3 Al1 Gd2 . 3_556 165.71(10)
Ni1 Al1 Gd2 . 3_556 68.11(7)
Al2 Al1 Gd2 . 3_556 129.97(6)
Al3 Al1 Gd2 . 3_556 123.33(11)
Al3 Al1 Gd2 1_556 3_556 65.21(6)
Al8 Al1 Gd2 3 3_556 117.37(9)
Al8 Al1 Gd2 3_556 3_556 62.84(8)
Gd2 Al1 Gd2 3 3_556 85.10(8)
Ni3 Al1 Gd1 1_556 . 65.22(6)
Ni3 Al1 Gd1 . . 65.22(6)
Ni1 Al1 Gd1 . . 87.10(8)
Al2 Al1 Gd1 . . 62.60(9)
Al3 Al1 Gd1 . . 63.01(7)
Al3 Al1 Gd1 1_556 . 63.01(7)
Al8 Al1 Gd1 3 . 113.71(8)
Al8 Al1 Gd1 3_556 . 113.71(8)
Gd2 Al1 Gd1 3 . 128.00(5)
Gd2 Al1 Gd1 3_556 . 128.00(5)
Ni2 Al2 Ni2 . 1_556 109.44(11)
Ni2 Al2 Ni3 . . 66.74(4)
Ni2 Al2 Ni3 1_556 . 159.06(12)
Ni2 Al2 Ni3 . 1_556 159.07(12)
Ni2 Al2 Ni3 1_556 1_556 66.74(4)
Ni3 Al2 Ni3 . 1_556 108.97(11)
Ni2 Al2 Al4 . 1_556 138.44(13)
Ni2 Al2 Al4 1_556 1_556 58.42(7)
Ni3 Al2 Al4 . 1_556 138.55(14)
Ni3 Al2 Al4 1_556 1_556 58.76(7)
Ni2 Al2 Al4 . . 58.42(7)
Ni2 Al2 Al4 1_556 . 138.44(13)
Ni3 Al2 Al4 . . 58.76(7)
Ni3 Al2 Al4 1_556 . 138.56(14)
Al4 Al2 Al4 1_556 . 102.34(14)
Ni2 Al2 Al1 . . 108.72(8)
Ni2 Al2 Al1 1_556 . 108.72(8)
Ni3 Al2 Al1 . . 56.84(6)
Ni3 Al2 Al1 1_556 . 56.84(6)
Al4 Al2 Al1 1_556 . 112.80(10)
Al4 Al2 Al1 . . 112.81(10)
Ni2 Al2 Al6 . 3 56.42(6)
Ni2 Al2 Al6 1_556 3 56.41(6)
Ni3 Al2 Al6 . 3 110.33(8)
Ni3 Al2 Al6 1_556 3 110.33(8)
Al4 Al2 Al6 1_556 3 110.96(10)
Al4 Al2 Al6 . 3 110.96(10)
Al1 Al2 Al6 . 3 107.04(13)
Ni2 Al2 Gd1 . . 124.32(6)
Ni2 Al2 Gd1 1_556 . 124.32(6)
Ni3 Al2 Gd1 . . 67.62(6)
Ni3 Al2 Gd1 1_556 . 67.62(6)
Al4 Al2 Gd1 1_556 . 71.41(9)
Al4 Al2 Gd1 . . 71.41(9)
Al1 Al2 Gd1 . . 68.75(8)
Al6 Al2 Gd1 3 . 175.79(12)
Ni2 Al2 Gd1 . 11_566 67.71(6)
Ni2 Al2 Gd1 1_556 11_566 67.71(6)
Ni3 Al2 Gd1 . 11_566 124.57(5)
Ni3 Al2 Gd1 1_556 11_566 124.57(5)
Al4 Al2 Gd1 1_556 11_566 71.23(8)
Al4 Al2 Gd1 . 11_566 71.22(8)
Al1 Al2 Gd1 . 11_566 172.70(12)
Al6 Al2 Gd1 3 11_566 65.66(8)
Gd1 Al2 Gd1 . 11_566 118.55(8)
Ni3 Al3 Ni1 . 1_554 109.30(8)
Ni3 Al3 Ni1 . . 109.30(8)
Ni1 Al3 Ni1 1_554 . 106.75(12)
Ni3 Al3 Al1 . . 54.92(7)
Ni1 Al3 Al1 1_554 . 124.63(12)
Ni1 Al3 Al1 . . 54.45(6)
Ni3 Al3 Al1 . 1_554 54.91(7)
Ni1 Al3 Al1 1_554 1_554 54.45(7)
Ni1 Al3 Al1 . 1_554 124.63(12)
Al1 Al3 Al1 . 1_554 91.49(11)
Ni3 Al3 Al7 . 7_665 127.94(7)
Ni1 Al3 Al7 1_554 7_665 122.49(12)
Ni1 Al3 Al7 . 7_665 52.92(8)
Al1 Al3 Al7 . 7_665 88.87(5)
Al1 Al3 Al7 1_554 7_665 176.18(15)
Ni3 Al3 Al7 . 7_664 127.94(7)
Ni1 Al3 Al7 1_554 7_664 52.92(8)
Ni1 Al3 Al7 . 7_664 122.49(12)
Al1 Al3 Al7 . 7_664 176.18(15)
Al1 Al3 Al7 1_554 7_664 88.87(5)
Al7 Al3 Al7 7_665 7_664 90.51(9)
Ni3 Al3 Al10 . 7_665 143.55(13)
Ni1 Al3 Al10 1_554 7_665 55.88(6)
Ni1 Al3 Al10 . 7_665 55.88(6)
Al1 Al3 Al10 . 7_665 103.14(9)
Al1 Al3 Al10 1_554 7_665 103.14(9)
Al7 Al3 Al10 7_665 7_665 73.09(10)
Al7 Al3 Al10 7_664 7_665 73.09(10)
Ni3 Al3 Gd2 . 3 78.72(8)
Ni1 Al3 Gd2 1_554 3 65.01(7)
Ni1 Al3 Gd2 . 3 65.01(7)
Al1 Al3 Gd2 . 3 59.97(7)
Al1 Al3 Gd2 1_554 3 59.97(7)
Al7 Al3 Gd2 7_665 3 117.16(10)
Al7 Al3 Gd2 7_664 3 117.16(10)
Al10 Al3 Gd2 7_665 3 64.83(8)
Ni3 Al3 Gd1 . 1_554 66.63(6)
Ni1 Al3 Gd1 1_554 1_554 87.68(4)
Ni1 Al3 Gd1 . 1_554 165.39(9)
Al1 Al3 Gd1 . 1_554 119.13(10)
Al1 Al3 Gd1 1_554 1_554 65.60(6)
Al7 Al3 Gd1 7_665 1_554 117.42(12)
Al7 Al3 Gd1 7_664 1_554 64.43(7)
Al10 Al3 Gd1 7_665 1_554 135.79(6)
Gd2 Al3 Gd1 3 1_554 125.37(6)
Ni3 Al3 Gd1 . . 66.62(6)
Ni1 Al3 Gd1 1_554 . 165.39(9)
Ni1 Al3 Gd1 . . 87.68(4)
Al1 Al3 Gd1 . . 65.60(6)
Al1 Al3 Gd1 1_554 . 119.12(10)
Al7 Al3 Gd1 7_665 . 64.43(7)
Al7 Al3 Gd1 7_664 . 117.42(12)
Al10 Al3 Gd1 7_665 . 135.79(6)
Gd2 Al3 Gd1 3 . 125.37(6)
Gd1 Al3 Gd1 1_554 . 77.82(7)
Ni2 Al4 Ni3 . . 66.57(8)
Ni2 Al4 Ni4 . . 120.46(7)
Ni3 Al4 Ni4 . . 120.36(7)
Ni2 Al4 Ni4 . 1_554 120.46(7)
Ni3 Al4 Ni4 . 1_554 120.36(7)
Ni4 Al4 Ni4 . 1_554 105.46(11)
Ni2 Al4 Al2 . . 58.39(8)
Ni3 Al4 Al2 . . 58.39(7)
Ni4 Al4 Al2 . . 76.10(5)
Ni4 Al4 Al2 1_554 . 178.44(12)
Ni2 Al4 Al2 . 1_554 58.39(8)
Ni3 Al4 Al2 . 1_554 58.39(7)
Ni4 Al4 Al2 . 1_554 178.44(12)
Ni4 Al4 Al2 1_554 1_554 76.10(5)
Al2 Al4 Al2 . 1_554 102.34(14)
Ni2 Al4 Al4 . 11_565 116.84(17)
Ni3 Al4 Al4 . 11_565 176.58(18)
Ni4 Al4 Al4 . 11_565 58.37(4)
Ni4 Al4 Al4 1_554 11_565 58.37(4)
Al2 Al4 Al4 . 11_565 122.94(10)
Al2 Al4 Al4 1_554 11_565 122.94(10)
Ni2 Al4 Al4 . 9_665 176.84(17)
Ni3 Al4 Al4 . 9_665 116.58(18)
Ni4 Al4 Al4 . 9_665 58.37(4)
Ni4 Al4 Al4 1_554 9_665 58.37(4)
Al2 Al4 Al4 . 9_665 122.84(11)
Al2 Al4 Al4 1_554 9_665 122.84(11)
Al4 Al4 Al4 11_565 9_665 60.0
Ni2 Al4 Gd1 . . 115.53(8)
Ni3 Al4 Gd1 . . 63.42(6)
Ni4 Al4 Gd1 . . 61.82(4)
Ni4 Al4 Gd1 1_554 . 118.82(10)
Al2 Al4 Gd1 . . 61.75(7)
Al2 Al4 Gd1 1_554 . 117.44(11)
Al4 Al4 Gd1 11_565 . 114.02(9)
Al4 Al4 Gd1 9_665 . 66.85(10)
Ni2 Al4 Gd1 . 1_554 115.53(8)
Ni3 Al4 Gd1 . 1_554 63.42(6)
Ni4 Al4 Gd1 . 1_554 118.82(10)
Ni4 Al4 Gd1 1_554 1_554 61.82(4)
Al2 Al4 Gd1 . 1_554 117.44(11)
Al2 Al4 Gd1 1_554 1_554 61.75(7)
Al4 Al4 Gd1 11_565 1_554 114.02(9)
Al4 Al4 Gd1 9_665 1_554 66.85(10)
Gd1 Al4 Gd1 . 1_554 73.68(6)
Ni2 Al4 Gd1 . 11_566 63.77(6)
Ni3 Al4 Gd1 . 11_566 115.93(8)
Ni4 Al4 Gd1 . 11_566 61.73(4)
Ni4 Al4 Gd1 1_554 11_566 118.63(10)
Al2 Al4 Gd1 . 11_566 62.09(7)
Al2 Al4 Gd1 1_554 11_566 117.69(12)
Al4 Al4 Gd1 11_565 11_566 66.64(10)
Al4 Al4 Gd1 9_665 11_566 113.86(9)
Gd1 Al4 Gd1 . 11_566 106.381(19)
Gd1 Al4 Gd1 1_554 11_566 179.27(10)
Ni2 Al4 Gd1 . 11_565 63.77(6)
Ni3 Al4 Gd1 . 11_565 115.93(8)
Ni4 Al4 Gd1 . 11_565 118.63(10)
Ni4 Al4 Gd1 1_554 11_565 61.73(4)
Al2 Al4 Gd1 . 11_565 117.69(12)
Al2 Al4 Gd1 1_554 11_565 62.09(7)
Al4 Al4 Gd1 11_565 11_565 66.64(10)
Al4 Al4 Gd1 9_665 11_565 113.86(9)
Gd1 Al4 Gd1 . 11_565 179.27(10)
Gd1 Al4 Gd1 1_554 11_565 106.382(19)
Gd1 Al4 Gd1 11_566 11_565 73.55(6)
Ni5 Al5 Ni5 . 1_556 105.83(14)
Ni5 Al5 Ni1 . 11_556 108.049(19)
Ni5 Al5 Ni1 1_556 11_556 108.049(19)
Ni5 Al5 Ni1 . 3 108.050(19)
Ni5 Al5 Ni1 1_556 3 108.050(19)
Ni1 Al5 Ni1 11_556 3 118.16(16)
Ni5 Al5 Al5 . 7 58.52(6)
Ni5 Al5 Al5 1_556 7 58.52(6)
Ni1 Al5 Al5 11_556 7 90.92(8)
Ni1 Al5 Al5 3 7 150.92(8)
Ni5 Al5 Al5 . 3 58.52(6)
Ni5 Al5 Al5 1_556 3 58.52(6)
Ni1 Al5 Al5 11_556 3 150.92(8)
Ni1 Al5 Al5 3 3 90.92(8)
Al5 Al5 Al5 7 3 60.0
Ni5 Al5 Gd2 . . 83.45(3)
Ni5 Al5 Gd2 1_556 . 170.72(12)
Ni1 Al5 Gd2 11_556 . 68.17(7)
Ni1 Al5 Gd2 3 . 68.17(7)
Al5 Al5 Gd2 7 . 128.81(4)
Al5 Al5 Gd2 3 . 128.81(4)
Ni5 Al5 Gd2 . 1_556 170.72(12)
Ni5 Al5 Gd2 1_556 1_556 83.45(3)
Ni1 Al5 Gd2 11_556 1_556 68.17(7)
Ni1 Al5 Gd2 3 1_556 68.17(7)
Al5 Al5 Gd2 7 1_556 128.81(4)
Al5 Al5 Gd2 3 1_556 128.81(4)
Gd2 Al5 Gd2 . 1_556 87.27(10)
Ni5 Al5 Al10 . 3_545 53.75(6)
Ni5 Al5 Al10 1_556 3_545 119.07(9)
Ni1 Al5 Al10 11_556 3_545 54.30(6)
Ni1 Al5 Al10 3 3_545 132.32(8)
Al5 Al5 Al10 7 3_545 63.77(7)
Al5 Al5 Al10 3 3_545 106.89(9)
Gd2 Al5 Al10 . 3_545 66.26(3)
Gd2 Al5 Al10 1_556 3_545 121.95(10)
Ni5 Al5 Al10 . 7_666 119.07(9)
Ni5 Al5 Al10 1_556 7_666 53.75(6)
Ni1 Al5 Al10 11_556 7_666 132.33(8)
Ni1 Al5 Al10 3 7_666 54.31(6)
Al5 Al5 Al10 7 7_666 106.89(9)
Al5 Al5 Al10 3 7_666 63.77(7)
Gd2 Al5 Al10 . 7_666 121.95(10)
Gd2 Al5 Al10 1_556 7_666 66.26(3)
Al10 Al5 Al10 3_545 7_666 169.97(16)
Ni5 Al5 Al10 . 3_546 119.07(9)
Ni5 Al5 Al10 1_556 3_546 53.75(6)
Ni1 Al5 Al10 11_556 3_546 54.30(6)
Ni1 Al5 Al10 3 3_546 132.32(8)
Al5 Al5 Al10 7 3_546 63.77(7)
Al5 Al5 Al10 3 3_546 106.89(9)
Gd2 Al5 Al10 . 3_546 121.95(10)
Gd2 Al5 Al10 1_556 3_546 66.26(3)
Al10 Al5 Al10 3_545 3_546 84.93(8)
Al10 Al5 Al10 7_666 3_546 94.19(9)
Ni5 Al5 Al10 . 7_665 53.75(6)
Ni5 Al5 Al10 1_556 7_665 119.07(9)
Ni1 Al5 Al10 11_556 7_665 132.33(8)
Ni1 Al5 Al10 3 7_665 54.31(6)
Al5 Al5 Al10 7 7_665 106.89(9)
Al5 Al5 Al10 3 7_665 63.77(7)
Gd2 Al5 Al10 . 7_665 66.26(3)
Gd2 Al5 Al10 1_556 7_665 121.95(10)
Al10 Al5 Al10 3_545 7_665 94.19(9)
Al10 Al5 Al10 7_666 7_665 84.93(8)
Al10 Al5 Al10 3_546 7_665 169.97(16)
Ni2 Al6 Ni2 11 3_556 163.05(19)
Ni2 Al6 Ni2 11 3 65.80(5)
Ni2 Al6 Ni2 3_556 3 111.50(6)
Ni2 Al6 Ni2 11 11_556 111.50(6)
Ni2 Al6 Ni2 3_556 11_556 65.80(5)
Ni2 Al6 Ni2 3 11_556 163.05(19)
Ni2 Al6 Al9 11 . 57.90(8)
Ni2 Al6 Al9 3_556 . 136.32(13)
Ni2 Al6 Al9 3 . 57.90(8)
Ni2 Al6 Al9 11_556 . 136.32(13)
Ni2 Al6 Al9 11 1_556 136.32(13)
Ni2 Al6 Al9 3_556 1_556 57.90(8)
Ni2 Al6 Al9 3 1_556 136.32(13)
Ni2 Al6 Al9 11_556 1_556 57.90(8)
Al9 Al6 Al9 . 1_556 98.7(2)
Ni2 Al6 Al2 11 11_556 57.51(5)
Ni2 Al6 Al2 3_556 11_556 112.24(9)
Ni2 Al6 Al2 3 11_556 112.24(9)
Ni2 Al6 Al2 11_556 11_556 57.51(5)
Al9 Al6 Al2 . 11_556 110.52(5)
Al9 Al6 Al2 1_556 11_556 110.52(5)
Ni2 Al6 Al2 11 3 112.24(9)
Ni2 Al6 Al2 3_556 3 57.51(5)
Ni2 Al6 Al2 3 3 57.51(5)
Ni2 Al6 Al2 11_556 3 112.24(9)
Al9 Al6 Al2 . 3 110.52(5)
Al9 Al6 Al2 1_556 3 110.52(5)
Al2 Al6 Al2 11_556 3 114.87(17)
Ni2 Al6 Gd1 11 7_655 122.66(6)
Ni2 Al6 Gd1 3_556 7_655 67.37(4)
Ni2 Al6 Gd1 3 7_655 67.37(4)
Ni2 Al6 Gd1 11_556 7_655 122.66(6)
Al9 Al6 Gd1 . 7_655 69.99(7)
Al9 Al6 Gd1 1_556 7_655 69.99(7)
Al2 Al6 Gd1 11_556 7_655 179.13(14)
Al2 Al6 Gd1 3 7_655 64.26(5)
Ni2 Al6 Gd1 11 9_655 67.37(4)
Ni2 Al6 Gd1 3_556 9_655 122.66(6)
Ni2 Al6 Gd1 3 9_655 122.66(6)
Ni2 Al6 Gd1 11_556 9_655 67.37(4)
Al9 Al6 Gd1 . 9_655 69.99(7)
Al9 Al6 Gd1 1_556 9_655 69.99(7)
Al2 Al6 Gd1 11_556 9_655 64.26(5)
Al2 Al6 Gd1 3 9_655 179.13(14)
Gd1 Al6 Gd1 7_655 9_655 116.61(12)
Ni1 Al7 Ni1 9_655 7_655 68.99(13)
Ni1 Al7 Al9 9_655 1_556 122.37(7)
Ni1 Al7 Al9 7_655 1_556 122.37(7)
Ni1 Al7 Al9 9_655 . 122.37(7)
Ni1 Al7 Al9 7_655 . 122.37(7)
Al9 Al7 Al9 1_556 . 99.0(2)
Ni1 Al7 Al3 9_655 7_656 102.19(13)
Ni1 Al7 Al3 7_655 7_656 56.55(7)
Al9 Al7 Al3 1_556 7_656 66.05(8)
Al9 Al7 Al3 . 7_656 132.38(11)
Ni1 Al7 Al3 9_655 9_655 56.55(7)
Ni1 Al7 Al3 7_655 9_655 102.19(13)
Al9 Al7 Al3 1_556 9_655 132.38(11)
Al9 Al7 Al3 . 9_655 66.05(8)
Al3 Al7 Al3 7_656 9_655 156.2(2)
Ni1 Al7 Al3 9_655 9_656 56.55(7)
Ni1 Al7 Al3 7_655 9_656 102.19(13)
Al9 Al7 Al3 1_556 9_656 66.05(8)
Al9 Al7 Al3 . 9_656 132.38(10)
Al3 Al7 Al3 7_656 9_656 84.60(9)
Al3 Al7 Al3 9_655 9_656 90.51(9)
Ni1 Al7 Al3 9_655 7_655 102.19(13)
Ni1 Al7 Al3 7_655 7_655 56.55(7)
Al9 Al7 Al3 1_556 7_655 132.38(11)
Al9 Al7 Al3 . 7_655 66.05(8)
Al3 Al7 Al3 7_656 7_655 90.51(9)
Al3 Al7 Al3 9_655 7_655 84.60(9)
Al3 Al7 Al3 9_656 7_655 156.2(2)
Ni1 Al7 Gd1 9_655 9_655 88.88(3)
Ni1 Al7 Gd1 7_655 9_655 157.87(12)
Al9 Al7 Gd1 1_556 9_655 69.06(8)
Al9 Al7 Gd1 . 9_655 69.06(8)
Al3 Al7 Gd1 7_656 9_655 132.50(7)
Al3 Al7 Gd1 9_655 9_655 63.35(6)
Al3 Al7 Gd1 9_656 9_655 63.35(6)
Al3 Al7 Gd1 7_655 9_655 132.50(7)
Ni1 Al7 Gd1 9_655 7_655 157.87(12)
Ni1 Al7 Gd1 7_655 7_655 88.88(3)
Al9 Al7 Gd1 1_556 7_655 69.06(8)
Al9 Al7 Gd1 . 7_655 69.06(8)
Al3 Al7 Gd1 7_656 7_655 63.35(6)
Al3 Al7 Gd1 9_655 7_655 132.50(7)
Al3 Al7 Gd1 9_656 7_655 132.50(7)
Al3 Al7 Gd1 7_655 7_655 63.35(6)
Gd1 Al7 Gd1 9_655 7_655 113.25(12)
Ni3 Al8 Ni3 11 3 159.0(2)
Ni3 Al8 Ni2 11 3 133.02(16)
Ni3 Al8 Ni2 3 3 67.99(6)
Ni3 Al8 Ni2 11 11 67.99(6)
Ni3 Al8 Ni2 3 11 133.02(16)
Ni2 Al8 Ni2 3 11 65.02(12)
Ni3 Al8 Al1 11 11 52.68(6)
Ni3 Al8 Al1 3 11 114.62(12)
Ni2 Al8 Al1 3 11 135.91(8)
Ni2 Al8 Al1 11 11 99.15(6)
Ni3 Al8 Al1 11 3 114.62(12)
Ni3 Al8 Al1 3 3 52.68(6)
Ni2 Al8 Al1 3 3 99.15(6)
Ni2 Al8 Al1 11 3 135.91(8)
Al1 Al8 Al1 11 3 117.31(18)
Ni3 Al8 Al1 11 3_554 114.62(12)
Ni3 Al8 Al1 3 3_554 52.68(6)
Ni2 Al8 Al1 3 3_554 99.15(6)
Ni2 Al8 Al1 11 3_554 135.91(8)
Al1 Al8 Al1 11 3_554 62.69(11)
Al1 Al8 Al1 3 3_554 85.28(11)
Ni3 Al8 Al1 11 11_556 52.68(6)
Ni3 Al8 Al1 3 11_556 114.62(12)
Ni2 Al8 Al1 3 11_556 135.91(8)
Ni2 Al8 Al1 11 11_556 99.15(6)
Al1 Al8 Al1 11 11_556 85.28(11)
Al1 Al8 Al1 3 11_556 62.69(11)
Al1 Al8 Al1 3_554 11_556 117.31(18)
Ni3 Al8 Gd2 11 . 79.50(11)
Ni3 Al8 Gd2 3 . 79.50(11)
Ni2 Al8 Gd2 3 . 147.49(6)
Ni2 Al8 Gd2 11 . 147.49(6)
Al1 Al8 Gd2 11 . 58.66(9)
Al1 Al8 Gd2 3 . 58.66(9)
Al1 Al8 Gd2 3_554 . 58.66(9)
Al1 Al8 Gd2 11_556 . 58.66(9)
Ni2 Al9 Ni2 11 3 64.76(14)
Ni2 Al9 Al7 11 1_554 123.27(7)
Ni2 Al9 Al7 3 1_554 123.27(7)
Ni2 Al9 Al7 11 . 123.27(7)
Ni2 Al9 Al7 3 . 123.27(7)
Al7 Al9 Al7 1_554 . 99.0(2)
Ni2 Al9 Al6 11 . 56.64(11)
Ni2 Al9 Al6 3 . 56.64(11)
Al7 Al9 Al6 1_554 . 179.9(2)
Al7 Al9 Al6 . . 81.15(9)
Ni2 Al9 Al6 11 1_554 56.64(11)
Ni2 Al9 Al6 3 1_554 56.64(11)
Al7 Al9 Al6 1_554 1_554 81.14(9)
Al7 Al9 Al6 . 1_554 179.9(2)
Al6 Al9 Al6 . 1_554 98.7(2)
Ni2 Al9 Gd1 11 9_654 63.63(4)
Ni2 Al9 Gd1 3 9_654 114.49(13)
Al7 Al9 Gd1 1_554 9_654 63.72(4)
Al7 Al9 Gd1 . 9_654 117.75(11)
Al6 Al9 Gd1 . 9_654 116.23(11)
Al6 Al9 Gd1 1_554 9_654 62.30(4)
Ni2 Al9 Gd1 11 7_655 114.49(13)
Ni2 Al9 Gd1 3 7_655 63.63(4)
Al7 Al9 Gd1 1_554 7_655 117.75(11)
Al7 Al9 Gd1 . 7_655 63.72(4)
Al6 Al9 Gd1 . 7_655 62.30(4)
Al6 Al9 Gd1 1_554 7_655 116.23(11)
Gd1 Al9 Gd1 9_654 7_655 177.98(18)
Ni2 Al9 Gd1 11 9_655 63.63(4)
Ni2 Al9 Gd1 3 9_655 114.49(13)
Al7 Al9 Gd1 1_554 9_655 117.75(11)
Al7 Al9 Gd1 . 9_655 63.72(4)
Al6 Al9 Gd1 . 9_655 62.30(4)
Al6 Al9 Gd1 1_554 9_655 116.23(11)
Gd1 Al9 Gd1 9_654 9_655 73.376(19)
Gd1 Al9 Gd1 7_655 9_655 106.59(2)
Ni2 Al9 Gd1 11 7_654 114.49(13)
Ni2 Al9 Gd1 3 7_654 63.63(4)
Al7 Al9 Gd1 1_554 7_654 63.72(4)
Al7 Al9 Gd1 . 7_654 117.75(11)
Al6 Al9 Gd1 . 7_654 116.23(11)
Al6 Al9 Gd1 1_554 7_654 62.30(4)
Gd1 Al9 Gd1 9_654 7_654 106.59(2)
Gd1 Al9 Gd1 7_655 7_654 73.376(19)
Gd1 Al9 Gd1 9_655 7_654 177.98(18)
Ni5 Al10 Ni1 1_655 7_655 107.55(8)
Ni5 Al10 Ni1 1_655 7_654 107.55(8)
Ni1 Al10 Ni1 7_655 7_654 104.44(8)
Ni5 Al10 Ni1 1_655 9_654 107.55(8)
Ni1 Al10 Ni1 7_655 9_654 144.91(17)
Ni1 Al10 Ni1 7_654 9_654 64.46(6)
Ni5 Al10 Ni1 1_655 9_655 107.55(8)
Ni1 Al10 Ni1 7_655 9_655 64.46(6)
Ni1 Al10 Ni1 7_654 9_655 144.91(17)
Ni1 Al10 Ni1 9_654 9_655 104.44(8)
Ni5 Al10 Al3 1_655 9_655 138.55(7)
Ni1 Al10 Al3 7_655 9_655 97.30(10)
Ni1 Al10 Al3 7_654 9_655 97.30(10)
Ni1 Al10 Al3 9_654 9_655 54.62(6)
Ni1 Al10 Al3 9_655 9_655 54.62(6)
Ni5 Al10 Al3 1_655 7_655 138.55(7)
Ni1 Al10 Al3 7_655 7_655 54.62(6)
Ni1 Al10 Al3 7_654 7_655 54.62(6)
Ni1 Al10 Al3 9_654 7_655 97.30(10)
Ni1 Al10 Al3 9_655 7_655 97.30(10)
Al3 Al10 Al3 9_655 7_655 82.90(14)
Ni5 Al10 Al5 1_655 3_655 53.80(8)
Ni1 Al10 Al5 7_655 3_655 53.75(6)
Ni1 Al10 Al5 7_654 3_655 118.42(7)
Ni1 Al10 Al5 9_654 3_655 161.33(15)
Ni1 Al10 Al5 9_655 3_655 83.12(5)
Al3 Al10 Al5 9_655 3_655 137.33(3)
Al3 Al10 Al5 7_655 3_655 98.63(8)
Ni5 Al10 Al5 1_655 7_654 53.80(8)
Ni1 Al10 Al5 7_655 7_654 161.33(15)
Ni1 Al10 Al5 7_654 7_654 83.12(5)
Ni1 Al10 Al5 9_654 7_654 53.76(6)
Ni1 Al10 Al5 9_655 7_654 118.42(7)
Al3 Al10 Al5 9_655 7_654 98.63(8)
Al3 Al10 Al5 7_655 7_654 137.33(3)
Al5 Al10 Al5 3_655 7_654 107.60(15)
Ni5 Al10 Al5 1_655 7_655 53.80(8)
Ni1 Al10 Al5 7_655 7_655 83.12(5)
Ni1 Al10 Al5 7_654 7_655 161.33(15)
Ni1 Al10 Al5 9_654 7_655 118.42(7)
Ni1 Al10 Al5 9_655 7_655 53.76(6)
Al3 Al10 Al5 9_655 7_655 98.63(8)
Al3 Al10 Al5 7_655 7_655 137.33(3)
Al5 Al10 Al5 3_655 7_655 52.46(14)
Al5 Al10 Al5 7_654 7_655 84.93(8)
Ni5 Al10 Al5 1_655 3_654 53.80(8)
Ni1 Al10 Al5 7_655 3_654 118.42(7)
Ni1 Al10 Al5 7_654 3_654 53.75(6)
Ni1 Al10 Al5 9_654 3_654 83.12(5)
Ni1 Al10 Al5 9_655 3_654 161.33(15)
Al3 Al10 Al5 9_655 3_654 137.33(3)
Al3 Al10 Al5 7_655 3_654 98.63(8)
Al5 Al10 Al5 3_655 3_654 84.93(8)
Al5 Al10 Al5 7_654 3_654 52.46(14)
Al5 Al10 Al5 7_655 3_654 107.60(15)
Ni5 Al10 Gd2 1_655 3_655 77.36(6)
Ni1 Al10 Gd2 7_655 3_655 62.97(2)
Ni1 Al10 Gd2 7_654 3_655 62.97(2)
Ni1 Al10 Gd2 9_654 3_655 125.90(3)
Ni1 Al10 Gd2 9_655 3_655 125.90(2)
Al3 Al10 Gd2 9_655 3_655 144.09(12)
Al3 Al10 Gd2 7_655 3_655 61.18(6)
Al5 Al10 Gd2 3_655 3_655 55.91(7)
Al5 Al10 Gd2 7_654 3_655 107.58(10)
Al5 Al10 Gd2 7_655 3_655 107.58(10)
Al5 Al10 Gd2 3_654 3_655 55.91(7)
loop_
_geom_bond_atom_site_label_1
_geom_bond_atom_site_label_2
_geom_bond_site_symmetry_2
_geom_bond_distance
Gd1 Ni4 . 3.1208(10)
Gd1 Al2 . 3.135(3)
Gd1 Al2 9_665 3.153(3)
Gd1 Ni3 1_556 3.1733(11)
Gd1 Ni3 . 3.1733(11)
Gd1 Ni2 9_666 3.1866(10)
Gd1 Ni2 9_665 3.1866(10)
Gd1 Al6 7_665 3.190(2)
Gd1 Al3 1_556 3.220(2)
Gd1 Al3 . 3.220(2)
Gd1 Al7 7_665 3.250(3)
Gd1 Al1 . 3.291(3)
Gd2 Al5 1_554 2.931(3)
Gd2 Al5 . 2.931(3)
Gd2 Al1 3 2.991(2)
Gd2 Al1 11 2.991(2)
Gd2 Al1 11_556 2.991(2)
Gd2 Al1 3_554 2.991(2)
Gd2 Ni1 3 3.0834(10)
Gd2 Ni1 3_554 3.0834(10)
Gd2 Ni1 11 3.0835(10)
Gd2 Ni1 11_556 3.0835(10)
Gd2 Al8 . 3.115(5)
Gd2 Al3 3 3.136(3)
Ni1 Al7 7_665 2.410(4)
Ni1 Al1 . 2.459(3)
Ni1 Al3 . 2.5199(19)
Ni1 Al3 1_556 2.5199(19)
Ni1 Al5 3 2.541(2)
Ni1 Al10 7_665 2.5588(14)
Ni1 Al10 7_666 2.5588(14)
Ni1 Ni1 3 2.729(2)
Ni1 Gd2 3 3.0835(10)
Ni1 Gd2 3_556 3.0835(10)
Ni2 Al6 3_554 2.4467(9)
Ni2 Al6 3 2.4467(9)
Ni2 Al8 3 2.473(4)
Ni2 Al2 . 2.4774(17)
Ni2 Al2 1_554 2.4774(17)
Ni2 Al4 . 2.478(3)
Ni2 Al9 3 2.482(5)
Ni2 Ni2 7 2.658(2)
Ni2 Ni3 . 2.7293(17)
Ni2 Gd1 11_566 3.1865(10)
Ni2 Gd1 11_565 3.1865(10)
Ni3 Al8 3 2.4078(15)
Ni3 Al3 . 2.433(3)
Ni3 Al1 1_554 2.4484(18)
Ni3 Al1 . 2.4484(18)
Ni3 Al2 1_554 2.4847(17)
Ni3 Al2 . 2.4847(17)
Ni3 Al4 . 2.495(3)
Ni3 Gd1 1_554 3.1734(11)
Ni4 Al4 11_566 2.5413(18)
Ni4 Al4 11_565 2.5413(18)
Ni4 Al4 . 2.5414(18)
Ni4 Al4 1_556 2.5414(18)
Ni4 Al4 9_666 2.5414(18)
Ni4 Al4 9_665 2.5414(18)
Ni4 Gd1 11_566 3.1207(10)
Ni4 Gd1 9_665 3.1208(10)
Ni5 Al10 7_665 2.534(4)
Ni5 Al10 3_545 2.534(4)
Ni5 Al10 1_455 2.534(4)
Ni5 Al5 . 2.535(2)
Ni5 Al5 7_554 2.535(2)
Ni5 Al5 3 2.535(2)
Ni5 Al5 1_554 2.535(2)
Ni5 Al5 3_554 2.535(2)
Ni5 Al5 7 2.535(2)
Al1 Ni3 1_556 2.4484(18)
Al1 Al2 . 2.650(4)
Al1 Al3 . 2.824(3)
Al1 Al3 1_556 2.824(3)
Al1 Al8 3 2.986(3)
Al1 Al8 3_556 2.986(3)
Al1 Gd2 3 2.991(2)
Al1 Gd2 3_556 2.991(2)
Al2 Ni2 1_556 2.4774(17)
Al2 Ni3 1_556 2.4847(17)
Al2 Al4 1_556 2.596(3)
Al2 Al4 . 2.596(3)
Al2 Al6 3 2.685(3)
Al2 Gd1 11_566 3.153(3)
Al3 Ni1 1_554 2.5199(19)
Al3 Al1 1_554 2.824(3)
Al3 Al7 7_665 2.848(2)
Al3 Al7 7_664 2.848(2)
Al3 Al10 7_665 2.895(4)
Al3 Gd2 3 3.136(3)
Al3 Gd1 1_554 3.220(2)
Al4 Ni4 1_554 2.5414(18)
Al4 Al2 1_554 2.596(3)
Al4 Al4 11_565 2.666(5)
Al4 Al4 9_665 2.666(5)
Al4 Gd1 1_554 3.373(2)
Al4 Gd1 11_566 3.378(2)
Al4 Gd1 11_565 3.378(2)
Al5 Ni5 1_556 2.535(2)
Al5 Ni1 11_556 2.541(2)
Al5 Ni1 3 2.541(2)
Al5 Al5 7 2.648(7)
Al5 Al5 3 2.648(7)
Al5 Gd2 1_556 2.931(3)
Al5 Al10 3_545 2.996(2)
Al5 Al10 7_666 2.996(2)
Al5 Al10 3_546 2.996(2)
Al5 Al10 7_665 2.996(2)
Al6 Ni2 11 2.4467(9)
Al6 Ni2 3_556 2.4467(9)
Al6 Ni2 3 2.4467(9)
Al6 Ni2 11_556 2.4467(9)
Al6 Al9 . 2.665(4)
Al6 Al9 1_556 2.665(4)
Al6 Al2 11_556 2.685(3)
Al6 Al2 3 2.685(3)
Al6 Gd1 7_655 3.190(2)
Al6 Gd1 9_655 3.190(2)
Al7 Ni1 9_655 2.409(4)
Al7 Ni1 7_655 2.410(4)
Al7 Al9 1_556 2.660(4)
Al7 Al9 . 2.660(4)
Al7 Al3 7_656 2.847(2)
Al7 Al3 9_655 2.847(2)
Al7 Al3 9_656 2.847(2)
Al7 Al3 7_655 2.847(2)
Al7 Gd1 9_655 3.250(3)
Al7 Gd1 7_655 3.250(3)
Al8 Ni3 11 2.4078(15)
Al8 Ni3 3 2.4078(15)
Al8 Ni2 3 2.473(4)
Al8 Ni2 11 2.473(4)
Al8 Al1 11 2.986(3)
Al8 Al1 3 2.986(3)
Al8 Al1 3_554 2.986(3)
Al8 Al1 11_556 2.986(3)
Al9 Ni2 11 2.482(5)
Al9 Ni2 3 2.482(5)
Al9 Al7 1_554 2.660(4)
Al9 Al6 1_554 2.665(4)
Al9 Gd1 9_654 3.3850(7)
Al9 Gd1 7_655 3.3850(7)
Al9 Gd1 9_655 3.3850(7)
Al9 Gd1 7_654 3.3850(7)
Al10 Ni5 1_655 2.534(4)
Al10 Ni1 7_655 2.5588(14)
Al10 Ni1 7_654 2.5588(14)
Al10 Ni1 9_654 2.5588(14)
Al10 Ni1 9_655 2.5588(14)
Al10 Al3 9_655 2.895(4)
Al10 Al3 7_655 2.895(4)
Al10 Al5 3_655 2.996(2)
Al10 Al5 7_654 2.996(2)
Al10 Al5 7_655 2.996(2)
Al10 Al5 3_654 2.996(2)
Al10 Gd2 3_655 3.2396(13)

_cod_database_fobs_code 2020274
