#------------------------------------------------------------------------------
#$Date: 2018-01-26 10:18:46 +0200 (Fri, 26 Jan 2018) $
#$Revision: 205711 $
#$URL: file:///home/coder/svn-repositories/cod/cif/2/02/09/2020992.cif $
#------------------------------------------------------------------------------
#
# This file is available in the Crystallography Open Database (COD),
# http://www.crystallography.net/. The original data for this entry
# were provided by IUCr Journals, http://journals.iucr.org/.
#
# The file may be used within the scientific community so long as
# proper attribution is given to the journal article from which the
# data were obtained.
#
data_2020992
loop_
_publ_author_name
'Mac\'ias, Mario A.'
'Castillo, Juan-Carlos'
'Portilla, Jaime'
_publ_section_title
;
 A series of
 (<i>E</i>)-5-(arylideneamino)-1-<i>tert</i>-butyl-1<i>H</i>-pyrrole-3-carbonitriles
 and their reduction products to secondary amines: syntheses and X-ray
 structural studies
;
_journal_coeditor_code           CU3120
_journal_issue                   1
_journal_name_full               'Acta Crystallographica Section C'
_journal_page_first              82
_journal_page_last               93
_journal_paper_doi               10.1107/S2053229617017260
_journal_volume                  74
_journal_year                    2018
_chemical_formula_iupac          'C15 H16 N4'
_chemical_formula_moiety         'C15 H16 N4'
_chemical_formula_sum            'C15 H16 N4'
_chemical_formula_weight         252.32
_chemical_name_systematic
(<i>E</i>)-1-<i>tert</i>-Butyl-5-[(pyridin-4-ylmethylene)amino]-1<i>H</i>-pyrrole-3-carbonitrile
_space_group_crystal_system      triclinic
_space_group_IT_number           2
_space_group_name_Hall           '-P 1'
_space_group_name_H-M_alt        'P -1'
_symmetry_space_group_name_Hall  '-P 1'
_symmetry_space_group_name_H-M   'P -1'
_atom_sites_solution_hydrogens   geom
_atom_sites_solution_primary     iterative
_atom_sites_solution_secondary   difmap
_audit_creation_method           SHELXL-2016/6
_cell_angle_alpha                92.465(8)
_cell_angle_beta                 97.113(8)
_cell_angle_gamma                97.136(9)
_cell_formula_units_Z            2
_cell_length_a                   8.1494(8)
_cell_length_b                   9.0629(10)
_cell_length_c                   9.4859(9)
_cell_measurement_reflns_used    6196
_cell_measurement_temperature    298(2)
_cell_measurement_theta_max      26.3150
_cell_measurement_theta_min      3.4920
_cell_volume                     688.61(12)
_computing_cell_refinement
;
CrysAlis PRO (Agilent, 2014)
;
_computing_data_collection
;
CrysAlis PRO (Agilent, 2014)
;
_computing_data_reduction
;
CrysAlis PRO (Agilent, 2014)
;
_computing_molecular_graphics
;
Mercury (Macrae <i>et al.</i>,  2008)
;
_computing_publication_material
;
SHELXL2014 (Sheldrick, 2015)
;
_computing_structure_refinement
;
SHELXL2014 (Sheldrick, 2015)
;
_computing_structure_solution
;
SUPERFLIP (Palatinus & Chapuis, 2007)
;
_diffrn_ambient_temperature      298(2)
_diffrn_detector_area_resol_mean 5.3072
_diffrn_measured_fraction_theta_full 0.999
_diffrn_measured_fraction_theta_max 0.999
_diffrn_measurement_device       'four-circle diffractometer'
_diffrn_measurement_device_type
'Agilent SuperNova Dual Source diffractometer with an Atlas detector'
_diffrn_measurement_method       '\w scans'
_diffrn_radiation_type           MoK\a
_diffrn_radiation_wavelength     0.71073
_diffrn_reflns_av_R_equivalents  0.0449
_diffrn_reflns_limit_h_max       10
_diffrn_reflns_limit_h_min       -9
_diffrn_reflns_limit_k_max       11
_diffrn_reflns_limit_k_min       -11
_diffrn_reflns_limit_l_max       11
_diffrn_reflns_limit_l_min       -11
_diffrn_reflns_number            14493
_diffrn_reflns_theta_full        25.242
_diffrn_reflns_theta_max         26.351
_diffrn_reflns_theta_min         3.044
_exptl_absorpt_coefficient_mu    0.076
_exptl_absorpt_correction_T_max  1.00000
_exptl_absorpt_correction_T_min  0.83131
_exptl_absorpt_correction_type   multi-scan
_exptl_absorpt_process_details
;
(CrysAlis PRO; Agilent, 2014)
;
_exptl_crystal_colour            yellow
_exptl_crystal_density_diffrn    1.217
_exptl_crystal_density_method    'not measured'
_exptl_crystal_description       parallelepiped
_exptl_crystal_F_000             268
_exptl_crystal_size_max          0.306
_exptl_crystal_size_mid          0.275
_exptl_crystal_size_min          0.192
_refine_diff_density_max         0.229
_refine_diff_density_min         -0.177
_refine_ls_extinction_coef       0.049(7)
_refine_ls_extinction_expression Fc^*^=kFc[1+0.001xFc^2^\l^3^/sin(2\q)]^-1/4^
_refine_ls_extinction_method
;
SHELXL2016 (Sheldrick, 2015)
;
_refine_ls_goodness_of_fit_ref   1.052
_refine_ls_hydrogen_treatment    constr
_refine_ls_matrix_type           full
_refine_ls_number_parameters     176
_refine_ls_number_reflns         2807
_refine_ls_number_restraints     0
_refine_ls_restrained_S_all      1.052
_refine_ls_R_factor_all          0.0588
_refine_ls_R_factor_gt           0.0526
_refine_ls_shift/su_max          0.000
_refine_ls_shift/su_mean         0.000
_refine_ls_structure_factor_coef Fsqd
_refine_ls_weighting_details
'w=1/[\s^2^(Fo^2^)+(0.0646P)^2^+0.2783P] where P=(Fo^2^+2Fc^2^)/3'
_refine_ls_weighting_scheme      calc
_refine_ls_wR_factor_gt          0.1454
_refine_ls_wR_factor_ref         0.1513
_reflns_number_gt                2419
_reflns_number_total             2807
_reflns_threshold_expression     'I > 2\s(I)'
_cod_data_source_file            cu3120sup1.cif
_cod_data_source_block           7c
_cod_database_code               2020992
_shelx_space_group_comment
;
The symmetry employed for this shelxl refinement is uniquely defined
by the following loop, which should always be used as a source of
symmetry information in preference to the above space-group names.
They are only intended as comments.
;
_shelx_estimated_absorpt_t_min   0.977
_shelx_estimated_absorpt_t_max   0.986
_shelx_hkl_file
;
   0   0   2 138900. 3643.34  11
   0   0   2 134085. 3671.94   8
   0   0  -2 146687. 3690.84   9
   0   0   2 144883. 3688.17   2
   0   0  -2 144625. 3684.35   2
   0   0  -3 388.260 43.8128   2
   0   0   3 396.141 31.6022  11
   0   0   3 397.706 47.4536   2
   0   0  -3 287.679 33.5361   6
   0   0   3 386.192 41.8086   8
   0   0   4 2303.24 141.762   2
   0   0  -4 2255.34 134.344   2
   0   0  -4 2137.93 124.100   3
   0   0  -4 1978.78 123.089   8
   0   0   4 2280.11 100.754  11
   0   0   4 2363.44 131.816   8
   0   0  -4 2223.78 107.912   6
   0   0   5 67171.4 1868.69   9
   0   0  -5 70109.6 1847.96   2
   0   0   5 67872.5 1759.34  11
   0   0  -5 57184.4 1822.10   8
   0   0   5 69678.4 1867.74   2
   0   0  -5 62511.0 1771.53   6
   0   0  -5 64284.9 1814.82   3
   0   0   5 62867.9 1846.02  10
   0   0   5 70995.3 1840.35   8
   0   0   6 1990.96 171.010   2
   0   0  -6 1355.51 145.695   7
   0   0   6 1417.58 145.251  10
   0   0  -6 2490.36 153.104   3
   0   0  -6 2522.25 181.614   2
   0   0   6 3579.15 230.564   9
   0   0   6 3736.74 205.876   8
   0   0   6 2634.98 125.862  11
   0   0  -6 2669.44 126.068   6
   0   0   7 4580.38 268.764   9
   0   0   7 2870.10 140.888  11
   0   0  -7 2651.92 172.996   3
   0   0   7 2169.32 194.723   2
   0   0  -7 2877.07 129.145   6
   0   0   7 4458.45 244.549   8
   0   0  -7 1797.27 159.234   8
   0   0  -7 3230.07 215.810   2
   0   0  -7 2037.98 193.273   7
   0   0  -8 3047.03 191.008   3
   0   0   8 4190.86 174.863  11
   0   0   8 5146.42 305.711   9
   0   0  -8 5051.76 341.577   4
   0   0  -8 3591.76 266.408   7
   0   0  -8 4658.02 272.690   2
   0   0   8 3752.89 265.008   2
   0   0  -8 2941.91 164.034   3
   0   0  -9 3036.51 276.300   4
   0   0   9 2252.05 114.214  11
   0   0   9 2415.97 190.031  10
   0   0  -9 1557.31 106.471   3
   0   0  -9 2630.04 215.757   2
   0   0  -9 1376.49 117.603   3
   0   0   9 2499.28 223.072   9
   0   0 -10 290.029 86.6937   4
   0   0  10 311.884 71.3066  10
   0   0 -10 338.286 79.6580   2
   0   0  10 299.529 81.7761   9
   0   0  11 1028.18 132.695  10
   0   0  11 850.941 144.820   9
   0   0 -11 1137.97 193.342   4
   0   0 -11 1142.10 158.160   2
   0  -1  11 205.217 67.9873   9
   0   1 -11 183.815 79.2925   4
   0   1 -11 166.468 63.3745   2
   0  -1  11 189.268 51.2105  10
   0  -1  10 25.8691 14.4701  11
   0   1 -10-14.6944 20.7184   2
   0  -1  10-1.54231 7.38340  10
   0   1 -10-27.4276 36.8019   4
   0  -1  10 45.7031 29.6150   9
   0  -1   9 1909.41 127.780  11
   0  -1   9 2071.98 201.417   9
   0   1  -9 1354.24 152.544   3
   0  -1   9 2161.27 171.711  10
   0   1  -9 2193.39 202.473   2
   0   1  -8 2277.68 194.974   3
   0   1  -8 1620.06 148.869   8
   0  -1   8 2272.71 140.598  11
   0   1  -8 2255.90 196.698   2
   0  -1   8 2466.86 205.740   9
   0  -1   7 533.458 61.6438  11
   0   1  -7 530.014 88.0997   2
   0  -1   7 415.193 75.5170   9
   0  -1   7 472.189 83.5670   2
   0   1  -7 478.739 86.7773   3
   0  -1   6 22008.1 656.722   2
   0   1  -6 19007.8 624.247   3
   0  -1   6 19710.0 623.049   9
   0  -1   6 20345.1 525.362  11
   0   1  -6 17856.1 545.133   8
   0   1  -6 21092.0 631.121   2
   0   1  -5 13658.7 497.660   2
   0   1  -5 12846.4 437.420   8
   0  -1   5 13549.5 430.759  11
   0  -1   5 14481.2 515.584   2
   0   1  -5 12176.7 376.149   6
   0   1  -4 3756.77 199.257   2
   0  -1   4 3767.84 166.539  11
   0   1  -4 3713.63 162.846   8
   0   1  -4 3463.99 135.987   6
   0   1  -4 4011.28 152.098   5
   0  -1   4 3954.49 206.853   2
   0   1  -3 29176.4 843.326   8
   0  -1   3 32186.2 861.506  11
   0   1  -3 29429.6 829.390   6
   0  -1   3 30633.9 901.255   2
   0  -1   3 29529.4 838.183   6
   0   1  -3 32495.9 851.486   5
   0  -1   3 32037.3 857.815   5
   0   1  -2 12000.6 348.299   6
   0   1  -2 12269.3 369.777   5
   0  -1   2 11674.8 385.196   2
   0  -1   2 11752.7 370.216   5
   0   1  -1 9431.65 287.244   6
   0  -1  -1 31564.8 766.965  10
   0  -1  -1 26886.3 773.901   5
   0  -1  -2 28845.9 862.532  10
   0   1   2 29264.8 838.601   5
   0   1   2 32854.1 886.240   4
   0  -1  -2 32138.6 846.150   5
   0  -1  -2 32491.3 888.152   1
   0  -1  -2 29408.9 850.069   9
   0  -1  -2 28660.7 821.505   2
   0   1   2 30954.1 853.706   8
   0   1   2 27033.5 865.855   7
   0  -1  -3 14315.4 439.485   5
   0   1   3 14707.9 474.386   8
   0   1   3 14729.3 434.957   5
   0  -1  -3 14650.7 476.537   9
   0  -1  -3 13865.6 486.223   7
   0  -1  -3 15884.7 451.206   2
   0   1   3 14386.2 476.088   9
   0   1   3 15078.5 455.353   2
   0  -1  -3 15087.8 511.382   1
   0   1   4 7341.91 267.742   2
   0  -1  -4 7119.84 253.845   2
   0   1   4 5063.70 213.843   5
   0   1   4 6814.30 283.465   9
   0  -1  -4 6748.56 281.688   9
   0  -1  -4 6552.26 288.871   7
   0  -1  -4 6802.52 313.281   1
   0   1   4 6907.34 286.031  10
   0   1   4 7004.26 277.576   8
   0   1   5 2921.92 171.880  10
   0   1   5 2763.90 170.330   9
   0   1   5 2973.39 164.970   8
   0  -1  -5 2963.82 199.373   1
   0  -1  -5 2953.96 146.974   2
   0  -1  -5 2777.53 169.908   9
   0   1   5 2583.71 154.553   2
   0  -1  -5 2805.58 177.163   7
   0  -1  -6 554.207 82.7589   7
   0   1   6 600.076 84.5904   9
   0   1   6 583.482 75.5829   2
   0  -1  -6 566.501 96.2514   1
   0   1   6 551.615 77.3182   8
   0  -1  -6 564.369 78.1028   8
   0  -1  -6 559.128 68.3948   2
   0  -1  -6 439.958 72.5423   9
   0  -1  -7 1383.35 134.812   8
   0  -1  -7 1501.99 128.451   2
   0  -1  -7 1458.61 168.361   4
   0   1   7 1477.17 146.243   9
   0   1   7 1723.29 150.994   8
   0  -1  -7 866.989 91.5185   6
   0  -1  -7 1386.07 148.546   7
   0   1   7 1549.28 140.794   2
   0   1   8 1304.72 142.023   8
   0  -1  -8 1315.24 127.558   2
   0   1   8 1122.87 137.525   9
   0   1   8 1294.93 133.722  10
   0   1   8 1332.31 141.846   2
   0  -1  -8 1131.84 138.708   7
   0  -1  -8 697.258 79.2252   6
   0  -1  -8 471.910 58.2859   6
   0  -1  -8 1290.26 172.222   4
   0   1   9 1837.43 176.902   8
   0   1   9 1829.01 168.348  10
   0  -1  -9 1826.90 164.627   2
   0   1   9 1740.23 181.593   9
   0  -1  -9 1975.55 223.574   4
   0   1  10 3.15589 14.8166  10
   0  -1 -10-5.38781 10.8598   2
   0   1  10 29.6613 36.1023   9
   0  -1 -10-36.8202 43.8404   4
   0   1  11 15.1800 17.7215  10
   0  -1 -11 79.8442 37.7498   2
   0  -1 -11-16.3489 41.7044   4
   0   1  11 14.8939 32.8676   9
   0  -2  11 3921.58 339.945   9
   0   2 -11 4713.66 364.166   2
   0  -2  10 333.252 60.3110  11
   0   2 -10 335.898 86.8502   2
   0  -2  10 488.478 102.195   9
   0  -2  10 351.248 69.7778  10
   0   2 -10 302.517 82.9828   3
   0  -2   9 2239.21 157.382  11
   0  -2   9 2256.88 218.757   9
   0   2  -9 2239.38 226.264   3
   0   2  -9 2569.86 232.372   2
   0  -2   8 5768.39 270.258  11
   0   2  -8 5368.59 347.396   3
   0   2  -8 4021.59 252.014   8
   0   2  -8 6303.69 357.946   2
   0  -2   8 5560.91 336.676   9
   0  -2   7 5829.94 336.732   2
   0   2  -7 3999.32 296.844   3
   0   2  -7 5513.17 317.035   2
   0  -2   7 4647.15 289.758   9
   0  -2   7 4645.30 239.710  11
   0   2  -7 4943.79 191.844   5
   0  -2   6 18734.7 701.653   2
   0   2  -6 19788.1 592.952   5
   0  -2   6 17668.8 600.391  11
   0  -2   6 17086.9 653.570   9
   0   2  -6 18580.1 683.129   2
   0   2  -6 16936.6 576.954   8
   0   2  -5 39324.6 1078.31   5
   0  -2   5 38390.2 1161.56   2
   0  -2   5 37558.7 1083.83  11
   0   2  -5 37872.6 1152.34   2
   0   2  -5 35029.1 1033.51   8
   0  -2   5 34910.0 1041.46   6
   0   2  -4 537.591 62.8489   5
   0  -2   4 555.237 54.8768   6
   0  -2   4 537.897 64.7077   5
   0   2  -4 413.051 42.7591   8
   0   2  -4 463.948 46.1525   6
   0  -2   4 460.612 55.7861  11
   0  -2   4 475.712 70.9118   2
   0   2  -3 6813.34 280.085   5
   0  -2   3 6618.33 286.935   2
   0  -2   3 6759.29 284.389   5
   0  -2   3 7318.89 269.323  11
   0   2  -3 7076.23 219.382   8
   0  -2   3 7013.36 257.512   6
   0   2  -3 6453.33 244.243   6
   0  -2   2 41.7410 17.0142   6
   0  -2   2 53.4100 19.1592   5
   0  -2   2 42.0756 16.0991   2
   0   2  -2 76.6236 23.0983   5
   0   2  -2 60.4068 19.2728   7
   0  -2   1 49501.7 1374.86   2
   0  -2   1 52824.3 1434.64   5
   0   2  -1 49491.9 1386.62   7
   0  -2   0 477864. 12369.1   2
   0  -2   0 437647. 12356.7   8
   0   2   0 470575. 12352.0   8
   0  -2   0 494420. 12459.7   5
   0  -2   0 517669. 12408.8  10
   0   2   0 539802. 12409.4   7
   0  -2  -1 114464. 3113.46   5
   0  -2  -1 116695. 3084.10  10
   0   2   1 119814. 3081.97   7
   0   2   1 114827. 3052.98   8
   0  -2  -1 120352. 3025.00   2
   0   2   2 39773.1 1151.83   5
   0  -2  -2 39616.2 1164.94   1
   0  -2  -2 39544.9 1149.07  10
   0   2   2 41038.0 1157.30   4
   0   2   2 39577.2 1127.05   8
   0  -2  -2 41387.9 1163.29   5
   0   2   2 40259.1 1152.98   7
   0   2   3 46495.7 1328.99   5
   0  -2  -3 46227.3 1263.67   2
   0   2   3 49012.5 1379.70   4
   0  -2  -3 45898.1 1353.64  10
   0  -2  -3 47376.4 1340.09   5
   0   2   3 49320.6 1367.09   7
   0  -2  -3 48389.6 1331.16   9
   0  -2  -3 48226.3 1353.94   7
   0   2   3 48832.9 1337.67   8
   0  -2  -3 47619.2 1376.44   1
   0  -2  -4 31131.8 905.991   2
   0  -2  -4 33789.2 1034.36   1
   0  -2  -4 32314.8 979.319   9
   0   2   4 33311.2 982.673   8
   0  -2  -4 33134.8 963.349   5
   0   2   4 32445.8 1002.13  10
   0   2   4 30947.1 1001.40   7
   0  -2  -4 33095.4 1007.71   7
   0   2   4 32701.7 949.170   5
   0  -2  -5 53998.2 1646.32   7
   0  -2  -5 55582.9 1696.32   1
   0  -2  -5 55066.7 1621.36   9
   0   2   5 57509.6 1626.76   8
   0   2   5 55091.8 1561.49   5
   0   2   5 56993.8 1635.24   9
   0  -2  -5 57833.5 1548.93   2
   0   2   6 184.121 46.3775   8
   0  -2  -6 206.347 50.2819   8
   0  -2  -6 179.153 49.4606   7
   0  -2  -6 166.177 33.9651   2
   0   2   6 133.006 30.6308   5
   0   2   6 153.108 43.0550   9
   0  -2  -6 166.697 51.2977   4
   0  -2  -6 141.546 41.2081   9
   0  -2  -6 213.550 62.7120   1
   0   2   7 173.867 51.0835   9
   0  -2  -7 170.736 40.6260   2
   0  -2  -7 185.824 57.1868   7
   0  -2  -7 181.319 55.6836   4
   0   2   7 181.238 55.1852   8
   0   2   7 112.095 40.4105  10
   0   2   8 3844.62 264.124  10
   0  -2  -8 4129.12 314.803   4
   0  -2  -8 2646.17 183.536   6
   0   2   8 3955.57 267.997   8
   0  -2  -8 3912.48 223.801   2
   0   2   8 3998.24 275.261   9
   0  -2  -9 1735.15 151.758   2
   0   2   9 1576.79 173.266  10
   0  -2  -9 825.856 92.7750   6
   0   2   9 1572.72 177.593   9
   0  -2  -9 1754.72 213.765   4
   0   2   9 1873.66 190.235   8
   0  -2 -10 452.303 114.721   4
   0  -2 -10 513.157 90.6280   2
   0   2  10 472.184 94.3020  10
   0   2  10 475.361 101.473   9
   0   2  11 0.35657 17.5572  10
   0  -2 -11 73.1985 51.3080   4
   0   3 -11 267.628 89.6672   2
   0  -3  11 268.927 77.7001   9
   0  -3  10 1954.49 219.579   9
   0  -3  10 1873.70 166.276  11
   0   3 -10 2323.46 247.712   2
   0   3 -10 2030.30 238.589   3
   0   3  -9 298.550 104.561   3
   0   3  -9 133.727 36.9073   8
   0  -3   9 422.163 95.3857   9
   0   3  -9 440.876 103.812   2
   0  -3   9 290.625 61.0586  11
   0   3  -8 1377.71 197.403   3
   0  -3   8 1867.07 154.420  11
   0   3  -8 2189.94 211.936   2
   0   3  -8 1895.91 134.544   5
   0  -3   8 1938.37 195.129   9
   0   3  -7 19792.0 761.441   2
   0  -3   7 18369.3 589.013   6
   0  -3   7 18432.3 666.788  11
   0  -3   7 18058.2 722.454   9
   0   3  -7 21757.5 685.801   5
   0   3  -7 18131.0 603.400   8
   0  -3   6 13658.1 579.476   2
   0  -3   6 13159.7 501.948  11
   0   3  -6 12688.5 432.688   8
   0   3  -6 13578.0 513.722   5
   0   3  -6 13408.5 568.274   2
   0  -3   6 13875.1 468.150   6
   0  -3   5 753.586 100.018   5
   0   3  -5 737.803 90.2154   5
   0   3  -5 782.501 103.359   2
   0  -3   5 908.951 92.3994  11
   0  -3   5 991.507 89.5053   6
   0  -3   5 863.215 110.280   2
   0   3  -5 796.910 60.3298   8
   0   3  -4 781.539 95.2008   5
   0   3  -4 673.041 46.6830   8
   0  -3   4 837.796 82.6511   6
   0  -3   4 740.228 92.8737   2
   0  -3   4 725.696 92.9341   5
   0  -3   4 771.984 83.3343  11
   0  -3   3 2500.27 153.184   6
   0  -3   3 2177.11 170.639   5
   0   3  -3 2540.89 177.202   5
   0   3  -3 2928.88 188.134   7
   0  -3   3 2512.75 166.489   2
   0  -3   2 93227.0 2531.86   6
   0   3  -2 99191.8 2554.31   7
   0   3  -2 93909.5 2593.20   5
   0  -3   2 90710.2 2529.74   2
   0  -3   2 88275.7 2589.21   5
   0  -3   1 97848.2 2684.27   2
   0   3  -1 102799. 2713.89   7
   0  -3   1 97543.2 2772.68   5
   0   3  -1 97055.4 2619.10   8
   0  -3   0 24059.6 665.353   8
   0  -3   0 23638.0 717.093  10
   0   3   0 22171.3 657.349   8
   0  -3   0 21034.1 667.946   2
   0   3   0 24325.5 718.850   7
   0  -3   0 24835.5 788.395   5
   0   3   0 22650.3 684.898   2
   0   3   1 150337. 4021.20   2
   0   3   1 156125. 4032.63   8
   0  -3  -1 149653. 4136.47   5
   0   3   1 154405. 4079.56   7
   0  -3  -1 156599. 4086.06  10
   0   3   1 152957. 4062.60   4
   0  -3  -1 157924. 4037.24   8
   0  -3  -1 149339. 3997.97   2
   0   3   2 9935.82 383.626   4
   0  -3  -2 9922.70 381.300   4
   0  -3  -2 9957.47 413.179   5
   0  -3  -2 8984.95 302.477   2
   0  -3  -2 9562.70 381.143  10
   0   3   2 10013.1 411.522   5
   0   3   2 10707.2 362.788   8
   0   3   2 10190.3 389.859   7
   0   3   3 15987.8 581.628   5
   0  -3  -3 15165.9 563.551   7
   0   3   3 16748.2 488.178   3
   0  -3  -3 16255.4 545.868   9
   0   3   3 16671.2 591.337   4
   0   3   3 16863.0 588.646   7
   0  -3  -3 15933.9 595.487   1
   0   3   3 16267.7 551.162   8
   0  -3  -3 14963.3 571.173  10
   0  -3  -3 16758.1 595.482   5
   0  -3  -4 324.636 63.9543   1
   0   3   4 337.924 62.6895   7
   0  -3  -4 301.325 61.9372   5
   0   3   4 290.605 51.6500   8
   0  -3  -4 379.841 59.4763   9
   0  -3  -4 202.098 30.1432  11
   0   3   4 328.830 29.1647   3
   0  -3  -4 394.642 66.4871   7
   0  -3  -4 256.936 55.1461  10
   0   3   4 398.513 70.5778   4
   0   3   4 303.102 55.5935   5
   0  -3  -4 373.399 36.2444   2
   0  -3  -5 1140.39 114.090   9
   0  -3  -5 776.661 47.0446  11
   0  -3  -5 1227.97 138.787   4
   0   3   5 1131.59 109.354   5
   0   3   5 1250.10 133.757   7
   0  -3  -5 1079.72 115.014   5
   0  -3  -5 1014.92 128.268   1
   0  -3  -5 1210.76 75.8331   2
   0  -3  -5 1117.47 123.691   7
   0   3   5 1100.00 113.416   8
   0   3   6 4712.71 292.232  10
   0  -3  -6 5141.26 324.012   4
   0   3   6 4907.23 258.004   5
   0  -3  -6 4415.44 270.091   9
   0  -3  -6 4762.95 204.297   2
   0   3   6 4820.74 283.295   8
   0  -3  -6 4473.01 291.743   7
   0   3   7 82.2637 27.1248   5
   0   3   7 71.0678 20.5645   8
   0  -3  -7 93.8062 46.8686   4
   0  -3  -7 120.576 29.7065   2
   0   3   7 51.7625 31.5347  10
   0  -3  -8 1087.05 100.055   2
   0  -3  -8 1054.46 158.287   4
   0   3   8 953.716 132.124   8
   0   3   8 980.160 136.630  10
   0  -3  -8 808.737 103.743   6
   0   3   9 587.940 108.437   8
   0  -3  -9 327.710 66.8205   6
   0  -3  -9 528.462 125.248   4
   0   3   9 430.087 95.8386  10
   0  -3  -9 434.702 70.9776   2
   0   3  10 2284.29 230.378  10
   0   3  10 2731.66 253.507   8
   0  -3 -10 2650.29 293.063   4
   0  -3 -11-115.219 66.1857   4
   0   3  11-14.3232 23.2388  10
   0  -4  11 709.259 139.862   9
   0  -4  11 594.750 102.026  11
   0   4 -11 713.637 147.544   2
   0   4 -10 1149.78 179.908   2
   0  -4  10 878.515 119.705  11
   0   4 -10 952.659 183.767   3
   0  -4  10 1003.14 157.656   9
   0  -4   9 25.5156 13.3004   9
   0  -4   9 3.61108 21.9437  11
   0   4  -9 12.1384 33.5364   3
   0   4  -9-27.1943 34.4856   2
   0  -4   8 9847.81 444.579  11
   0   4  -8 10138.9 534.318   2
   0  -4   8 8868.66 362.331   6
   0   4  -8 10840.8 469.972   5
   0   4  -8 9531.81 356.177   8
   0  -4   8 8868.98 485.474   9
   0   4  -7 21878.5 861.708   2
   0   4  -7 21529.4 660.286   8
   0  -4   7 21950.2 777.212  11
   0   4  -7 22692.7 809.666   5
   0  -4   7 21871.7 727.943   6
   0  -4   6 15043.7 595.663  11
   0  -4   6 16720.7 652.433   5
   0   4  -6 16434.2 638.172   5
   0  -4   6 16254.4 573.957   6
   0   4  -6 15762.1 663.827   2
   0   4  -6 15277.9 475.844   8
   0   4  -6 15386.4 659.770   7
   0  -4   5 7803.84 351.951  11
   0  -4   5 7929.45 342.156   6
   0   4  -5 6627.43 234.261   8
   0   4  -5 8222.44 392.100   5
   0  -4   5 8026.38 393.904   2
   0  -4   5 8222.07 405.795   5
   0   4  -5 7801.31 395.950   2
   0   4  -5 7862.85 392.236   7
   0  -4   4 298.874 69.5493   5
   0  -4   4 307.389 63.3454   2
   0  -4   4 344.275 62.8080   6
   0   4  -4 147.407 19.3147   8
   0  -4   4 338.389 62.5068  11
   0   4  -4 411.556 82.0334   5
   0   4  -4 388.142 83.1289   7
   0   4  -3 3287.12 234.695   5
   0  -4   3 3232.69 236.051   5
   0   4  -3 3336.97 216.499   7
   0  -4   3 3489.86 203.683   6
   0  -4   3 3150.67 203.824   2
   0  -4   2 2153.36 151.014   2
   0  -4   2 1993.74 181.715   5
   0   4  -2 2192.01 94.1330   8
   0   4  -2 2160.36 186.251   5
   0   4  -2 2188.57 158.091   7
   0  -4   2 2264.92 172.596   7
   0  -4   2 2201.61 165.691   6
   0   4  -1 353.470 59.5767   7
   0  -4   1 348.005 52.8213   2
   0  -4   1 331.243 69.4173   5
   0   4  -1 269.232 47.5494   2
   0   4  -1 333.720 36.5979   8
   0   4   0 15231.9 519.241   7
   0  -4   0 13755.1 508.837  10
   0   4   0 13520.8 439.386   8
   0   4   0 13592.8 470.214   2
   0  -4   0 14111.2 446.246   8
   0  -4   0 12984.1 453.807   2
   0  -4   0 13520.3 569.531   5
   0   4   1 3494.46 173.662   8
   0   4   1 3207.32 188.847   4
   0  -4  -1 3699.47 180.753   8
   0  -4  -1 3443.96 208.676  10
   0   4   1 2921.72 171.335   2
   0  -4  -1 3189.23 234.631   5
   0  -4  -1 3831.28 162.668   2
   0   4   1 3368.04 204.862   7
   0   4   2 10762.6 438.542   7
   0  -4  -2 10793.7 402.727   8
   0   4   2 10889.5 433.664   4
   0  -4  -2 10500.2 336.811   2
   0  -4  -2 9748.57 470.024   5
   0  -4  -2 10259.7 433.051  10
   0   4   2 10919.3 397.263   8
   0   4   2 9405.23 454.713   5
   0   4   3 2222.83 153.668   8
   0   4   3 2105.91 167.115   4
   0  -4  -3 1830.75 94.3786   2
   0  -4  -3 2227.28 203.003   5
   0  -4  -3 2267.04 156.912   8
   0  -4  -3 1974.73 166.419  10
   0  -4  -3 2305.27 172.168   4
   0   4   3 2125.72 177.950   5
   0   4   3 2319.62 181.083   7
   0  -4  -4 4475.24 263.119   4
   0   4   4 4674.43 270.071   7
   0   4   4 4054.30 243.392   5
   0   4   4 4056.69 250.586   4
   0   4   4 4282.99 228.346   8
   0  -4  -4 4295.74 220.762   9
   0   4   4 3853.60 152.534   3
   0  -4  -4 3786.31 240.898  10
   0  -4  -4 2987.97 118.704   2
   0  -4  -4 3282.03 248.777   5
   0  -4  -4 4225.81 268.528   1
   0   4   4 4343.28 256.220  10
   0  -4  -4 4000.19 238.264   7
   0  -4  -5 11.2047 6.79441   2
   0  -4  -5 19.0576 19.1658   9
   0   4   5 11.8804 14.1276   5
   0   4   5-3.58893 5.06093   3
   0  -4  -5 40.1023 29.6802   5
   0   4   5-3.32865 13.0070  10
   0  -4  -5 0.74996 13.1444   1
   0  -4  -5 7.95564 13.1024   4
   0   4   5-9.23533 15.0694   7
   0   4   5 3.02746 15.2198   1
   0  -4  -5 26.2095 23.3457  10
   0  -4  -5-10.4145 17.7660   7
   0   4   5 27.8070 23.5890   4
   0   4   5 0.62493 12.4390   8
   0  -4  -5 0.51179 5.39059  11
   0   4   5 12.5379 6.14866   3
   0  -4  -6 2892.77 129.036   2
   0   4   6 2938.63 219.276   8
   0   4   6 2762.45 235.473   7
   0  -4  -6 2685.81 206.950   9
   0   4   6 3084.97 241.321  10
   0   4   6 2720.35 211.523   5
   0  -4  -6 2796.64 243.376   4
   0   4   6 2806.89 246.070   1
   0   4   7 4374.71 309.496  10
   0   4   7 4465.69 295.882   8
   0  -4  -7 4690.64 193.886   2
   0   4   7 4515.03 282.593   5
   0  -4  -7 4594.56 339.027   4
   0  -4  -7 4129.15 275.765   6
   0   4   8 5372.50 362.030  10
   0  -4  -8 5406.64 324.887   6
   0  -4  -8 5372.69 232.767   2
   0   4   8 5523.53 354.357   8
   0  -4  -8 5482.11 400.170   4
   0   4   8 5338.11 292.808   5
   0   4   9 722.892 126.527  10
   0  -4  -9 584.890 101.764   6
   0   4   9 866.333 137.105   8
   0  -4  -9 918.349 162.445   4
   0  -4 -10 92.5343 43.2883   4
   0   4  10 181.619 66.6325   8
   0   4  10 148.118 57.5544  10
   0   5 -10-21.3895 29.5792   3
   0  -5  10 6.70938 27.7414   9
   0   5 -10 43.3464 52.5308   7
   0   5 -10-33.7549 62.5640   2
   0  -5  10 23.6968 21.3540  11
   0   5  -9 4.08805 33.9947   3
   0   5  -9 18.2005 32.0621   7
   0   5  -9 98.2466 55.1121   2
   0  -5   9 61.6215 33.7424  11
   0  -5   9 38.6255 32.6392   9
   0   5  -8 675.199 119.071   5
   0   5  -8 545.155 107.028   7
   0   5  -8 592.804 121.514   2
   0   5  -8 546.738 53.2297   8
   0  -5   8 566.639 100.884  11
   0  -5   8 553.725 84.1232   6
   0   5  -7 153.405 55.9064   5
   0  -5   7 182.090 54.3146  11
   0  -5   7 255.119 56.8582   6
   0   5  -7 159.510 58.6676   7
   0   5  -7 205.341 27.3389   8
   0   5  -7 237.887 70.3111   2
   0   5  -6 16084.7 648.284   5
   0  -5   6 17568.2 693.812   5
   0  -5   6 16329.3 599.084  11
   0   5  -6 16158.3 664.965   2
   0   5  -6 16479.9 645.216   7
   0   5  -5 4077.28 278.978   7
   0  -5   5 4003.43 304.161   5
   0  -5   5 3872.84 255.711  11
   0   5  -5 4516.34 299.547   2
   0   5  -5 3618.45 287.791   5
   0  -5   4 123.805 41.0891  11
   0   5  -4 130.068 51.2635   5
   0   5  -4 107.535 44.5554   2
   0   5  -4 124.989 14.8738   8
   0  -5   4 112.311 46.5519   5
   0  -5   4 110.316 40.5243   2
   0   5  -4 82.6437 29.8653   7
   0   5  -3 8361.65 412.003   2
   0  -5   3 9052.10 481.124   5
   0   5  -3 9348.86 477.174   5
   0  -5   3 8225.99 401.402   2
   0   5  -3 9037.98 423.754   7
   0   5  -3 9297.53 278.141   8
   0  -5   2 73020.4 2065.68   2
   0  -5   2 77357.1 2227.85   5
   0   5  -2 69907.4 2195.00   5
   0   5  -2 70789.2 2092.55   7
   0   5  -2 73529.9 1937.00   8
   0   5  -1 267.124 56.3190   7
   0   5  -1 157.465 26.4685   8
   0   5  -1 271.560 54.4390   2
   0  -5   1 222.851 53.8195  10
   0  -5   1 161.629 40.7270   2
   0  -5   1 219.756 65.7984   5
   0  -5   0 5397.56 291.651  10
   0   5   0 5407.31 296.408   7
   0  -5   0 5488.81 249.143   2
   0   5   0 5435.94 264.418   2
   0  -5   0 4320.40 330.816   5
   0   5   0 5689.93 237.037   8
   0  -5  -1 19561.9 781.212   5
   0   5   1 18876.4 635.144   2
   0  -5  -1 18587.0 692.124  10
   0  -5  -1 18886.9 599.580   2
   0  -5  -1 20366.2 638.732   8
   0   5   1 19046.8 623.141   8
   0   5   1 18231.9 662.085   4
   0   5   1 18610.9 691.689   7
   0  -5  -2 14806.3 507.085   8
   0   5   2 13480.1 546.247   7
   0   5   2 13102.3 525.206   4
   0  -5  -2 13079.8 539.050  10
   0  -5  -2 11709.6 412.772   2
   0   5   2 13752.1 486.559   8
   0  -5  -2 12361.4 602.736   5
   0   5   3 518.347 89.5089   7
   0   5   3 463.308 72.1621   8
   0  -5  -3 566.936 102.041   5
   0  -5  -3 509.544 76.4417   8
   0  -5  -3 430.008 42.4491   2
   0  -5  -3 434.997 79.4205   7
   0   5   3 401.007 80.8515   1
   0   5   3 403.372 74.5889   4
   0  -5  -3 490.571 83.1866  10
   0   5   4 1014.66 132.996   1
   0   5   4 984.816 111.726   8
   0  -5  -4 821.519 133.112   5
   0   5   4 867.883 81.7715   3
   0   5   4 1045.00 129.414   4
   0   5   4 1074.74 133.430  10
   0  -5  -4 1006.18 116.041   8
   0  -5  -4 301.654 33.7782   2
   0  -5  -4 699.743 46.8079   2
   0  -5  -4 958.143 120.923   4
   0  -5  -4 985.249 126.587   7
   0   5   4 962.038 129.556   7
   0  -5  -4 1036.21 112.028   9
   0   5   5 18.1332 13.9172   3
   0   5   5 51.7039 24.6459   8
   0   5   5 99.4176 48.7469   1
   0  -5  -5 17.0775 15.4043   5
   0   5   5 37.7353 32.0295   7
   0   5   5 52.2247 39.2154  10
   0  -5  -5 29.7517 20.1664   9
   0   5   5-4.29081 12.4003   3
   0  -5  -5 60.7695 43.5763   4
   0  -5  -6 2755.99 126.696  11
   0  -5  -6 3799.67 272.464   6
   0   5   6 3685.87 282.575  10
   0  -5  -6 3842.64 291.465   4
   0   5   6 3584.86 288.100   1
   0   5   6 3542.46 249.612   8
   0  -5  -6 2168.91 123.076  11
   0   5   6 3899.62 295.176   7
   0   5   7 79.8205 42.8153  10
   0   5   7 53.5894 38.7542   8
   0  -5  -7 9.31871 12.5972   6
   0   5   7 78.2148 46.2608   7
   0  -5  -7 21.4595 19.1030   4
   0   5   8 12.2837 28.3779  10
   0   5   8 35.9088 30.5258   8
   0  -5  -8 113.280 43.6340   4
   0  -5  -8 29.5098 24.3331   6
   0  -5  -9 1727.64 233.419   4
   0   5   9 1593.61 205.694  10
   0   5   9 1713.56 205.966   8
   0  -5  -9 1814.12 194.082   6
   0   5  10 1099.54 178.961  10
   0   5  10 1523.02 204.962   8
   0  -5 -10 1729.78 245.055   4
   0   6 -10 322.596 101.650   2
   0  -6  10 211.876 70.3315  11
   0  -6  10 207.488 67.9845   9
   0   6 -10 154.377 83.6020   3
   0   6 -10 57.0007 16.2323   7
   0  -6   9 596.241 118.002  11
   0   6  -9 691.181 182.971   3
   0   6  -9 887.552 162.716   2
   0   6  -9 417.494 103.636   7
   0   6  -8 71.7827 44.0507   5
   0   6  -8 82.3421 44.1974   7
   0   6  -8 166.415 66.6595   2
   0  -6   8 57.5938 39.1130  11
   0   6  -7 7976.42 444.563   7
   0  -6   7 8169.35 433.597  11
   0   6  -7 8356.33 489.387   2
   0   6  -7 7458.44 458.614   5
   0  -6   6 2296.40 209.310  11
   0   6  -6 2391.76 238.927   2
   0   6  -6 2545.06 247.978   5
   0   6  -6 2266.26 216.842   7
   0  -6   6 2321.63 203.570   6
   0  -6   6 2253.36 245.750   5
   0  -6   5 6079.60 358.585   6
   0  -6   5 6096.10 347.151  11
   0  -6   5 6081.38 418.570   5
   0   6  -5 5707.82 352.811   7
   0   6  -5 5577.69 388.521   5
   0   6  -5 5463.72 362.739   2
   0   6  -4 336.478 87.1036   5
   0   6  -4 293.880 69.8533   7
   0  -6   4 304.044 68.6176  11
   0   6  -4 238.726 62.0493   2
   0  -6   4 272.137 82.4398   5
   0  -6   4 209.381 66.9099   6
   0   6  -4 89.9885 12.7690   8
   0   6  -3 2739.02 259.999   5
   0  -6   3 2516.16 206.031   2
   0   6  -3 2743.02 119.065   8
   0  -6   3 2431.54 248.881   5
   0  -6   3 2775.38 227.897   6
   0   6  -3 2733.68 222.215   2
   0   6  -3 2932.00 233.292   7
   0  -6   2 152.692 47.2262   2
   0   6  -2 157.637 27.4053   8
   0  -6   2 219.170 63.7567   7
   0   6  -2 164.813 65.2577   5
   0  -6   2 178.066 52.0845  10
   0   6  -2 257.168 65.7199   7
   0  -6   2 194.648 72.3838   5
   0  -6   2 205.682 59.4486   6
   0   6  -2 198.029 52.5551   2
   0   6  -1 1502.14 153.343   7
   0   6  -1 1296.80 173.886   5
   0  -6   1 1373.81 184.740   5
   0   6  -1 1379.17 99.2053   8
   0  -6   1 1426.25 158.061   6
   0  -6   1 1317.42 152.395   7
   0  -6   1 1423.32 131.429   2
   0  -6   1 1454.79 149.569  10
   0   6   0 7282.01 281.635   8
   0  -6   0 2900.34 305.085   5
   0   6   0 5395.13 306.938   2
   0  -6   0 4931.20 261.613   2
   0  -6   0 5008.38 314.698  10
   0  -6  -1 1755.76 137.015   8
   0  -6  -1 1776.16 183.846   6
   0   6   1 1361.41 135.140   2
   0   6   1 1659.05 130.439   8
   0   6   1 1832.50 206.972   5
   0  -6  -1 1480.88 157.314  10
   0   6   1 1531.81 160.887   7
   0   6   1 1626.43 154.147   4
   0  -6  -1 1614.99 203.806   5
   0  -6  -1 1617.38 120.025   2
   0  -6  -2 77.6296 28.2955   8
   0  -6  -2 170.618 60.9964   6
   0   6   2 69.7985 24.9751   7
   0   6   2 56.4283 25.5379   1
   0  -6  -2 134.375 60.1311   5
   0   6   2 160.157 47.8112   4
   0   6   2 107.621 37.1377   8
   0   6   2 77.8932 43.8758   5
   0  -6  -2 49.4474 16.2670   2
   0  -6  -3 7901.47 439.970   6
   0   6   3 9011.04 450.978   7
   0   6   3 7266.58 392.982   4
   0  -6  -3 5890.70 248.940   2
   0   6   3 8420.48 435.952   1
   0   6   3 7855.15 365.774   8
   0  -6  -3 8103.82 373.459   8
   0  -6  -3 7657.08 466.673   5
   0   6   3 7286.64 438.941   5
   0   6   4 1085.31 152.057   7
   0  -6  -4 878.427 55.0119   2
   0   6   4 993.028 102.693   3
   0   6   4 889.189 140.164   5
   0  -6  -4 1019.00 147.584   6
   0  -6  -4 1018.93 168.970   5
   0   6   4 1030.00 121.670   8
   0   6   4 1028.14 144.598   1
   0   6   5 252.569 55.5736   3
   0   6   5 591.981 118.947   7
   0  -6  -5 421.985 59.4033  11
   0  -6  -5 430.750 103.530   6
   0   6   5 575.172 95.4086   8
   0   6   5 485.326 110.910   5
   0   6   5 468.331 65.3920   3
   0  -6  -5 466.984 110.839   5
   0   6   5 580.652 115.500   1
   0   6   5 553.768 111.068  10
   0  -6  -5 376.011 89.0111   4
   0   6   6 345.476 93.5161   5
   0   6   6 374.889 44.8505   3
   0   6   6 627.823 124.480   1
   0   6   6 723.843 117.945   8
   0  -6  -6 567.577 121.626   4
   0   6   6 37.1232 19.5264   3
   0   6   6 416.233 98.5556  10
   0  -6  -6 243.143 37.3584  11
   0   6   6 484.816 119.729   7
   0  -6  -6 225.352 39.0890  11
   0  -6  -6 431.195 101.733   6
   0  -6  -7 2695.05 260.279   6
   0  -6  -7 3201.10 296.711   4
   0   6   7 3058.98 286.426  10
   0   6   7 2765.95 264.608   5
   0   6   7 2928.00 253.872   8
   0   6   7 2730.39 283.380   1
   0   6   7 2837.97 285.198   7
   0   6   8 4354.18 331.826   8
   0   6   8 3830.24 338.144  10
   0   6   8 4134.82 329.783   5
   0  -6  -8 4044.75 356.891   4
   0  -6  -8 4131.89 327.759   6
   0   6   9 500.801 114.451   8
   0  -6  -9 471.972 120.200   4
   0  -6  -9 296.354 87.5604   6
   0   6   9 181.255 67.1962  10
   0   7  -9 391.649 102.562   7
   0   7  -9 853.339 168.555   2
   0   7  -9 509.598 169.171   3
   0  -7   9 681.268 122.610  11
   0   7  -8 423.011 113.251   2
   0  -7   8 526.755 98.7718   6
   0  -7   8 494.109 105.546  11
   0   7  -8 493.959 123.328   5
   0   7  -8 338.928 84.8815   7
   0  -7   7 125.081 54.0725   6
   0  -7   7 238.819 75.0974  11
   0   7  -7 132.437 55.4274   7
   0   7  -7 147.560 79.0474   5
   0   7  -7 262.385 89.2214   2
   0   7  -6 15432.8 730.279   2
   0   7  -6 14317.9 668.592   7
   0   7  -6 14776.6 751.059   5
   0  -7   6 14836.8 664.869  11
   0  -7   6 15103.3 674.677   6
   0  -7   5 184.215 60.2511   6
   0   7  -5 167.014 61.2459   7
   0   7  -5 104.024 56.7207   5
   0   7  -5 128.502 53.9200   2
   0  -7   5 162.396 54.1343  11
   0  -7   4 2206.43 187.605  10
   0  -7   4 2212.32 212.221   6
   0   7  -4 2290.19 210.112   7
   0   7  -4 2187.58 211.997   2
   0  -7   4 2385.83 206.014  11
   0   7  -4 2396.05 260.689   5
   0   7  -3 877.019 64.1085   8
   0   7  -3 917.815 131.709   2
   0  -7   3 768.609 130.690   6
   0   7  -3 940.659 133.380   7
   0  -7   3 856.822 120.028  10
   0  -7   3 963.400 131.212  11
   0   7  -3 857.488 159.440   5
   0   7  -2 801.451 119.660   7
   0  -7   2 644.239 104.515  10
   0   7  -2 687.031 108.559   2
   0   7  -2 750.596 69.7371   8
   0  -7   2 704.098 120.500   6
   0  -7   2 911.399 117.910   2
   0   7  -2 655.951 135.853   5
   0   7  -1 668.417 109.082   7
   0   7  -1 700.411 73.7541   8
   0  -7   1 610.491 108.119   6
   0  -7   1 582.878 89.7542   2
   0   7  -1 637.751 100.497   2
   0   7  -1 680.919 136.098   5
   0   7   0 8137.46 526.675   5
   0   7   0 10173.0 375.931   8
   0   7   0 6866.48 387.354   4
   0   7   0 14426.1 562.189   7
   0  -7   0 5800.76 337.098   2
   0  -7   0 13001.0 578.558   6
   0  -7  -1 198.507 67.0035   6
   0   7   1 173.524 44.2580   8
   0   7   1 122.131 49.7925   7
   0   7   1 191.494 55.5444   4
   0  -7  -1 121.422 36.0894   2
   0   7   1 132.840 65.9137   5
   0   7   2 82.9214 49.0045   5
   0   7   2 50.1588 33.3184   8
   0  -7  -2 105.586 38.6784   8
   0   7   2 3.74372 20.8060   1
   0  -7  -2 73.9150 26.8067   6
   0  -7  -2 96.5671 30.3949   2
   0   7   2 70.7662 37.4453   7
   0  -7  -3-2.49454 20.5989   6
   0   7   3-74.8594 45.8205   5
   0   7   3-14.6588 30.6965   7
   0   7   3-10.5228 22.6637   8
   0   7   3-35.2303 30.4985   3
   0  -7  -3-0.24847 10.1717   2
   0   7   3-10.1582 20.4856   1
   0   7   4 2519.21 265.504   5
   0   7   4 2731.38 253.246   1
   0   7   4 2773.46 262.978   7
   0  -7  -4 2138.51 104.210   2
   0  -7  -4 2574.05 260.454   6
   0   7   4 2612.92 192.599   3
   0   7   4 2643.19 214.382   8
   0   7   5 37.6168 30.6533   1
   0   7   5-4.31500 21.0262   3
   0   7   5-9.36486 34.8696   7
   0   7   5 32.9474 29.6920   8
   0  -7  -5-38.4461 38.5678   6
   0   7   5 31.7977 21.0110   3
   0  -7  -5-1.54120 11.2944  11
   0   7   5-16.1787 33.8307   5
   0   7   6 232.672 86.0126   1
   0   7   6 60.7181 28.6639   3
   0   7   6 157.260 63.9230   5
   0   7   6 245.566 84.2108   7
   0   7   6 159.940 57.0839   8
   0  -7  -6 95.5244 30.9024  11
   0  -7  -6 117.329 66.0156   6
   0  -7  -7 1672.55 216.685   6
   0   7   7 1426.67 216.635   1
   0   7   7 1323.36 196.580   5
   0   7   7 1856.90 204.913   8
   0   7   7 1861.70 244.210   7
   0  -7  -7 1777.54 220.134   4
   0  -7  -8 143.349 65.5396   6
   0   7   8 159.482 64.5561   5
   0  -7  -8 151.880 76.3072   4
   0   7   8 267.968 107.178   7
   0   7   8 136.253 55.5994   8
   0   8  -8-35.3800 38.0658   5
   0   8  -8 32.5572 30.6745   2
   0   8  -8 11.5627 40.1699   7
   0  -8   8 23.1798 29.9511   6
   0  -8   8 24.4359 46.4476  11
   0   8  -7 154.481 74.4401   5
   0   8  -7 80.1976 48.5971   7
   0  -8   7 243.678 80.5440  11
   0   8  -7 190.007 82.5106   2
   0  -8   7 137.527 60.6607   6
   0  -8   6 850.769 140.904  11
   0   8  -6 1009.73 170.168   2
   0   8  -6 805.702 166.295   5
   0   8  -6 922.982 144.726   7
   0  -8   6 806.459 144.302   6
   0  -8   5 3649.04 298.503  11
   0  -8   5 3238.53 295.116   6
   0   8  -5 3227.69 281.890   7
   0   8  -5 3869.69 325.089   2
   0   8  -5 3265.33 338.640   5
   0   8  -4 450.258 105.584   2
   0  -8   4 342.739 98.8799   6
   0   8  -4 367.042 118.149   5
   0  -8   4 567.792 112.514  11
   0   8  -4 621.028 117.810   7
   0   8  -3 703.349 123.126   2
   0   8  -3 772.150 153.875   5
   0   8  -3 607.956 57.2219   8
   0  -8   3 743.563 121.762  11
   0  -8   3 597.792 131.781   6
   0   8  -3 622.490 118.771   7
   0   8  -2 1489.73 184.010   7
   0  -8   2 1429.25 186.793   6
   0   8  -2 1569.95 225.646   5
   0   8  -2 1427.98 107.309   8
   0  -8   2 1515.50 174.519  11
   0   8  -2 1360.62 165.907   2
   0   8  -1 2391.18 215.006   2
   0   8  -1 2535.83 289.525   5
   0  -8   1 2012.97 183.700   2
   0  -8   1 2349.64 245.699   6
   0   8  -1 2377.66 233.021   7
   0   8  -1 2327.06 155.655   8
   0  -8   0 7773.08 466.949   6
   0   8   0 5911.44 348.091   2
   0  -8   0 3954.50 271.487   2
   0   8   0 6482.30 477.436   5
   0   8   0 6066.37 294.145   8
   0   8   0 8579.20 468.666   7
   0   8   1 517.105 79.3761   8
   0  -8  -1 406.901 108.671   6
   0  -8  -1 292.066 56.0280   2
   0   8   1 625.011 138.976   5
   0   8   1 482.524 101.003   7
   0  -8  -2 1431.09 129.599   2
   0   8   2 2869.70 207.638   8
   0   8   2 2682.80 291.621   5
   0   8   2 2576.37 254.026   7
   0  -8  -2 2920.73 288.475   6
   0   8   2 2978.84 270.009   1
   0   8   3-16.4345 24.5062   1
   0   8   3-3.91000 32.8962   5
   0  -8  -3 22.3345 22.2516  11
   0   8   3-35.5559 29.6723   3
   0  -8  -3-81.6321 58.0744   6
   0  -8  -3-7.68349 6.54610   2
   0   8   3-46.2989 21.0254   7
   0   8   3 20.2472 19.3647   8
   0  -8  -4 730.154 100.079  11
   0   8   4 620.778 137.256   3
   0  -8  -4 1244.42 202.684   6
   0   8   4 671.023 105.336   3
   0   8   4 800.720 157.924   5
   0   8   4 1043.32 165.521   1
   0   8   4 1212.86 150.225   8
   0   8   4 1263.79 191.886   7
   0  -8  -5 49.8368 23.5942  11
   0  -8  -5 307.599 98.4279   6
   0   8   5 228.790 90.5744   7
   0   8   5 344.086 99.6758   1
   0   8   5 228.625 90.6037   5
   0   8   5 296.500 80.3418   8
   0   8   6 12.0157 29.5441   8
   0  -8  -6-43.2004 31.5189   6
   0   8   6 75.0024 62.7196   5
   0   8   6 8.29608 22.3400   7
   0   8   6 25.8834 28.5800   1
   0   8   7 491.739 129.775   5
   0  -8  -7 469.830 132.031   6
   0   8   7 593.039 122.435   8
   0   8   7 637.597 146.043   1
   0   8   7 648.284 147.986   7
   0  -9   7 314.436 92.1057   6
   0   9  -7 459.730 128.338   2
   0  -9   7 273.301 93.8224  11
   0   9  -7 237.673 70.7745   7
   0   9  -7 313.126 111.875   5
   0   9  -6 3260.94 307.542   7
   0   9  -6 3991.69 401.684   5
   0   9  -6 4324.32 388.700   2
   0  -9   6 3744.77 339.959   6
   0  -9   6 4481.02 358.986  11
   0   9  -5 50.5768 39.2002   5
   0  -9   5 58.1092 43.8082  11
   0   9  -5 98.4467 48.9846   7
   0   9  -5 1.97198 34.6497   2
   0  -9   5 94.0450 45.8393   6
   0  -9   4 15.8621 28.9058   6
   0   9  -4 36.4610 33.0884   2
   0   9  -4 2.47319 29.8216   7
   0  -9   4-19.9027 24.8922  11
   0   9  -4-10.3264 47.6833   5
   0  -9   3 827.278 154.018   6
   0   9  -3 723.445 138.040   2
   0  -9   3 974.803 157.948  11
   0   9  -3 873.511 155.927   7
   0   9  -3 644.464 65.2937   8
   0   9  -3 529.618 145.405   5
   0   9  -2 247.279 77.1200   2
   0   9  -2 168.830 71.1531   7
   0  -9   2 180.676 70.5923   6
   0   9  -2 242.621 44.0174   8
   0   9  -2 217.304 90.3348   5
   0  -9   2 225.275 72.8713  11
   0   9  -1 592.262 151.752   5
   0   9  -1 548.204 106.652   2
   0   9  -1 706.838 136.990   7
   0  -9   1 664.117 117.999  11
   0  -9   1 591.275 130.812   6
   0   9  -1 668.337 82.7531   8
   0   9   0 1145.74 121.208   8
   0  -9   0 561.646 97.8119   2
   0   9   0 1095.80 205.496   5
   0  -9   0 1653.55 181.271  11
   0   9   0 1809.95 220.635   7
   0   9   0 837.534 133.721   2
   0  -9   0 1495.78 212.282   6
   0  -9  -1 210.575 57.3234   2
   0  -9  -1 596.694 102.228  11
   0   9   1 512.394 138.076   5
   0   9   1 695.040 138.069   1
   0   9   1 721.552 141.190   7
   0  -9  -1 580.608 132.901   6
   0   9   1 665.851 98.6110   8
   0  -9  -2 103.962 47.2057  11
   0   9   2 113.331 61.5276   5
   0  -9  -2 107.539 70.1162   6
   0   9   2 77.4409 33.5561   8
   0   9   2 98.0434 42.5111   7
   0   9   2 209.294 69.9769   1
   0   9   3 1301.43 223.925   5
   0  -9  -3 991.602 141.141  11
   0   9   3 2295.80 205.245   8
   0   9   3 1757.27 224.441   1
   0  -9  -3 2190.87 271.208   6
   0   9   3 2220.86 265.495   7
   0   9   4 46.9918 47.2642   7
   0   9   4 56.9769 47.2409   5
   0   9   4 13.9948 16.8225   8
   0  -9  -4-55.2936 53.9213   6
   0   9   4-9.72634 28.0376   1
   0  -9  -4-17.4568 11.6362  11
   0   9   4-42.5350 18.2388   3
   0  -9  -5 963.111 187.331   6
   0   9   5 1215.48 198.550   7
   0   9   5 684.473 158.800   5
   0   9   5 1135.64 191.914   1
   0   9   5 1203.98 164.911   8
   0   9   6 142.767 64.1415   1
   0   9   6 202.463 83.6630   5
   0  -9  -6 238.184 91.5208   6
   0   9   6 141.162 79.2800   7
   0   9   6 257.333 82.0593   8
   0  10  -5 2764.10 358.130   5
   0  10  -5 2272.97 279.348   2
   0 -10   5 2537.76 297.321   6
   0  10  -5 2300.98 270.647   7
   0 -10   5 3002.22 300.450  11
   0  10  -4 2532.11 274.936   7
   0  10  -4 2276.15 268.892   2
   0  10  -4 2321.58 331.961   5
   0 -10   4 2604.53 274.956  11
   0 -10   4 2136.07 270.061   6
   0  10  -3 409.014 111.885   7
   0 -10   3 662.115 134.599  11
   0  10  -3 454.731 144.421   5
   0 -10   3 442.047 123.712   6
   0  10  -3 447.297 119.888   2
   0  10  -2 337.202 104.430   7
   0  10  -2 223.213 98.9444   5
   0  10  -2 351.018 95.5331   2
   0 -10   2 264.494 88.3905  11
   0 -10   2 333.577 101.827   6
   0  10  -1 967.860 170.662   7
   0  10  -1 936.731 152.448   2
   0  10  -1 974.181 108.040   8
   0 -10   1 920.987 183.741   6
   0  10  -1 852.242 191.851   5
   0 -10   1 920.827 144.620  11
   0  10   0 283.631 63.3052   8
   0 -10   0 289.480 97.5095   6
   0 -10   0 296.319 92.5298  11
   0  10   0 341.524 101.586   7
   0  10   0 218.422 109.120   5
   0  10   1 2459.29 281.031   7
   0  10   1 2542.59 337.459   5
   0  10   1 2332.89 200.476   8
   0 -10  -1 2084.32 217.307  11
   0  10   1 2727.08 291.487   1
   0 -10  -1 2538.57 303.540   6
   0  10   2 457.658 90.3378   8
   0 -10  -2 487.074 132.021   6
   0  10   2 444.791 138.222   5
   0  10   2 550.300 135.786   1
   0 -10  -2 240.857 74.0198  11
   0  10   2 439.553 118.405   7
   0  10   3-27.9901 51.3171   1
   0  10   3 101.835 70.4994   3
   0 -10  -3-35.5149 58.9331   6
   0  10   3 29.0413 27.6344   8
   0 -10  -3 4.02915 25.7101  11
   0  10   3 15.3226 24.0776   7
   0  10   4-50.7598 51.1804   8
   0 -10  -4 13.6463 16.6195  11
   0  10   4 57.1092 51.1193   1
   0  10   4-21.9616 39.0974   5
   0  10   4-10.2034 20.0653   7
   0  10   4 30.9642 42.1739   3
   0  11  -3-3.75999 43.2371   2
   0 -11   3 0.31268 29.1925   6
   0  11  -3 32.4024 32.8864   7
   0 -11   2 44.4322 44.1913   6
   0  11  -2-24.5602 46.0810   2
   0  11  -2 75.0064 64.5847   5
   0 -11   2-9.90859 29.0305  11
   0  11  -2 42.6648 41.4447   7
   0 -11   1 366.703 111.707   6
   0  11  -1 377.658 132.019   5
   0 -11   1 299.839 91.7514  11
   0  11  -1 578.731 140.351   7
   0 -11   0 175.322 67.6596  11
   0 -11   0 233.344 93.2080   6
   0  11   0 366.346 111.750   7
   0  11   0 218.990 121.216   5
   0  11   1-64.7182 62.7243   5
   0 -11  -1-7.29406 16.5796  11
   0  11   1 32.3352 16.2061   8
   0  11   1 47.9067 61.4538   1
   0 -11  -1 44.9520 21.6366   6
   0  11   1 3.17751 25.7405   7
  -1  11   2 313.955 121.238   5
   1 -11  -2 122.476 59.4482  11
  -1  11   2 335.430 107.610   7
  -1  11   2 166.576 78.6370   1
   1 -11  -2 186.303 88.9607   6
   1 -11  -1 508.616 117.919  11
  -1  11   1 751.473 153.007   1
   1 -11  -1 840.811 184.722   6
  -1  11   1 732.586 162.553   7
  -1  11   1 641.203 182.990   5
  -1  11   1 697.968 115.269   8
  -1  11   0 7.05679 31.5189   7
  -1  11   0-3.46713 17.4237   8
  -1  11   0-25.9040 25.7884   2
   1 -11   0 24.7316 39.7519   6
   1 -11   0-7.57040 22.1961  11
  -1  11  -1 63.7461 42.8026   2
   1 -11   1 103.229 49.3808  11
  -1  11  -1-53.9071 67.4148   5
  -1  11  -1 41.1501 34.7567   7
   1 -11   1 108.977 62.8743   6
   1 -11   2 160.814 75.8983   6
  -1  11  -2 229.378 78.1641   7
  -1  11  -2 159.420 81.2679   5
   1 -11   2 146.573 56.4297  11
  -1  11  -2 151.512 63.2959   2
  -1  11  -3 116.080 27.9932   7
   1 -11   3 217.247 76.8783   6
  -1  11  -3 147.828 64.9051   2
   1 -11   3 292.584 95.6580  11
  -1  11  -3 314.739 133.422   5
  -1  10   5-52.2102 41.5632   1
  -1  10   5-131.068 74.4840   5
  -1  10   4 279.504 110.154   5
   1 -10  -4 145.918 61.5810  11
  -1  10   4 373.922 110.060   1
  -1  10   4 300.764 78.8439   8
   1 -10  -4 371.382 117.658   6
  -1  10   4 502.020 131.453   7
  -1  10   3 936.136 189.534   5
  -1  10   3 1097.42 183.745   1
  -1  10   3 1274.32 160.604   8
   1 -10  -3 516.564 107.639  11
   1 -10  -3 1393.30 233.237   6
  -1  10   3 1099.18 191.107   7
  -1  10   2 2415.10 280.928   7
   1 -10  -2 1639.96 189.026  11
   1 -10  -2 2739.69 313.307   6
  -1  10   2 2253.69 311.675   5
  -1  10   2 2146.41 203.819   8
  -1  10   2 2193.81 253.139   1
   1 -10  -1 41.8681 16.3554  11
  -1  10   1 87.8872 78.4269   5
   1 -10  -1 45.0748 29.1394   6
  -1  10   1 37.4675 30.4200   8
  -1  10   1 10.4993 28.6817   1
  -1  10   1 88.8151 55.6437   7
   1 -10   0 578.568 140.969   6
  -1  10   0 425.251 109.872   2
   1 -10   0 636.952 126.546  11
  -1  10   0 683.107 142.802   7
  -1  10   0 674.479 169.486   5
  -1  10   0 716.253 105.465   8
  -1  10  -1 136.200 75.3763   5
  -1  10  -1 55.4103 26.1106   8
   1 -10   1 113.772 55.8657  11
   1 -10   1 127.279 71.6170   6
  -1  10  -1 82.9525 55.2265   7
  -1  10  -1 62.3613 39.2833   2
  -1  10  -2 44.1846 35.5667   2
  -1  10  -2 0.22346 43.0145   7
   1 -10   2 22.6494 30.8187   6
  -1  10  -2 68.1232 28.5955   8
   1 -10   2 78.9154 43.7875  11
  -1  10  -2-16.0305 47.6485   5
   1 -10   3 705.278 132.693  11
  -1  10  -3 636.833 132.139   7
   1 -10   3 513.716 122.114   6
  -1  10  -3 578.495 163.416   5
  -1  10  -3 469.239 113.634   2
  -1  10  -4 70.6849 50.0826   7
   1 -10   4 15.4141 34.9321  11
  -1  10  -4 37.4779 64.2137   5
   1 -10   4 27.1164 38.8235   6
  -1  10  -4 48.0178 37.8404   2
   1 -10   5 46.7242 41.7796  11
  -1  10  -5 103.179 68.0103   5
   1 -10   5 90.2003 55.0041   6
  -1  10  -5 60.0250 47.1224   2
  -1  10  -5 16.8377 33.6167   7
  -1   9   6 125.507 56.6713   8
  -1   9   6 84.1452 72.9830   7
   1  -9  -6 85.3330 55.0823   6
  -1   9   6-32.7171 44.4570   5
  -1   9   6 6.64716 37.2684   1
   1  -9  -5 574.608 138.533   6
  -1   9   5 431.947 125.350   5
  -1   9   5 715.945 156.185   7
  -1   9   5 475.495 103.353   8
   1  -9  -5 162.578 52.7982  11
  -1   9   5 669.236 140.031   1
  -1   9   4 4.73551 26.4720   8
  -1   9   4 97.6693 66.5436   7
  -1   9   4-46.8514 41.9456   1
  -1   9   4 45.2180 41.9409   5
   1  -9  -4 4.33225 18.9709  11
   1  -9  -4 6.75393 31.1783   6
  -1   9   3 2012.30 245.695   7
  -1   9   3 1969.23 267.940   5
  -1   9   3 1977.10 192.908   8
   1  -9  -3 2019.56 261.444   6
   1  -9  -3 1554.88 165.325  11
  -1   9   3 1768.11 220.935   1
   1  -9  -2 438.699 121.557   6
  -1   9   2 464.256 86.1674   8
  -1   9   2 311.025 93.5944   7
   1  -9  -2 293.480 71.2694  11
  -1   9   2 236.054 92.4211   5
  -1   9   2 383.159 99.9554   1
  -1   9   1 2046.03 284.102   5
  -1   9   1 1891.51 220.215   1
  -1   9   1 1294.86 166.484   2
   1  -9  -1 2096.58 252.855   6
   1  -9  -1 2073.88 194.407  11
   1  -9  -1 904.597 118.445   2
  -1   9   1 2213.13 242.106   7
  -1   9   1 2099.89 179.480   8
   1  -9   0-26.9814 35.7513  11
   1  -9   0-0.93592 39.2555   6
  -1   9   0-14.8603 44.4262   5
   1  -9   0-0.65761 14.5549   2
  -1   9   0 28.5631 25.9051   2
  -1   9   0 44.4454 28.7696   8
  -1   9   0 18.8366 17.6886   7
  -1   9  -1 25.0902 17.2043   5
   1  -9   1-8.84960 22.5949  11
  -1   9  -1-17.0244 27.1426   2
   1  -9   1-14.5695 18.8238   6
  -1   9  -1 9.14940 21.0003   7
  -1   9  -1-12.1318 12.9642   8
  -1   9  -2 701.947 84.5988   8
   1  -9   2 659.691 120.539  11
   1  -9   2 499.466 118.925   6
  -1   9  -2 754.292 131.923   7
  -1   9  -2 667.098 157.235   5
  -1   9  -2 707.380 118.316   2
  -1   9  -3-4.17918 14.9559   7
   1  -9   3-6.06727 32.1118  11
  -1   9  -3 0.61683 29.0798   5
   1  -9   3 26.9577 40.0686   6
  -1   9  -3 28.6459 18.3364   8
  -1   9  -3 75.6915 42.1512   2
  -1   9  -4 361.352 119.428   5
   1  -9   4 220.194 81.0568   6
   1  -9   4 364.629 90.9573  11
  -1   9  -4 305.262 85.4596   7
  -1   9  -4 380.275 96.1356   2
  -1   9  -5 3215.72 282.012   7
   1  -9   5 3318.78 307.143   6
  -1   9  -5 3245.67 313.425   2
  -1   9  -5 3478.89 375.086   5
   1  -9   5 3896.56 325.373  11
   1  -9   6 2071.79 240.397  11
   1  -9   6 1666.11 218.837   6
  -1   9  -6 1734.05 265.780   5
  -1   9  -6 1259.01 173.503   7
  -1   9  -6 1722.74 227.897   2
  -1   9  -7 1279.50 204.493   2
   1  -9   7 1237.87 177.850   6
   1  -9   7 1126.60 181.618  11
  -1   9  -7 1117.20 213.101   5
  -1   9  -7 527.233 112.265   7
   1  -8  -7 50.5915 41.7607   6
  -1   8   7 83.7943 64.1331   5
  -1   8   7 111.182 62.4070  10
  -1   8   7 24.4926 21.4040   1
  -1   8   7 66.0523 33.5673   8
  -1   8   7-66.7365 58.7982   7
   1  -8  -6-9.69362 32.7356   6
  -1   8   6 53.8130 33.8009   8
  -1   8   6 70.9898 42.4013   7
  -1   8   6 75.3072 43.2699   1
  -1   8   6 79.7791 52.5776   5
  -1   8   5 112.015 62.3998   5
  -1   8   5 140.848 60.2866   1
  -1   8   5 146.146 51.6440   8
   1  -8  -5 94.8259 35.9661  11
  -1   8   5 210.655 88.0222   7
  -1   8   4 230.635 86.8125   5
  -1   8   4 181.899 55.7642   8
  -1   8   4 145.319 50.6093   3
  -1   8   4 191.569 72.0362   7
   1  -8  -4 153.727 44.6839  11
  -1   8   4 152.273 63.2091   1
  -1   8   3 54.2006 44.8565   7
  -1   8   3 37.1536 28.3905   1
  -1   8   3-41.7415 47.8262   5
  -1   8   3 83.4220 41.6736   8
  -1   8   3 0.30118 10.4959   3
   1  -8  -3 6.88207 5.63354   2
   1  -8  -3 29.7433 25.5764  11
   1  -8  -2 21.1338 11.6329   2
   1  -8  -2 18.3422 13.2860  11
  -1   8   2 84.2675 41.8554   7
  -1   8   2 16.4149 17.3682   5
  -1   8   2 60.9926 36.9795   1
  -1   8   2 73.2423 33.6462   8
   1  -8  -1 16.1419 10.1852   2
  -1   8   1 28.4701 15.8541   8
   1  -8  -1-66.0216 50.4907   6
  -1   8   1 75.4050 42.5863   7
   1  -8  -1 42.3361 38.8014  11
  -1   8   1 39.9968 36.3873   5
   1  -8   0 417.355 81.8973  11
   1  -8   0 334.853 69.8030   2
  -1   8   0 460.262 74.8392   8
  -1   8   0 263.180 67.2962   2
  -1   8   0 425.845 94.1789   7
   1  -8   0 345.696 89.7514   6
  -1   8   0 439.013 120.182   5
  -1   8  -1 134.022 43.0845   2
   1  -8   1 150.745 48.6714  11
  -1   8  -1 132.641 54.9439   7
  -1   8  -1 154.601 70.6027   5
  -1   8  -1 106.879 32.1261   8
   1  -8   1 167.322 51.7040   2
   1  -8   1 141.017 63.2990   6
   1  -8   2-12.9579 28.6860  11
  -1   8  -2 16.1535 15.0821   8
  -1   8  -2 7.96214 25.0037   7
  -1   8  -2 2.79714 17.5389   2
   1  -8   3 3217.67 270.294  11
  -1   8  -3 3720.15 355.890   5
  -1   8  -3 3788.04 189.712   8
   1  -8   3 3462.15 292.576   6
  -1   8  -3 3578.35 280.505   2
  -1   8  -3 3576.32 281.001   7
   1  -8   4 359.818 88.1077  11
  -1   8  -4 416.002 98.9225   2
  -1   8  -4 386.046 114.701   5
   1  -8   4 326.076 96.3368   6
  -1   8  -4 416.665 91.8072   7
  -1   8  -4 540.997 56.8454   8
  -1   8  -5 239.349 74.3158   7
   1  -8   5 350.709 87.5395  11
  -1   8  -5 281.801 35.1515   8
  -1   8  -5 280.727 84.0020   2
   1  -8   5 222.200 77.4627   6
   1  -8   5 385.830 77.5445  10
  -1   8  -5 366.329 109.408   5
  -1   8  -6 5328.73 398.228   2
   1  -8   6 5140.28 372.211  11
  -1   8  -6 4358.42 324.323   7
  -1   8  -6 5283.13 425.749   5
   1  -8   6 4713.13 351.910   6
   1  -8   7-17.0389 33.2586  11
   1  -8   7-1.43322 26.7484   6
  -1   8  -7 24.4085 44.4460   5
  -1   8  -7 30.0854 27.0698   7
  -1   8  -7-30.6625 35.5036   2
   1  -8   8 45.6302 43.6400  11
  -1   8  -8 67.8580 43.8743   2
  -1   8  -8 163.769 74.2783   5
  -1   8  -8 87.1320 51.0845   7
   1  -7  -8 1112.30 177.494   6
  -1   7   8 1023.44 163.717   5
  -1   7   8 1020.50 179.074  10
  -1   7   8 1091.51 163.086   8
   1  -7  -8 1096.41 186.363   4
  -1   7   7 845.929 136.004   8
  -1   7   7 891.362 157.299   1
  -1   7   7 1110.95 178.494  10
  -1   7   7 1015.57 185.167   7
  -1   7   7 801.523 149.038   5
  -1   7   6 130.263 55.5059   5
  -1   7   6 111.705 53.1452   1
   1  -7  -6 95.5330 24.8358  11
  -1   7   6 162.508 59.7115   8
  -1   7   6 201.879 76.1398   7
  -1   7   6 165.417 72.7048  10
  -1   7   5 4.12016 31.8691   5
   1  -7  -5 33.1266 12.3590  11
  -1   7   5 90.9423 42.8959   8
  -1   7   5 33.5951 36.0916  10
  -1   7   5 28.1368 22.4711   3
  -1   7   5 28.1112 20.4063   7
  -1   7   5 52.5110 25.9898   1
  -1   7   4 11.6834 13.2855   3
  -1   7   4 0.39197 18.4674   8
  -1   7   4 14.6355 21.1346  10
  -1   7   4-9.67087 22.1261   1
  -1   7   4 37.7764 42.0559   7
  -1   7   4 51.5065 50.4721   5
   1  -7  -4 2.16419 15.0589  11
  -1   7   3 23245.5 836.158   3
  -1   7   3 24795.9 1003.76   5
  -1   7   3 24172.4 907.945   1
   1  -7  -3 24320.5 786.772  11
  -1   7   3 25900.3 949.071   7
  -1   7   3 24661.1 837.191   8
   1  -7  -3 21350.4 662.660   2
  -1   7   2 1247.54 141.498   3
   1  -7  -2 1042.37 90.9232   2
  -1   7   2 1213.94 183.825   5
   1  -7  -2 1129.94 117.785  11
  -1   7   2 1254.57 159.849   7
  -1   7   2 1175.14 153.953   1
  -1   7   2 1265.40 131.624   8
  -1   7   1 76.2395 32.8789   5
  -1   7   1 162.482 43.3949   2
   1  -7  -1 336.243 64.2825  11
  -1   7   1 133.381 49.9909   3
   1  -7  -1 156.561 42.5123   2
  -1   7   1 184.439 56.3113   7
  -1   7   1 200.561 48.7730   8
  -1   7   0 81.3417 29.6222   8
   1  -7   0 72.1114 34.8228  11
  -1   7   0 121.034 59.5621   5
  -1   7   0 153.424 54.4463   7
   1  -7   0 82.2457 27.9827   2
  -1   7  -1 3540.04 264.093   7
   1  -7   1 3677.24 260.240  10
   1  -7   1 3628.88 284.898   6
   1  -7   1 3774.41 252.547  11
  -1   7  -1 3695.24 336.875   5
  -1   7  -1 4252.33 214.041   8
   1  -7   1 3113.50 227.781   2
  -1   7  -1 3660.09 239.543   2
   1  -7   2 564.056 109.762   6
   1  -7   2 566.159 96.2144   2
  -1   7  -2 612.475 131.409   5
  -1   7  -2 639.167 102.315   2
  -1   7  -2 633.434 70.9084   8
   1  -7   2 666.786 101.595  11
   1  -7   2 612.185 94.3223  10
  -1   7  -2 634.333 103.033   7
  -1   7  -3 53.6148 60.2406   5
  -1   7  -3 81.0147 37.2166   7
   1  -7   3 48.6399 19.1697  11
  -1   7  -3 77.2111 24.2985   8
  -1   7  -3 58.9513 34.7055   2
   1  -7   3 25.3285 23.4293   6
   1  -7   3 125.178 45.8368  10
   1  -7   4 936.989 117.500  10
   1  -7   4 886.058 127.843   6
  -1   7  -4 945.704 129.756   7
  -1   7  -4 884.516 157.079   5
  -1   7  -4 949.759 77.1110   8
   1  -7   4 908.075 132.945  11
  -1   7  -4 1028.40 144.954   2
   1  -7   5 1238.87 159.546   6
   1  -7   5 1236.50 134.146  10
  -1   7  -5 1468.82 88.0121   8
  -1   7  -5 1284.87 191.371   5
   1  -7   5 1354.11 163.903  11
  -1   7  -5 1351.48 177.662   2
  -1   7  -5 1300.30 152.679   7
  -1   7  -6 121.656 52.3585   7
  -1   7  -6 22.5016 8.41353   8
  -1   7  -6 119.855 21.1983   8
   1  -7   6 142.772 55.0030  11
   1  -7   6 83.0226 53.6054   6
   1  -7   6 136.960 42.3896  10
  -1   7  -6 77.7480 49.9299   5
  -1   7  -6 135.044 59.7572   2
  -1   7  -7-7.69922 27.1438   5
  -1   7  -7 43.3894 36.8644   7
   1  -7   7-10.0213 28.8188   6
   1  -7   7 53.7167 41.9540  11
  -1   7  -7-66.9161 48.4094   2
  -1   7  -8 84.7278 44.9422   7
   1  -7   8 88.9636 36.5881  11
  -1   7  -8 5.26704 24.2154   5
  -1   7  -8 141.904 76.8058   2
   1  -7   9 197.099 74.8514  11
  -1   7  -9 418.976 116.854   2
   1  -7   9 279.624 81.7859   9
  -1   7  -9 123.062 59.8146   7
  -1   6   9 1112.72 185.870  10
  -1   6   9 1254.72 176.503   8
   1  -6  -9 1202.50 171.792   6
   1  -6  -9 1531.22 218.681   4
  -1   6   8 3973.11 305.771   5
  -1   6   8 3729.82 333.080  10
  -1   6   8 4019.40 315.057   8
   1  -6  -8 4072.40 351.790   4
  -1   6   7 15.0578 32.1800   5
  -1   6   7-11.6696 24.8368  10
   1  -6  -7 53.4215 39.7427   4
  -1   6   7 7.91184 39.0547   7
  -1   6   7 3.57525 15.6994   8
  -1   6   6 406.874 61.3661   3
   1  -6  -6 370.028 43.0706  11
   1  -6  -6 371.807 91.9659   4
  -1   6   6 428.927 101.189   7
  -1   6   6 428.428 107.159  10
  -1   6   6 396.134 94.4438   5
  -1   6   6 381.195 95.9473   1
  -1   6   6 403.519 90.9462   8
  -1   6   5-15.7830 22.6678   3
  -1   6   5-31.5901 24.3132   8
   1  -6  -5 27.4471 13.8275  11
  -1   6   5-50.1274 47.5117   7
  -1   6   5 54.1160 29.2237   5
  -1   6   5-22.8837 15.5549  10
  -1   6   5-6.30559 23.7573   1
   1  -6  -5-22.1688 25.5202   9
  -1   6   4 3492.73 262.969   1
  -1   6   4 3432.90 271.791  10
  -1   6   4 3415.31 275.982   7
  -1   6   4 2935.87 275.563   5
   1  -6  -4 3611.83 223.344   9
   1  -6  -4 2860.86 179.731  11
  -1   6   4 3520.67 217.495   3
  -1   6   4 3597.55 240.148   8
   1  -6  -3 6803.83 253.720   2
   1  -6  -3 9338.58 359.679  11
  -1   6   3 9260.86 461.583   7
  -1   6   3 9243.51 452.913  10
  -1   6   3 9753.19 454.224   1
  -1   6   3 9817.80 510.291   5
   1  -6  -3 10341.5 544.730   5
  -1   6   3 9463.66 405.169   8
  -1   6   3 9082.72 396.551   3
   1  -6  -2 11185.1 384.527   2
   1  -6  -2 10573.0 432.939  11
  -1   6   2 10660.3 473.987   3
  -1   6   2 11367.7 530.122   7
   1  -6  -2 11955.6 519.550   7
  -1   6   2 12574.9 605.382   5
   1  -6  -2 12214.5 617.628   5
  -1   6   2 11923.7 469.665   8
  -1   6   2 11488.1 515.935  10
  -1   6   2 11039.1 399.842   2
   1  -6  -2 11482.9 520.648  10
  -1   6   2 11538.6 509.598   4
  -1   6   2 11695.4 517.632   1
  -1   6   1 1456.93 150.229   7
   1  -6  -1 1086.33 168.506   5
   1  -6  -1 1406.53 148.157  10
  -1   6   1 1263.60 139.663   3
  -1   6   1 1445.01 145.922   4
  -1   6   1 1331.66 178.072   5
  -1   6   1 1204.65 105.548   2
  -1   6   1 1228.83 116.153   8
   1  -6  -1 1333.41 121.570  11
   1  -6  -1 1209.05 101.970   2
   1  -6  -1 1586.76 158.179   7
  -1   6   0 328.499 57.8324   2
   1  -6   0 406.386 103.574   5
  -1   6   0 393.397 59.3175   8
   1  -6   0 374.320 60.4740   2
  -1   6   0 343.556 71.1262   7
   1  -6   0 394.570 68.8214  11
   1  -6   0 440.277 78.0062  10
   1  -6   0 460.521 83.5462   7
  -1   6  -1 11.2604 22.3941   5
   1  -6   1 47.6497 30.6773  10
   1  -6   1 37.1929 19.4006   7
  -1   6  -1 16.3120 16.2311   7
   1  -6   1 12.4616 12.6502   2
   1  -6   1-2.00713 22.6654   5
  -1   6  -1 26.2219 13.9894   8
   1  -6   1 11.2589 18.6509  11
   1  -6   2 1718.48 169.244   7
   1  -6   2 1496.93 157.943   6
   1  -6   2 1546.61 146.726  10
   1  -6   2 1592.01 201.490   5
  -1   6  -2 1527.83 151.284   7
  -1   6  -2 1738.79 111.377   8
  -1   6  -2 1644.90 198.345   5
   1  -6   2 1584.24 149.047  11
   1  -6   2 1566.04 149.410   2
  -1   6  -2 1635.13 152.573   2
  -1   6  -3 1404.67 100.328   8
   1  -6   3 1373.80 154.336   6
   1  -6   3 1570.01 155.233  11
   1  -6   3 1611.72 162.419   2
  -1   6  -3 1669.48 164.209   2
   1  -6   3 1586.86 169.975   7
   1  -6   3 1638.72 144.077  10
   1  -6   3 1647.68 206.445   5
  -1   6  -3 1612.79 152.388   7
  -1   6  -3 1623.63 198.408   5
  -1   6  -4 5565.45 378.609   5
  -1   6  -4 5184.34 328.749   2
   1  -6   4 5359.60 277.976  10
   1  -6   4 3935.49 284.989   6
   1  -6   4 4853.52 301.944  11
  -1   6  -4 5499.49 307.334   7
   1  -6   5 13425.7 522.175  10
  -1   6  -5 14006.5 631.514   2
   1  -6   5 13499.8 588.988  11
  -1   6  -5 14229.4 582.614   7
  -1   6  -5 13646.9 660.719   5
   1  -6   6 27203.3 931.798  11
  -1   6  -6 26945.1 902.999   7
  -1   6  -6 27667.2 995.324   2
  -1   6  -6 26786.0 994.172   5
  -1   6  -7 5856.53 402.874   2
   1  -6   7 5766.00 358.618  11
  -1   6  -7 5126.66 212.094   8
  -1   6  -7 5986.95 390.055   5
  -1   6  -7 5365.90 337.541   7
   1  -6   8 1040.63 113.578   6
  -1   6  -8 1222.01 186.420   2
   1  -6   8 1171.29 152.377  11
  -1   6  -8 1389.81 176.857   5
   1  -6   8 1046.63 153.401   9
  -1   6  -8 749.458 119.870   7
   1  -6   9 1303.20 165.272  11
  -1   6  -9 1891.98 236.322   2
   1  -6   9 1155.24 175.627   9
   1  -6  10 1477.62 184.834  11
   1  -6  10 1372.81 204.325   9
  -1   6 -10 1658.44 236.025   2
  -1   5  10 100.038 49.4505   8
  -1   5  10 31.6446 24.1934  10
   1  -5 -10 50.0612 37.8638   4
  -1   5   9 15.2059 29.5561  10
  -1   5   9-20.0799 41.9071   8
   1  -5  -9-2.65037 26.0761   4
  -1   5   8 751.820 136.108  10
  -1   5   8 681.399 118.943   8
   1  -5  -8 621.754 131.137   4
  -1   5   7 973.297 151.587  10
   1  -5  -7 1054.28 157.710   4
  -1   5   7 1180.42 149.690   8
   1  -5  -6 4.18607 3.74799  11
  -1   5   6 19.7067 9.28297   3
   1  -5  -6 12.6085 17.1126   9
  -1   5   6-5.90401 18.5806   8
   1  -5  -6 6.90877 4.44084  11
  -1   5   6 1.67975 15.9411  10
  -1   5   6 60.6860 38.8098   1
   1  -5  -6-0.16881 14.0155   4
  -1   5   6-2.96809 31.2761   7
   1  -5  -5 428.350 46.6919  11
  -1   5   5 613.888 110.303  10
  -1   5   5 534.816 88.2337   8
  -1   5   5 432.968 94.4766   1
  -1   5   5 369.229 56.5472   3
   1  -5  -5 518.406 97.3721   4
  -1   5   5 369.999 86.6516   7
   1  -5  -5 495.078 73.3767   9
  -1   5   4 3317.84 217.555   8
  -1   5   4 2854.41 179.785   3
  -1   5   4 3202.69 238.994   1
  -1   5   4 3174.49 239.023   4
  -1   5   4 3723.50 257.891  10
   1  -5  -4 3420.86 225.951   8
   1  -5  -4 2794.79 152.413  11
   1  -5  -4 2995.76 190.480   9
  -1   5   4 3058.27 242.278   7
  -1   5   3 15274.3 555.243   3
  -1   5   3 15270.0 579.057   8
  -1   5   3 15487.0 621.441   4
  -1   5   3 15721.0 634.579   7
   1  -5  -3 15231.8 695.320   5
   1  -5  -3 15462.0 632.475  10
   1  -5  -3 16999.7 597.529   8
   1  -5  -3 15774.4 522.066  11
  -1   5   2 53331.5 1476.88   8
  -1   5   2 54496.7 1536.62   4
   1  -5  -2 51006.0 1434.73  11
   1  -5  -2 53405.9 1650.29   5
  -1   5   2 50996.1 1481.73   3
   1  -5  -2 49142.2 1368.78   2
   1  -5  -2 52292.5 1542.98  10
  -1   5   2 53756.5 1552.55   7
  -1   5   1-4.48451 22.9459   4
  -1   5   1-12.6133 19.0296   8
  -1   5   1 5.78799 26.0438  10
   1  -5  -1 72.0532 33.8547   5
   1  -5  -1 21.7163 12.4225  11
   1  -5  -1 37.8420 17.7226   2
  -1   5   1 29.6338 23.9236   7
  -1   5   1 7.42113 16.7556   3
   1  -5  -1 52.9421 30.7584  10
  -1   5   1 28.4649 17.0684   2
  -1   5   0 32925.0 1038.26   7
   1  -5   0 30337.0 997.701  11
  -1   5   0 30949.1 969.191   2
  -1   5   0 33603.1 969.073   8
   1  -5   0 33370.5 978.658   2
   1  -5   0 35809.5 1189.31   5
   1  -5   0 33513.6 1037.12  10
  -1   5  -1 23890.1 772.365   7
  -1   5  -1 20103.3 720.470   2
   1  -5   1 21086.8 743.410  10
  -1   5  -1 23093.4 687.256   8
   1  -5   1 24220.0 906.710   5
   1  -5   1 23399.2 745.226   2
   1  -5   1 22470.4 749.549  11
   1  -5   2 24.9071 19.2773  10
   1  -5   2 14.8761 12.2011   2
   1  -5   2-23.6310 27.5384  11
  -1   5  -2 11.5016 16.6467   7
   1  -5   2-26.8232 37.1006   5
  -1   5  -2-14.5045 15.2892   5
  -1   5  -3 6034.85 304.416   7
   1  -5   3 6491.09 291.169  10
   1  -5   3 6032.41 312.409  11
   1  -5   3 6079.04 385.755   5
   1  -5   3 5957.59 332.423   2
  -1   5  -3 6273.56 379.044   5
  -1   5  -3 6286.54 331.836   2
  -1   5  -4 194.531 54.4899   2
  -1   5  -4 150.224 54.7217   5
  -1   5  -4 221.038 58.9338   7
   1  -5   4 126.299 37.9795  11
   1  -5   4 188.029 58.2380   2
   1  -5   4 106.497 41.1257   6
   1  -5   5 748.190 95.1173   6
  -1   5  -5 631.076 121.288   5
   1  -5   5 689.712 101.190  11
  -1   5  -5 852.909 123.602   2
  -1   5  -5 784.176 103.460   7
  -1   5  -6 13866.0 619.553   5
   1  -5   6 13737.5 518.716   6
   1  -5   6 13163.0 563.499  11
  -1   5  -6 13192.1 563.850   7
  -1   5  -6 12767.0 434.887   8
  -1   5  -6 14518.5 632.564   2
  -1   5  -7 1401.06 156.993   7
  -1   5  -7 1680.66 183.047   5
   1  -5   7 1543.89 167.703  11
  -1   5  -7 1688.69 196.621   2
   1  -5   7 1704.00 136.377   6
  -1   5  -7 1673.52 111.989   8
  -1   5  -8 26.4582 13.2676   5
  -1   5  -8-28.6024 30.4013   7
  -1   5  -8 12.4914 12.5008   8
   1  -5   8-3.11175 17.6573   9
   1  -5   8 7.10003 12.0310  11
   1  -5   8-11.5871 11.8862   6
  -1   5  -8 20.0688 22.5505   2
  -1   5  -9 787.645 126.470   7
   1  -5   9 989.886 141.523  11
  -1   5  -9 1202.03 185.072   2
   1  -5   9 1033.56 161.806   9
   1  -5  10 67.1089 47.4409  11
   1  -5  10 68.4785 45.3282   9
  -1   5 -10-27.4749 18.9214   2
  -1   5 -10-7.34837 39.9872   3
  -1   5 -10 27.3287 46.0533   7
  -1   4  10 1142.34 172.319  10
   1  -4 -10 1428.57 213.092   4
  -1   4  10 1438.46 183.465   8
  -1   4   9 145.551 54.5220  10
  -1   4   9 228.634 70.9317   8
   1  -4  -9 292.223 86.2059   4
  -1   4   8 818.207 137.546  10
  -1   4   8 662.565 111.312   8
   1  -4  -8 719.149 133.821   4
  -1   4   8 714.916 92.3552   5
  -1   4   7 2243.11 199.294   8
  -1   4   7 2347.45 222.619  10
  -1   4   7 2049.77 171.726   5
   1  -4  -7 2490.32 240.350   4
  -1   4   6 1574.35 171.563  10
   1  -4  -6 1374.82 164.718   4
   1  -4  -6 1224.87 125.064   9
  -1   4   6 1310.88 137.330   5
  -1   4   6 1321.26 142.149   8
   1  -4  -5 1335.18 132.746   8
  -1   4   5 1057.14 124.301   5
  -1   4   5 1122.10 86.6030   3
  -1   4   5 1264.11 129.327   8
  -1   4   5 1103.90 136.727   1
  -1   4   5 1263.17 147.836   4
   1  -4  -5 1137.28 111.449   9
   1  -4  -5 1266.02 142.395   7
   1  -4  -5 1305.74 153.573   1
  -1   4   5 1215.30 143.329   7
  -1   4   5 1066.16 133.212  10
   1  -4  -5 993.399 55.9107  11
   1  -4  -5 1129.20 140.553   4
  -1   4   4 10796.8 385.481   3
   1  -4  -4 10390.3 342.163  11
  -1   4   4 10996.8 486.138   7
   1  -4  -4 10508.7 469.721   7
  -1   4   4 10981.4 443.043   8
   1  -4  -4 11220.4 486.968   1
   1  -4  -4 10249.0 480.058  10
   1  -4  -4 10995.0 411.436   9
  -1   4   4 9995.54 465.598   5
  -1   4   4 10419.5 474.913   4
  -1   4   3 10129.0 399.658   8
   1  -4  -3 9551.88 433.744  10
  -1   4   3 10112.6 436.728   7
  -1   4   3 9978.41 431.493   4
  -1   4   3 9018.72 448.967   5
   1  -4  -3 9737.74 334.708  11
  -1   4   3 9362.10 362.168   3
  -1   4   2 78565.6 2144.01   7
  -1   4   2 72499.5 2116.09   1
   1  -4  -2 75611.2 2229.62   5
  -1   4   2 76982.9 2123.01   4
  -1   4   2 56614.4 2167.45   5
   1  -4  -2 80787.7 2087.95   8
   1  -4  -2 74730.3 2130.42  10
  -1   4   2 75852.8 2078.95   8
   1  -4  -2 76180.2 2041.93  11
  -1   4   2 76735.6 2080.31   3
  -1   4   2 57670.1 1965.93   2
   1  -4  -2 71592.4 1970.06   2
   1  -4  -1 159053. 4166.81  10
  -1   4   1 155608. 4106.06   8
  -1   4   1 156719. 4163.82   7
  -1   4   1 142008. 4053.26   2
   1  -4  -1 155708. 4100.99  11
  -1   4   1 149603. 4140.85   3
   1  -4  -1 154934. 4275.88   5
   1  -4  -1 154249. 4064.00   2
   1  -4   0 8659.21 351.989  10
  -1   4   0 8886.70 320.184   2
   1  -4   0 8979.45 435.457   5
  -1   4   0 8911.65 358.843   7
   1  -4   0 8261.63 335.966  11
  -1   4   0 8709.28 313.532   8
   1  -4   0 8745.53 325.020   2
  -1   4   0 8055.87 344.315  10
   1  -4   1 44373.0 1265.36   7
   1  -4   1 42786.8 1240.00  10
  -1   4  -1 43109.2 1248.50   7
  -1   4  -1 42544.8 1238.40   2
   1  -4   1 47801.2 1400.78   5
   1  -4   1 42787.7 1242.98  11
   1  -4   1 38367.3 1227.92   2
  -1   4  -2 153.672 34.9644   7
   1  -4   2 137.674 38.8444   2
   1  -4   2 91.7596 39.7337   5
  -1   4  -2 72.0274 39.1519   5
   1  -4   2 147.330 35.7240  10
   1  -4   2 127.272 38.1845   7
   1  -4   2 106.159 34.4146  11
   1  -4   3 16426.1 576.722   6
   1  -4   3 16537.0 587.881  11
  -1   4  -3 17236.1 671.256   5
   1  -4   3 16228.5 620.780   2
  -1   4  -3 16692.1 580.080   7
   1  -4   4 5957.10 277.588   6
   1  -4   4 6638.51 354.064   2
  -1   4  -4 6546.71 351.313   5
   1  -4   4 6186.58 308.665  11
  -1   4  -4 6588.49 308.909   7
  -1   4  -5 20303.4 738.660   7
   1  -4   5 20451.1 796.796   2
   1  -4   5 20686.8 732.820  11
  -1   4  -5 22483.2 788.460   5
  -1   4  -5 21179.9 786.859   2
   1  -4   5 20973.6 685.777   6
   1  -4   6 2758.21 203.384  11
  -1   4  -6 3030.89 221.218   5
   1  -4   6 2615.22 156.363   6
  -1   4  -6 2661.59 149.394   8
  -1   4  -6 2845.30 208.052   7
  -1   4  -6 3132.23 244.401   2
   1  -4   7 770.239 109.739  11
  -1   4  -7 834.180 130.491   2
  -1   4  -7 870.707 83.4236   8
  -1   4  -7 1001.76 128.221   7
  -1   4  -7 964.176 117.398   5
   1  -4   7 959.300 130.771   9
   1  -4   7 875.768 73.9350   6
   1  -4   8 110.969 44.2244  11
   1  -4   8 196.417 62.3053   9
  -1   4  -8 66.7746 35.4720   7
  -1   4  -8 127.911 42.8115   5
  -1   4  -8 125.836 47.6221   2
   1  -4   9 2.55802 21.3557   9
   1  -4   9-26.2150 25.2413  11
  -1   4  -9-19.3622 32.7010   2
  -1   4  -9-5.28439 33.7161   7
   1  -4  10 7595.60 458.483   9
  -1   4 -10 7853.38 533.304   3
  -1   4 -10 7845.38 483.421   2
   1  -4  10 6943.86 366.608  11
   1  -4  11 421.321 111.187   9
  -1   4 -11 436.637 113.681   2
   1  -3 -11 29.4800 39.1361   4
  -1   3  11 23.1761 36.4425  10
  -1   3  11-10.4032 29.7718   8
  -1   3  10 2177.33 221.357   8
  -1   3  10 1780.88 209.196  10
   1  -3 -10 2478.61 276.972   4
   1  -3  -9 32.8317 43.5160   4
   1  -3  -9 38.4983 23.3223   2
  -1   3   9 98.8434 42.8539  10
  -1   3   9 19.6075 22.5306   8
  -1   3   8 673.400 115.172  10
  -1   3   8 838.648 118.440   8
   1  -3  -8 792.132 86.7813   2
   1  -3  -8 780.794 138.795   4
   1  -3  -7 1146.78 154.284   4
   1  -3  -7 959.100 115.551   9
  -1   3   7 1206.47 134.992   8
  -1   3   7 1244.46 148.979  10
   1  -3  -7 953.020 84.1714   2
  -1   3   7 1021.89 95.8465   5
  -1   3   6 658.244 101.844  10
   1  -3  -6 675.762 110.335   4
   1  -3  -6 719.343 109.017   7
  -1   3   6 626.395 79.4750   5
   1  -3  -6 666.116 107.548   1
   1  -3  -6 644.343 85.4819   9
  -1   3   6 540.858 85.2376   8
   1  -3  -6 743.898 60.7196   2
   1  -3  -5 291.324 54.3116   9
  -1   3   5 269.917 62.5231  10
   1  -3  -5 284.774 63.4395   7
   1  -3  -5 154.090 29.2178   2
  -1   3   5 253.487 55.5105   8
  -1   3   5 226.397 48.4507   5
  -1   3   5 203.027 35.0146   3
   1  -3  -5 184.130 52.3909   1
  -1   3   5 310.575 70.1777   4
  -1   3   4 1397.31 136.708   7
   1  -3  -4 1385.55 63.6454  11
  -1   3   4 1334.70 128.876   5
   1  -3  -4 1503.61 139.041   1
  -1   3   4 1558.95 128.655   8
   1  -3  -4 1483.00 111.517   9
  -1   3   4 1505.44 97.2014   3
  -1   3   4 1494.68 143.223   4
   1  -3  -3 12767.2 492.550   1
  -1   3   3 12461.1 505.346   5
  -1   3   3 13500.6 492.236   1
  -1   3   3 13223.5 501.775   7
   1  -3  -3 13038.0 432.266   9
  -1   3   3 13629.5 473.099   8
  -1   3   3 12910.0 496.518   4
   1  -3  -3 12888.7 389.928  11
   1  -3  -3 12088.8 496.696  10
  -1   3   3 13284.4 432.413   3
  -1   3   2 493.712 63.1156   1
  -1   3   2 488.624 66.4781   7
   1  -3  -2 463.967 66.7744  10
  -1   3   2 491.651 58.5063   8
  -1   3   2 465.308 72.9469   5
  -1   3   2 448.549 62.9351   4
   1  -3  -2 506.127 47.5704  11
  -1   3   2 534.111 59.0145   3
   1  -3  -1 7969.66 320.081  10
  -1   3   1 8120.73 311.066   1
  -1   3   1 8079.63 309.225   3
  -1   3   1 7994.31 252.229   2
   1  -3  -1 7469.62 253.622   2
  -1   3   1 8190.95 320.559   7
   1  -3  -1 7697.34 283.385  11
  -1   3   1 8320.00 294.592   8
   1  -3   0 21674.7 652.620  11
  -1   3   0 20999.5 658.628  10
  -1   3   0 19974.1 656.625   7
   1  -3   0 21468.4 751.990   5
   1  -3   0 22248.2 643.680   2
   1  -3   0 21414.8 661.671  10
  -1   3   0 20758.9 682.303   3
  -1   3   0 22582.3 637.729   2
   1  -3   1 25356.4 828.116   5
   1  -3   1 22951.6 729.653   2
  -1   3  -1 24706.4 720.760   7
   1  -3   1 22924.4 722.048   7
   1  -3   1 23336.3 727.212  11
   1  -3   1 24525.7 714.410  10
   1  -3   2 11728.5 421.461   7
  -1   3  -2 11931.4 482.072   5
   1  -3   2 11570.4 420.214  11
   1  -3   2 11605.4 437.813   2
  -1   3  -2 11978.5 405.688   7
   1  -3   2 11575.3 381.295  10
   1  -3   3 449.786 70.0853   2
   1  -3   3 344.109 49.7955   6
   1  -3   3 463.666 63.0911  11
  -1   3  -3 451.151 76.2751   5
  -1   3  -3 336.220 53.9904   7
   1  -3   4 11984.5 437.235  11
   1  -3   4 12171.3 485.062   2
   1  -3   4 10863.7 381.259   6
  -1   3  -4 10743.7 435.689   7
  -1   3  -4 10633.8 462.846   5
   1  -3   5 20110.4 730.053   2
   1  -3   5 18319.2 571.132   6
  -1   3  -5 20082.0 710.151   2
  -1   3  -5 19557.9 668.018   5
  -1   3  -5 17910.3 586.991   8
   1  -3   5 19111.7 650.577  11
   1  -3   6 1840.43 96.9557   6
  -1   3  -6 2069.93 133.702   8
   1  -3   6 2183.16 162.931  11
   1  -3   6 2156.78 180.814   9
   1  -3   6 2202.31 202.094   2
  -1   3  -6 2374.33 200.758   2
  -1   3  -6 2322.36 165.350   5
  -1   3  -7 48.6672 21.1668   5
   1  -3   7 3.22847 10.8617  11
   1  -3   7-8.48650 21.0994   9
  -1   3  -7 48.6854 30.8752   3
  -1   3  -7 19.4109 18.2420   2
   1  -3   8 62.5850 33.6799   9
  -1   3  -8 86.7482 41.5033   3
  -1   3  -8 112.332 48.1107   2
  -1   3  -8 50.1548 22.9994   8
   1  -3   8 67.1488 37.7524  11
  -1   3  -8 71.2757 22.6433   5
   1  -3   9 85.2086 47.8880   9
   1  -3   9 64.3169 21.6771  10
   1  -3   9 32.4879 19.0341  11
  -1   3  -9-10.3195 21.1282   8
  -1   3  -9 35.3703 27.9590   2
  -1   3  -9 17.9908 22.6426   3
  -1   3 -10 110.282 53.3155   2
   1  -3  10 68.1596 34.2921  11
   1  -3  10 50.6916 37.9266   9
  -1   3 -10 11.9665 21.1223   3
   1  -3  11 268.737 81.3695   9
  -1   3 -11 393.883 109.712   2
   1  -2 -11 768.402 156.158   4
  -1   2  11 350.971 94.2376  10
  -1   2  11 436.180 99.7675   8
  -1   2  11 553.280 115.340   9
   1  -2 -10 1258.34 138.460   2
   1  -2 -10 1405.13 202.029   4
  -1   2  10 995.122 145.978  10
  -1   2  10 1311.57 163.994   8
  -1   2  10 1119.55 159.506   9
  -1   2   9 139.545 51.2477  10
   1  -2  -9 189.267 71.3963   4
  -1   2   9 173.540 55.9717   9
  -1   2   9 140.850 51.4828   8
   1  -2  -9 58.9511 30.6457   6
   1  -2  -9 176.787 44.8168   2
  -1   2   8 18.8921 15.4967  10
  -1   2   8 37.0822 20.7013   2
  -1   2   8 48.0504 19.8555   8
  -1   2   8 37.6111 9.72825   9
   1  -2  -8 52.4952 34.1268   4
   1  -2  -8-15.2666 28.6755   6
   1  -2  -8 54.5436 30.5978   2
  -1   2   7 1192.46 129.491   8
  -1   2   7 1039.04 131.456  10
   1  -2  -7 1047.07 95.8974   2
   1  -2  -7 986.281 137.606   4
  -1   2   7 1180.24 128.080   9
  -1   2   7 974.765 97.9972   2
  -1   2   7 901.160 63.3384   5
   1  -2  -6 13430.9 542.115   7
   1  -2  -6 11067.0 346.471   3
  -1   2   6 10541.5 490.655  10
   1  -2  -6 13476.8 559.298   1
   1  -2  -6 11673.3 470.772   9
   1  -2  -6 12808.4 420.869   2
  -1   2   6 11468.1 399.853   5
  -1   2   6 13046.0 486.462   9
   1  -2  -6 13724.5 501.568   8
  -1   2   6 13173.0 495.927   8
  -1   2   6 12679.3 432.618   2
   1  -2  -5 1811.09 159.232   1
   1  -2  -5 1857.10 99.3955   2
   1  -2  -5 1771.29 127.257   9
  -1   2   5 1672.71 108.858   5
  -1   2   5 1773.76 134.874   8
   1  -2  -5 1809.89 79.4908   3
   1  -2  -5 1809.39 155.050   7
  -1   2   5 1774.12 100.378   2
  -1   2   5 1701.16 128.622   9
  -1   2   4 154.927 34.5482   5
  -1   2   4 165.239 28.9490   3
  -1   2   4 164.901 34.3403   9
  -1   2   4 145.891 36.4123   8
   1  -2  -4 134.203 30.2698   9
  -1   2   4 142.295 25.7762   2
   1  -2  -4 139.631 39.4297   1
  -1   2   4 147.610 40.9302   4
   1  -2  -4 142.666 23.5719   3
   1  -2  -4 153.206 23.9390   2
  -1   2   3 34576.6 956.959   3
   1  -2  -3 34195.2 940.381   3
   1  -2  -3 28983.2 894.439  11
   1  -2  -3 33583.7 959.193   9
  -1   2   3 34870.2 1014.35   5
  -1   2   3 34048.1 996.103   8
   1  -2  -3 33885.9 1011.94   1
  -1   2   3 32859.3 1024.88   4
  -1   2   3 34129.5 1025.31   7
   1  -2  -2 63640.1 1740.55   1
  -1   2   2 62880.3 1757.71   7
  -1   2   2 63923.8 1758.43   4
   1  -2  -2 64777.9 1691.43   9
   1  -2  -2 63151.3 1673.25  11
  -1   2   2 61534.2 1726.36   8
   1  -2  -2 64471.6 1709.39   3
  -1   2   2 62753.4 1713.63   3
  -1   2   1 834115. 23383.2   2
  -1   2   1 943169. 23460.1   7
   1  -2  -1 986617. 23476.5  10
   1  -2  -1 961435. 23446.2   3
  -1   2   1 850210. 23442.7   3
  -1   2   1 999999. 23440.2   8
  -1   2   1 951151. 23458.2   4
   1  -2   0 7.54622 8.68077  10
  -1   2   0 12.1808 10.6194   3
   1  -2   0 16.0195 11.3705   2
  -1   2   0-5.36832 6.37343   7
   1  -2   0 4.54153 6.06100  11
   1  -2   1 19594.0 598.570   2
  -1   2  -1 19042.7 563.242   7
  -1   2  -1 19076.4 608.134   3
   1  -2   1 19497.8 558.190  10
   1  -2   1 20612.1 593.179  11
  -1   2  -2 8221.69 278.130   7
   1  -2   2 8031.63 300.120  11
   1  -2   2 7867.93 316.994   2
  -1   2  -2 8164.99 334.865   5
  -1   2  -3 1299.67 108.014   5
   1  -2   3 1310.95 98.3262  11
   1  -2   3 1321.22 115.536   2
  -1   2  -3 1205.62 94.4556  11
   1  -2   4 38620.8 1070.81  11
  -1   2  -4 37196.6 1033.87   8
   1  -2   4 38816.3 1141.52   2
  -1   2  -4 40316.8 1087.10   5
  -1   2  -5 4281.82 251.604   2
  -1   2  -5 4330.89 209.350   5
   1  -2   5 4446.28 267.670   2
  -1   2  -5 4190.16 201.385   8
   1  -2   5 4178.20 214.818  11
   1  -2   6 213.872 55.9989   9
  -1   2  -6 159.531 37.9896   8
   1  -2   6 204.030 43.4841  11
   1  -2   6 221.527 57.7821   2
  -1   2  -6 186.047 48.8342   2
  -1   2  -6 176.923 34.9722   5
  -1   2  -6 198.894 44.9994   3
  -1   2  -7 7448.27 382.065   2
   1  -2   7 6822.58 276.330  10
   1  -2   7 7147.01 312.537  11
  -1   2  -7 5735.96 309.378   3
  -1   2  -7 7554.50 248.982   5
   1  -2   7 7274.27 371.544   9
   1  -2   8 1637.97 174.549   9
  -1   2  -8 1077.00 120.151   8
   1  -2   8 1569.92 133.386  11
  -1   2  -8 975.902 117.818   3
  -1   2  -8 1829.10 184.374   2
   1  -2   8 1567.95 117.034  10
  -1   2  -9 1763.98 167.524   7
  -1   2  -9 913.737 115.832   3
   1  -2   9 1723.79 127.249  10
   1  -2   9 1772.35 144.943  11
  -1   2  -9 1860.58 200.512   2
   1  -2   9 1688.70 193.100   9
  -1   2  -9 779.162 129.910   3
   1  -2  10 299.115 83.8912   9
  -1   2 -10 188.072 64.0048   3
   1  -2  10 233.752 52.6054  11
  -1   2 -10 184.898 68.8394   2
  -1   2 -11 376.746 99.7364   2
   1  -2  11 320.424 94.7922   9
   1  -1 -11-22.0559 37.6893   2
   1  -1 -11-48.3124 49.7208   4
  -1   1  11 7.08418 25.2756  10
  -1   1  11-7.72522 22.7839   9
   1  -1 -10 3370.95 249.052   2
  -1   1  10 2959.25 245.878   8
  -1   1  10 2749.16 240.259  10
   1  -1 -10 3248.73 307.698   4
  -1   1  10 3211.36 269.193   9
   1  -1  -9 93.7665 43.6941   2
  -1   1   9 22.5832 12.9167  10
   1  -1  -9 15.8064 10.8630   3
   1  -1  -9 54.7343 37.1950   6
  -1   1   9-23.3283 29.5593   9
  -1   1   9 57.1379 31.0286   8
  -1   1   9 69.7046 32.1745   2
   1  -1  -9 65.7558 42.3700   4
   1  -1  -9 18.1749 6.22690   3
   1  -1  -8 1159.03 125.451   6
   1  -1  -8 1758.59 149.335   2
  -1   1   8 1553.33 160.561   9
   1  -1  -8 1698.67 188.533   4
  -1   1   8 1583.91 162.382  10
  -1   1   8 1642.81 155.385   8
  -1   1   8 1509.16 146.115   2
   1  -1  -8 1383.16 94.1179   3
   1  -1  -7-7.85763 17.4594   8
  -1   1   7 6.13871 12.1394   2
   1  -1  -7-26.0270 26.9866   7
  -1   1   7-13.5452 25.2236   9
  -1   1   7-0.09811 16.2567   8
   1  -1  -7 16.8077 23.9343   4
   1  -1  -7 14.0995 14.9832   2
  -1   1   7-0.96161 12.4397  10
   1  -1  -7 5.83105 14.3256   6
   1  -1  -7-12.7748 12.9878   3
   1  -1  -6 12.6509 17.0701   2
  -1   1   6-3.17876 9.23714   8
   1  -1  -6-9.38117 19.5086   7
   1  -1  -6-13.9320 16.3634   6
  -1   1   6 3.75985 14.0943   2
   1  -1  -6 17.5760 11.8554   3
   1  -1  -6 33.9556 22.3437   8
   1  -1  -6 12.6403 20.1759   1
  -1   1   6 3.36245 20.1381   9
   1  -1  -5 19951.4 528.471   2
   1  -1  -5 16906.4 537.607   8
  -1   1   5 20378.4 539.448   2
   1  -1  -5 19226.1 614.081   7
   1  -1  -5 17893.7 568.600   6
  -1   1   5 20501.2 571.801   9
   1  -1  -5 19501.4 622.666   1
  -1   1   5 20670.0 571.963   8
   1  -1  -5 20411.0 510.508   3
   1  -1  -4 31945.4 882.288   2
   1  -1  -4 32374.1 965.950   7
   1  -1  -4 30028.4 958.244   1
  -1   1   4 31338.4 919.349   8
  -1   1   4 32831.1 916.891   9
   1  -1  -4 32005.4 882.217   3
  -1   1   4 31110.5 900.216   3
  -1   1   4 32381.0 881.246   2
   1  -1  -3 2003.20 99.3562   2
  -1   1   3 1812.28 91.7269   2
  -1   1   3 1978.29 109.430   9
  -1   1   3 2172.56 120.189   8
   1  -1  -3 1956.75 108.355   9
  -1   1   3 1952.18 130.631   4
   1  -1  -3 2058.84 106.455   3
  -1   1   3 2178.92 116.036   3
   1  -1  -3 1817.27 124.275   1
  -1   1   2 5082.06 188.764   3
  -1   1   2 4935.91 164.959   9
   1  -1  -2 4399.05 185.281   1
  -1   1   2 4340.69 140.657  11
   1  -1  -2 3985.79 141.599  11
   1  -1  -2 4418.45 163.856   2
  -1   1   2 4914.87 183.021   8
  -1   1   2 4587.26 151.977   2
  -1   1   2 4799.65 197.665   4
   1  -1  -2 4465.50 160.802   9
   1  -1  -2 4964.92 180.583   3
  -1   1   1 6206.84 221.054   4
   1  -1  -1 6314.46 199.129  11
  -1   1   1 6720.55 229.741   7
   1  -1  -1 6281.22 204.296   1
  -1   1   0 66565.4 1755.70   7
   1  -1   1 161505. 4232.00   2
   1  -1   1 171573. 4221.70  11
   1  -1   2 180.742 28.1082  11
   1  -1   2 221.356 36.3320   2
  -1   1  -2 209.815 32.2312   3
  -1   1  -2 199.196 29.9518  11
  -1   1  -3 58452.8 1585.90  11
   1  -1   3 59329.8 1648.47   2
  -1   1  -3 57441.8 1601.39   3
   1  -1   3 58911.0 1590.15  11
  -1   1  -4 36203.9 1045.27   5
  -1   1  -4 36553.2 1073.43   3
  -1   1  -4 37065.7 1055.29  11
  -1   1  -4 38347.8 1118.53   2
   1  -1   4 39737.1 1144.16   2
   1  -1   4 37405.0 1061.23  11
  -1   1  -4 39029.1 1070.89   8
   1  -1   4 35329.1 1017.28  10
  -1   1  -5 80.5931 27.4265   8
  -1   1  -5 96.8545 33.4449   2
  -1   1  -5 87.6858 25.9614   3
  -1   1  -5 105.078 27.2333  11
   1  -1   5 123.308 30.6420  11
   1  -1   5 80.1893 31.5186   2
  -1   1  -5 52.6387 15.9994   5
   1  -1   5 145.067 27.3459  10
   1  -1   6 10142.0 357.793  10
  -1   1  -6 9925.67 432.318   2
   1  -1   6 9621.22 370.292  11
  -1   1  -6 9596.29 377.317   3
   1  -1   6 9481.69 432.450   9
   1  -1   6 10322.4 460.471   2
  -1   1  -7 1697.75 147.510   8
  -1   1  -7 1664.57 131.689   3
  -1   1  -7 1951.85 175.366   2
   1  -1   7 2105.43 140.149  11
   1  -1   7 2201.45 197.007   2
   1  -1   7 2115.85 185.795   9
   1  -1   7 1994.67 132.681  10
  -1   1  -7 2020.90 158.899   7
  -1   1  -8 1189.09 139.299   2
   1  -1   8 1197.16 150.363   9
  -1   1  -8 701.596 109.507   3
   1  -1   8 1131.85 104.588  10
  -1   1  -8 1047.17 120.057   7
  -1   1  -8 673.484 95.5733   8
   1  -1   8 1118.09 102.300  11
  -1   1  -8 641.732 81.5996   3
   1  -1   9 1958.55 202.286   9
   1  -1   9 1909.48 139.559  11
  -1   1  -9 1980.61 201.774   2
  -1   1  -9 1635.46 173.604   7
  -1   1  -9 1175.88 140.817   3
  -1   1 -10 274.610 81.3784   2
   1  -1  10 215.101 45.8246  11
   1  -1  10 144.154 62.0917   9
  -1   1 -11 135.536 70.6357   4
  -1   1 -11 60.5662 38.4298   2
   1  -1  11 119.219 57.2170   9
   1   0 -11-20.0906 33.6718   2
  -1   0  11-6.15456 10.1661  10
   1   0 -11 7.61128 32.1898   4
  -1   0  11 0.58380 19.7732   9
   1   0 -10 148.151 50.6590   2
  -1   0  10 249.449 65.7101  10
  -1   0  10 227.805 77.9026   9
  -1   0  10 213.097 60.3154   8
   1   0 -10 114.394 39.4825   4
   1   0  -9 8975.87 429.864   2
  -1   0   9 7856.04 419.709  10
  -1   0   9 8422.25 442.334   9
   1   0  -9 8350.99 365.431   3
  -1   0   9 7117.08 254.506  11
   1   0  -9 8849.89 497.943   4
  -1   0   9 9212.70 417.675   8
   1   0  -9 7450.60 313.288   6
   1   0  -8 5477.74 302.606   2
   1   0  -8 5283.18 349.999   4
  -1   0   8 5436.66 192.095  11
  -1   0   8 4908.34 302.693  10
  -1   0   8 5225.36 315.761   9
  -1   0   8 5704.95 294.287   8
   1   0  -8 4363.10 229.661   6
  -1   0   8 5084.40 297.723   2
   1   0  -8 5115.59 271.904   3
   1   0  -7 9270.09 381.093   6
  -1   0   7 9902.63 320.231  11
   1   0  -7 10469.6 487.522   4
  -1   0   7 10553.3 419.233   8
   1   0  -7 9867.08 424.633   2
   1   0  -7 10006.2 416.008   3
  -1   0   7 10286.8 437.450   2
   1   0  -7 8586.92 393.870   8
  -1   0   7 9901.23 439.216   9
   1   0  -6 19223.0 654.669   2
   1   0  -6 18756.0 627.399   6
  -1   0   6 19498.8 554.016  11
   1   0  -6 19329.3 654.728   3
  -1   0   6 18953.6 635.138   8
  -1   0   6 17326.5 654.284   9
  -1   0   6 19526.0 661.032   2
   1   0  -6 17156.5 694.609   4
   1   0  -5 821.401 82.7026   6
  -1   0   5 720.740 52.8396  11
   1   0  -5 774.053 76.4128   8
  -1   0   5 775.808 80.6737   2
  -1   0   5 787.909 77.1429   8
   1   0  -5 809.499 83.2945   2
  -1   0   5 689.083 82.5735   9
  -1   0   5 812.425 50.7556   5
   1   0  -5 768.190 83.6244   3
   1   0  -4 7747.46 290.491   8
  -1   0   4 7689.88 308.872   9
  -1   0   4 8194.89 276.380   5
  -1   0   4 8285.72 296.596   8
  -1   0   4 8068.03 302.864   2
   1   0  -4 7794.44 305.455   2
   1   0  -4 8238.43 320.138   6
   1   0  -4 7429.13 321.411   3
  -1   0   3 11150.2 379.853   2
   1   0  -3 11371.3 385.046   2
  -1   0   3 12775.5 422.750   3
  -1   0   3 12044.8 377.438   5
   1   0  -3 11454.8 405.522   3
   1   0  -3 11750.1 371.410   8
   1   0  -3 10994.1 404.184   6
  -1   0   3 12000.3 374.380   8
  -1   0   2 34630.6 948.865   2
  -1   0   2 35296.8 985.292   3
   1   0  -2 32014.2 983.398   6
   1   0  -2 33949.7 958.999   2
  -1   0   2 34022.6 932.430   8
   1   0  -2 34724.9 979.669   3
  -1   0   1 254104. 6562.95   4
  -1   0  -1 2197.04 102.140   3
  -1   0  -1 2211.78 96.7867   6
  -1   0  -1 2031.55 96.2221   9
  -1   0  -2 603.155 40.9893   7
   1   0   2 519.580 37.0309  10
  -1   0  -2 561.597 37.9885  10
  -1   0  -2 537.088 44.0942   3
  -1   0  -2 545.430 55.4491   1
  -1   0  -2 463.915 50.2014   9
   1   0   2 556.862 46.2144  11
  -1   0  -2 516.218 36.8705   6
   1   0   2 496.325 40.6678   3
  -1   0  -2 548.991 45.0760  11
   1   0   2 503.331 36.6405   6
  -1   0  -3 206.790 40.3419   2
   1   0   3 227.005 30.7241  11
   1   0   3 232.892 40.2945   2
  -1   0  -3 217.068 30.4217  11
  -1   0  -3 202.876 29.7137   5
  -1   0  -3 275.487 34.6673   7
  -1   0  -3 219.430 42.9974   1
  -1   0  -3 239.611 31.6847   3
  -1   0  -3 204.189 38.2265   9
   1   0   3 196.478 26.1451  10
   1   0   4 48456.4 1435.51   2
   1   0   4 51232.9 1368.55  10
  -1   0  -4 49388.2 1359.66   3
  -1   0  -4 45884.7 1346.58   5
  -1   0  -4 49646.6 1438.52   9
  -1   0  -4 51195.6 1467.32   1
   1   0   4 52097.5 1371.12  11
  -1   0  -4 54064.7 1445.58   2
  -1   0  -4 50327.7 1360.83  11
  -1   0  -4 48451.0 1388.31   7
  -1   0  -5 252.775 52.2480   2
  -1   0  -5 271.709 59.5578   1
  -1   0  -5 243.196 49.2206   9
   1   0   5 303.997 44.8059  10
  -1   0  -5 317.161 50.6811   7
  -1   0  -5 246.687 36.1161  11
   1   0   5 266.666 37.8404  11
  -1   0  -5 296.171 38.8492   3
   1   0   5 290.309 60.0559   2
  -1   0  -6 442.711 52.4860  11
   1   0   6 431.865 78.1090   9
  -1   0  -6 370.394 75.9837   1
  -1   0  -6 466.972 70.5978   8
   1   0   6 501.574 56.2323  11
   1   0   6 443.423 60.6669  10
   1   0   6 406.775 75.5803   2
  -1   0  -6 410.929 67.0739   7
  -1   0  -6 403.171 48.1838   3
  -1   0  -6 408.161 68.1954   2
  -1   0  -7 3409.69 164.633   3
  -1   0  -7 4115.00 237.961   8
   1   0   7 4385.94 216.637  10
  -1   0  -7 4459.93 246.294   7
   1   0   7 4736.32 278.194   9
   1   0   7 4671.32 283.154   2
   1   0   7 4285.37 188.726  11
  -1   0  -7 4384.12 255.225   2
  -1   0  -8 753.517 69.4669   3
  -1   0  -8 261.675 50.0847   3
  -1   0  -8 1084.71 126.989   7
  -1   0  -8 996.458 123.408   2
   1   0   8 1042.77 137.940   9
   1   0   8 1040.34 88.3675  11
  -1   0  -9 499.194 88.6711   7
  -1   0  -9 574.823 97.0023   2
   1   0   9 341.771 78.5160   9
   1   0   9 495.249 57.7429  11
  -1   0  -9 426.767 106.526   4
  -1   0 -10-31.9780 39.2639   4
   1   0  10-0.11221 15.2649  10
  -1   0 -10-6.11499 28.5598   2
   1   0  10-7.12582 29.6784   9
   1   0  11 89.8231 54.0438   9
  -1   0 -11 180.049 61.9478   2
  -1   0 -11 127.884 69.1715   4
  -1  -1  11 119.681 45.5917  10
  -1  -1  11 98.2594 58.8879   9
   1   1 -11 95.5335 47.6892   2
   1   1 -11 102.642 65.0823   4
  -1  -1  10 110.605 46.3714  10
   1   1 -10 100.248 49.7493   3
  -1  -1  10 109.135 28.4767  11
   1   1 -10 83.2724 35.9788   2
  -1  -1  10 91.3210 46.9918   9
   1   1 -10 285.372 85.3710   4
   1   1  -9 256.052 39.5351   6
   1   1  -9 109.019 40.6358   8
   1   1  -9 221.717 62.0902   4
  -1  -1   9 402.289 53.3673  11
  -1  -1   9 230.439 65.4665   9
   1   1  -9 242.216 67.3513   3
   1   1  -9 365.823 80.3044   2
   1   1  -8 254.666 42.1551   6
   1   1  -8 280.517 66.8166   2
   1   1  -8 321.755 75.6521   3
   1   1  -8 215.512 49.7080   8
  -1  -1   8 278.133 52.9668   8
  -1  -1   8 253.237 58.8834   2
  -1  -1   8 213.426 52.4801   9
  -1  -1   8 297.094 45.5341  11
   1   1  -7 10211.4 457.594   2
  -1  -1   7 10200.5 458.786   2
  -1  -1   7 10815.0 407.818   8
   1   1  -7 10883.1 383.931   6
  -1  -1   7 9297.05 366.855  11
  -1  -1   7 9531.12 446.518   9
   1   1  -7 10813.1 478.391   3
  -1  -1   6 3420.67 211.080   2
   1   1  -6 3124.34 170.486   8
   1   1  -6 3366.09 229.618   3
  -1  -1   6 3016.60 200.999   9
  -1  -1   6 2460.73 131.023   5
  -1  -1   6 3304.23 160.650  11
   1   1  -6 3452.55 216.284   2
   1   1  -6 3198.28 171.206   6
  -1  -1   6 3586.49 181.016   8
   1   1  -5 177.048 35.5831   6
   1   1  -5 198.623 34.2628   8
   1   1  -5 111.278 45.3815   3
  -1  -1   5 140.283 35.7230   2
  -1  -1   5 191.501 31.8100   5
  -1  -1   5 190.097 32.4939   8
  -1  -1   5 169.742 36.4748   6
   1   1  -5 215.935 47.3752   2
   1   1  -4 7660.16 359.902   3
  -1  -1   4 8100.65 279.620   8
   1   1  -4 7863.97 330.580   2
   1   1  -4 8067.96 278.653   8
   1   1  -4 8327.17 310.157   5
  -1  -1   4 8444.53 326.782   6
  -1  -1   4 8197.60 327.996   2
  -1  -1   4 8440.61 300.496   5
   1   1  -4 8319.39 312.487   6
  -1  -1   3 47490.7 1304.96   2
  -1  -1   3 46808.3 1236.58   8
   1   1  -3 46970.4 1308.92   2
   1   1  -3 46299.5 1352.44   3
  -1  -1   3 48987.4 1296.69   5
   1   1  -3 50880.7 1311.25   5
  -1  -1   3 48038.8 1307.91   6
   1   1  -3 47823.0 1296.81   6
  -1  -1   2 22409.8 676.669   2
   1   1  -2 22733.0 696.718   5
  -1  -1   2 22935.3 612.182   8
  -1  -1   2 22022.5 688.616   5
   1   1  -2 23331.4 682.487   6
  -1  -1   1 2256.26 121.444   2
  -1  -1   1 2591.27 145.468   3
  -1  -1   1 1980.06 126.146   5
   1   1  -1 2297.37 122.280   6
  -1  -1   0 493.386 53.0509   3
  -1  -1   0 450.117 57.1007   5
   1   1   1 211138. 5558.92   6
  -1  -1  -1 215427. 5541.76   7
  -1  -1  -1 224082. 5571.67   1
  -1  -1  -1 198076. 5538.91   4
   1   1   1 219046. 5538.67   7
  -1  -1  -1 215567. 5595.95   5
  -1  -1  -1 213248. 5559.55   3
   1   1   2 24058.7 680.747  11
  -1  -1  -2 23561.6 702.341  10
   1   1   2 25123.2 713.173   8
   1   1   2 23313.3 699.369   7
  -1  -1  -2 24533.0 736.897   1
  -1  -1  -2 24745.3 722.343   9
   1   1   2 23694.8 734.812   5
   1   1   2 24830.6 676.727   3
  -1  -1  -2 23845.3 686.916  11
  -1  -1  -2 24924.4 706.509   6
  -1  -1  -2 23355.9 693.009   7
  -1  -1  -2 25414.3 732.902   5
   1   1   2 24705.0 705.398   6
  -1  -1  -2 22924.2 684.361   3
  -1  -1  -3 635.163 51.2380  11
  -1  -1  -3 613.982 60.7621   7
  -1  -1  -3 647.568 60.9060   5
   1   1   3 628.668 62.2642  10
  -1  -1  -3 519.850 45.3173   3
  -1  -1  -3 622.423 73.7981   1
   1   1   3 616.294 66.3348   7
   1   1   3 610.709 38.5791   3
   1   1   3 637.017 65.8187   5
   1   1   3 624.395 51.6725  11
   1   1   3 631.110 66.1480   8
  -1  -1  -3 623.793 68.4311   9
  -1  -1  -3 612.606 59.8141  10
  -1  -1  -3 576.841 55.3812   6
  -1  -1  -3 677.061 65.0984   2
   1   1   4 10910.9 342.433  11
  -1  -1  -4 10712.3 411.084   9
  -1  -1  -4 9549.95 384.183   2
  -1  -1  -4 10551.8 351.866   5
   1   1   4 11211.4 401.541   8
  -1  -1  -4 10731.0 386.647   7
  -1  -1  -4 10261.8 384.432  10
  -1  -1  -4 11148.1 443.069   1
  -1  -1  -4 10309.6 336.414  11
   1   1   4 10457.5 380.528  10
  -1  -1  -4 9734.75 348.946   6
   1   1   5 7711.05 320.904  10
   1   1   5 7661.81 349.818   9
  -1  -1  -5 7736.86 354.390   9
   1   1   5 7837.88 339.558   8
  -1  -1  -5 7157.17 263.654   5
   1   1   5 7910.73 272.718  11
  -1  -1  -5 7656.74 264.455  11
  -1  -1  -5 7762.60 333.239   7
  -1  -1  -5 8181.80 336.166   2
  -1  -1  -5 7574.76 279.207   6
  -1  -1  -5 7849.01 384.141   1
   1   1   6 6866.64 340.922   9
  -1  -1  -6 6732.13 238.608  11
  -1  -1  -6 6123.20 242.202   6
  -1  -1  -6 7316.98 388.000   1
  -1  -1  -6 6560.34 305.407   2
  -1  -1  -6 6647.17 363.443   4
  -1  -1  -6 6712.54 321.679   7
   1   1   6 6502.75 301.619  10
  -1  -1  -6 6466.34 336.766   9
   1   1   6 5400.16 242.546  11
  -1  -1  -6 7100.52 331.214   8
  -1  -1  -7-7.87242 11.5710   6
   1   1   7 13.5251 13.9561   9
  -1  -1  -7-0.95764 21.7823   4
  -1  -1  -7 13.3698 17.0611   2
   1   1   7-3.82963 5.25810  11
  -1  -1  -7-6.29297 28.5622   7
  -1  -1  -8 6715.13 339.956   7
  -1  -1  -8 6490.70 402.360   4
   1   1   8 6715.00 365.615   9
   1   1   8 4944.41 276.278  10
   1   1   8 5426.96 199.675  11
  -1  -1  -8 4763.40 167.778   6
  -1  -1  -8 6985.86 326.715   2
  -1  -1  -9 15707.6 759.285   4
   1   1   9 14929.2 608.901  10
   1   1   9 15822.9 690.673   9
  -1  -1  -9 15818.0 632.995   2
  -1  -1 -10 455.512 93.7161   2
   1   1  10 488.782 105.145   9
   1   1  10 363.326 79.4095  10
  -1  -1 -10 324.911 93.3559   4
   1   1  11 342.773 95.3952   9
  -1  -1 -11 209.933 65.2083   2
  -1  -1 -11 292.413 101.283   4
   1   2 -11 659.376 130.430   2
   1   2 -11 496.107 127.484   4
  -1  -2  11 464.050 107.979   9
  -1  -2  11 436.778 90.9840  10
   1   2 -10 15.1173 25.5334   2
  -1  -2  10 10.9965 13.6274  11
   1   2 -10-20.0490 33.3118   3
  -1  -2  10-70.5810 40.0208   9
   1   2  -9 4487.52 307.274   2
  -1  -2   9 4173.09 210.939  11
  -1  -2   9 4105.41 287.182   9
   1   2  -9 2144.31 172.212   8
   1   2  -9 3723.34 302.411   3
   1   2  -9 1753.40 134.676   6
   1   2  -8 2565.87 221.327   2
  -1  -2   8 2296.63 206.930   9
  -1  -2   8 2154.51 153.110  11
   1   2  -8 2708.98 240.486   3
   1   2  -8 2302.12 137.237   6
   1   2  -7 6755.93 372.018   2
   1   2  -7 6562.13 285.941   8
  -1  -2   7 6677.08 359.940   9
  -1  -2   7 6596.19 298.389  11
  -1  -2   7 7205.44 284.647   5
   1   2  -7 7774.28 421.531   3
  -1  -2   7 7117.68 374.890   2
   1   2  -7 7389.13 295.476   6
  -1  -2   6 418.883 57.9930  11
   1   2  -6 358.051 87.6873   3
   1   2  -6 358.350 46.7320   8
  -1  -2   6 405.465 58.4387   5
  -1  -2   6 302.822 62.3554   6
   1   2  -6 383.192 70.8791   2
   1   2  -6 381.408 59.8531   5
  -1  -2   6 416.204 75.3414   2
   1   2  -6 369.788 58.8934   6
  -1  -2   5 3293.62 199.334   6
   1   2  -5 3486.43 207.887   5
  -1  -2   5 3351.28 146.005   8
   1   2  -5 3261.96 146.007   8
   1   2  -5 2739.17 221.319   3
   1   2  -5 3362.41 215.892   2
  -1  -2   5 3193.71 186.009   5
   1   2  -5 3274.74 184.929   6
  -1  -2   5 3291.29 208.034   2
   1   2  -4 3625.21 138.509   8
   1   2  -4 3376.44 257.934   3
   1   2  -4 3842.60 197.050   6
  -1  -2   4 3566.11 207.992   2
  -1  -2   4 3910.09 207.186   5
  -1  -2   4 3682.81 202.168   6
  -1  -2   4 3777.63 139.628   8
   1   2  -4 3902.21 217.796   5
   1   2  -3 4125.46 216.832   5
  -1  -2   3 3817.84 196.828   2
  -1  -2   3 2978.73 107.534   8
  -1  -2   3 3755.68 196.314   6
  -1  -2   3 3765.25 199.600   5
   1   2  -3 4318.81 242.725   3
   1   2  -3 3934.28 192.047   6
  -1  -2   2 40186.2 1217.52   5
  -1  -2   2 40453.4 1191.90   2
   1   2  -2 41063.3 1225.47   5
   1   2  -2 43811.8 1201.60   6
  -1  -2   1 89.8735 30.4559   5
   1   2  -1 68.6061 22.7308   6
  -1  -2   1 82.2611 22.8822   2
  -1  -2   1 92.1716 12.2517   8
   1   2  -1 94.4318 26.6101   7
   1   2   0 93691.3 2471.16   6
   1   2   0 86672.3 2395.58   4
   1   2   0 85989.2 2392.78   8
  -1  -2   0 89136.2 2460.33   2
   1   2   0 93822.9 2455.71   7
  -1  -2   0 91015.1 2396.42   8
  -1  -2   0 92449.7 2501.89   5
   1   2   1 25780.5 719.319   8
   1   2   1 26215.6 763.823   3
  -1  -2  -1 24441.0 718.157   4
   1   2   1 24014.4 736.066   7
   1   2   1 24758.4 758.009   6
   1   2   1 24375.9 721.953   4
  -1  -2  -1 23492.6 774.532   5
   1   2   2 628.929 81.8532   5
   1   2   2 719.432 71.2298   7
   1   2   2 712.521 68.2095   8
  -1  -2  -2 732.925 81.4673   1
  -1  -2  -2 652.237 71.2804  10
   1   2   2 772.971 74.5900   4
  -1  -2  -2 673.666 76.5649   5
   1   2   2 843.411 69.0851   3
  -1  -2  -2 814.145 76.6465   4
  -1  -2  -2 787.921 76.1970   6
  -1  -2  -2 671.834 66.6253   7
   1   2   3 1242.31 71.9346   3
   1   2   3 1342.11 105.182   8
  -1  -2  -3 1200.34 101.199  10
   1   2   3 1330.80 109.010  10
   1   2   3 1374.73 120.854   5
  -1  -2  -3 1315.91 82.9552  11
  -1  -2  -3 1215.29 99.2647   7
  -1  -2  -3 1172.40 114.443   1
   1   2   3 1355.88 111.629   7
  -1  -2  -3 1393.43 110.655   5
  -1  -2  -3 1389.58 110.931   9
  -1  -2  -3 1403.25 106.673   6
  -1  -2  -3 1237.97 114.055   4
   1   2   4 2535.61 168.968   5
  -1  -2  -4 2494.17 145.774   2
  -1  -2  -4 2361.39 177.989   4
  -1  -2  -4 2303.10 159.612  10
  -1  -2  -4 2423.03 157.659   7
  -1  -2  -4 2463.86 168.000   9
  -1  -2  -4 2368.02 148.910   6
   1   2   4 2612.69 166.467   8
  -1  -2  -4 2443.39 122.755  11
  -1  -2  -4 2558.28 156.210   5
   1   2   4 2571.83 168.288   7
  -1  -2  -4 2340.96 181.915   1
   1   2   4 2271.90 157.623  10
  -1  -2  -5 10841.1 417.719   6
   1   2   5 11691.7 465.495   7
  -1  -2  -5 11353.6 418.462   5
  -1  -2  -5 11352.5 426.568   2
   1   2   5 12134.5 465.783   8
  -1  -2  -5 11682.7 509.842   1
  -1  -2  -5 11583.5 503.389   4
  -1  -2  -5 11404.6 365.865  11
   1   2   5 11319.8 430.870   5
  -1  -2  -5 11916.4 476.689   9
  -1  -2  -5 11043.5 458.228  10
  -1  -2  -5 11506.4 454.053   7
   1   2   6 525.340 84.4078   8
  -1  -2  -6 586.479 93.7365   9
  -1  -2  -6 594.381 103.168   4
  -1  -2  -6 712.660 96.7624   8
  -1  -2  -6 640.965 50.6832  11
  -1  -2  -6 673.199 92.7290   7
  -1  -2  -6 560.387 72.1946   6
  -1  -2  -6 714.108 83.4310   2
  -1  -2  -6 544.597 64.0603   5
  -1  -2  -7 8310.61 459.329   4
   1   2   7 6718.02 366.577  10
  -1  -2  -7 8211.37 398.222   7
   1   2   7 8358.48 408.897   8
  -1  -2  -7 8071.73 262.028  11
  -1  -2  -7 8010.79 333.361   6
  -1  -2  -7 8037.00 359.223   2
  -1  -2  -8 999.419 111.820   2
   1   2   8 913.532 121.124  10
  -1  -2  -8 940.772 93.2097   6
  -1  -2  -8 1000.56 154.577   4
  -1  -2  -9 1571.05 152.406   2
   1   2   9 1505.17 163.245  10
  -1  -2  -9 1584.30 212.911   4
   1   2  10 104.023 42.1568  10
  -1  -2 -10 224.222 79.2406   4
  -1  -2 -10 177.586 51.1542   2
  -1  -2 -11 114.755 61.1851   4
   1   2  11 3.61088 19.9276  10
   1   3 -11 455.346 114.221   2
  -1  -3  11 461.207 108.123   9
  -1  -3  10 64.9812 33.6471  11
   1   3 -10 92.6375 43.4009   2
   1   3 -10 89.4456 58.9174   3
  -1  -3  10 117.243 48.0406   9
   1   3  -9 76.0455 38.2770   2
   1   3  -9 117.401 61.4575   3
  -1  -3   9 34.1599 34.8449   9
  -1  -3   9 30.4298 15.7833  11
  -1  -3   8 864.784 103.790  11
   1   3  -8 904.393 100.719   5
   1   3  -8 795.371 142.034   3
   1   3  -8 705.036 77.9780   8
   1   3  -8 864.327 87.1780   6
   1   3  -8 961.125 138.341   2
  -1  -3   8 836.579 94.1807   6
  -1  -3   8 843.812 122.134   9
   1   3  -7 34801.8 1009.76   8
   1   3  -7 35491.6 1201.95   2
  -1  -3   7 34400.8 1091.59  11
   1   3  -7 36901.5 1135.81   5
  -1  -3   7 35676.2 1107.56   5
   1   3  -7 39521.1 1308.24   3
   1   3  -7 32640.1 1058.81   6
  -1  -3   7 36086.4 1113.02   6
  -1  -3   6 1500.55 139.433   6
   1   3  -6 1669.82 158.703   5
   1   3  -6 1396.87 121.218   6
  -1  -3   6 1506.28 141.734   5
   1   3  -6 1677.15 194.411   3
   1   3  -6 1549.01 163.081   2
   1   3  -6 1438.33 87.7666   8
  -1  -3   6 1738.69 164.643   2
  -1  -3   5 6002.66 299.188   6
   1   3  -5 5919.47 320.551   2
   1   3  -5 5917.49 280.237   6
   1   3  -5 5964.84 322.390   5
  -1  -3   5 5460.62 301.632   5
   1   3  -5 4498.93 376.601   3
  -1  -3   5 6050.86 317.746   2
  -1  -3   4 2062.57 167.239   5
   1   3  -4 1833.10 144.888   6
   1   3  -4 2229.32 175.807   5
  -1  -3   4 2287.71 167.350   6
  -1  -3   4 1924.05 157.162   2
   1   3  -3 39373.4 1180.74   7
  -1  -3   3 33782.6 1141.06   5
  -1  -3   3 36362.2 1120.37   2
   1   3  -3 34700.9 1147.78   5
   1   3  -3 36921.4 1113.82   6
  -1  -3   3 39889.3 1131.63   6
  -1  -3   2 11039.6 407.946   2
   1   3  -2 10010.7 441.094   5
   1   3  -2 10382.8 406.221   6
   1   3  -2 11077.4 434.045   7
  -1  -3   2 9169.40 428.613   5
  -1  -3   1 90.7342 35.8988   5
   1   3  -1 70.1860 15.2184   8
   1   3  -1 70.7327 25.1209   6
  -1  -3   1 110.723 32.3387   2
  -1  -3   1 121.620 18.0738   8
   1   3  -1 97.5698 28.3882   7
   1   3   0 22041.7 712.665   6
  -1  -3   0 22424.9 682.588   2
  -1  -3   0 21661.0 625.684   8
   1   3   0 20691.4 621.193   8
   1   3   0 20454.6 634.638   4
   1   3   0 21614.4 693.779   7
  -1  -3   0 22290.8 752.498   5
   1   3   1 4257.70 225.157   3
   1   3   1 3929.26 206.357   7
  -1  -3  -1 3912.47 238.152   5
  -1  -3  -1 4200.94 198.129   2
   1   3   1 4014.32 191.853   4
  -1  -3  -1 4055.12 215.060  10
   1   3   1 3843.00 176.671   8
  -1  -3  -1 3664.24 176.018   8
  -1  -3  -2-9.54119 7.41695  10
   1   3   2-12.9491 11.9546   4
   1   3   2-8.65517 9.50859   3
   1   3   2 12.0242 18.3321   8
  -1  -3  -2-5.32252 8.40306   6
  -1  -3  -2-24.4886 13.8712   8
  -1  -3  -2-0.58605 15.9384   5
  -1  -3  -2 2.23978 11.3052   4
   1   3   2-3.47500 14.6251   7
  -1  -3  -2 7.64654 10.9505   7
   1   3   2-5.55266 17.5944   5
   1   3   3 60659.1 1737.64   5
   1   3   3 60923.3 1668.28   8
  -1  -3  -3 60273.4 1740.61   1
   1   3   3 58767.5 1699.11   4
  -1  -3  -3 59610.9 1697.15  10
   1   3   3 57352.2 1623.06   3
  -1  -3  -3 56626.2 1695.51   6
   1   3   3 59740.9 1696.69   7
  -1  -3  -3 53372.7 1663.21   7
  -1  -3  -3 62154.1 1704.23   4
  -1  -3  -3 57559.1 1716.27   5
  -1  -3  -4 1237.84 92.3379  11
  -1  -3  -4 1407.90 126.198   7
   1   3   4 1310.15 130.469   7
  -1  -3  -4 1434.30 132.570  10
  -1  -3  -4 1362.22 135.131   4
  -1  -3  -4 1579.42 138.552   5
  -1  -3  -4 1357.95 146.765   1
   1   3   4 1349.21 137.274   5
   1   3   4 1281.78 74.5492   3
   1   3   4 1422.96 125.604   8
  -1  -3  -4 1245.26 123.527   6
  -1  -3  -4 1305.09 122.598   9
  -1  -3  -4 1174.49 97.8166   2
  -1  -3  -5 839.258 69.2726  11
  -1  -3  -5 857.110 110.438  10
  -1  -3  -5 889.130 108.570   9
  -1  -3  -5 984.769 112.945   5
   1   3   5 803.981 110.491   7
   1   3   5 887.592 116.141   5
  -1  -3  -5 935.790 88.2973   2
  -1  -3  -5 888.231 105.967   7
  -1  -3  -5 907.226 126.620   1
  -1  -3  -5 883.431 116.445   4
   1   3   5 903.222 107.708   8
  -1  -3  -5 882.722 104.440   6
   1   3   6 2418.13 188.267   5
   1   3   6 2525.37 209.952   7
  -1  -3  -6 2284.20 173.439   5
  -1  -3  -6 2427.78 203.880  10
  -1  -3  -6 2551.71 120.346  11
   1   3   6 2549.38 198.508   8
  -1  -3  -6 2718.69 167.788   2
   1   3   6 2461.06 199.670  10
  -1  -3  -6 2517.52 202.152   7
  -1  -3  -6 2531.03 219.632   4
  -1  -3  -6 2459.12 182.439   6
  -1  -3  -7 585.799 88.0646   6
  -1  -3  -7 656.387 117.868   4
  -1  -3  -7 360.248 69.2903   5
  -1  -3  -7 553.917 41.3578  11
   1   3   7 485.569 75.8493   5
   1   3   7 656.000 104.111  10
   1   3   7 685.023 105.706   8
  -1  -3  -7 575.367 73.4481   2
   1   3   8 1513.24 171.418   8
  -1  -3  -8 1410.19 188.484   4
   1   3   8 1394.01 163.730  10
  -1  -3  -8 1466.32 136.190   6
  -1  -3  -8 1343.27 126.429   2
   1   3   9 3654.06 280.577  10
  -1  -3  -9 4166.34 246.531   2
  -1  -3  -9 3396.51 224.931   6
  -1  -3  -9 3845.57 341.365   4
   1   3  10 530.134 111.127  10
  -1  -3 -10 639.988 142.243   4
   1   4 -11 888.368 175.394   3
  -1  -4  11 798.796 156.566   9
  -1  -4  11 628.539 100.186  11
   1   4 -11 819.520 161.300   2
  -1  -4  10 94.4679 50.4606   9
   1   4 -10 93.5161 50.4575   3
  -1  -4  10 32.7215 11.7190  11
   1   4 -10 21.4053 22.3727   2
  -1  -4   9 2103.30 226.741   9
   1   4  -9 2306.87 190.412   5
   1   4  -9 2519.49 283.532   3
  -1  -4   9 2000.08 180.424  11
  -1  -4   9 2142.56 165.296   6
   1   4  -9 2106.19 237.482   2
  -1  -4   8 199.175 52.3800   5
  -1  -4   8 269.169 60.4870   6
   1   4  -8 206.676 54.9471   2
  -1  -4   8 280.421 60.2118  11
   1   4  -8 245.025 59.6886   5
   1   4  -8 182.803 77.9143   3
   1   4  -7 29345.7 1047.63   5
   1   4  -7 29124.2 1066.67   2
   1   4  -7 29421.7 1161.62   3
  -1  -4   7 31349.0 1024.75   5
  -1  -4   7 29669.5 973.561  11
   1   4  -6 34.9915 25.0639   6
  -1  -4   6 16.3880 26.8222   6
   1   4  -6 36.4392 33.5378   5
  -1  -4   6-17.2949 19.4837   5
   1   4  -6 19.9672 28.9255   3
   1   4  -6-11.7869 27.9839   2
   1   4  -5 4073.62 297.882   7
   1   4  -5 3929.51 273.185   2
   1   4  -5 4081.62 284.841   5
  -1  -4   5 4281.24 274.549   2
  -1  -4   5 4194.49 284.955   5
   1   4  -5 4383.38 246.434   6
  -1  -4   5 3743.43 246.003   6
   1   4  -4 10186.3 484.586   5
  -1  -4   4 10839.5 496.453   5
   1   4  -4 11349.5 500.293   7
  -1  -4   4 10703.0 460.534   2
  -1  -4   4 8602.20 423.665   6
   1   4  -4 10024.2 428.428   6
  -1  -4   3 2291.84 198.380   5
  -1  -4   3 2073.92 165.560   2
   1   4  -3 2059.20 190.098   5
   1   4  -3 1916.92 161.848   6
   1   4  -3 2194.03 181.668   7
  -1  -4   3 2128.24 176.499   6
  -1  -4   2 1152.15 115.539   2
   1   4  -2 1140.18 125.953   6
   1   4  -2 1162.20 138.838   5
   1   4  -2 1305.52 130.459   7
  -1  -4   2 1141.99 137.635   5
  -1  -4   1 171.519 26.1239   8
   1   4  -1 157.981 42.3365   2
   1   4  -1 137.954 22.3481   8
  -1  -4   1 145.788 51.8710   5
  -1  -4   1 142.416 39.0272   2
   1   4  -1 173.761 46.3233   7
  -1  -4   0 9681.11 385.976   2
   1   4   0 9523.42 330.783   8
  -1  -4   0 9827.44 341.262   8
  -1  -4   0 9588.67 460.169   5
   1   4   0 9949.58 409.769   7
   1   4   0 9448.91 358.415   4
   1   4   0 10183.6 407.935   2
   1   4   1 7583.28 299.897   8
  -1  -4  -1 8121.71 322.798   2
   1   4   1 7795.96 354.021   7
  -1  -4  -1 7861.62 401.093   5
  -1  -4  -1 7689.78 359.398  10
   1   4   1 7784.12 324.210   4
  -1  -4  -1 7656.54 308.991   8
   1   4   2 44873.7 1320.49   4
  -1  -4  -2 46657.5 1302.50   8
  -1  -4  -2 45675.9 1358.44  10
  -1  -4  -2 46022.4 1416.39   5
  -1  -4  -2 44144.0 1308.77   4
   1   4   2 45419.3 1349.31   7
  -1  -4  -2 43085.4 1284.99   2
  -1  -4  -2 45337.5 1368.51   6
   1   4   2 45325.5 1287.05   8
  -1  -4  -2 46791.0 1344.68   7
  -1  -4  -3 1160.11 129.243   6
  -1  -4  -3 1101.72 110.793   8
  -1  -4  -3 1096.32 123.310  10
  -1  -4  -3 1063.58 115.435   7
   1   4   3 1190.83 124.604   4
   1   4   3 1210.33 111.422   8
  -1  -4  -3 1174.24 121.688   4
  -1  -4  -3 1121.50 138.964   5
   1   4   3 1090.80 107.748   3
   1   4   3 1146.34 124.545   7
  -1  -4  -4 61.7504 32.0284   6
  -1  -4  -4-6.13276 24.4909   4
  -1  -4  -4 47.8292 17.5561  11
  -1  -4  -4 39.7937 28.9337  10
   1   4   4 26.4099 14.2461   3
   1   4   4 29.2730 23.6433   8
  -1  -4  -4 52.3821 26.0949   8
  -1  -4  -4 52.9288 28.1702   7
  -1  -4  -4 39.4664 22.6864   9
  -1  -4  -4 20.2064 15.4189   5
   1   4   4 54.5942 28.8355   7
   1   4   4 39.1763 19.6855   4
  -1  -4  -5 4067.22 211.867   2
   1   4   5 4379.75 267.361   8
  -1  -4  -5 4142.55 196.463  11
  -1  -4  -5 3948.22 285.293   5
  -1  -4  -5 4666.50 295.696  10
  -1  -4  -5 4816.11 305.138   4
  -1  -4  -5 4518.01 278.004   9
  -1  -4  -5 4501.38 278.167   7
   1   4   5 4725.56 293.449  10
   1   4   5 4541.37 314.787   1
  -1  -4  -5 4512.02 282.958   6
   1   4   5 4357.20 289.843   7
   1   4   6 867.152 144.955   1
   1   4   6 1085.09 138.516  10
   1   4   6 1135.38 146.575   7
  -1  -4  -6 855.799 118.109   5
  -1  -4  -6 1088.76 96.2221   2
   1   4   6 1234.29 142.621   8
  -1  -4  -6 1035.91 79.5526  11
  -1  -4  -6 1077.73 128.708   6
   1   4   6 844.972 125.538   5
  -1  -4  -6 1121.66 149.425   4
   1   4   7 17179.4 700.389   5
   1   4   7 19189.0 793.842   7
  -1  -4  -7 21020.8 845.167   4
  -1  -4  -7 19817.5 628.926   2
  -1  -4  -7 19169.5 727.834   6
   1   4   7 19939.5 765.916   8
   1   4   7 18124.4 756.863  10
  -1  -4  -7 19063.0 540.005  11
  -1  -4  -8-9.05981 18.8726   6
   1   4   8 16.2483 15.0866   8
   1   4   8-6.90956 14.7084   5
  -1  -4  -8-0.77965 7.17126   2
  -1  -4  -8-27.3516 21.9148   4
  -1  -4  -9 2430.68 205.988   6
  -1  -4  -9 2755.18 290.134   4
   1   4   9 2236.11 229.735  10
  -1  -4 -10 522.038 131.209   4
   1   5 -10 1440.55 243.424   3
  -1  -5  10 1298.74 185.820   9
   1   5 -10 1727.13 231.608   2
  -1  -5  10 1472.13 172.138  11
   1   5 -10 1002.85 171.340   7
   1   5  -9 766.383 144.433   2
   1   5  -9 618.252 118.335   5
  -1  -5   9 698.530 111.190  11
   1   5  -9 578.572 145.977   3
   1   5  -9 588.363 126.800   7
  -1  -5   8 61.5726 35.0904   5
   1   5  -8 20.4449 32.7262   3
  -1  -5   8-3.89693 10.5892  11
   1   5  -8-32.4845 15.9632   5
   1   5  -8-28.5234 38.3056   7
   1   5  -8-75.4238 48.2576   2
  -1  -5   7 23369.4 920.292   5
  -1  -5   7 23244.8 856.519  11
   1   5  -7 22937.4 941.530   2
   1   5  -7 21800.5 936.424   7
   1   5  -7 23507.1 941.329   5
   1   5  -7 25750.4 1072.15   3
   1   5  -6 3374.51 288.688   5
  -1  -5   6 3513.84 284.127   5
   1   5  -6 3297.54 273.720   2
   1   5  -6 3488.13 282.856   7
   1   5  -6 2918.39 323.089   3
  -1  -5   5 7156.07 434.713   5
   1   5  -5 8091.51 431.843   2
   1   5  -5 7761.91 438.371   7
   1   5  -5 7217.52 435.420   5
   1   5  -4 5029.05 340.152   5
  -1  -5   4 4778.12 300.113   2
   1   5  -4 4937.66 315.245   2
  -1  -5   4 5024.16 348.900   5
   1   5  -4 5174.65 331.473   7
   1   5  -3 2.97508 20.7923   2
   1   5  -3 7.33518 13.3292   7
  -1  -5   3 13.2747 14.0510   2
  -1  -5   3-1.36890 13.0005   5
   1   5  -3 41.7614 38.4200   5
   1   5  -2 6042.69 214.157   8
  -1  -5   2 7023.53 345.889   2
   1   5  -2 6890.77 357.417   7
   1   5  -2 6576.53 389.165   5
  -1  -5   2 6521.29 398.401   5
  -1  -5   1 75.3392 34.2474   5
   1   5  -1 99.1428 34.4701   7
  -1  -5   1 90.7492 33.4817   2
   1   5  -1 66.0656 16.7778   8
  -1  -5   1 50.4684 17.5030   8
  -1  -5   0 382.624 91.8519   5
  -1  -5   0 326.496 66.9366  10
   1   5   0 283.762 50.9572   4
   1   5   0 344.300 48.0102   8
   1   5   0 341.250 67.5472   7
  -1  -5   0 346.608 49.5448   8
   1   5   0 253.742 63.3949   2
  -1  -5   0 273.122 51.8627   2
  -1  -5  -1 1715.73 190.599   5
  -1  -5  -1 1740.86 163.522  10
   1   5   1 1829.29 164.019   7
   1   5   1 1729.04 142.061   4
  -1  -5  -1 1677.33 132.437   2
  -1  -5  -1 1751.20 130.085   8
   1   5   1 1884.64 128.010   8
   1   5   2 12909.1 543.784   7
  -1  -5  -2 13119.2 552.853  10
   1   5   2 11227.1 566.765   5
  -1  -5  -2 12399.6 597.058   5
   1   5   2 13093.8 482.866   8
  -1  -5  -2 13444.6 498.146   8
  -1  -5  -2 12344.1 462.173   2
   1   5   2 13327.1 517.216   4
  -1  -5  -2 13365.9 548.779   7
  -1  -5  -2 13458.2 565.588   6
   1   5   2 12652.9 547.049   3
   1   5   3 18150.6 776.813   5
  -1  -5  -3 22662.8 846.144   5
  -1  -5  -3 21417.0 719.108   8
   1   5   3 22000.1 775.107   7
   1   5   3 21445.1 702.858   8
  -1  -5  -3 20353.2 761.538  10
  -1  -5  -3 21313.9 754.883   7
   1   5   3 21610.1 797.444   1
  -1  -5  -3 20905.6 734.046   4
   1   5   3 19477.1 726.794   3
  -1  -5  -3 20906.8 783.722   6
   1   5   3 21981.2 754.937   4
   1   5   4 868.567 130.792   1
  -1  -5  -4 992.182 135.590   6
   1   5   4 774.633 126.259   5
  -1  -5  -4 1006.11 144.324   5
   1   5   4 924.627 123.093   4
   1   5   4 1020.19 114.522   8
  -1  -5  -4 877.393 119.903   4
   1   5   4 597.147 96.5793   3
   1   5   4 1079.90 137.382   7
  -1  -5  -4 371.496 59.8164   2
   1   5   5 991.340 78.7587   3
   1   5   5 1203.37 161.210   5
  -1  -5  -5 1322.19 158.645   4
  -1  -5  -5 1105.18 96.8966  11
   1   5   5 1151.54 151.277   7
   1   5   5 1239.29 137.940   8
  -1  -5  -5 993.876 87.5363   2
  -1  -5  -5 1164.58 156.535   5
   1   5   5 731.128 83.0715   3
   1   5   5 1250.22 170.081   1
  -1  -5  -5 1233.33 149.007   6
   1   5   6-8.35476 30.7563   1
  -1  -5  -6-6.61744 10.3297  11
   1   5   6-24.3556 20.3637   5
  -1  -5  -6 45.2857 40.9934   6
  -1  -5  -6-16.4023 11.7492   2
  -1  -5  -6-17.8791 26.4996   5
   1   5   6-8.74943 22.5457   8
   1   5   6-34.2340 35.8404   7
  -1  -5  -6-46.8144 38.3342   4
  -1  -5  -7 430.560 94.5444   6
   1   5   7 441.508 97.0707   5
  -1  -5  -7 481.535 56.4971   2
   1   5   7 421.272 112.799   1
  -1  -5  -7 406.773 88.1995   5
  -1  -5  -7 434.673 103.913   4
   1   5   7 494.146 105.859   7
   1   5   7 506.828 102.332   8
  -1  -5  -8 3715.84 286.499   6
  -1  -5  -8 4213.31 356.151   4
   1   5   8 4524.68 330.339   8
  -1  -5  -9 35.6711 51.4796   4
   1   6 -10 216.732 88.1443   2
  -1  -6  10 140.059 52.2222  11
   1   6 -10 154.153 83.3023   3
   1   6 -10 88.7588 45.4963   7
  -1  -6  10 203.027 78.3901   9
   1   6  -9 52.4867 31.6588   2
   1   6  -9-101.633 65.6149   3
  -1  -6   9 54.3526 37.1703  11
   1   6  -9 5.04201 18.1635   7
  -1  -6   8 443.384 93.9755   6
   1   6  -8 542.441 125.916   2
   1   6  -8 339.701 114.892   3
   1   6  -8 401.599 115.044   5
   1   6  -8 331.188 92.2433   7
  -1  -6   8 428.424 89.8937  11
  -1  -6   7 4943.67 335.701   6
  -1  -6   7 4559.40 324.222  11
   1   6  -7 5430.45 471.793   3
   1   6  -7 4714.09 360.089   7
   1   6  -7 4681.34 370.632   2
   1   6  -7 5227.96 392.695   5
   1   6  -6 10369.1 586.780   5
   1   6  -6 11055.1 656.770   3
   1   6  -6 10477.2 553.469   7
   1   6  -6 10191.4 559.213   2
  -1  -6   6 9814.59 507.119   6
   1   6  -5 2750.53 271.694   5
   1   6  -5 2569.10 240.322   7
  -1  -6   5 2742.61 235.585   6
   1   6  -5 2726.39 252.657   2
   1   6  -4 15964.3 675.754   7
  -1  -6   4 14473.6 721.129   5
   1   6  -4 14995.7 724.052   5
   1   6  -4 14879.6 662.876   2
  -1  -6   4 15166.4 661.649   6
  -1  -6   3 5465.22 329.933   2
  -1  -6   3 5991.95 413.351   5
   1   6  -3 5985.49 359.429   2
   1   6  -3 5901.81 358.544   7
   1   6  -3 5559.81 399.685   5
  -1  -6   3 6270.68 373.879   6
   1   6  -2 725.164 112.256   2
   1   6  -2 685.996 54.9809   8
  -1  -6   2 614.372 125.670   5
  -1  -6   2 673.356 114.179   6
   1   6  -2 652.847 105.688   7
   1   6  -2 610.727 119.452   5
  -1  -6   2 777.978 108.693   2
  -1  -6   2 733.081 121.709   7
   1   6  -1 2971.54 152.651   8
   1   6  -1 2996.24 275.434   5
  -1  -6   1 3493.21 259.844   6
  -1  -6   1 2719.85 224.123  10
  -1  -6   1 3008.87 283.646   5
  -1  -6   1 3273.48 218.891   2
   1   6  -1 2974.31 233.355   7
  -1  -6   1 3016.89 250.473   7
   1   6   0 1375.59 132.776   4
   1   6   0 1591.28 191.739   5
  -1  -6   0 1528.04 197.921   5
  -1  -6   0 1345.40 161.101   6
  -1  -6   0 1649.83 123.237   8
   1   6   0 1390.14 157.170   7
   1   6   0 1451.23 110.588   8
  -1  -6   0 1810.70 177.906  10
  -1  -6   0 1694.78 176.812   7
  -1  -6   0 1467.86 133.738   2
  -1  -6  -1 40.2266 32.0373   6
   1   6   1 53.2124 32.3405   7
  -1  -6  -1 64.7713 40.2883   5
   1   6   1 62.4634 26.7411   8
  -1  -6  -1 21.9149 21.6762   2
   1   6   1 61.3853 25.7184   4
  -1  -6  -1 50.1042 25.3994   8
   1   6   1 81.1772 46.7552   5
  -1  -6  -2 87.0171 44.9618   6
  -1  -6  -2 99.4583 59.1033   5
   1   6   2 109.833 36.3743   8
   1   6   2 100.714 46.3817   1
  -1  -6  -2 61.1992 23.7242   8
  -1  -6  -2 92.1415 30.6917   2
   1   6   2 100.240 39.5720   4
   1   6   2 62.8235 15.7016   7
   1   6   2 141.526 68.2050   5
   1   6   3 2021.77 184.628   4
   1   6   3 1805.71 212.935   5
   1   6   3 1874.11 199.098   1
   1   6   3 1905.97 194.319   7
   1   6   3 1805.02 158.434   8
  -1  -6  -3 1397.90 116.045   2
  -1  -6  -3 1811.88 214.963   5
  -1  -6  -3 1837.34 197.800   6
   1   6   4 3225.19 227.070   8
  -1  -6  -4 3110.14 286.964   5
   1   6   4 3550.58 275.892   7
  -1  -6  -4 3622.82 283.969   6
   1   6   4 3237.77 287.333   5
   1   6   4 3451.84 279.325   1
   1   6   4 2651.47 222.707   3
  -1  -6  -5 732.384 132.298   6
  -1  -6  -5 159.715 41.1400   2
  -1  -6  -5 372.947 57.5080   2
  -1  -6  -5 848.367 148.162   5
   1   6   5 818.972 117.216   8
   1   6   5 801.990 82.3101   3
  -1  -6  -5 1046.03 144.063   4
   1   6   5 606.887 87.7575   3
   1   6   5 931.718 148.123   7
   1   6   5 979.815 152.051   1
  -1  -6  -5 773.112 89.1627  11
   1   6   5 1100.08 167.551   5
  -1  -6  -6 540.312 115.705   6
   1   6   6 359.140 40.3127   3
   1   6   6 601.162 117.783   7
  -1  -6  -6 479.935 105.336   4
   1   6   6 537.955 118.105   5
  -1  -6  -6 374.747 46.6920   2
   1   6   6 594.904 107.467   8
  -1  -6  -6 286.700 94.3621   5
   1   6   6 625.161 127.465   1
  -1  -6  -7 7722.48 483.522   4
   1   6   7 7357.56 497.436   1
   1   6   7 7474.17 438.355   8
   1   6   7 7110.55 470.455   5
   1   6   7 6438.54 455.844   7
  -1  -6  -7 7289.84 452.347   6
  -1  -6  -8 45.8421 50.6784   6
   1   6   8-5.48854 24.4810   7
   1   6   8 19.4498 19.3596   5
   1   6   8-39.6736 51.9196   8
  -1  -6  -8 26.9051 45.1080   4
  -1  -6  -9 1193.97 200.613   4
   1   7  -9 39.2885 43.8009   7
  -1  -7   9 72.7163 46.6894  11
   1   7  -9 164.670 89.9051   3
   1   7  -9 94.5754 62.0240   2
  -1  -7   8 1959.47 217.473   6
  -1  -7   8 2062.88 220.314  11
   1   7  -8 2097.79 266.664   2
   1   7  -8 1673.24 236.905   5
   1   7  -8 2035.92 238.060   7
   1   7  -8 2024.84 306.887   3
   1   7  -7 148.089 77.4760   5
   1   7  -7 52.6898 27.9922   7
  -1  -7   7 183.021 67.1085  11
   1   7  -7 197.204 78.3831   2
  -1  -7   7 155.220 66.6749   6
   1   7  -7 90.9969 74.6962   3
   1   7  -6 74.5360 43.1211   2
  -1  -7   6 51.5475 35.7843   6
  -1  -7   6 29.1781 15.3527  11
   1   7  -6-39.1914 31.8548   5
   1   7  -6 45.6528 52.4892   3
   1   7  -6 48.7872 35.9502   7
  -1  -7   5 1376.79 175.996   6
   1   7  -5 1180.61 172.623   2
   1   7  -5 1068.32 179.365   5
   1   7  -5 1136.33 163.612   7
   1   7  -4 2238.86 225.333   7
   1   7  -4 2001.11 220.239   2
   1   7  -4 1985.82 248.965   5
  -1  -7   4 2280.32 237.828   6
   1   7  -3 76.3997 59.9094   5
  -1  -7   3 83.7381 51.3920   6
   1   7  -3 48.7570 38.9218   2
   1   7  -3 102.021 46.8478   7
  -1  -7   2 2529.90 254.439   6
   1   7  -2 2575.03 236.781   2
   1   7  -2 2640.67 136.467   8
   1   7  -2 3035.61 253.702   7
   1   7  -2 2997.25 298.723   5
  -1  -7   1 1095.03 156.849   6
   1   7  -1 1068.50 138.946   2
   1   7  -1 1050.34 143.348   7
   1   7  -1 946.539 164.586   5
   1   7  -1 995.101 86.7002   8
  -1  -7   1 876.554 115.816   2
  -1  -7   0 369.965 89.6324   6
   1   7   0 490.570 66.0684   8
   1   7   0 413.502 106.095   5
  -1  -7   0 417.856 67.6815   8
  -1  -7   0 284.203 60.4531   2
   1   7   0 363.284 70.9890   4
   1   7   0 414.689 92.9245   7
   1   7   1 2367.94 167.297   8
  -1  -7  -1 1517.53 146.530   2
   1   7   1 2031.64 241.999   5
  -1  -7  -1 2276.89 172.259   8
   1   7   1 2353.94 196.745   4
   1   7   1 2329.02 224.352   7
  -1  -7  -1 2350.60 236.365   6
   1   7   2 6295.73 312.145   8
   1   7   2 5820.02 386.764   1
   1   7   2 5948.44 375.361   7
   1   7   2 6344.19 398.612   3
  -1  -7  -2 5745.48 391.533   6
   1   7   2 5318.62 404.542   5
   1   7   3 2911.28 293.354   5
  -1  -7  -3 1832.47 144.498   2
   1   7   3 2442.86 246.577   3
   1   7   3 3398.72 286.923   1
   1   7   3 3434.32 282.608   7
   1   7   3 3295.13 229.501   8
  -1  -7  -3 2943.66 276.778   6
  -1  -7  -4 484.162 121.812   6
   1   7   4 548.029 126.889   5
   1   7   4 626.348 124.101   1
   1   7   4 677.095 108.926   8
   1   7   4 739.779 136.967   7
  -1  -7  -4 283.791 51.7135   2
   1   7   5 592.345 80.3191   3
  -1  -7  -5 759.413 139.436   6
   1   7   5 595.330 98.7153   3
   1   7   5 741.847 117.816   8
   1   7   5 872.325 161.070   5
   1   7   5 765.890 142.622   1
   1   7   5 617.299 130.747   7
   1   7   6 618.065 134.119   7
  -1  -7  -6 553.108 120.444   6
   1   7   6 508.106 126.066   5
   1   7   6 666.923 116.368   8
   1   7   6 558.439 124.354   1
  -1  -7  -7 394.815 106.159   6
   1   7   7 525.368 110.710   8
  -1  -7  -7 419.980 111.702   4
   1   7   7 521.545 125.392   1
   1   7   7 486.475 121.646   5
   1   7   7 448.267 120.593   7
   1   7   8 266.708 99.6799   1
  -1  -7  -8 212.715 78.1794   6
   1   7   8 243.921 83.5589   8
   1   7   8 230.767 80.2388   7
  -1  -7  -8 217.759 78.0655   4
   1   8  -8 64.4418 43.3787   2
  -1  -8   8 161.460 70.6356   6
   1   8  -8 301.963 127.295   3
   1   8  -8 67.9308 51.8455   7
   1   8  -8 72.7255 44.1306   5
  -1  -8   8 202.425 84.6578  11
  -1  -8   7 39.2989 38.9241   6
   1   8  -7 24.8995 23.3966   2
  -1  -8   7 9.89721 21.2014  11
   1   8  -7 21.3390 20.9685   5
   1   8  -7-28.4908 74.3746   3
   1   8  -7 23.9151 49.4552   7
   1   8  -6 2988.55 311.078   2
  -1  -8   6 3099.64 287.344  11
   1   8  -6 2891.35 287.136   7
   1   8  -6 3632.04 401.618   3
  -1  -8   6 2320.21 258.733   6
   1   8  -6 3259.24 349.769   5
   1   8  -5 7115.15 481.134   2
   1   8  -5 7151.48 539.423   5
  -1  -8   5 6684.88 457.074   6
   1   8  -5 7281.63 463.575   7
  -1  -8   4 199.196 84.3673   6
   1   8  -4 359.756 117.598   5
   1   8  -4 304.994 83.2583   7
   1   8  -4 353.315 93.1961   2
   1   8  -3 179.171 71.0036   2
   1   8  -3 173.226 63.8574   7
   1   8  -3 117.362 71.1650   5
  -1  -8   3 139.692 70.4925   6
   1   8  -2 3742.56 362.628   5
   1   8  -2 3461.36 294.694   7
   1   8  -2 3494.21 293.671   2
  -1  -8   2 3633.11 320.230   6
   1   8  -1 3057.44 264.774   2
   1   8  -1 3020.44 178.177   8
   1   8  -1 3025.04 327.855   5
   1   8  -1 2962.93 275.731   7
  -1  -8   1 3129.39 303.332   6
  -1  -8   0 7404.34 394.987   2
   1   8   0 8804.16 585.277   5
  -1  -8   0 9434.64 541.631   6
   1   8   0 8983.01 509.018   7
   1   8   0 8814.97 371.225   8
   1   8   1 5336.75 374.127   7
   1   8   1 5817.87 293.523   8
  -1  -8  -1 5779.49 305.966   8
   1   8   1 5308.85 434.308   5
  -1  -8  -1 5477.02 400.053   6
   1   8   1 5652.34 434.617   3
  -1  -8  -2 721.787 97.9038   2
   1   8   2 1422.44 221.128   5
   1   8   2 1605.80 213.377   3
   1   8   2 1742.93 217.668   1
   1   8   2 1799.65 164.777   8
   1   8   2 1483.23 195.543   7
  -1  -8  -2 1586.34 214.378   6
   1   8   3 1390.76 153.376   8
   1   8   3 1241.91 183.399   3
   1   8   3 1211.44 202.859   5
  -1  -8  -3 1316.07 194.854   6
   1   8   3 1040.83 170.135   7
   1   8   3 1385.97 192.674   1
   1   8   4 813.672 153.922   1
   1   8   4 683.007 123.727   3
   1   8   4 616.554 143.695   5
   1   8   4 761.922 118.173   8
   1   8   4 833.020 157.806   7
  -1  -8  -4 704.434 140.817   6
   1   8   5 864.097 175.878   5
  -1  -8  -5 971.739 172.686   6
   1   8   5 1086.01 148.964   8
   1   8   5 1160.70 189.529   1
   1   8   5 1000.55 173.827   7
   1   8   6 407.425 117.646   1
  -1  -8  -6 217.219 81.5932   6
   1   8   6 300.123 98.6999   7
   1   8   6 249.905 94.6903   5
   1   8   6 385.381 93.2514   8
   1   8   7-45.3411 62.5595   5
   1   8   7-14.2749 32.4307   8
  -1  -8  -7 32.1842 36.3921   6
   1   8   7 21.3817 31.9430   1
   1   8   7 23.4808 41.8930   7
   1   9  -7 72.3605 51.8402   2
  -1  -9   7 141.580 63.5075  11
  -1  -9   7 108.639 60.3992   6
   1   9  -7 262.031 122.846   3
   1   9  -7 125.277 70.6268   5
   1   9  -7 179.799 72.1457   7
  -1  -9   6 15.5011 30.7314   6
  -1  -9   6-80.5927 55.3165  11
   1   9  -6 14.8038 33.4268   3
   1   9  -6-107.745 68.2568   5
   1   9  -6 116.966 77.0107   2
   1   9  -6-51.6624 50.7208   7
   1   9  -5 380.193 122.941   5
  -1  -9   5 421.744 107.781  11
  -1  -9   5 254.298 92.5046   6
   1   9  -5 279.530 92.0236   2
   1   9  -5 389.436 99.5899   7
   1   9  -5 294.784 135.762   3
   1   9  -4-22.4520 45.3542   2
   1   9  -4 53.2126 44.1675   5
   1   9  -4 29.5351 35.5478   3
   1   9  -4 25.4282 32.9585   7
   1   9  -3 193.786 76.9906   2
  -1  -9   3 233.648 88.8100   6
   1   9  -3 287.007 93.4767   7
   1   9  -3 335.899 120.754   5
  -1  -9   2 140.705 68.5352   6
   1   9  -2 65.1104 25.4199   2
   1   9  -2 145.490 69.5626   5
   1   9  -2 140.877 63.5941   7
  -1  -9   1 28.3978 41.0131   6
   1   9  -1 16.1586 25.7464   5
   1   9  -1-2.82508 21.3842   7
   1   9  -1 34.9748 19.7914   8
  -1  -9   0 3320.96 334.431   6
   1   9   0 3286.78 365.326   5
   1   9   0 3389.94 217.794   8
   1   9   0 3406.07 360.081   3
   1   9   0 3292.07 313.009   7
  -1  -9  -1 1397.78 214.504   6
   1   9   1 1771.66 251.178   3
   1   9   1 2049.29 243.201   7
   1   9   1 1918.48 238.815   1
   1   9   1 1708.26 159.349   8
   1   9   1 1738.50 263.184   5
   1   9   2 63.9930 51.7778   3
  -1  -9  -2 127.817 66.3910   6
   1   9   2-20.3335 49.3236   5
   1   9   2 11.6874 11.4375   8
   1   9   2 0.24704 23.4094   1
   1   9   2 54.5711 51.6775   7
  -1  -9  -3 292.517 90.9873   6
   1   9   3 182.565 82.3114   3
   1   9   3 281.162 91.3514   7
   1   9   3 215.372 90.4498   5
   1   9   3 311.224 101.152   1
   1   9   3 427.753 87.4281   8
  -1  -9  -4 176.883 77.3317   6
   1   9   4 144.347 62.6431   8
   1   9   4 106.956 58.3099   3
   1   9   4 31.3434 28.7950   1
   1   9   4 38.0014 49.2940   5
   1   9   4 122.916 62.6080   7
  -1  -9  -5 332.492 103.543   6
   1   9   5 438.272 98.1259   8
   1   9   5 546.223 128.754   1
   1   9   5 259.600 98.7511   5
   1   9   5 487.662 123.762   7
  -1  -9  -5 109.545 48.8531  11
   1   9   6-23.6105 20.1920   5
   1   9   6 112.795 74.9315   1
  -1 -10   5 1331.16 217.064   6
  -1 -10   5 1889.60 243.961  11
   1  10  -5 1632.66 307.741   3
   1  10  -5 1455.33 262.881   5
   1  10  -5 1619.64 249.554   2
   1  10  -5 1847.28 237.640   7
   1  10  -4 60.8065 77.7912   3
   1  10  -4-88.4750 71.0490   2
  -1 -10   4-21.0279 27.4585  11
   1  10  -4-10.4534 45.1047   5
  -1 -10   4-88.0234 77.4973   6
   1  10  -4-3.81568 27.4507   7
  -1 -10   3 69.8550 52.0304   6
   1  10  -3 342.278 120.314   3
  -1 -10   3 384.177 102.383  11
   1  10  -3 370.266 104.540   7
   1  10  -3 251.646 104.187   5
   1  10  -3 211.896 79.6745   2
   1  10  -2-11.2922 63.4935   7
   1  10  -2 5.16629 31.7962   2
   1  10  -2-1.13640 39.9574   5
   1  10  -2 17.9811 32.0988   3
  -1 -10   2 149.336 85.7333   6
  -1 -10   1 170.455 90.4544   6
   1  10  -1 92.6838 46.3190   7
   1  10  -1 168.535 90.2226   5
   1  10  -1 90.7543 67.4472   3
   1  10   0 3009.53 363.837   3
   1  10   0 3086.54 384.057   5
   1  10   0 2966.92 211.298   8
   1  10   0 2944.97 312.482   7
  -1 -10   0 3529.90 362.468   6
  -1 -10  -1 1365.00 221.162   6
   1  10   1 1096.95 133.225   8
   1  10   1 880.191 169.239   1
   1  10   1 1005.45 212.828   5
   1  10   1 1121.13 193.265   7
   1  10   1 816.833 188.849   3
   1  10   2 336.349 105.702   1
  -1 -10  -2 370.022 114.991   6
   1  10   2 303.851 111.998   3
   1  10   2 356.134 80.2336   8
   1  10   2 254.610 110.796   5
   1  10   2 345.733 108.110   7
  -1 -10  -3 198.605 86.3085   6
   1  10   3 53.3758 52.0097   3
   1  10   3 178.576 101.683   5
   1  10   3 90.0623 39.0387   8
   1  10   3 83.1573 42.2195   7
   1  10   3 109.034 56.3249   1
  -1 -10  -4-24.8149 24.1906   6
  -1 -10  -4 12.1911 31.6691  11
   1  10   4-106.148 62.2465   1
   1  10   4-18.6172 23.4536   5
   1  10   4-37.3262 38.9480   8
   1  10   4 49.1184 59.6779   7
   1  11  -1 548.450 167.703   3
  -1 -11   1 332.645 125.361   6
   1  11  -1 212.474 97.4840   7
  -1 -11   1 332.464 97.3007  11
   1  11  -1 244.326 112.296   5
  -1 -11   0-85.7311 72.6571   6
  -1 -11   0 43.4500 39.0482  11
   1  11   0 73.3138 82.3658   5
   1  11   0 82.3108 64.5708   7
   1  11   0 43.6093 51.5707   3
  -2  11   2 89.4422 49.1173   5
  -2  11   2 62.9965 48.1558   1
   2 -11  -2 27.3613 21.5429  11
  -2  11   2 13.9947 30.2551   7
   2 -11  -2 85.2948 50.3628   6
   2 -11  -1 231.603 87.1900   6
   2 -11  -1 56.3196 18.2464  11
  -2  11   1 120.206 51.4464   8
  -2  11   1 112.452 37.5514   1
  -2  11   1 174.047 73.5570   7
  -2  11   1 101.344 67.8790   5
   2 -11   0 132.733 81.7356   6
   2 -11   0 168.510 66.3447  11
  -2  11   0 272.515 110.933   5
  -2  11   0 223.141 66.6064   8
  -2  11   0 85.0593 37.7061   1
  -2  11   0 242.346 81.8700   7
  -2  11  -1-53.4868 41.1273   2
  -2  11  -1 11.9975 42.2230   5
   2 -11   1 12.4527 24.7651  11
   2 -11   1 84.9136 89.1810   6
  -2  11  -1 33.7159 27.5864   8
  -2  11  -1-1.53349 24.0148   7
   2 -11   2 199.125 90.2359   6
  -2  11  -2 180.192 78.0691   7
  -2  11  -2 274.461 120.807   5
  -2  11  -2 252.727 84.6914   2
   2 -11   2 178.986 70.7890  11
   2 -11   3 142.679 80.0997   6
  -2  11  -3 116.380 58.4997   2
  -2  11  -3 131.094 57.6321   7
  -2  10   5 22.9285 24.6650   7
  -2  10   5-82.2205 60.2382   5
  -2  10   5 40.2450 43.4937   1
   2 -10  -5 97.8052 80.0166   6
  -2  10   4-7.42020 38.8805   7
   2 -10  -4 22.5571 14.4380  11
  -2  10   4 6.37198 19.4211   1
  -2  10   4 86.1043 83.2425   5
  -2  10   4 99.4657 61.9207   8
  -2  10   3 982.443 165.606   1
   2 -10  -3 582.857 104.517  11
  -2  10   3 1063.19 214.233   5
  -2  10   3 1335.98 210.480   7
  -2  10   3 1417.79 172.503   8
  -2  10   2 266.556 109.108   5
  -2  10   2 257.688 95.2047   7
  -2  10   2 206.496 61.8448   8
  -2  10   2 227.520 77.1421   1
   2 -10  -2 227.041 60.8385  11
   2 -10  -2 385.608 118.680   6
  -2  10   1 499.418 103.886   2
  -2  10   1 801.398 149.524   7
  -2  10   1 1119.71 217.389   5
  -2  10   1 647.452 134.959   1
  -2  10   1 743.901 117.821   8
   2 -10  -1 697.785 130.922  11
   2 -10  -1 827.703 167.213   6
   2 -10   0 356.632 105.464   6
  -2  10   0 183.952 75.3368   2
   2 -10   0 212.663 76.9497  11
  -2  10   0 382.855 78.1044   8
  -2  10   0 205.243 80.5496   7
  -2  10   0 265.528 110.140   5
   2 -10   1 194.204 87.1533   6
  -2  10  -1 174.492 62.5470   2
  -2  10  -1 237.313 57.2426   8
  -2  10  -1 241.834 101.600   5
   2 -10   1 293.227 85.3336  11
  -2  10  -1 311.054 92.2104   7
  -2  10  -2 854.040 138.109   2
   2 -10   2 1030.46 179.810   6
   2 -10   2 740.291 139.234  11
  -2  10  -2 883.937 108.679   8
  -2  10  -2 682.368 138.538   7
  -2  10  -2 855.675 197.351   5
   2 -10   3 51.6082 46.5950  11
  -2  10  -3 91.7130 56.6508   2
   2 -10   3 59.7269 36.8685   6
  -2  10  -3 78.5308 64.5616   5
  -2  10  -3 2.28478 28.6469   7
  -2  10  -4 312.538 89.8559   2
   2 -10   4 321.465 93.9064   6
   2 -10   4 294.943 94.8138  11
  -2  10  -4 275.664 111.739   5
  -2  10  -4 190.951 63.3070   7
   2 -10   5 379.973 111.477   6
   2 -10   5 391.606 102.128  11
  -2  10  -5 280.217 125.593   5
  -2  10  -5 205.751 68.8296   7
  -2  10  -5 262.466 83.4639   2
  -2   9   6-19.9768 40.7558   7
  -2   9   6 63.6307 51.1802  10
  -2   9   6 35.3626 20.7989   8
  -2   9   6-12.0910 26.6547   1
  -2   9   6 29.0833 40.9561   5
  -2   9   5 103.336 59.8042   1
  -2   9   5 167.205 84.5368   5
  -2   9   5 195.371 62.6098   8
  -2   9   5 194.678 78.4736   7
   2  -9  -5 47.9485 29.4021  11
  -2   9   4 2880.72 278.598   1
  -2   9   4 3363.05 269.141   8
  -2   9   4 3329.15 325.595   7
  -2   9   4 3087.86 343.360   5
   2  -9  -4 1817.92 180.479  11
  -2   9   3 420.415 87.8563   8
  -2   9   3 383.413 97.6614   1
   2  -9  -3 311.165 75.3136  11
  -2   9   3 452.089 132.366   5
  -2   9   3 331.320 93.8347   7
   2  -9  -2 86.2580 41.9290  11
  -2   9   2 39.8917 22.5437   2
  -2   9   2-35.4711 47.4509   5
  -2   9   2 14.0859 19.6950   7
  -2   9   2 34.4675 21.6481   8
  -2   9   2-39.1544 38.5442   1
  -2   9   1 563.241 148.523   5
   2  -9  -1 380.163 87.5733  11
  -2   9   1 435.480 99.5332   1
  -2   9   1 383.637 76.8245   8
  -2   9   1 412.658 102.604   7
   2  -9   0 62.2516 37.4111  11
  -2   9   0 159.971 52.0028   8
  -2   9   0 117.323 49.4081   2
   2  -9   0 73.3070 32.7514   2
  -2   9   0 194.227 80.8718   5
  -2   9   0 69.8829 38.8920   7
  -2   9  -1 11.8171 17.0306   2
   2  -9   1 60.9060 39.4292  11
  -2   9  -1 70.4213 61.9903   5
  -2   9  -1 49.7391 23.0677   8
  -2   9  -1 89.8301 51.1945   7
   2  -9   1 9.33566 20.4869   6
   2  -9   2 287.931 89.2091   6
  -2   9  -2 299.576 108.209   5
  -2   9  -2 257.115 75.1148   7
   2  -9   2 260.305 75.3318  11
  -2   9  -2 231.305 52.6529   8
  -2   9  -2 259.657 69.5685   2
   2  -9   3 29.8677 34.9979  11
  -2   9  -3-21.7991 39.0515   5
  -2   9  -3-41.6851 47.4465   7
   2  -9   3-12.3859 17.6395   6
  -2   9  -3-12.4143 24.2447   2
  -2   9  -3-4.05853 6.33561   8
   2  -9   4 190.305 80.4467   6
   2  -9   4 278.803 82.4470  11
  -2   9  -4 227.515 91.5192   5
  -2   9  -4 280.466 50.5184   8
  -2   9  -4 230.458 66.2228   7
  -2   9  -4 247.120 79.7596   2
   2  -9   5 616.231 130.317   6
   2  -9   5 786.950 149.728  11
  -2   9  -5 584.193 148.754   5
  -2   9  -5 428.296 93.8478   7
  -2   9  -5 814.916 149.952   2
   2  -9   6-31.7232 41.9076   6
   2  -9   6-29.5864 36.0041  11
  -2   9  -6 31.1882 28.8419   5
  -2   9  -6 8.90882 20.1262   2
  -2   9  -6-39.5184 33.4707   7
   2  -9   7 37.6267 35.6306  11
  -2   9  -7 8.39790 21.0272   5
  -2   9  -7 30.5037 23.4473   7
  -2   9  -7 55.9375 46.4021   2
  -2   8   8 227.731 85.5946   5
  -2   8   8 166.645 74.2930  10
  -2   8   7 182.606 68.5012   1
  -2   8   7 188.329 73.7088   5
  -2   8   7 187.363 74.9763   8
  -2   8   7 283.222 101.613  10
  -2   8   7 369.031 115.653   7
  -2   8   6 143.251 66.1982  10
  -2   8   6 186.679 76.9276   5
  -2   8   6 275.212 98.2779   7
  -2   8   6 59.0157 38.9850   8
  -2   8   6 41.2410 30.7077   1
  -2   8   5 101.136 43.7417   1
   2  -8  -5 64.4458 28.2445  11
  -2   8   5 94.5115 55.0769  10
  -2   8   5 175.857 61.7710   8
  -2   8   5 87.4235 48.9129   7
  -2   8   5 83.8683 59.4297   5
  -2   8   4 1806.19 225.293   7
  -2   8   4 1663.66 239.179   5
   2  -8  -4 1602.10 150.286  11
  -2   8   4 1954.32 227.730  10
  -2   8   4 2043.87 196.237   8
  -2   8   4 1488.32 168.232   3
  -2   8   4 1769.43 197.122   1
   2  -8  -3 4669.37 283.696  11
  -2   8   3 4929.21 363.863  10
  -2   8   3 4921.28 317.368   8
  -2   8   3 4743.27 412.632   5
  -2   8   3 5196.49 378.013   7
  -2   8   3 5055.95 343.185   1
  -2   8   2 3815.40 310.414   7
  -2   8   2 3442.00 203.703   2
  -2   8   2 3910.57 261.206   8
  -2   8   2 3720.44 281.576   1
  -2   8   2 3883.80 373.072   5
   2  -8  -2 2744.95 172.889   2
   2  -8  -2 3416.70 241.070  11
   2  -8  -1 346.927 65.9630   2
  -2   8   1 576.827 108.313   1
  -2   8   1 615.121 92.4249   8
   2  -8  -1 525.226 95.1436  11
  -2   8   1 682.453 146.284   5
  -2   8   1 584.484 116.284   7
   2  -8   0-3.16380 16.9590  11
  -2   8   0 39.0970 28.2632   2
   2  -8   0 2.92180 16.4572   2
  -2   8   0 13.8782 24.8911   8
  -2   8   0 14.2236 26.1067   7
  -2   8   0 30.6573 26.9873   5
   2  -8   1 38.7309 44.3853   2
   2  -8   1-8.71375 29.6046  11
  -2   8  -1 34.2174 36.1817   7
  -2   8  -1 40.3113 20.6020   8
  -2   8  -1 49.0933 19.8581   2
  -2   8  -1-10.7621 33.3554   5
  -2   8  -2 1145.76 143.491   2
  -2   8  -2 1179.90 114.366   8
   2  -8   2 963.963 138.572  11
  -2   8  -2 1129.13 199.473   5
  -2   8  -2 1051.85 143.122   7
  -2   8  -3 4426.47 302.918   7
   2  -8   3 3672.50 261.392  10
  -2   8  -3 4343.86 310.832   2
  -2   8  -3 4547.72 407.075   5
  -2   8  -3 4182.10 225.583   8
   2  -8   3 3795.13 298.049  11
   2  -8   3 4225.88 321.117   6
   2  -8   4 226.928 76.1511   6
   2  -8   4 308.183 79.8666  11
   2  -8   4 430.403 77.4729  10
  -2   8  -4 266.562 66.7492   7
  -2   8  -4 280.072 106.151   5
  -2   8  -4 342.237 53.8953   8
  -2   8  -4 396.444 95.4675   2
  -2   8  -5 3911.76 322.754   2
  -2   8  -5 3772.90 194.255   8
   2  -8   5 3578.51 237.630  10
   2  -8   5 3724.34 303.643  11
  -2   8  -5 3302.46 258.028   7
   2  -8   5 3278.09 274.676   6
  -2   8  -5 3475.07 350.982   5
   2  -8   6 7.96972 18.3049   6
   2  -8   6 69.2461 44.8877  11
  -2   8  -6 39.7008 23.7848   5
  -2   8  -6 15.3724 10.5669   7
  -2   8  -6-100.234 67.3654   2
   2  -8   7 146.605 58.9131   6
   2  -8   7 167.870 65.8888  11
  -2   8  -7 97.2594 73.1672   5
  -2   8  -7 85.7921 45.6594   7
  -2   8  -7 115.092 54.0916   2
   2  -8   8 990.145 161.856  11
   2  -8   8 1020.69 162.041   9
  -2   8  -8 1207.68 194.848   5
  -2   8  -8 1389.40 211.121   2
  -2   7   8 1361.29 184.754   8
  -2   7   8 1491.50 215.822  10
  -2   7   8 910.932 163.446   5
  -2   7   7 142.922 71.6575  10
  -2   7   7 241.495 73.0368   8
  -2   7   7 173.055 70.0884   5
  -2   7   6 29.9106 47.9990   7
   2  -7  -6 3.44748 6.52753  11
  -2   7   6 21.1963 31.0329  10
   2  -7  -6-24.1431 10.0348   9
  -2   7   6 11.5506 20.3534   1
  -2   7   6-27.2715 41.9717   5
  -2   7   6 13.3246 17.4520   8
  -2   7   5 500.934 122.919   5
   2  -7  -5 600.311 74.4843  11
  -2   7   5 611.829 106.102   8
  -2   7   5 732.326 135.301  10
  -2   7   5 928.954 157.067   7
   2  -7  -5 650.886 91.1560   9
  -2   7   5 622.697 97.2694   3
  -2   7   5 617.732 113.976   1
  -2   7   4 4295.85 284.140   8
  -2   7   4 3567.02 260.926   3
   2  -7  -4 3662.09 220.370  11
  -2   7   4 3936.00 349.771   5
  -2   7   4 4290.60 326.176  10
   2  -7  -4 4089.06 236.878   9
  -2   7   4 4219.25 301.969   1
  -2   7   4 4237.24 331.802   7
  -2   7   3 6698.59 381.708   3
   2  -7  -3 7005.00 338.024  11
  -2   7   3 7275.57 488.029   5
  -2   7   3 7139.89 373.662   8
  -2   7   3 7656.13 443.581   7
  -2   7   3 6822.86 419.301  10
  -2   7   3 7172.48 397.339   1
  -2   7   2 6209.04 370.284   3
   2  -7  -2 6752.60 338.924  11
  -2   7   2 7280.65 484.579   5
  -2   7   2 6484.82 275.510   2
  -2   7   2 6404.69 380.971  10
  -2   7   2 6826.52 346.131   8
  -2   7   2 6749.63 374.070   1
  -2   7   2 7422.70 419.362   7
  -2   7   1 2487.27 217.528   7
  -2   7   1 2065.68 144.639   2
   2  -7  -1 2057.33 177.664  11
  -2   7   1 2144.22 252.750   5
   2  -7  -1 1497.20 138.276   2
  -2   7   1 2216.58 170.627   8
  -2   7   0 4061.40 359.992   5
  -2   7   0 3860.25 228.318   8
   2  -7   0 3849.08 268.975  10
   2  -7   0 4037.63 257.928  11
  -2   7   0 4099.98 280.676   7
   2  -7   0 3336.53 223.786   2
  -2   7  -1 6286.32 328.788   2
  -2   7  -1 7197.93 486.463   5
   2  -7   1 6457.86 355.713  11
  -2   7  -1 6844.95 367.763   7
   2  -7   1 6566.61 352.779  10
  -2   7  -1 6507.95 301.656   8
   2  -7   1 5712.66 353.708   7
   2  -7   1 5873.41 332.033   2
   2  -7   2 1017.43 133.188  11
  -2   7  -2 1007.70 128.007   2
   2  -7   2 1008.22 121.709  10
  -2   7  -2 881.962 166.214   5
  -2   7  -2 955.136 97.9852   8
   2  -7   2 1005.22 132.252   2
  -2   7  -2 1070.12 129.797   7
   2  -7   2 837.874 132.442   7
  -2   7  -3 156.529 46.2043   7
   2  -7   3 73.8610 31.9771  11
   2  -7   3 79.1807 30.2550  10
  -2   7  -3 102.839 41.3796   2
  -2   7  -3 127.018 62.2955   5
   2  -7   3 30.1730 14.2195   7
   2  -7   4 845.114 130.229   6
  -2   7  -4 1046.47 177.681   5
   2  -7   4 925.203 106.001  10
   2  -7   4 1144.61 146.306  11
  -2   7  -4 1029.19 125.278   7
  -2   7  -4 976.169 141.451   2
  -2   7  -5 2981.98 265.232   2
  -2   7  -5 2706.21 300.062   5
   2  -7   5 2916.32 251.115  11
   2  -7   5 2750.41 187.244  10
  -2   7  -5 2946.75 220.728   7
   2  -7   5 2663.15 225.537   6
  -2   7  -6 2274.93 241.056   2
   2  -7   6 1712.25 196.765  11
   2  -7   6 2029.40 189.706   6
  -2   7  -6 2006.57 242.511   5
  -2   7  -6 1995.34 184.144   7
   2  -7   7 398.649 79.3287   6
   2  -7   7 400.915 94.6289  11
  -2   7  -7 404.487 102.764   2
  -2   7  -7 284.317 73.9242   7
  -2   7  -7 512.243 115.057   5
   2  -7   8 123.573 51.1622  11
  -2   7  -8 320.597 96.4945   5
   2  -7   8 212.603 71.2440   9
  -2   7  -8 311.547 99.6988   2
  -2   7  -8 16.2496 12.4646   7
   2  -7   9 35.3812 33.3017  11
   2  -7   9 45.2969 38.1401   9
  -2   7  -9 35.7098 26.7017   2
  -2   6   9 1182.35 190.074  10
  -2   6   9 1370.16 188.191   8
   2  -6  -9 1320.86 205.297   4
  -2   6   8 35.5123 22.0366  10
  -2   6   8 47.7086 33.7556   8
  -2   6   8 63.1742 41.7332   5
   2  -6  -8 46.4240 31.6622   4
  -2   6   7 36.0027 15.4416  10
  -2   6   7 16.6646 23.2360   8
   2  -6  -7-11.9619 37.1674   4
  -2   6   7 45.9182 47.7625   5
  -2   6   6 27.4444 33.1095  10
  -2   6   6-5.22743 16.3780   3
  -2   6   6 21.6607 32.7917   7
  -2   6   6 27.4994 31.3916   8
   2  -6  -6-21.2688 22.2169   9
  -2   6   6-3.11431 18.0591   1
  -2   6   6 20.9171 28.7213   5
   2  -6  -6-2.63870 5.36959  11
  -2   6   5 250.213 62.5632   8
  -2   6   5 326.931 80.9813  10
  -2   6   5 339.859 99.9046   5
   2  -6  -5 288.930 54.7157   9
  -2   6   5 300.555 64.3045   3
   2  -6  -5 254.394 42.3047  11
  -2   6   5 237.475 61.9788   1
  -2   6   5 260.610 74.3070   7
  -2   6   4 329.106 73.6647   1
  -2   6   4 271.763 78.7487  10
  -2   6   4 250.338 71.9640   7
   2  -6  -4 295.713 49.4165  11
  -2   6   4 164.683 61.1618   5
  -2   6   4 333.516 66.1835   3
  -2   6   4 376.802 75.9137   8
   2  -6  -4 312.526 55.6588   9
  -2   6   3 4798.53 308.963  10
  -2   6   3 4406.27 352.962   5
  -2   6   3 4527.27 271.673   8
  -2   6   3 4403.43 273.751   3
  -2   6   3 4125.36 295.693   7
   2  -6  -3 4598.64 233.845  11
  -2   6   3 3935.82 269.212   1
  -2   6   2 52732.1 1561.19   3
   2  -6  -2 53720.6 1603.67  10
  -2   6   2 49586.4 1566.91  10
  -2   6   2 50492.3 1581.87   7
   2  -6  -2 46094.2 1468.19  11
  -2   6   2 55503.1 1735.15   5
  -2   6   2 50905.8 1502.78   8
   2  -6  -2 47326.6 1548.79   7
  -2   6   2 50045.9 1385.69   2
  -2   6   1 302.800 86.4301   5
  -2   6   1 262.248 53.7918   8
   2  -6  -1 231.008 53.2181  11
  -2   6   1 209.205 66.0419  10
   2  -6  -1 244.394 60.0174  10
  -2   6   1 266.305 69.3296   3
  -2   6   1 259.938 64.7607   7
   2  -6  -1 207.329 57.4077   7
  -2   6   1 228.129 39.9252   2
   2  -6  -1 246.795 44.3899   2
  -2   6   0 6715.43 379.345   3
  -2   6   0 6339.12 311.862   2
   2  -6   0 7527.99 363.062  11
   2  -6   0 7418.25 339.476   2
   2  -6   0 7534.58 374.094  10
  -2   6   0 8234.12 337.673   8
  -2   6   0 7963.21 383.145   7
   2  -6   0 7435.56 378.750   7
   2  -6   1 421.103 75.1200  11
  -2   6  -1 534.028 98.4002   3
   2  -6   1 467.465 76.6106  10
   2  -6   1 490.816 80.6451   2
  -2   6  -1 544.623 69.6871   8
   2  -6   1 559.925 90.2399   7
  -2   6  -1 515.551 118.993   5
  -2   6  -1 465.666 79.0339   7
  -2   6  -2 6639.31 338.114   2
   2  -6   2 6043.89 329.994  11
   2  -6   2 6235.79 303.878  10
  -2   6  -2 6917.82 329.295   7
  -2   6  -2 6507.35 428.508   5
   2  -6   2 6348.80 342.080   2
  -2   6  -3 4295.73 283.969   2
  -2   6  -3 4191.57 250.469   7
   2  -6   3 4218.91 285.512   2
   2  -6   3 4282.53 235.048  10
   2  -6   3 4108.01 272.546  11
  -2   6  -3 4585.12 354.460   5
  -2   6  -4 3231.78 250.704   2
   2  -6   4 2660.85 172.133  10
  -2   6  -4 2883.65 271.674   5
   2  -6   4 1991.00 184.104   6
   2  -6   4 2793.52 221.839  11
  -2   6  -4 3140.30 207.142   7
   2  -6   5 732.004 112.572  11
   2  -6   5 753.519 81.4132  10
  -2   6  -5 738.077 140.559   5
  -2   6  -5 713.071 118.887   2
  -2   6  -5 777.746 98.7252   7
   2  -6   6 2819.23 239.806  11
   2  -6   6 3080.84 166.565  10
  -2   6  -6 2572.15 263.841   5
  -2   6  -6 2961.08 212.705   7
  -2   6  -6 2907.48 264.787   2
   2  -6   7 106.468 36.1835   6
  -2   6  -7 68.0658 38.7645   5
   2  -6   7 92.7510 47.0041  11
   2  -6   7 80.4483 42.2997   9
  -2   6  -7 56.4727 33.0981   2
  -2   6  -7 80.7265 38.3510   7
  -2   6  -8 117.227 47.8770   5
   2  -6   8 88.9645 39.6012  11
   2  -6   8 115.058 56.1868   9
  -2   6  -8 150.608 64.4171   2
  -2   6  -8 55.2103 31.2599   7
   2  -6   9 804.125 136.987  11
  -2   6  -9 896.050 164.639   2
   2  -6   9 854.519 149.632   9
  -2   5  10 8.55761 24.6663  10
   2  -5 -10 5.12055 17.5646   4
  -2   5  10-27.5125 29.3641   8
   2  -5  -9 30.3777 15.0418   4
  -2   5   9-37.8490 49.3620  10
  -2   5   9 46.8869 34.2205   8
  -2   5   8 2497.10 259.512  10
   2  -5  -8 2745.94 276.614   4
  -2   5   8 2323.17 226.309   8
  -2   5   7 595.087 121.347  10
  -2   5   7 276.528 84.9015   5
  -2   5   7 411.387 90.5480   8
   2  -5  -7 423.333 74.0073   9
   2  -5  -7 484.263 105.234   4
  -2   5   7 519.255 62.1247   3
   2  -5  -6-1.44885 2.73820  11
  -2   5   6-34.7102 19.2272   3
  -2   5   6 27.3378 25.7935   5
   2  -5  -6 19.6080 15.8073   9
  -2   5   6 12.8231 26.1556  10
  -2   5   6 24.2744 14.9779   8
   2  -5  -6-17.6651 29.4131   4
  -2   5   5 50.9522 29.5231  10
   2  -5  -5 66.6571 26.9198   9
   2  -5  -5 51.7542 29.5371   1
  -2   5   5 62.5757 26.6642   3
   2  -5  -5 44.9792 17.0046  11
  -2   5   5-8.63515 11.5779   5
  -2   5   5 82.7671 35.7800   8
  -2   5   5 50.5173 13.5024   1
  -2   5   5 44.6500 30.2202   7
  -2   5   4 265.557 60.1569   1
  -2   5   4 144.712 49.1464  10
  -2   5   4 56.4409 52.9734   5
   2  -5  -4 136.904 28.5110  11
   2  -5  -4 176.601 37.7579   9
  -2   5   4 142.835 40.6466   3
  -2   5   4 145.486 42.4627   8
  -2   5   4 124.149 50.2773   7
  -2   5   3 4406.34 260.962   3
  -2   5   3 4096.15 315.410   5
  -2   5   3 5185.94 305.251  10
  -2   5   3 5020.38 268.733   8
   2  -5  -3 4869.65 228.536  11
  -2   5   3 4893.29 300.955   7
  -2   5   3 5076.94 303.595   4
  -2   5   2 8068.96 277.072   2
   2  -5  -2 8252.70 341.411  11
  -2   5   2 6995.00 440.527   5
   2  -5  -2 9037.80 422.947  10
  -2   5   2 8493.18 387.590   3
  -2   5   2 8378.19 396.861  10
  -2   5   2 8742.89 368.348   8
  -2   5   2 8877.32 411.092   7
  -2   5   2 7762.69 352.648   1
  -2   5   2 8672.30 408.383   4
   2  -5  -1 30177.6 966.429  10
   2  -5  -1 27493.6 899.813  11
  -2   5   1 30458.3 969.463   3
   2  -5  -1 27218.7 858.449   2
  -2   5   1 30168.8 905.760   8
  -2   5   1 28757.4 952.950   7
  -2   5   1 28531.7 848.221   2
  -2   5   1 29673.8 951.662  10
   2  -5   0 260.417 52.3221  11
   2  -5   0 335.128 62.2429  10
  -2   5   0 298.258 59.9967  10
   2  -5   0 305.716 52.6139   2
  -2   5   0 249.064 45.4904   8
  -2   5   0 268.701 66.8837   3
  -2   5   0 240.366 43.1435   2
  -2   5   0 354.723 64.9889   7
  -2   5  -1 6631.38 317.842   7
   2  -5   1 7111.79 334.672  11
   2  -5   1 7093.77 320.408  10
  -2   5  -1 7323.31 370.721   3
   2  -5   1 6242.47 319.134   7
   2  -5   1 7505.09 341.831   2
  -2   5  -2 6022.29 381.250   5
   2  -5   2 5880.26 267.872  10
  -2   5  -2 5203.45 269.277   7
   2  -5   2 6159.67 307.379  11
   2  -5   2 5634.21 290.039   7
   2  -5   2 5392.09 305.572   2
  -2   5  -2 5699.10 330.978   3
   2  -5   3 63.0091 23.2079  11
   2  -5   3 28.7870 16.6535  10
  -2   5  -3-0.17005 20.8385   5
   2  -5   3 31.7176 13.6671   2
  -2   5  -3 25.3506 21.2082   2
  -2   5  -3 9.82149 14.1091   3
  -2   5  -3 23.7502 18.2412   7
   2  -5   3-0.60669 8.83359   7
   2  -5   4 3590.52 264.137   2
   2  -5   4 3441.53 174.919  10
  -2   5  -4 3523.27 250.156   2
   2  -5   4 3445.08 236.125  11
  -2   5  -4 3491.21 282.422   5
  -2   5  -4 3443.62 204.063   7
  -2   5  -4 3370.52 257.809   3
  -2   5  -5 4046.76 285.036   2
  -2   5  -5 4521.91 318.538   5
   2  -5   5 3875.78 178.368  10
   2  -5   5 4078.63 268.312  11
  -2   5  -5 4094.92 228.953   7
   2  -5   5 3213.76 207.993   6
  -2   5  -6 22814.3 865.790   2
   2  -5   6 21420.3 632.731  10
   2  -5   6 20584.3 800.420   9
  -2   5  -6 23719.6 873.020   5
   2  -5   6 21993.4 810.551  11
  -2   5  -6 22514.2 745.743   7
   2  -5   6 18430.5 689.040   6
   2  -5   7 111.678 29.0723   6
   2  -5   7 50.7057 23.3334  11
  -2   5  -7 128.080 47.5480   5
   2  -5   7 152.427 56.7167   9
   2  -5   7 151.086 23.6331  10
  -2   5  -7 138.659 38.6593   7
  -2   5  -7 85.4277 36.3585   2
   2  -5   8 1222.05 151.823  11
  -2   5  -8 1158.76 146.516   5
  -2   5  -8 833.498 95.0490   8
   2  -5   8 1004.10 145.779   9
  -2   5  -8 905.098 112.812   7
  -2   5  -8 1162.33 172.154   2
   2  -5   9 8.72403 11.9498  11
   2  -5   9 16.8534 29.9924   9
  -2   5  -9-3.89088 26.3217   2
  -2   5  -9-9.76903 8.03823   7
   2  -5  10 203.011 67.8716  11
  -2   5 -10 206.086 81.1756   2
   2  -5  10 370.623 97.5786   9
  -2   4  10 507.605 119.342  10
  -2   4  10 582.843 116.090   8
   2  -4 -10 655.440 141.426   4
  -2   4   9 331.836 85.9309  10
  -2   4   9 423.299 91.2828   8
   2  -4  -9 478.765 123.523   4
  -2   4   8 1453.70 183.931  10
  -2   4   8 1430.98 169.237   8
   2  -4  -8 1479.31 194.497   4
  -2   4   8 1369.40 137.508   5
  -2   4   7 4119.25 300.670  10
  -2   4   7 3186.73 228.961   5
   2  -4  -7 3806.50 229.526   9
  -2   4   7 2464.25 160.521   3
  -2   4   7 4459.11 283.609   8
   2  -4  -7 4544.22 320.705   4
  -2   4   6 1372.61 150.202   8
  -2   4   6 1559.17 123.231   3
   2  -4  -6 1274.55 119.830   9
  -2   4   6 1427.79 164.796  10
   2  -4  -6 1520.57 173.221   4
  -2   4   5 4697.63 240.740   3
   2  -4  -5 4291.10 282.531   1
  -2   4   5 4328.97 291.396  10
  -2   4   5 4345.11 263.149   8
   2  -4  -5 4722.31 298.956   4
   2  -4  -5 4121.00 213.908   9
   2  -4  -5 4137.14 161.255  11
  -2   4   4 66.0692 33.2420   7
   2  -4  -4 53.9892 16.6544  11
   2  -4  -4 41.2854 17.2657   9
  -2   4   4 32.3082 15.9556   8
  -2   4   4 37.9520 17.6825   3
   2  -4  -4 47.6622 22.2785   1
  -2   4   4 43.7932 23.9013   4
  -2   4   3 1194.19 114.673   8
  -2   4   3 1201.78 115.680   1
  -2   4   3 1304.90 117.754   3
   2  -4  -3 1354.04 90.7511   9
  -2   4   3 1276.48 133.615   7
   2  -4  -3 1248.65 90.5904  11
  -2   4   3 1261.31 133.271   4
   2  -4  -2 56503.4 1503.97  11
  -2   4   2 51299.9 1552.61   3
  -2   4   2 55755.2 1541.10   8
  -2   4   2 49496.8 1566.23   7
  -2   4   2 52997.5 1577.01   4
  -2   4   2 53960.9 1531.59   1
  -2   4   2 49754.5 1427.25   2
  -2   4   1 4878.60 260.534   3
  -2   4   1 4760.36 228.400   1
   2  -4  -1 4296.68 218.959  11
  -2   4   1 4673.06 245.860  10
   2  -4  -1 4354.39 249.190  10
  -2   4   1 5163.98 203.395   2
  -2   4   1 4848.47 227.469   8
  -2   4   1 5073.39 230.144  11
  -2   4   1 4772.38 250.519   7
  -2   4   0 17356.7 627.228   3
  -2   4   0 16549.5 581.726  10
  -2   4   0 16131.1 580.833   7
   2  -4   0 17878.5 575.639   2
   2  -4   0 16548.2 579.964  11
   2  -4   0 16981.2 582.468   7
  -2   4   0 18063.3 566.904   2
   2  -4   0 18123.4 599.256  10
   2  -4   1 18097.1 611.411  10
  -2   4  -1 18427.0 608.036  10
  -2   4  -1 18735.2 679.132   3
  -2   4  -1 19896.5 620.862   7
   2  -4   1 17774.8 635.865   2
  -2   4  -1 19891.4 640.044   2
   2  -4   1 18693.8 637.463  11
   2  -4   1 19291.7 623.843   7
   2  -4   2 152.869 31.3483  10
  -2   4  -2 125.267 41.4656   3
   2  -4   2 149.079 43.0272  11
   2  -4   2 130.383 42.4246   2
  -2   4  -2 155.865 33.2611   7
  -2   4  -2 163.371 56.1305   5
   2  -4   2 126.459 32.9629   7
   2  -4   3 40326.9 1151.35  10
  -2   4  -3 41374.8 1302.56   3
   2  -4   3 40690.7 1251.96  11
  -2   4  -3 42641.0 1361.91   5
  -2   4  -3 41593.0 1187.00   7
   2  -4   3 42297.8 1304.13   2
   2  -4   4 165.307 42.9621  11
   2  -4   4 191.648 56.7303   2
   2  -4   4 180.428 28.0256  10
  -2   4  -4 176.054 49.2830   3
  -2   4  -4 206.027 57.9657   5
  -2   4  -4 136.291 33.0196   7
   2  -4   5 3784.37 146.805  10
  -2   4  -5 4203.95 275.517   3
   2  -4   5 3859.14 248.127   9
  -2   4  -5 3926.64 209.337   7
   2  -4   5 3789.33 243.474  11
  -2   4  -5 3940.46 275.296   5
   2  -4   5 3276.63 183.080   6
  -2   4  -5 3760.53 263.974   2
  -2   4  -6 8838.21 437.086   5
   2  -4   6 7133.84 299.609   6
  -2   4  -6 9377.27 450.640   3
   2  -4   6 8409.41 417.960   9
   2  -4   6 8173.05 255.950  10
   2  -4   6 8925.29 413.629  11
  -2   4  -6 8984.95 366.286   7
  -2   4  -6 9366.34 460.721   2
   2  -4   7 6871.05 381.610   9
   2  -4   7 6941.48 358.512  11
  -2   4  -7 7118.70 363.265   5
  -2   4  -7 6975.22 406.325   2
  -2   4  -7 6320.30 314.990   7
  -2   4  -8 1133.53 161.151   2
  -2   4  -8 1131.20 125.541   5
  -2   4  -8 544.675 83.2963   8
   2  -4   8 1191.29 155.067   9
   2  -4   8 1173.88 139.686  11
  -2   4  -8 798.855 108.755   7
   2  -4   9 906.064 123.957  11
  -2   4  -9 293.483 68.9998   7
   2  -4   9 920.204 148.189   9
  -2   4  -9 952.062 152.921   2
   2  -4  10 96.0070 49.7114   9
   2  -4  10 22.9293 15.4946  11
  -2   4 -10 121.487 62.5364   2
  -2   3  11 275.074 73.1983   8
  -2   3  11 188.747 72.6399  10
   2  -3 -11 130.514 49.2656   4
  -2   3  10 1572.79 201.327  10
  -2   3  10 1825.15 202.611   8
   2  -3 -10 1731.38 229.716   4
   2  -3  -9 211.731 59.5381   2
  -2   3   9 269.711 77.0041  10
  -2   3   9 304.501 69.6371   8
   2  -3  -9 172.632 65.8752   4
   2  -3  -8-11.6440 19.1010   6
  -2   3   8 35.3364 12.5129   8
  -2   3   8 11.7790 8.61788   5
  -2   3   8 11.8929 22.2842  10
   2  -3  -8-23.5601 29.2446   4
  -2   3   7 108.825 40.4220   8
  -2   3   7 65.3923 24.9941   3
  -2   3   7 47.1360 21.1173   5
  -2   3   7 121.738 50.4816  10
   2  -3  -7 162.869 57.6776   4
   2  -3  -7 124.142 25.1528   3
  -2   3   7 100.200 27.9257   2
   2  -3  -6 2523.49 215.599   4
  -2   3   6 2220.88 204.547  10
   2  -3  -6 2409.38 133.102   3
  -2   3   6 2065.91 167.919   5
   2  -3  -6 2015.57 151.353   9
  -2   3   6 2129.53 108.765   2
  -2   3   6 2354.20 187.326   8
   2  -3  -6 2456.45 207.381   1
  -2   3   6 2528.48 157.458   3
  -2   3   5 11619.7 480.447   5
  -2   3   5 13164.2 484.818   8
   2  -3  -5 12389.2 418.842   9
  -2   3   5 12597.3 517.763   4
   2  -3  -5 14478.5 550.495   7
   2  -3  -5 12526.7 412.622   3
   2  -3  -5 12951.9 506.018   1
  -2   3   5 12953.6 445.664   3
  -2   3   4 7553.95 315.038   3
  -2   3   4 7423.86 360.451   5
   2  -3  -4 7253.74 331.121   1
   2  -3  -4 6642.43 235.706  11
   2  -3  -4 7305.62 293.780   3
   2  -3  -4 6640.92 264.262   9
  -2   3   4 6531.88 338.639   4
  -2   3   4 6875.90 319.112   8
  -2   3   3 11877.5 437.955   3
   2  -3  -3 11435.7 422.438   3
   2  -3  -3 11632.9 373.977  11
  -2   3   3 11550.2 463.809   4
  -2   3   3 11640.1 372.292  11
   2  -3  -3 11088.7 367.351   9
  -2   3   3 11362.7 427.558   1
  -2   3   3 11480.9 464.768   7
  -2   3   3 12135.0 439.498   8
   2  -3  -3 11662.1 439.839   1
  -2   3   3 13480.5 521.001   5
  -2   3   2 1514.67 104.820   1
  -2   3   2 1413.14 116.867   3
   2  -3  -2 1431.25 112.365   3
  -2   3   2 1567.73 126.812   7
  -2   3   2 1272.92 89.4881  11
  -2   3   2 1539.53 115.096   8
   2  -3  -2 1329.47 90.4863  11
  -2   3   2 2682.15 160.817   4
   2  -3  -2 1396.98 74.4523   9
  -2   3   2 1236.63 77.0867   2
  -2   3   1 68513.0 1854.19   3
   2  -3  -1 62586.1 1834.38   3
  -2   3   1 65101.4 1830.48  10
   2  -3  -1 59832.1 1792.01  11
  -2   3   1 66462.3 1802.09  11
  -2   3   1 67412.3 1783.94   1
  -2   3   1 69896.0 1778.75   2
  -2   3   1 64125.7 1829.08   7
   2  -3   0 29133.6 839.966   7
  -2   3   0 28450.6 840.788   7
  -2   3   0 27493.6 887.674   3
  -2   3   0 28501.9 838.563  10
   2  -3   0 27070.4 844.710  11
  -2   3   0 28205.0 838.200   2
   2  -3   1 22930.9 681.220  10
   2  -3   1 24217.6 720.391  11
  -2   3  -1 21441.0 665.035  10
   2  -3   1 21836.3 670.567   7
   2  -3   1 22236.3 717.326   2
  -2   3  -1 23100.9 672.530   7
  -2   3  -1 21855.4 742.830   3
   2  -3   2 4060.65 165.109  10
  -2   3  -2 4303.19 267.898   5
  -2   3  -2 3764.22 225.597   3
   2  -3   2 3709.82 176.627   7
   2  -3   2 4272.60 217.605  11
  -2   3  -2 4058.45 169.615   7
   2  -3   2 3817.14 222.953   2
   2  -3   3 13714.3 411.604  10
  -2   3  -3 15186.0 588.018   5
  -2   3  -3 14314.8 545.922   3
   2  -3   3 14741.8 522.256  11
  -2   3  -3 15093.3 517.832  11
   2  -3   3 12080.8 483.002   9
  -2   3  -3 14515.0 446.440   7
   2  -3   3 15004.6 564.043   2
  -2   3  -4 18868.4 635.747  11
   2  -3   4 17193.2 632.421  11
  -2   3  -4 18130.2 669.232   3
   2  -3   4 18317.9 694.952   2
  -2   3  -4 18173.9 570.616   7
  -2   3  -4 18513.0 690.188   5
  -2   3  -5 772.602 95.5861  11
  -2   3  -5 841.762 108.080   3
   2  -3   5 1110.34 114.604  11
  -2   3  -5 792.162 109.676   2
  -2   3  -5 880.765 108.706   5
  -2   3  -5 857.177 81.6062   7
   2  -3   5 954.301 128.424   2
   2  -3   5 487.682 49.4858   6
   2  -3   5 899.411 107.184   9
  -2   3  -6 9375.94 444.053   3
  -2   3  -6 10120.8 440.814   5
   2  -3   6 9752.78 428.974  11
  -2   3  -6 9357.60 395.928   7
   2  -3   6 9666.88 450.622   9
  -2   3  -6 9423.49 465.105   2
   2  -3   7 7800.21 415.077   9
  -2   3  -7 6635.95 381.689   3
  -2   3  -7 8178.60 435.855   2
  -2   3  -7 7497.21 345.922   8
   2  -3   7 8222.81 385.093  11
  -2   3  -7 8053.92 365.554   5
  -2   3  -8 3613.24 266.980   3
   2  -3   8 5187.87 289.763  11
  -2   3  -8 5606.25 350.785   2
  -2   3  -8 4577.55 227.581   5
   2  -3   8 5480.01 340.864   9
   2  -3   9 1418.41 177.478   9
   2  -3   9 1109.61 132.597  11
  -2   3  -9 1295.03 177.125   2
   2  -3  10 984.116 160.643   9
   2  -3  10 872.424 119.461  11
  -2   3 -10 1271.35 182.988   2
   2  -3  11 904.089 161.475   9
  -2   3 -11 1033.70 175.966   2
  -2   2  11 210.239 74.8069  10
  -2   2  11 224.415 75.5441   8
  -2   2  11 291.275 81.2720   9
   2  -2 -11 260.871 88.8932   4
   2  -2 -10 1052.01 139.189   2
  -2   2  10 985.368 138.762   8
  -2   2  10 963.002 150.878  10
   2  -2 -10 979.736 165.800   4
  -2   2  10 1083.19 145.863   9
   2  -2  -9 3761.93 259.104   2
  -2   2   9 3747.91 289.472  10
  -2   2   9 4288.88 281.429   9
  -2   2   9 4299.33 283.618   8
   2  -2  -9 4140.76 327.832   4
  -2   2   9 3373.11 220.257   2
   2  -2  -8 1768.42 198.454   6
   2  -2  -8 3440.10 166.424   3
  -2   2   8 3329.46 268.974  10
   2  -2  -8 4036.13 303.071   4
   2  -2  -8 3825.39 233.145   2
  -2   2   8 3589.15 252.494   8
  -2   2   8 3320.30 203.732   2
  -2   2   8 3076.87 156.163   5
  -2   2   8 3821.21 248.642   9
   2  -2  -7 4682.60 327.068   6
   2  -2  -7 7287.53 281.516   3
  -2   2   7 7685.07 362.816   8
  -2   2   7 6553.94 389.723  10
  -2   2   7 7313.39 342.810   9
   2  -2  -7 8177.88 330.655   2
  -2   2   7 6849.92 292.452   2
   2  -2  -7 7681.31 415.037   4
  -2   2   7 5182.53 261.176   5
  -2   2   6 12879.8 469.750   9
   2  -2  -6 12620.9 538.432   1
   2  -2  -6 9875.85 496.993   6
   2  -2  -6 12991.5 438.699   3
  -2   2   6 12669.5 546.533  10
  -2   2   6 12697.1 498.229   8
   2  -2  -6 13035.2 490.376   8
   2  -2  -6 13307.6 456.544   2
   2  -2  -6 13871.7 569.579   7
   2  -2  -6 13817.8 560.994   4
  -2   2   6 12148.7 418.982   2
  -2   2   6 12569.7 471.172   3
   2  -2  -5 13491.9 483.925   3
  -2   2   5 13872.5 559.148   4
  -2   2   5 14813.7 528.199   8
   2  -2  -5 14353.1 554.905   1
  -2   2   5 15026.5 491.130   9
  -2   2   5 14685.0 512.770   3
  -2   2   5 14681.9 441.761   2
   2  -2  -4 4.47830 9.41168   1
  -2   2   4-1.95406 3.56975  11
  -2   2   4-5.95956 9.85759   9
   2  -2  -4 12.5770 13.1335   3
  -2   2   4 5.80179 9.43839   3
  -2   2   4-12.3738 17.3467   8
  -2   2   4-1.83840 6.56171   4
  -2   2   4 2.39425 5.47383   2
  -2   2   3 1213.25 105.850   3
   2  -2  -3 1111.69 95.3454   3
  -2   2   3 1107.26 104.167   4
  -2   2   3 1122.38 71.8942   2
  -2   2   3 1180.98 73.1319   9
  -2   2   3 1149.35 69.3400  11
  -2   2   3 1113.89 96.3274   8
   2  -2  -3 1244.70 102.448   1
   2  -2  -3 1194.12 72.5636  11
  -2   2   2 130650. 3392.37   3
   2  -2  -2 133787. 3381.09   3
  -2   2   2 123332. 3314.00  11
   2  -2  -2 127326. 3315.35  11
  -2   2   2 124096. 3369.44   4
   2  -2  -2 119090. 3325.53   1
   2  -2  -2 126835. 3269.42   9
  -2   2   1 569085. 13843.7   3
  -2   2   1 593353. 13816.1   7
   2  -2  -1 563824. 13785.2  11
   2  -2   0 18640.6 567.238   7
  -2   2   0 19591.7 623.953   3
   2  -2   0 19794.3 591.618  11
  -2   2   0 18679.7 571.848   7
  -2   2   0 18759.0 579.431  10
  -2   2  -1 63519.0 1604.72   7
  -2   2  -1 63539.2 1699.97   3
  -2   2  -1 61551.2 1606.69  10
   2  -2   1 58211.8 1660.92  11
   2  -2   1 59445.8 1600.40   7
   2  -2   1 60433.5 1620.25   9
  -2   2  -2 2662.42 168.236   3
  -2   2  -2 2783.99 97.5817  10
   2  -2   2 2644.76 143.874   9
   2  -2   2 2754.18 171.556   2
   2  -2   2 2761.28 158.372  11
  -2   2  -2 2589.17 101.955   7
  -2   2  -3 28085.7 865.191   3
   2  -2   3 27512.3 835.103  11
  -2   2  -3 26458.2 742.596   7
   2  -2   3 29072.3 889.746   2
  -2   2  -3 24989.6 825.015  11
  -2   2  -4 12876.6 458.058  11
   2  -2   4 10970.8 385.609   6
  -2   2  -4 13034.6 485.167   3
   2  -2   4 13230.1 467.807  11
  -2   2  -4 12525.7 404.644   7
   2  -2   4 13069.3 519.183   2
  -2   2  -5 407.386 70.4918   5
  -2   2  -5 520.596 85.7950   2
   2  -2   5 534.565 91.7654   2
   2  -2   5 577.232 77.1618  11
  -2   2  -5 517.926 78.4173   3
  -2   2  -5 489.014 71.6446  11
   2  -2   6 83.4859 30.8002  11
   2  -2   6 107.580 50.4719   2
  -2   2  -6 83.6347 30.3442   5
   2  -2   6 122.960 39.3290   9
  -2   2  -6 38.8233 21.7799   8
  -2   2  -6 101.901 43.6528   2
  -2   2  -6 85.1984 36.5819  11
  -2   2  -6 112.472 38.9650   3
   2  -2   7 638.931 45.7332  10
   2  -2   7 821.506 98.8715  11
  -2   2  -7 671.620 74.2595   5
  -2   2  -7 604.664 84.9956   8
   2  -2   7 829.938 121.773   9
  -2   2  -7 748.036 84.2388   7
  -2   2  -7 631.926 93.4687   3
  -2   2  -7 884.933 124.621   2
   2  -2   8 570.049 47.7609  10
   2  -2   8 698.413 115.671   9
  -2   2  -8 420.665 42.7862   5
  -2   2  -8 390.890 78.0437   3
   2  -2   8 585.901 86.9251  11
  -2   2  -8 629.087 111.005   2
  -2   2  -8 461.427 77.0815   7
  -2   2  -9 405.630 93.5899   2
   2  -2   9 364.108 67.8382  11
   2  -2   9 346.929 89.1460   9
  -2   2 -10 1439.34 196.107   2
   2  -2  10 1295.29 178.502   9
   2  -2  10 1340.72 137.586  11
   2  -2  11-10.1145 16.0585   9
  -2   2 -11 31.8749 41.1428   2
  -2   1  11 88.4266 50.8346  10
  -2   1  11 120.492 47.1288   8
  -2   1  11 92.8628 46.3618   9
   2  -1 -11 143.055 66.7375   4
   2  -1 -10 740.363 116.385   2
  -2   1  10 575.012 98.6044   8
  -2   1  10 378.748 97.5810  10
  -2   1  10 591.031 110.033   9
   2  -1 -10 784.011 150.018   4
   2  -1  -9 7532.57 319.924   3
  -2   1   9 7050.16 419.625  10
   2  -1  -9 8600.23 408.276   2
  -2   1   9 7516.29 371.940   2
  -2   1   9 7692.73 400.261   9
   2  -1  -9 7546.26 457.221   4
  -2   1   9 7701.13 388.116   8
   2  -1  -8 7980.81 342.354   3
   2  -1  -8 5703.15 358.363   6
   2  -1  -8 8324.81 386.361   2
  -2   1   8 7564.19 420.095  10
  -2   1   8 8161.09 385.277   8
  -2   1   8 7651.59 396.159   9
  -2   1   8 7653.21 362.874   2
   2  -1  -8 8104.00 445.721   4
   2  -1  -7 22688.9 537.446   3
   2  -1  -7 19034.8 589.702   6
  -2   1   7 17649.1 424.902   5
   2  -1  -7 22415.5 567.466   2
  -2   1   7 21425.0 568.003   9
  -2   1   7 22735.3 576.180   8
   2  -1  -7 17991.6 525.191   8
  -2   1   7 21288.5 522.226   2
   2  -1  -7 22705.3 666.798   4
   2  -1  -6 1353.05 120.345   3
   2  -1  -6 1140.85 130.145   6
   2  -1  -6 1573.21 129.026   2
   2  -1  -6 1126.41 109.148   8
  -2   1   6 610.581 45.3292  11
  -2   1   6 1398.04 123.671   8
   2  -1  -6 1309.97 144.446   7
   2  -1  -6 1274.47 138.554   4
  -2   1   6 1611.97 141.250   3
  -2   1   6 1424.99 120.523   9
  -2   1   6 1309.80 104.994   2
  -2   1   5 1414.88 102.423   2
   2  -1  -5 1466.42 122.271   3
   2  -1  -5 1277.92 131.630   6
  -2   1   5 1339.83 108.774   9
  -2   1   5 1431.66 117.037   8
   2  -1  -5 1514.61 119.700   2
  -2   1   5 1084.66 65.1658  11
  -2   1   5 1640.26 136.928   3
   2  -1  -4 39614.2 1167.09   3
   2  -1  -4 36950.1 1207.26   6
  -2   1   4 39925.8 1116.36   2
   2  -1  -4 41497.0 1168.09   2
  -2   1   4 37488.7 1067.77  11
  -2   1   4 39629.7 1184.09   4
  -2   1   4 40519.0 1148.31   8
  -2   1   4 39002.8 1116.54   9
  -2   1   4 41871.5 1193.79   3
   2  -1  -3 324.542 58.2649   6
  -2   1   3 272.007 32.5963  11
   2  -1  -3 319.330 49.3979   3
  -2   1   3 416.056 48.5133   2
  -2   1   3 310.314 57.5319   3
  -2   1   3 320.692 36.5511   9
  -2   1   3 304.819 43.1346   8
  -2   1   3 290.093 47.5946   4
   2  -1  -2 22434.3 645.865  11
  -2   1   2 21183.2 643.161  11
  -2   1   2 22933.8 717.668   3
   2  -1  -2 23014.8 704.704   3
  -2   1   2 22028.8 671.034   4
   2  -1  -2 23129.2 739.052   6
  -2   1   1 13428.5 493.904   3
   2  -1  -1 14973.0 513.558   6
   2  -1  -1 15369.5 457.831  11
   2  -1   0 212326. 5438.22   6
  -2   1   0 215792. 5436.57   3
  -2   1   0 198310. 5332.57   9
   2  -1   0 215125. 5392.19  11
  -2   1  -1 40905.0 1220.63   3
  -2   1  -1 42265.2 1171.02   9
   2  -1   1 44986.8 1220.39   6
   2  -1   1 42952.4 1200.36  11
  -2   1  -1 43479.8 1154.35   1
   2  -1   2 18594.6 563.137   6
  -2   1  -2 17831.9 561.852   9
  -2   1  -2 18055.4 585.780   3
   2  -1   2 17863.9 566.602  11
  -2   1  -2 17162.1 562.402  11
   2  -1   3 7498.99 227.044   6
   2  -1   3 6894.32 261.766  11
  -2   1  -3 6669.73 270.522   3
   2  -1   3 6678.08 262.889   3
  -2   1  -3 6197.60 249.356  11
  -2   1  -3 6398.69 267.684   9
  -2   1  -4 36044.4 1006.99   3
   2  -1   4 35894.6 990.980  11
  -2   1  -4 35176.7 981.179  11
  -2   1  -4 35387.6 1030.34   9
  -2   1  -4 33989.7 909.406   7
  -2   1  -4 37051.4 1057.15   2
   2  -1   5 14415.3 501.219  11
  -2   1  -5 13595.0 503.761   3
  -2   1  -5 13643.4 491.051  11
  -2   1  -5 14113.9 559.267   1
  -2   1  -5 13752.9 452.735   7
  -2   1  -5 14996.9 573.604   2
  -2   1  -6 292.240 50.7321   5
  -2   1  -6 515.474 75.3169   8
   2  -1   6 481.076 66.3139  11
   2  -1   6 441.650 79.9055   9
   2  -1   6 452.977 45.1149  10
  -2   1  -6 493.648 91.6731   1
  -2   1  -6 497.317 83.1568   2
  -2   1  -6 449.481 68.7066   3
  -2   1  -6 354.476 53.5590   5
  -2   1  -6 489.646 60.3852   7
  -2   1  -6 541.696 70.4857  11
  -2   1  -7 3086.03 203.782   8
   2  -1   7 3498.45 196.742  11
  -2   1  -7 3207.90 190.864  11
   2  -1   7 3630.90 248.866   9
   2  -1   7 3469.98 146.980  10
  -2   1  -7 2701.52 179.508   3
  -2   1  -7 3535.45 192.531   7
  -2   1  -7 2126.96 123.184   5
  -2   1  -7 3800.72 254.477   2
   2  -1   8 20456.0 781.713   9
   2  -1   8 19041.9 586.217  10
  -2   1  -8 20718.8 676.433   7
  -2   1  -8 21088.7 772.976   2
   2  -1   8 20121.4 662.591  11
   2  -1   9 122.749 39.3600  11
   2  -1   9 173.989 57.6572   9
  -2   1  -9 98.6304 46.0269   2
  -2   1 -10 1658.20 201.046   2
   2  -1  10 1341.61 182.062   9
   2  -1  10 1480.70 135.206  11
   2  -1  11 423.261 113.269   9
  -2   1 -11 368.100 95.9001   2
  -2   0  11 54.2328 45.9445   8
  -2   0  11 138.333 57.6560  10
   2   0 -11 209.857 85.2040   4
   2   0 -11 152.667 65.1626   2
  -2   0  11 74.2571 43.0074   9
   2   0 -10 13.8115 18.0946   2
  -2   0  10-19.0955 22.6881  10
   2   0 -10-19.5979 19.3886   3
  -2   0  10 21.2034 28.3475   9
  -2   0  10 38.5045 31.3184   8
   2   0 -10-20.9260 42.3165   4
   2   0  -9 385.803 71.0935   6
   2   0  -9 706.241 109.966   2
  -2   0   9 607.815 48.9138  11
  -2   0   9 675.453 105.622   2
   2   0  -9 697.974 100.917   3
  -2   0   9 530.373 101.323   9
  -2   0   9 793.575 103.155   8
   2   0  -9 664.710 121.339   4
  -2   0   9 135.764 26.9350  11
   2   0  -8 3864.93 257.131   6
  -2   0   8 4617.05 179.950  11
   2   0  -8 4879.39 296.247   2
  -2   0   8 4997.08 269.700   8
   2   0  -8 4771.76 323.801   4
   2   0  -8 2663.49 213.269   8
  -2   0   8 4705.98 278.614   2
   2   0  -8 4820.52 287.028   3
  -2   0   8 4758.66 289.655   9
   2   0  -7 893.123 109.386   6
   2   0  -7 1013.65 120.848   2
  -2   0   7 956.015 70.3377  11
  -2   0   7 946.842 113.464   9
   2   0  -7 922.335 98.4498   8
  -2   0   7 954.325 103.868   8
   2   0  -7 892.298 123.608   4
  -2   0   7 1056.93 81.0187   5
  -2   0   7 929.024 105.432   2
   2   0  -7 913.676 118.775   3
   2   0  -6 7212.07 346.095   6
  -2   0   6 7055.81 297.196   5
  -2   0   6 7181.90 326.045   9
  -2   0   6 7398.58 313.416   8
   2   0  -6 6986.75 335.946   2
   2   0  -6 5997.22 332.455   4
   2   0  -6 7078.42 350.302   3
  -2   0   6 6542.56 309.234   2
  -2   0   5 126.014 33.0547   9
   2   0  -5 226.294 50.0251   2
   2   0  -5 103.987 35.0511   3
   2   0  -5 185.779 47.9256   6
  -2   0   5 115.853 31.3319   5
  -2   0   5 187.584 38.7039   8
  -2   0   5 174.961 38.5899   2
  -2   0   5 123.942 51.1750   3
   2   0  -4 752.684 90.6250   6
  -2   0   4 609.985 62.6120   8
   2   0  -4 494.559 78.5209   3
   2   0  -4 684.724 80.8309   2
   2   0  -4 632.234 74.9202   4
  -2   0   4 696.443 81.5964   5
  -2   0   4 651.750 71.3978   2
  -2   0   4 683.620 91.7077   3
   2   0  -3 21228.9 712.222   6
  -2   0   3 19652.0 617.073  11
   2   0  -3 21858.2 688.823   2
  -2   0   3 20226.0 626.426   8
  -2   0   3 22740.1 669.580   2
  -2   0   3 23528.1 733.706   3
   2   0  -3 22030.0 654.450   4
   2   0  -3 19301.5 693.309   3
   2   0  -2 54279.3 1554.42   6
  -2   0   2 57670.5 1528.70   2
   2   0  -2 52199.2 1464.33   4
  -2   0   2 52031.9 1465.74   4
  -2   0   2 54097.8 1565.00   3
   2   0  -1 404737. 9489.33   6
   2   0  -1 386063. 9416.05  11
  -2   0   1 401388. 9505.15   3
   2   0   0 5699.39 246.711   6
   2   0   0 5715.98 220.691  11
  -2   0   0 5216.66 245.077   3
   2   0   1 7279.49 289.559   6
  -2   0  -1 7028.98 296.016   3
   2   0   1 7633.35 264.630   1
  -2   0  -1 7805.56 295.587   6
  -2   0  -1 7238.73 265.428   9
   2   0   1 7848.13 281.409  11
  -2   0  -1 7463.44 263.348   1
   2   0   1 7653.29 236.133   7
  -2   0  -2 11965.7 396.817   6
   2   0   2 12671.3 401.427  11
  -2   0  -2 11030.0 405.980   3
   2   0   2 12464.1 406.999   3
  -2   0  -2 11621.8 397.268   1
   2   0   2 11530.2 403.772   1
  -2   0  -2 11327.6 392.945  11
   2   0   2 10551.5 339.708   7
  -2   0  -2 11792.3 339.867   7
  -2   0  -2 11504.6 400.348   9
   2   0   2 12439.7 396.977   6
  -2   0  -3 90672.9 2304.77   6
  -2   0  -3 84087.2 2330.42   3
  -2   0  -3 78103.9 2351.29   1
   2   0   3 84599.8 2312.52   3
   2   0   3 88097.8 2328.05  11
  -2   0  -3 86836.3 2327.46  11
  -2   0  -3 84513.0 2260.88   7
  -2   0  -3 81018.5 2267.63  10
  -2   0  -3 88061.3 2372.75   5
  -2   0  -3 86411.7 2373.95   2
  -2   0  -3 84582.1 2353.82   9
   2   0   3 98360.5 2306.62   6
  -2   0  -4 11988.3 371.137   6
  -2   0  -4 11423.3 404.341   3
   2   0   4 11654.8 407.667  11
  -2   0  -4 11694.0 461.537   1
  -2   0  -4 10964.6 365.404   7
  -2   0  -4 11371.5 446.701   9
  -2   0  -4 11267.1 450.656   2
  -2   0  -4 10886.2 368.848  10
  -2   0  -4 11062.7 399.109  11
  -2   0  -4 11759.2 429.049   5
   2   0   4 11236.4 386.914   3
   2   0   4 10856.4 348.832   6
  -2   0  -5 1882.24 105.058   6
  -2   0  -5 2290.23 140.581   3
  -2   0  -5 2218.91 173.986   9
  -2   0  -5 2479.54 193.575   1
   2   0   5 2357.27 147.506  11
  -2   0  -5 2440.10 152.709   5
  -2   0  -5 2328.95 140.439  11
  -2   0  -5 2392.62 168.894   8
  -2   0  -5 2472.21 182.691   2
  -2   0  -5 2400.42 135.668   7
  -2   0  -6 3988.02 203.107   3
  -2   0  -6 4271.81 285.781   1
   2   0   6 4104.40 212.001  11
  -2   0  -6 4231.63 209.758  11
   2   0   6 4141.21 263.426   9
  -2   0  -6 4162.98 245.932   8
  -2   0  -6 4182.69 213.792   7
  -2   0  -6 3799.91 193.382   5
  -2   0  -6 4280.99 268.512   2
  -2   0  -7 3356.74 186.037   3
   2   0   7 3525.49 189.900  10
   2   0   7 3733.18 263.801   9
  -2   0  -7 3781.92 219.077   7
   2   0   7 3691.29 206.356  11
  -2   0  -7 3646.28 197.831  11
  -2   0  -7 3834.69 258.225   2
  -2   0  -8 3221.90 184.130   3
  -2   0  -8 4180.38 290.117   2
   2   0   8 4183.95 298.905   9
   2   0   8 4357.06 226.936  11
  -2   0  -8 4341.49 251.674   7
   2   0   8 3997.26 214.002  10
   2   0   9 340.441 58.2438  11
   2   0   9 411.301 94.8453   9
  -2   0  -9 294.649 76.8740   2
   2   0  10-52.4341 44.8443   9
  -2   0 -10-37.0877 41.3674   2
  -2   0 -10-13.3225 31.2303   4
   2   0  11 284.260 86.9212   9
  -2   0 -11 281.281 101.349   4
  -2   0 -11 161.438 57.1611   2
  -2  -1  11 247.295 80.5854  10
   2   1 -11 306.764 88.5640   2
  -2  -1  11 280.045 85.3715   9
   2   1 -11 336.092 98.6195   4
   2   1 -10 6.72165 30.8715   3
   2   1 -10 116.500 51.2453   2
  -2  -1  10 36.4762 20.6138   8
  -2  -1  10 94.1750 51.0483   9
  -2  -1  10 77.9251 25.5793  11
   2   1 -10 19.5840 46.5758   4
   2   1  -9 663.087 90.4199   6
   2   1  -9 932.379 135.393   2
  -2  -1   9 833.547 103.381   8
   2   1  -9 855.413 142.971   4
   2   1  -9 1031.48 146.797   3
  -2  -1   9 898.824 81.5777  11
  -2  -1   9 692.885 115.006   9
  -2  -1   8 48746.5 1369.93   9
   2   1  -8 50856.0 1419.06   2
  -2  -1   8 47027.9 1210.16  11
  -2  -1   8 50096.7 1288.84   8
   2   1  -8 48817.3 1433.87   4
  -2  -1   8 48155.5 1368.87   2
   2   1  -8 47586.6 1426.94   3
   2   1  -8 45048.8 1297.10   6
  -2  -1   7 7031.73 283.819   5
  -2  -1   7 6098.62 330.040   9
   2   1  -7 6653.09 358.121   2
  -2  -1   7 6595.02 293.983   8
   2   1  -7 6252.43 357.941   4
   2   1  -7 6153.29 367.370   3
  -2  -1   7 6527.22 338.270   2
   2   1  -7 6128.77 317.632   6
   2   1  -6 9262.96 401.631   6
  -2  -1   6 9024.02 399.206   2
  -2  -1   6 9735.05 374.731   5
   2   1  -6 9012.82 419.396   2
  -2  -1   6 9074.42 351.906   8
   2   1  -6 8967.40 449.115   3
   2   1  -5 6184.30 309.724   6
  -2  -1   5 6420.94 307.033   2
  -2  -1   5 6123.88 323.968   6
   2   1  -5 6556.91 326.007   2
  -2  -1   5 6912.54 309.737   5
  -2  -1   5 6774.84 263.894   8
   2   1  -5 6475.90 350.675   3
   2   1  -4 238.098 50.0038   6
  -2  -1   4 176.224 48.5885   3
   2   1  -4 218.035 50.1430   2
  -2  -1   4 282.566 55.9464   6
   2   1  -4 132.668 50.8503   3
  -2  -1   4 169.559 43.2634   5
  -2  -1   4 182.062 29.0114   8
  -2  -1   4 202.448 43.3807   2
   2   1  -3 86015.8 2589.91   6
  -2  -1   3 98069.5 2629.38   6
  -2  -1   3 89339.8 2572.35   2
  -2  -1   3 97220.5 2628.53   5
   2   1  -3 96040.1 2614.69   2
  -2  -1   3 100311. 2669.70   3
   2   1  -3 91310.8 2639.85   3
   2   1  -2 110999. 3074.91   6
  -2  -1   2 116126. 3110.99   5
   2   1  -2 120543. 3112.04   5
  -2  -1   2 112679. 3122.83   3
  -2  -1   2 119376. 3074.64   2
  -2  -1   1 7319.06 330.816   3
  -2  -1   1 7439.60 339.176   5
   2   1  -1 7316.45 312.397   6
  -2  -1   0 91851.7 2554.89   5
  -2  -1   0 92540.6 2533.01   3
   2   1   0 96108.3 2516.86   6
  -2  -1  -1 57826.0 1628.05   5
   2   1   1 55013.6 1550.44   1
   2   1   1 52611.6 1515.83   7
  -2  -1  -1 55590.8 1531.19   7
  -2  -1  -1 56751.2 1587.02   3
   2   1   1 59522.8 1579.04   6
  -2  -1  -1 55643.5 1572.85   6
   2   1   2 35259.2 1027.21   3
   2   1   2 36107.8 1057.36   1
  -2  -1  -2 37013.1 1099.74   5
  -2  -1  -2 34809.7 1035.91   9
  -2  -1  -2 34929.2 1051.57   1
  -2  -1  -2 34571.7 1019.46  11
   2   1   2 35923.7 995.527   7
  -2  -1  -2 34756.5 994.104   7
   2   1   2 34794.3 1021.50  11
   2   1   2 38576.4 1045.10   6
  -2  -1  -2 33344.8 1041.46   3
  -2  -1  -2 35449.0 1039.19   6
   2   1   3 2573.79 135.799   3
  -2  -1  -3 2163.33 171.489   5
   2   1   3 2592.96 136.438   7
   2   1   3 2626.11 142.499  11
  -2  -1  -3 2412.47 140.907  11
   2   1   3 2421.04 171.729   1
  -2  -1  -3 2372.86 136.628  10
  -2  -1  -3 2319.10 126.350   7
  -2  -1  -3 2337.91 155.920   9
  -2  -1  -3 2407.63 164.955   1
  -2  -1  -3 2506.97 146.507   6
   2   1   3 2595.93 146.796   6
  -2  -1  -3 2432.77 145.893   3
  -2  -1  -4 385.492 52.7130   6
  -2  -1  -4 359.060 62.4671   9
  -2  -1  -4 314.681 57.6735   5
   2   1   4 308.559 45.6918  11
  -2  -1  -4 342.352 64.1115   1
  -2  -1  -4 247.317 60.5676   2
  -2  -1  -4 341.562 48.1142  10
  -2  -1  -4 369.589 50.2612   3
   2   1   4 308.200 40.8000   3
  -2  -1  -4 312.151 48.7251  11
   2   1   4 276.644 46.9610   7
  -2  -1  -4 347.790 47.0706   7
  -2  -1  -5 12583.6 521.796   2
  -2  -1  -5 13405.1 479.933   5
  -2  -1  -5 12836.3 470.735  10
  -2  -1  -5 13948.1 538.271   9
   2   1   5 12192.8 457.024  11
  -2  -1  -5 12481.4 435.864   3
  -2  -1  -5 13461.6 452.658  11
  -2  -1  -5 13244.4 465.420   7
  -2  -1  -5 13951.3 560.432   1
  -2  -1  -5 13786.2 452.051   6
  -2  -1  -6 4791.78 221.102  11
  -2  -1  -6 4908.46 279.842   8
   2   1   6 4851.92 231.626  11
  -2  -1  -6 4734.78 247.318   7
  -2  -1  -6 5025.09 227.209   5
  -2  -1  -6 4989.19 285.061   2
  -2  -1  -6 4498.27 197.968   3
   2   1   6 4808.20 294.375   9
  -2  -1  -6 5122.83 215.946   6
  -2  -1  -7 907.642 68.7907   6
  -2  -1  -7 937.798 85.9942  11
  -2  -1  -7 1130.76 128.469   2
  -2  -1  -7 1022.91 109.662   7
  -2  -1  -7 724.816 63.6000   5
   2   1   7 1041.69 135.332   9
   2   1   7 745.579 86.9449  11
  -2  -1  -7 1118.27 150.183   4
  -2  -1  -7 466.609 45.2509   3
  -2  -1  -8 4095.81 208.414  11
   2   1   8 4536.90 219.488  11
  -2  -1  -8 4433.74 345.410   4
  -2  -1  -8 4312.94 263.762   7
   2   1   8 4548.66 315.281   9
  -2  -1  -8 4387.10 284.816   2
   2   1   9 130.220 58.4799   9
  -2  -1  -9 86.0629 48.3030   2
  -2  -1  -9 22.8184 30.0028   4
   2   1  10 627.912 125.868   9
  -2  -1 -10 493.775 101.296   2
  -2  -1 -10 801.326 161.580   4
  -2  -1 -11-20.9557 29.6388   2
  -2  -1 -11 35.7506 36.2847   4
   2   2 -11 89.8384 46.2868   2
  -2  -2  11 111.167 49.7324   9
   2   2 -11 79.4518 47.5277   4
   2   2 -10 878.880 149.434   2
   2   2 -10 719.198 139.636   3
  -2  -2  10 778.476 92.0244  11
   2   2 -10 788.531 137.401   4
  -2  -2  10 914.649 139.687   9
   2   2  -9 153.603 62.3015   4
   2   2  -9 201.681 61.5093   2
   2   2  -9 172.506 65.3338   3
  -2  -2   9 262.343 51.4418  11
  -2  -2   9 209.518 64.1489   9
   2   2  -9 222.595 52.9125   6
  -2  -2   8 30761.0 1005.45  11
  -2  -2   8 34702.0 1007.11   5
  -2  -2   8 29324.4 1094.24   9
  -2  -2   8 33904.0 995.952   8
   2   2  -8 34336.6 1168.05   2
   2   2  -8 34119.6 1216.84   3
   2   2  -8 30898.1 1040.85   6
   2   2  -7 836.608 119.099   2
   2   2  -7 678.291 89.6348   6
  -2  -2   7 732.146 106.386   6
   2   2  -7 748.137 128.354   3
  -2  -2   7 798.061 94.0027   5
  -2  -2   7 750.001 75.9021   8
  -2  -2   7 884.674 117.102   2
  -2  -2   6 5419.69 308.186   2
  -2  -2   6 5409.34 319.745   6
  -2  -2   6 5869.98 294.943   5
   2   2  -6 5742.19 359.733   3
  -2  -2   6 5488.85 227.525   8
   2   2  -6 5555.00 324.950   2
   2   2  -6 6003.27 299.479   6
  -2  -2   5 1361.18 141.997   6
  -2  -2   5 1613.39 145.136   2
   2   2  -5 1577.00 153.914   5
  -2  -2   5 1489.65 88.6414   8
  -2  -2   5 1559.10 140.721   5
   2   2  -5 1472.11 147.343   2
   2   2  -5 1408.30 168.649   3
   2   2  -5 1560.08 138.940   6
  -2  -2   4 5751.90 302.352   6
   2   2  -4 5643.08 306.393   5
   2   2  -4 5823.46 306.014   2
  -2  -2   4 5542.24 294.675   5
  -2  -2   4 5477.86 195.176   8
   2   2  -4 5292.69 330.805   3
   2   2  -4 5460.19 283.064   6
  -2  -2   4 5641.80 288.493   2
  -2  -2   3 2527.03 182.784   6
  -2  -2   3 2349.43 180.900   5
  -2  -2   3 2447.40 168.611   2
   2   2  -3 2542.28 193.288   5
   2   2  -3 2662.87 179.171   6
  -2  -2   2 21552.0 774.157   5
  -2  -2   2 22338.0 739.033   2
   2   2  -2 21593.4 783.959   5
   2   2  -2 21310.3 738.634   6
  -2  -2   1 3578.63 235.925   5
   2   2  -1 4069.39 223.559   7
  -2  -2   1 3873.37 239.913   3
   2   2  -1 3541.28 214.642   6
  -2  -2   1 3882.56 216.345   2
   2   2   0 261.396 49.2547   6
  -2  -2   0 215.972 49.8074   3
   2   2   0 305.064 29.6487   4
   2   2   0 168.634 37.8338   7
  -2  -2   0 176.687 47.4310   5
  -2  -2   0 209.036 42.1448   7
  -2  -2  -1 75473.1 2216.19   5
  -2  -2  -1 78692.1 2086.33   4
   2   2   1 80279.4 2126.11   7
  -2  -2  -1 76241.9 2136.85   7
  -2  -2  -1 80543.0 2188.07   3
   2   2   1 79997.1 2169.22   6
   2   2   1 79115.9 2184.41   3
  -2  -2  -1 82544.7 2177.72   6
   2   2   2 368.089 61.6218   6
  -2  -2  -2 315.446 57.2590   6
  -2  -2  -2 294.196 45.7821  11
   2   2   2 295.416 46.2923   7
  -2  -2  -2 297.444 47.5398   7
  -2  -2  -2 313.632 64.4116   5
   2   2   2 235.142 64.4979   5
  -2  -2  -2 190.765 50.0296   3
  -2  -2  -2 328.134 50.4023   4
   2   2   2 266.811 47.3926   3
  -2  -2  -3 188.359 43.7969   6
  -2  -2  -3 161.878 36.8903   3
  -2  -2  -3 161.333 33.1836  11
   2   2   3 199.626 35.5561   3
  -2  -2  -3 147.236 36.7781  10
  -2  -2  -3 162.513 39.4228   9
  -2  -2  -3 189.495 49.3954   5
  -2  -2  -3 231.170 51.7780   1
   2   2   3 191.579 49.2134   5
  -2  -2  -3 229.944 48.8766   4
   2   2   3 165.215 38.4860   7
  -2  -2  -3 115.366 30.2016   7
   2   2   3 139.345 37.2813   6
   2   2   4 1637.05 157.420   1
   2   2   4 1562.86 98.4868   3
  -2  -2  -4 1641.61 142.985   9
  -2  -2  -4 1583.46 130.347  10
  -2  -2  -4 1686.52 143.133   5
   2   2   4 1720.60 153.837   5
  -2  -2  -4 1736.63 138.249   6
  -2  -2  -4 1414.87 113.367   3
  -2  -2  -4 1617.32 114.901  11
  -2  -2  -4 1835.58 154.065   4
  -2  -2  -4 1498.85 151.581   1
   2   2   4 1768.68 134.688   7
  -2  -2  -4 1559.69 121.078   7
  -2  -2  -5 189.015 41.6068   6
  -2  -2  -5 221.901 49.0670  10
   2   2   5 158.482 49.8414   1
  -2  -2  -5 21.7997 16.3437   3
   2   2   5 158.853 22.9824   3
  -2  -2  -5 170.755 50.5598   4
  -2  -2  -5 200.842 52.1837   9
  -2  -2  -5 205.619 46.6441   5
  -2  -2  -5 176.026 35.4617  11
  -2  -2  -5 196.336 47.0031   2
   2   2   5 225.130 55.5162   7
  -2  -2  -5 178.331 39.6617   7
  -2  -2  -5 123.895 42.6455   1
  -2  -2  -6 38667.7 1185.88   2
  -2  -2  -6 36383.3 1087.21  11
  -2  -2  -6 35230.1 1174.34  10
  -2  -2  -6 38349.6 1267.60   4
  -2  -2  -6 37271.3 1144.23   5
  -2  -2  -6 37053.1 1160.87   7
  -2  -2  -6 40839.4 1151.40   6
  -2  -2  -7 21.2446 17.0245   5
  -2  -2  -7 5.63835 7.86556   6
  -2  -2  -7-2.63412 14.1279   2
  -2  -2  -7 10.1252 12.7577  11
  -2  -2  -7 8.84727 18.5043   4
  -2  -2  -7 3.87460 15.6288   7
  -2  -2  -8 4137.85 318.245   4
  -2  -2  -8 3745.42 243.836   7
  -2  -2  -8 4355.48 253.478   2
  -2  -2  -8 3506.75 172.995   6
  -2  -2  -9 2493.33 276.528   4
  -2  -2  -9 2547.51 214.406   2
  -2  -2 -10 198.956 62.1477   2
  -2  -2 -10 128.476 65.5503   4
   2   3 -11 1299.15 200.232   2
   2   3 -11 866.847 164.944   4
  -2  -3  11 1191.93 179.372   9
   2   3 -10 601.690 127.670   2
  -2  -3  10 415.094 106.322   9
   2   3 -10 522.824 124.344   3
  -2  -3  10 482.390 80.6947  11
  -2  -3   9 108.581 48.8006   9
  -2  -3   9 172.990 46.4425  11
   2   3  -9 209.022 72.6158   2
   2   3  -9 89.6910 52.1122   3
   2   3  -8 29193.9 1085.36   2
  -2  -3   8 28635.7 939.182  11
  -2  -3   8 29876.3 969.684   5
   2   3  -8 30364.5 1155.61   3
   2   3  -8 25995.8 931.411   6
   2   3  -7 215.928 54.9064   6
   2   3  -7 195.694 62.5754   2
   2   3  -7 172.915 78.0180   3
   2   3  -7 168.508 52.5369   5
  -2  -3   7 315.451 71.6287   5
   2   3  -6 549.755 87.6834   6
   2   3  -6 452.000 89.4708   2
  -2  -3   6 718.260 104.949   5
   2   3  -6 593.919 99.1392   5
   2   3  -6 448.145 113.624   3
  -2  -3   6 545.510 93.9379   2
  -2  -3   5 5112.50 296.695   2
   2   3  -5 5319.29 321.865   5
  -2  -3   5 5632.19 312.408   5
  -2  -3   5 4006.50 151.621   8
   2   3  -5 5505.85 316.913   2
   2   3  -5 5090.73 344.997   3
   2   3  -5 5774.66 296.946   6
  -2  -3   4 3022.76 226.226   6
  -2  -3   4 3691.04 237.057   2
  -2  -3   4 3774.68 253.502   5
   2   3  -4 3771.44 265.366   5
   2   3  -4 3467.60 273.457   3
   2   3  -4 3813.65 241.628   6
  -2  -3   3 141303. 3826.12   2
   2   3  -3 149646. 3916.87   5
  -2  -3   3 150102. 3897.33   5
   2   3  -3 143826. 3834.31   6
  -2  -3   2 61.4958 26.6431   2
   2   3  -2 47.0798 27.9555   6
  -2  -3   2 31.6838 25.2244   5
   2   3  -2-5.11094 32.1197   5
  -2  -3   2 45.4780 10.4875   8
   2   3  -2 69.1126 28.2656   7
  -2  -3   1 19181.3 619.127   2
  -2  -3   1 17878.5 662.504   5
   2   3  -1 19061.3 624.859   7
   2   3  -1 19101.2 629.189   6
  -2  -3   0 4406.84 243.360   2
  -2  -3   0 3875.77 260.591   5
  -2  -3   0 4143.78 181.486   8
   2   3   0 4359.63 177.082   4
   2   3   0 4187.03 231.253   7
   2   3   0 4040.82 241.180   6
  -2  -3  -1 11122.7 490.355   5
  -2  -3  -1 11464.3 397.582   8
   2   3   1 11275.7 391.268   4
   2   3   1 10887.8 426.066   7
  -2  -3  -1 11270.5 383.457   4
  -2  -3  -1 10385.1 433.036   7
   2   3   1 10195.1 463.692   3
   2   3   1 11335.1 463.396   6
  -2  -3  -1 12167.1 478.789   6
  -2  -3  -2 24869.2 862.920   5
  -2  -3  -2 23271.6 788.129   7
   2   3   2 22420.6 877.103   5
  -2  -3  -2 22946.0 799.656  10
  -2  -3  -2 24672.6 773.096   8
   2   3   2 24584.8 813.741   3
  -2  -3  -2 25664.9 776.443   4
   2   3   2 23668.0 787.073   7
   2   3   2 25848.3 834.997   6
  -2  -3  -2 26005.7 842.777   6
  -2  -3  -3 5739.14 256.300  11
  -2  -3  -3 5642.74 315.574   5
   2   3   3 5839.33 340.425   5
  -2  -3  -3 5537.71 286.843  10
  -2  -3  -3 5685.51 276.147   8
  -2  -3  -3 5526.82 297.142   6
  -2  -3  -3 5774.43 284.963   4
   2   3   3 5619.66 281.232   7
  -2  -3  -3 5104.84 266.177   7
   2   3   3 5403.54 261.408   3
   2   3   4 479.948 57.0618   3
  -2  -3  -4 530.586 81.6372  10
  -2  -3  -4 509.566 87.9149   6
  -2  -3  -4 499.155 84.5201   5
  -2  -3  -4 563.025 85.7459   9
   2   3   4 437.954 92.4818   5
  -2  -3  -4 517.703 95.0053   1
  -2  -3  -4 458.177 61.2391  11
  -2  -3  -4 446.395 80.3050   4
   2   3   4 496.093 77.7205   7
  -2  -3  -4 510.490 73.7264   7
   2   3   4 559.729 95.8668   1
   2   3   5 4903.68 190.099   3
  -2  -3  -5 5128.92 284.920   2
   2   3   5 5862.43 355.925   1
  -2  -3  -5 6129.03 334.734   4
  -2  -3  -5 5890.59 309.579  10
  -2  -3  -5 5611.23 311.879   5
  -2  -3  -5 5328.91 247.192  11
   2   3   5 5070.05 304.582   7
  -2  -3  -5 5228.93 285.095   7
   2   3   5 5794.00 334.525   5
  -2  -3  -5 5897.96 314.345   6
  -2  -3  -6 5500.96 322.635  10
  -2  -3  -6 5362.85 306.809   5
  -2  -3  -6 5832.45 301.234   2
   2   3   6 5644.44 325.563   5
  -2  -3  -6 5352.92 305.250   7
   2   3   6 5500.36 326.506   7
  -2  -3  -6 5653.45 249.851  11
   2   3   6 5319.75 365.191   1
  -2  -3  -6 5292.08 347.603   4
  -2  -3  -6 5728.04 311.461   6
  -2  -3  -7 3770.06 246.634   5
  -2  -3  -7 3954.80 316.668   4
  -2  -3  -7 4087.34 271.036   7
  -2  -3  -7 4089.58 255.317   2
  -2  -3  -7 4399.15 200.991  11
  -2  -3  -7 4340.97 263.085   6
  -2  -3  -8 2161.71 174.994   6
  -2  -3  -8 2020.73 232.086   4
  -2  -3  -8 1909.50 176.113   2
  -2  -3  -9 4119.67 361.993   4
  -2  -3  -9 3870.99 261.165   2
  -2  -3 -10 283.149 94.5779   4
   2   4 -11 114.943 77.9889   3
  -2  -4  11 161.648 60.5186   9
   2   4 -11 186.764 94.4252   2
   2   4 -10 1025.53 176.095   2
  -2  -4  10 963.359 125.534  11
  -2  -4  10 837.399 154.520   9
   2   4 -10 1193.53 209.936   3
   2   4  -9 3074.85 298.184   2
  -2  -4   9 2871.84 221.406  11
   2   4  -9 2817.13 319.085   3
  -2  -4   8 8799.76 448.587   5
   2   4  -8 8211.40 494.033   2
   2   4  -8 9403.13 473.607   5
   2   4  -8 7691.47 529.864   3
   2   4  -8 6876.86 382.481   6
   2   4  -7 8684.74 465.692   5
   2   4  -7 7737.84 463.387   2
  -2  -4   7 8051.45 439.553   5
   2   4  -7 8132.25 518.952   3
   2   4  -7 7028.59 378.509   6
   2   4  -6 1476.37 197.900   3
   2   4  -6 1437.79 177.599   5
   2   4  -6 1279.28 163.922   2
  -2  -4   6 1441.84 168.860   5
   2   4  -6 1469.40 150.956   6
   2   4  -5 4682.91 313.540   2
   2   4  -5 4302.48 324.841   5
  -2  -4   5 4650.81 316.679   5
   2   4  -5 4602.35 332.062   7
   2   4  -5 4088.54 347.732   3
   2   4  -5 4672.91 284.704   6
  -2  -4   4 3802.92 256.897   2
  -2  -4   4 4187.24 299.067   5
   2   4  -4 4173.73 304.474   5
   2   4  -4 4098.10 298.139   7
   2   4  -4 4139.57 327.289   3
   2   4  -4 3347.12 251.472   6
  -2  -4   3 4740.14 280.141   2
  -2  -4   3 4566.27 310.500   5
   2   4  -3 4868.78 307.351   7
   2   4  -3 4225.00 280.114   6
   2   4  -3 4600.94 324.257   5
  -2  -4   2 1303.38 134.732   2
  -2  -4   2 1343.95 160.687   5
   2   4  -2 1326.37 163.983   5
  -2  -4   2 1442.24 74.1073   8
   2   4  -2 1350.86 145.631   7
   2   4  -2 1210.97 139.493   6
  -2  -4   1 3269.95 149.230   8
  -2  -4   1 3758.04 269.991   5
   2   4  -1 3573.52 233.205   7
  -2  -4   1 2972.04 216.244   2
   2   4  -1 3468.09 236.523   6
  -2  -4   0 21834.5 849.198   5
  -2  -4   0 21987.5 687.497   8
   2   4   0 22018.1 778.227   7
   2   4   0 22498.3 696.769   4
  -2  -4   0 24779.6 797.292   2
   2   4   0 23980.3 822.630   6
  -2  -4  -1 390.412 75.4421   6
  -2  -4  -1 363.480 67.9868   2
  -2  -4  -1 464.837 94.4114   5
   2   4   1 437.092 85.3352   3
  -2  -4  -1 457.968 61.5505   8
   2   4   1 420.354 59.5125   4
   2   4   1 426.996 69.7671   7
  -2  -4  -1 422.389 74.8802   7
   2   4   1 336.478 72.7465   6
  -2  -4  -2 43.2074 37.0061   6
   2   4   2 51.9511 26.9434   3
  -2  -4  -2 34.6313 20.2032  10
  -2  -4  -2 7.91808 23.7618   5
  -2  -4  -2 33.4906 21.5222   8
   2   4   2 18.5385 10.1092   4
   2   4   2 27.2657 24.6053   7
  -2  -4  -2 55.2984 22.2237   4
  -2  -4  -2 25.2020 12.1246   7
  -2  -4  -3 6594.61 373.866   5
  -2  -4  -3 5809.31 321.963  10
  -2  -4  -3 5944.55 301.980   8
   2   4   3 5672.68 314.005   7
  -2  -4  -3 6186.19 306.172   4
  -2  -4  -3 5783.62 310.595   7
   2   4   3 5773.54 306.529   3
  -2  -4  -3 6012.60 332.073   6
  -2  -4  -4 1715.90 133.165  11
  -2  -4  -4 1800.70 186.592   5
  -2  -4  -4 1908.34 164.822   8
   2   4   4 1826.27 173.175   7
  -2  -4  -4 1993.94 174.313   4
  -2  -4  -4 1836.89 162.019   7
  -2  -4  -4 1612.13 163.261  10
  -2  -4  -4 1930.72 172.660   9
  -2  -4  -4 1869.87 174.945   6
   2   4   4 1832.30 188.522   1
   2   4   4 1814.58 136.068   3
  -2  -4  -5 193.920 55.6832   6
   2   4   5 176.802 32.6274   3
   2   4   5 194.946 63.9607   1
  -2  -4  -5 294.699 73.1279   5
  -2  -4  -5 217.257 64.3641   4
  -2  -4  -5 251.039 62.7806  10
  -2  -4  -5 221.865 43.5604  11
   2   4   5 175.570 56.0836   7
  -2  -4  -5 220.064 59.6849   7
  -2  -4  -6 16781.6 671.496   6
   2   4   6 16106.2 734.965   1
   2   4   6 17314.5 697.376   7
  -2  -4  -6 16256.4 708.207   4
  -2  -4  -6 16161.8 554.522  11
  -2  -4  -6 17168.1 611.514   2
  -2  -4  -7 2010.88 202.720   5
   2   4   7 3301.53 263.220   7
  -2  -4  -7 3106.69 280.907   4
  -2  -4  -7 2764.27 208.488   2
  -2  -4  -7 3283.21 246.971   6
  -2  -4  -8 2005.64 240.312   4
  -2  -4  -8 2582.31 192.383   2
  -2  -4  -8 2383.83 212.922   6
  -2  -4  -9 1689.96 231.026   4
  -2  -4 -10 33.2974 37.0786   4
   2   5 -10 77.5670 64.2318   3
  -2  -5  10 97.8867 49.8762  11
   2   5 -10 123.416 72.4737   2
   2   5 -10 45.0938 25.0948   7
  -2  -5   9 582.136 111.108   6
   2   5  -9 504.800 122.238   2
   2   5  -9 476.131 132.863   3
  -2  -5   9 657.892 110.357  11
   2   5  -9 537.282 112.887   5
   2   5  -9 407.008 115.847   7
  -2  -5   8 1335.10 174.012   6
   2   5  -8 1386.21 185.349   5
   2   5  -8 1374.30 196.907   2
  -2  -5   8 1240.51 171.074   5
   2   5  -8 1227.93 212.236   3
   2   5  -8 940.146 131.136   6
   2   5  -8 1239.41 195.423   7
   2   5  -7 198.438 55.4854   6
   2   5  -7 132.685 42.0845   2
  -2  -5   7 272.191 78.0365   6
   2   5  -7 161.601 72.4928   3
  -2  -5   7 219.063 73.0745   5
   2   5  -7 218.545 74.0811   5
   2   5  -7 266.082 87.9190   7
   2   5  -6 704.284 110.687   6
  -2  -5   6 674.986 119.961   6
  -2  -5   6 990.131 153.444   5
   2   5  -6 845.402 153.849   3
   2   5  -6 731.542 131.822   2
   2   5  -6 834.337 147.947   5
   2   5  -6 866.285 144.491   7
  -2  -5   5 2942.17 270.150   5
   2   5  -5 2658.00 248.064   2
   2   5  -5 2655.50 269.111   5
   2   5  -5 3112.36 268.448   7
   2   5  -5 2601.35 291.491   3
   2   5  -5 2723.02 232.455   6
  -2  -5   5 2972.55 249.369   6
   2   5  -4 87.6424 42.4520   6
  -2  -5   4 116.088 42.6195   6
   2   5  -4 189.966 62.6313   2
   2   5  -4 157.447 63.0131   5
   2   5  -4 70.9915 39.3679   3
  -2  -5   4 135.405 54.7618   5
   2   5  -4 119.738 51.0723   7
  -2  -5   3 22180.1 811.136   2
  -2  -5   3 22314.7 845.547   6
   2   5  -3 21261.3 836.849   2
  -2  -5   3 22825.2 902.752   5
   2   5  -3 19436.0 869.039   5
   2   5  -3 21544.5 837.400   7
   2   5  -3 21158.5 815.536   6
   2   5  -2 715.217 112.399   6
  -2  -5   2 737.340 116.959   6
  -2  -5   2 842.145 111.551   2
   2   5  -2 843.065 125.757   2
  -2  -5   2 778.798 133.427   5
   2   5  -2 689.639 132.308   5
  -2  -5   2 823.553 60.6371   8
   2   5  -2 717.477 111.117   7
  -2  -5   1 826.002 135.729   5
   2   5  -1 737.929 112.190   6
  -2  -5   1 735.585 108.953   2
   2   5  -1 837.339 134.218   3
  -2  -5   1 861.080 75.8794   8
   2   5  -1 835.825 115.090   7
  -2  -5   0 4062.59 254.479   2
  -2  -5   0 4259.40 320.466   5
   2   5   0 3973.33 211.552   4
  -2  -5   0 4132.50 206.606   8
   2   5   0 4092.17 267.024   7
  -2  -5   0 4125.22 283.542   7
  -2  -5  -1 2.61138 16.5990   6
  -2  -5  -1-21.9652 27.9176  10
   2   5   1 13.6239 17.8621   5
  -2  -5  -1 7.01022 25.7272   5
  -2  -5  -1 0.77941 7.18415   8
  -2  -5  -1 8.58362 13.0332   2
   2   5   1 4.33347 8.95660   4
   2   5   1-0.96533 26.6145   7
  -2  -5  -1 15.0239 26.4677   7
  -2  -5  -2 10220.1 468.819   7
   2   5   2 10669.6 554.667   5
  -2  -5  -2 7064.09 395.657   2
  -2  -5  -2 9830.40 413.476   8
  -2  -5  -2 9909.75 472.304  10
   2   5   2 9735.37 489.009   1
  -2  -5  -2 10176.6 529.511   5
   2   5   2 9882.30 420.496   4
   2   5   2 10427.4 464.357   7
  -2  -5  -2 10027.5 488.323   6
  -2  -5  -3 233.022 64.3009   6
   2   5   3 218.477 59.3732   3
  -2  -5  -3 71.9004 33.8206   2
   2   5   3 223.154 49.2398   8
   2   5   3 246.113 75.7296   5
  -2  -5  -3 219.415 53.7156   8
  -2  -5  -3 181.094 59.4186   5
   2   5   3 314.421 66.7043   4
   2   5   3 217.663 55.6204   7
  -2  -5  -3 210.334 56.2464   4
  -2  -5  -3 175.142 48.9936   7
   2   5   3 236.637 67.3474   1
  -2  -5  -4 3012.12 271.200   5
   2   5   4 2803.93 267.945   5
  -2  -5  -4 2680.74 184.696  11
   2   5   4 3026.29 214.805   8
   2   5   4 3070.91 244.711   7
  -2  -5  -4 2984.10 230.522   4
   2   5   4 2923.40 255.404   1
   2   5   4 2144.04 189.125   3
  -2  -5  -4 2641.16 235.900   6
  -2  -5  -5 551.699 79.3272  11
  -2  -5  -5 607.455 115.362   6
   2   5   5 832.030 143.747   5
  -2  -5  -5 471.877 105.521   5
   2   5   5 708.028 116.869   7
   2   5   5 610.556 117.116   1
  -2  -5  -5 515.738 104.100   4
   2   5   5 577.088 73.1573   3
  -2  -5  -6 1117.63 150.950   6
   2   5   6 1127.32 172.964   1
  -2  -5  -6 1001.08 102.764  11
  -2  -5  -6 755.506 133.694   5
   2   5   6 1154.15 173.435   5
  -2  -5  -6 999.545 108.837   2
   2   5   6 1084.73 153.540   7
  -2  -5  -6 867.896 142.187   4
   2   5   7 3030.03 304.503   1
   2   5   7 2847.17 267.184   5
  -2  -5  -7 2842.35 195.916   2
   2   5   7 2806.52 265.938   7
  -2  -5  -7 2818.94 275.417   4
  -2  -5  -7 2901.67 256.774   6
  -2  -5  -8 108.038 51.0164   6
   2   5   8 109.959 48.4691   5
  -2  -5  -8 78.9597 52.9072   4
  -2  -5  -9 4047.05 366.909   4
   2   6 -10 2668.90 320.121   2
  -2  -6  10 2399.32 237.495  11
   2   6 -10 2209.18 323.344   3
   2   6 -10 1440.97 229.518   7
  -2  -6   9 131.988 53.4311  11
   2   6  -9 83.6085 52.8962   2
   2   6  -9 201.837 114.161   3
  -2  -6   9 63.5631 38.6373   6
   2   6  -9 99.6412 49.0389   5
   2   6  -9 59.8202 37.6493   7
   2   6  -8 48.8442 42.9750   3
  -2  -6   8 19.7177 19.3971  11
  -2  -6   8 41.0696 31.2891   6
   2   6  -8 13.4209 24.2957   5
   2   6  -8 77.9865 57.1044   2
   2   6  -8 2.00755 21.0465   7
  -2  -6   7 22.9184 38.6305   6
   2   6  -7-30.2463 45.7672   3
   2   6  -7 48.6408 26.2731   5
   2   6  -7 8.79483 27.7510   2
   2   6  -7 51.2938 29.1697   7
   2   6  -6 4907.99 380.740   2
   2   6  -6 4478.19 361.968   7
   2   6  -6 5094.80 408.024   5
   2   6  -6 4655.99 421.474   3
  -2  -6   6 4570.24 342.074   6
   2   6  -5 7706.16 468.130   2
   2   6  -5 6944.33 484.116   5
   2   6  -5 6721.94 439.270   7
   2   6  -5 7271.79 530.515   3
  -2  -6   5 6793.69 425.728   6
   2   6  -4 513.480 119.654   5
  -2  -6   4 545.232 117.894   6
   2   6  -4 531.787 110.226   2
   2   6  -4 469.250 121.871   3
   2   6  -4 727.693 123.615   7
  -2  -6   3 985.112 147.449   6
   2   6  -3 1033.06 176.520   3
   2   6  -3 1111.88 158.229   2
   2   6  -3 878.689 162.718   5
   2   6  -3 1076.33 148.424   7
  -2  -6   2 15764.3 658.792   2
  -2  -6   2 16221.2 502.061   8
   2   6  -2 15113.3 755.810   5
   2   6  -2 16346.6 696.887   7
   2   6  -2 16995.6 790.232   3
   2   6  -2 16746.4 705.787   2
  -2  -6   2 16189.8 720.832   6
  -2  -6   1 2677.43 210.822   2
   2   6  -1 2605.50 270.149   5
  -2  -6   1 2504.64 149.520   8
   2   6  -1 2608.82 226.500   7
   2   6  -1 2389.46 164.705   4
   2   6  -1 2785.70 267.896   3
  -2  -6   1 2798.91 252.833   6
  -2  -6   0 2737.70 219.251   2
   2   6   0 3368.64 311.672   5
  -2  -6   0 3304.79 189.183   8
   2   6   0 3119.84 200.632   4
   2   6   0 3443.22 259.434   7
   2   6   0 3108.41 283.742   3
  -2  -6   0 3629.21 285.941   6
  -2  -6  -1 5608.91 310.470   2
  -2  -6  -1 5611.04 283.999   8
   2   6   1 5635.72 298.499   4
   2   6   1 5653.83 348.320   7
   2   6   1 5193.76 400.781   5
   2   6   1 5411.61 377.305   3
  -2  -6  -1 6435.32 396.274   6
   2   6   2 5308.18 357.562   1
   2   6   2 5079.58 387.681   5
   2   6   2 5267.73 281.641   8
  -2  -6  -2 5659.73 292.612   8
   2   6   2 5104.34 332.119   7
  -2  -6  -2 3887.13 257.866   2
   2   6   2 5080.88 294.416   4
   2   6   2 4384.13 320.287   3
  -2  -6  -2 5253.66 352.138   6
   2   6   3 1556.40 160.936   4
  -2  -6  -3 637.104 99.1345   2
   2   6   3 1339.24 137.734   8
   2   6   3 1295.75 190.415   5
   2   6   3 1613.01 181.243   7
   2   6   3 1567.55 187.781   1
  -2  -6  -3 1497.94 186.150   6
   2   6   4 4391.95 356.122   5
   2   6   4 4707.69 279.130   8
   2   6   4 4687.04 322.373   7
  -2  -6  -4 4043.10 282.496   4
   2   6   4 4510.61 330.322   1
  -2  -6  -4 4353.43 324.158   6
   2   6   5 3.57469 19.6728   3
  -2  -6  -5 15.4021 19.8377   6
   2   6   5-27.6651 44.1476   1
  -2  -6  -5-2.80230 23.8791   2
  -2  -6  -5 7.02402 10.0791  11
   2   6   5-13.9746 23.4734   5
   2   6   5 64.4458 38.0696   7
  -2  -6  -5 20.2941 17.8934   4
   2   6   6 515.903 57.7602   3
  -2  -6  -6 956.477 152.632   6
   2   6   6 932.066 163.357   1
  -2  -6  -6 696.093 89.8997   2
   2   6   6 814.749 153.131   5
   2   6   6 956.087 156.478   7
  -2  -6  -6 971.495 154.245   4
  -2  -6  -7 577.567 123.879   6
   2   6   7 960.866 172.420   1
   2   6   7 703.180 138.607   7
   2   6   7 779.133 148.577   5
  -2  -6  -7 793.232 145.200   4
  -2  -6  -8 224.419 74.9309   6
   2   6   8 249.332 79.9966   7
  -2  -6  -8 171.391 66.6470   4
   2   7  -9 911.818 222.659   3
   2   7  -9 1123.89 211.512   2
  -2  -7   9 794.961 143.494  11
  -2  -7   9 913.160 156.603   6
   2   7  -9 539.552 138.274   7
   2   7  -8 229.403 89.0927   2
  -2  -7   8 326.931 94.6443   6
   2   7  -8 335.678 125.674   3
   2   7  -8 262.431 101.048   5
  -2  -7   8 294.275 80.5883  11
   2   7  -8 254.708 91.8557   7
  -2  -7   7 1306.89 198.708   6
   2   7  -7 1787.17 244.945   2
   2   7  -7 1631.43 262.551   3
   2   7  -7 1508.76 236.929   5
   2   7  -7 1368.17 206.291   7
  -2  -7   6 548.468 117.367   6
   2   7  -6 407.980 133.746   3
   2   7  -6 781.108 152.388   2
   2   7  -6 644.251 149.280   5
   2   7  -6 573.023 134.231   7
  -2  -7   5 105.692 52.4893   6
   2   7  -5 42.0251 16.1929   2
   2   7  -5 19.4532 32.3388   5
   2   7  -5 79.7907 53.3154   3
   2   7  -5 63.6452 52.5305   7
  -2  -7   4 930.595 152.307   6
   2   7  -4 1156.16 174.767   2
   2   7  -4 795.367 169.658   5
   2   7  -4 1022.26 196.935   3
   2   7  -4 969.859 152.237   7
  -2  -7   3 44.7042 41.5538   6
   2   7  -3 16.1171 20.4535   7
   2   7  -3 26.2609 27.9388   5
   2   7  -3-31.3294 45.7246   3
   2   7  -3-15.5781 29.1815   2
   2   7  -2 152.245 62.0104   5
  -2  -7   2 413.888 105.949   6
   2   7  -2 280.640 100.306   3
   2   7  -2 167.716 56.7621   2
   2   7  -2 241.173 68.9574   7
   2   7  -1 5979.91 315.427   4
   2   7  -1 6782.11 489.928   5
  -2  -7   1 6654.91 290.328   8
   2   7  -1 6381.82 403.686   7
   2   7  -1 7029.17 482.040   3
  -2  -7   1 7114.84 458.087   6
  -2  -7   0 9319.68 486.111   2
   2   7   0 12077.5 676.955   5
  -2  -7   0 11835.0 450.338   8
   2   7   0 11004.2 475.065   4
   2   7   0 10955.8 558.733   7
   2   7   0 11467.2 634.204   3
  -2  -7   0 12813.5 627.775   6
  -2  -7  -1 507.257 81.2890   8
  -2  -7  -1 558.419 118.665   6
   2   7   1 411.442 100.216   3
   2   7   1 467.783 82.2382   4
   2   7   1 452.307 119.962   5
   2   7   1 499.117 105.021   7
  -2  -7  -1 361.186 72.1467   2
  -2  -7  -2 691.497 108.818   2
   2   7   2 2050.76 225.903   1
   2   7   2 1517.92 229.337   5
   2   7   2 2052.78 214.309   7
   2   7   2 1920.89 178.141   4
   2   7   2 2085.81 228.084   3
  -2  -7  -2 2068.42 232.035   6
   2   7   3 1356.03 179.558   7
   2   7   3 1664.18 234.234   5
   2   7   3 1745.00 164.749   8
   2   7   3 1621.32 200.803   1
   2   7   3 1579.78 186.684   3
  -2  -7  -3 1502.76 196.243   6
   2   7   4 3135.26 320.688   5
   2   7   4 3617.82 252.086   8
   2   7   4 3344.87 289.980   7
   2   7   4 3864.71 321.571   1
   2   7   4 1891.02 211.355   3
  -2  -7  -4 3490.58 302.598   6
  -2  -7  -5 331.788 98.2603   6
   2   7   5 415.023 110.058   1
   2   7   5 284.155 101.493   5
   2   7   5 274.673 88.8872   7
   2   7   6 1580.70 224.540   1
  -2  -7  -6 1423.47 205.462   6
   2   7   6 1290.76 212.621   5
   2   7   6 1476.39 208.657   7
  -2  -7  -6 1311.42 188.156   4
  -2  -7  -7 30.5651 30.9625   6
   2   7   7 30.6707 28.8871   5
   2   7   7 149.725 71.4761   7
  -2  -7  -7 41.0260 31.8510   4
   2   7   7 44.0791 26.1524   1
  -2  -8   8 192.419 81.4389   6
   2   8  -8 287.298 104.310   2
   2   8  -8 538.052 167.636   3
  -2  -8   8 204.443 73.7871  11
   2   8  -8 459.747 135.545   5
   2   8  -8 380.553 114.877   7
  -2  -8   7 39.6418 50.8058   6
   2   8  -7 46.3496 23.8736   5
   2   8  -7 110.647 60.8498   2
   2   8  -7 133.079 84.2761   3
   2   8  -7 99.4703 54.6001   7
  -2  -8   6 27.5612 34.4496   6
   2   8  -6-18.5890 81.5345   3
   2   8  -6-44.8204 48.3542   2
   2   8  -6 78.9100 63.6706   5
   2   8  -6-13.0137 31.8860   7
  -2  -8   5-20.3473 34.6711   6
   2   8  -5-1.40622 26.0683   3
   2   8  -5 34.7134 32.2844   2
   2   8  -5 75.8737 72.3998   5
   2   8  -5 30.4915 33.5231   7
   2   8  -4 5962.20 434.805   2
   2   8  -4 5434.22 479.635   5
   2   8  -4 5639.03 415.427   7
   2   8  -4 5953.60 509.377   3
  -2  -8   4 5600.77 421.797   6
  -2  -8   3 566.290 132.420   6
   2   8  -3 538.814 126.077   2
   2   8  -3 607.985 156.197   5
   2   8  -3 663.882 159.367   3
   2   8  -3 677.004 132.239   7
  -2  -8   2 833.299 161.090   6
   2   8  -2 885.051 180.007   3
   2   8  -2 812.874 174.773   5
   2   8  -2 907.010 150.767   7
  -2  -8   1 2242.02 259.909   6
   2   8  -1 1900.70 267.516   5
   2   8  -1 1847.45 171.048   4
   2   8  -1 2035.95 232.307   7
   2   8  -1 2203.82 279.707   3
   2   8   0 1895.83 244.247   3
   2   8   0 1981.50 228.380   7
   2   8   0 1921.50 270.176   5
  -2  -8   0 1980.16 163.446   8
   2   8   0 1788.33 173.499   4
  -2  -8   0 1906.63 242.551   6
   2   8   1 845.639 175.898   5
  -2  -8  -1 646.700 132.916   6
   2   8   1 533.940 130.719   3
   2   8   1 592.230 124.017   7
  -2  -8  -1 287.471 71.5561   2
  -2  -8  -2 171.095 73.5180   6
   2   8   2 30.6849 41.4466   5
   2   8   2 64.3566 47.6215   3
   2   8   2 131.548 59.9080   1
   2   8   2 58.0095 34.5196   7
  -2  -8  -2 11.3495 34.6518   2
  -2  -8  -3 103.623 63.2631   6
   2   8   3 105.507 51.6845   3
   2   8   3 103.382 85.4770   5
   2   8   3 174.263 65.8796   7
   2   8   3 191.407 76.9628   1
  -2  -8  -4 152.659 66.1580   6
   2   8   4 215.645 74.3825   1
   2   8   4 140.130 66.7599   3
   2   8   4 107.534 58.3751   5
   2   8   4 124.346 52.5744   7
  -2  -8  -5 1113.62 193.762   6
   2   8   5 1458.33 219.452   1
   2   8   5 1174.82 213.820   5
   2   8   5 1195.66 193.310   7
  -2  -8  -6 167.622 75.2602   6
   2   8   6 165.686 85.1379   5
   2   8   6 162.753 68.1015   7
   2   8   6 343.447 109.092   1
  -2  -9   7-0.28572 21.9944   6
   2   9  -7-64.6528 88.2821   3
   2   9  -7 200.626 92.3450   2
   2   9  -7 142.086 67.9900   7
  -2  -9   6 11.5645 21.7612   6
   2   9  -6-23.5323 40.3520   3
   2   9  -6 55.1561 74.6134   2
   2   9  -6-51.2747 58.2626   5
   2   9  -6-14.9834 44.8521   7
  -2  -9   5 33.8096 36.2949   6
   2   9  -5 64.5307 31.1899   3
   2   9  -5 20.2601 43.8653   7
   2   9  -5-12.8031 31.1939   2
  -2  -9   4 1082.74 184.310   6
   2   9  -4 1199.84 241.776   3
   2   9  -4 860.075 171.119   2
   2   9  -4 1197.55 228.608   5
   2   9  -4 937.178 169.765   7
  -2  -9   3 916.610 179.012   6
   2   9  -3 694.365 177.380   3
   2   9  -3 616.825 133.235   2
   2   9  -3 726.911 180.422   5
   2   9  -3 782.655 148.802   7
  -2  -9   2 993.733 180.907   6
   2   9  -2 1009.24 200.009   3
   2   9  -2 700.877 179.670   5
   2   9  -2 888.032 162.970   7
  -2  -9   1 868.143 178.574   6
   2   9  -1 716.754 183.656   5
   2   9  -1 756.150 171.550   3
   2   9  -1 946.059 163.163   7
  -2  -9   0 776.872 163.444   6
   2   9   0 703.056 155.368   3
   2   9   0 488.387 151.925   5
   2   9   0 677.913 141.800   7
  -2  -9  -1 861.580 173.594   6
   2   9   1 870.828 172.190   3
   2   9   1 934.585 168.206   1
   2   9   1 581.871 163.129   5
   2   9   1 840.620 161.406   7
  -2  -9  -2 1287.08 215.366   6
   2   9   2 1039.09 187.385   3
   2   9   2 1215.34 226.901   5
   2   9   2 1570.19 221.556   1
   2   9   2 1311.76 200.117   7
  -2  -9  -3 329.949 106.240   6
   2   9   3 202.376 92.8403   5
   2   9   3 209.006 89.8350   3
   2   9   3 166.446 75.2799   7
   2   9   3 234.153 89.6257   1
  -2  -9  -4 183.344 87.4178   6
   2   9   4 486.226 127.241   1
   2   9   4 407.591 108.562   3
   2   9   4 412.849 133.016   5
   2   9   4 423.032 118.911   7
  -2  -9  -5 134.554 74.6797   6
   2   9   5 25.2014 33.3299   1
   2   9   5 114.320 62.3766   5
   2   9   5 50.1936 32.9154   7
  -2 -10   5-42.2314 56.5837   6
   2  10  -5 105.539 58.7807   3
   2  10  -5-66.1587 69.7951   2
   2  10  -5 18.8897 44.0345   7
  -2 -10   4 267.215 102.308   6
   2  10  -4 186.072 94.4274   3
   2  10  -4 82.7381 80.0277   5
   2  10  -4 55.7005 41.7938   2
   2  10  -4 281.649 96.1600   7
  -2 -10   3 559.214 149.330   6
   2  10  -3 555.549 158.968   3
   2  10  -3 651.921 180.197   5
   2  10  -3 777.783 165.746   7
   2  10  -2 50.1724 37.6686   5
  -2 -10   2 122.540 66.0537   6
   2  10  -2 91.2636 75.4315   3
   2  10  -2 106.357 62.8036   7
  -2 -10   1 384.775 124.079   6
   2  10  -1 217.479 99.5122   3
   2  10  -1 397.881 138.001   5
   2  10  -1 312.874 100.957   7
  -2 -10   0 766.080 175.103   6
   2  10   0 590.771 159.975   3
   2  10   0 791.295 188.367   5
   2  10   0 781.162 155.584   7
  -2 -10  -1 37.7971 71.2082   6
   2  10   1 71.4088 50.3714   3
   2  10   1 172.024 84.1442   1
   2  10   1 199.018 94.0798   5
   2  10   1 29.2375 44.8379   7
  -2 -10  -2 8.77602 30.3234   6
   2  10   2 11.8802 41.4526   3
   2  10   2-73.2359 94.8126   5
   2  10   2 61.5559 72.8861   1
   2  10   2-41.7199 59.5138   7
  -2 -10  -3 225.573 100.417   6
   2  10   3 148.011 78.4557   3
   2  10   3 122.612 67.8108   5
   2  10   3 280.025 104.092   7
   2  10   3 167.943 74.2841   1
   3 -11  -1 105.726 51.5839  11
  -3  11   1 155.322 86.0799   5
  -3  11   1 33.7835 24.1214   8
  -3  11   1 3.44808 20.3698   1
  -3  11   1 89.6141 78.9507   7
  -3  11   0 244.436 101.455   5
   3 -11   0 195.529 65.7880  11
  -3  11   0 110.377 42.6544   8
  -3  11   0 175.457 78.1689   7
  -3  11   0 102.909 58.0346   1
   3 -11   0 251.155 100.979   6
   3 -11   1 44.8222 53.6211   6
  -3  11  -1 37.3342 17.0012   2
  -3  11  -1 133.936 71.2673   5
   3 -11   1 99.0303 38.5493  11
  -3  11  -1 106.472 45.7303   8
  -3  11  -1-17.1710 38.0469   7
  -3  11  -2-4.96982 25.0408   2
   3 -11   2-11.6686 37.2812   6
  -3  11  -2 17.6934 29.2562   7
  -3  10   4 844.642 188.091   5
  -3  10   4 869.147 144.880   8
  -3  10   4 735.423 141.387   1
   3 -10  -4 259.123 76.8775  11
  -3  10   4 928.191 180.293   7
  -3  10   3 741.006 176.699   5
  -3  10   3 780.837 144.048   1
  -3  10   3 810.532 135.382   8
  -3  10   3 819.572 163.552   7
   3 -10  -3 357.526 91.2823  11
  -3  10   2-11.6063 46.1107   5
  -3  10   2-3.99637 16.6673   8
  -3  10   2-69.3804 53.3537   7
   3 -10  -2-0.51245 11.2093  11
  -3  10   2-11.7977 31.0801   1
  -3  10   1 83.6244 49.6094   2
  -3  10   1 215.962 104.387   5
  -3  10   1 136.714 53.4053   1
   3 -10  -1 141.247 50.6135  11
  -3  10   1 117.828 49.1368   8
  -3  10   1 201.302 79.4422   7
  -3  10   0 64.2964 49.4393   2
   3 -10   0 130.322 52.5108  11
  -3  10   0 99.7618 60.6261   5
  -3  10   0 147.601 51.7023   8
  -3  10   0 126.880 51.4578   7
   3 -10   1 581.377 117.441  11
  -3  10  -1 604.771 163.002   5
  -3  10  -1 513.873 89.7466   8
  -3  10  -1 475.911 115.747   7
  -3  10  -1 465.245 96.5095   2
  -3  10  -2 13.1190 31.0398   5
  -3  10  -2 103.420 40.4961   8
  -3  10  -2 54.7847 37.8715   7
   3 -10   2 11.5043 21.1339  11
   3 -10   2 127.078 68.8238   6
  -3  10  -2 24.5894 22.0264   2
   3 -10   3 18.3004 15.8142   6
   3 -10   3 55.5731 36.0833  11
  -3  10  -3 103.006 72.4815   5
  -3  10  -3 52.2192 19.9312   8
  -3  10  -3 23.4465 30.0659   7
  -3  10  -3 48.7431 17.5616   2
   3 -10   4-12.7070 20.2687   6
   3 -10   4 62.9038 34.8662  11
  -3  10  -4-14.4841 47.2689   5
  -3  10  -4-38.6754 51.6282   7
  -3  10  -4-16.1532 37.4949   2
   3 -10   5 717.861 141.537   6
   3 -10   5 1025.00 173.518  11
  -3  10  -5 831.608 195.655   5
  -3  10  -5 154.384 53.1471   7
  -3  10  -5 559.113 127.932   2
  -3   9   6 48.8402 42.3470   1
  -3   9   6 55.2948 45.1994  10
  -3   9   6 34.4463 34.1743   8
  -3   9   6-49.2848 52.4173   7
  -3   9   5 755.514 137.314   1
   3  -9  -5 411.263 80.5806  11
  -3   9   5 1372.82 211.108  10
  -3   9   5 1056.66 196.907   5
  -3   9   5 1413.92 180.386   8
  -3   9   5 963.381 181.098   7
  -3   9   4 300.144 79.6069   1
  -3   9   4 468.039 104.842   8
   3  -9  -4 222.185 55.1684  11
  -3   9   4 221.252 88.2222   5
  -3   9   4 475.416 119.004  10
  -3   9   4 346.279 105.926   7
  -3   9   3 472.156 106.531   1
   3  -9  -3 413.045 81.9481  11
  -3   9   3 589.327 150.746   5
  -3   9   3 460.526 96.8748   8
  -3   9   3 350.017 95.8314  10
  -3   9   3 517.743 126.903   7
  -3   9   2 631.350 170.051   5
  -3   9   2 590.527 85.0416   2
   3  -9  -2 507.518 100.806  11
  -3   9   2 642.186 108.234   8
  -3   9   2 525.761 114.383   7
  -3   9   2 659.751 115.932   1
  -3   9   1 83.7246 38.6267   2
  -3   9   1 56.0377 51.0943   5
   3  -9  -1 65.7505 37.6260  11
  -3   9   1 96.3661 47.9317   1
  -3   9   1 93.5395 39.9160   8
  -3   9   1 62.2648 40.4679   7
   3  -9   0 497.540 107.398  11
  -3   9   0 381.111 126.112   5
  -3   9   0 411.305 82.1729   8
  -3   9   0 438.899 104.250   7
  -3   9   0 307.080 69.4827   2
  -3   9  -1 390.871 93.7156   7
  -3   9  -1 339.832 115.967   5
  -3   9  -1 467.480 82.0545   8
   3  -9   1 382.487 91.0314  11
  -3   9  -1 257.008 68.4431   2
   3  -9   2 117.729 53.9470  11
  -3   9  -2 183.135 85.0559   5
  -3   9  -2 176.013 49.3315   8
  -3   9  -2 168.401 60.2328   7
  -3   9  -2 117.080 45.7038   2
  -3   9  -3 2123.52 222.896   2
  -3   9  -3 2191.74 173.739   8
   3  -9   3 2422.69 244.786  11
  -3   9  -3 2454.08 314.959   5
  -3   9  -3 1772.51 197.431   7
   3  -9   3 2171.29 237.767   6
   3  -9   4 13.7552 24.9352   6
   3  -9   4 85.0954 47.6945  11
  -3   9  -4 167.364 80.7609   5
  -3   9  -4 108.928 37.7001   8
  -3   9  -4 122.054 56.2415   7
  -3   9  -4 81.9968 48.8587   2
  -3   9  -5 209.061 88.8120   5
   3  -9   5 127.978 59.2087   6
   3  -9   5 76.7638 43.1598  11
  -3   9  -5 139.322 65.2214   7
  -3   9  -5 109.069 53.7120   2
   3  -9   6 283.176 82.3679   6
   3  -9   6 376.585 102.296  11
  -3   9  -6 54.6269 13.7228   7
  -3   9  -6 268.132 84.5467   2
  -3   9  -6 247.894 99.2121   5
  -3   8   7 472.648 127.061  10
  -3   8   7 344.682 112.712   5
  -3   8   7 512.854 113.326   8
  -3   8   6 58.0847 42.3613   5
  -3   8   6-7.60662 35.2906   1
  -3   8   6 3.75360 25.6163  10
  -3   8   6 48.2375 38.6930   8
  -3   8   6 2.05957 37.5487   7
   3  -8  -5 98.1338 32.9158  11
  -3   8   5 94.3585 57.3255   7
  -3   8   5 158.261 71.6591  10
  -3   8   5 57.7516 39.0435   5
  -3   8   5 30.6341 15.4402   1
  -3   8   5 141.009 55.4651   8
  -3   8   4-1.90694 16.8203  10
   3  -8  -4 32.5456 23.6792   9
   3  -8  -4 17.5061 15.6608  11
  -3   8   4 14.7928 21.7014   8
  -3   8   4 24.2401 25.5479   1
  -3   8   4 5.74646 21.3914   7
  -3   8   4 1.14202 40.0717   5
  -3   8   3 5983.54 411.532   7
  -3   8   3 5808.27 355.329   8
  -3   8   3 5996.95 404.748  10
   3  -8  -3 5830.07 325.379  11
  -3   8   3 6127.19 488.361   5
  -3   8   3 5550.12 348.226   1
   3  -8  -2 208.463 60.1096  11
  -3   8   2 155.639 40.1421   2
  -3   8   2 174.325 63.3550  10
  -3   8   2 295.603 102.623   5
  -3   8   2 233.871 59.3643   8
  -3   8   2 235.223 74.5845   7
  -3   8   2 190.575 57.1777   1
  -3   8   1 2413.05 295.461   5
  -3   8   1 2026.45 182.917   8
  -3   8   1 2167.77 198.803   1
  -3   8   1 1969.90 213.405   7
  -3   8   1 2210.32 217.699  10
   3  -8  -1 1829.68 179.588  11
   3  -8   0 321.711 71.6023   2
   3  -8   0 687.596 109.443  11
  -3   8   0 401.141 134.860   5
  -3   8   0 492.935 86.5706   8
  -3   8   0 461.940 95.1074   7
  -3   8   0 504.455 81.1376   2
   3  -8   1 354.622 84.4344  11
  -3   8  -1 515.820 136.172   5
  -3   8  -1 362.520 68.9484   8
  -3   8  -1 282.249 73.6082   7
  -3   8  -1 331.639 73.9737   2
   3  -8   2 741.456 124.462  11
   3  -8   2 877.887 123.305  10
  -3   8  -2 874.859 103.723   8
  -3   8  -2 892.378 180.720   5
  -3   8  -2 820.809 121.927   7
  -3   8  -2 986.768 133.525   2
   3  -8   3 796.757 129.435  11
   3  -8   3 873.636 117.342  10
  -3   8  -3 783.511 167.297   5
  -3   8  -3 820.286 130.624   2
  -3   8  -3 828.696 119.183   7
  -3   8  -4 1973.70 212.624   2
  -3   8  -4 2030.42 272.897   5
   3  -8   4 1836.68 208.577  11
   3  -8   4 1874.49 166.002  10
  -3   8  -4 1664.75 169.953   7
   3  -8   4 1669.25 196.053   6
  -3   8  -5 9144.64 522.045   2
   3  -8   5 9014.87 503.220  11
  -3   8  -5 9655.51 609.268   5
  -3   8  -5 6802.16 388.624   7
   3  -8   5 8018.88 457.156   6
   3  -8   6 284.171 69.2485   6
   3  -8   6 362.091 95.6954  11
  -3   8  -6 373.478 114.206   5
  -3   8  -6 398.456 107.645   2
  -3   8  -6 169.878 51.9794   7
  -3   8  -7 1231.46 208.967   5
   3  -8   7 1579.28 205.445  11
   3  -8   7 1276.98 177.232   9
  -3   8  -7 1597.44 221.840   2
  -3   7   8 343.361 98.6177   5
  -3   7   8 259.386 87.3022  10
  -3   7   8 219.124 75.7804   8
  -3   7   7 10.9791 23.4054   5
  -3   7   7-6.28068 16.1586   8
   3  -7  -6 104.123 27.9544  11
  -3   7   6 48.9415 22.6292   1
  -3   7   6 95.2907 63.2158   5
  -3   7   6 147.251 64.2628  10
  -3   7   6 220.522 65.8615   8
  -3   7   5 123.614 47.7895   1
   3  -7  -5 167.732 37.8187  11
  -3   7   5 241.023 80.0328  10
   3  -7  -5 193.423 41.7678   9
  -3   7   5 192.236 59.4946   3
  -3   7   5 243.214 67.7812   8
  -3   7   5 177.292 74.2163   5
  -3   7   5 108.734 51.6721   7
  -3   7   4 154.580 64.5357  10
   3  -7  -4 93.0645 31.6860  11
  -3   7   4 66.9261 43.1966   5
   3  -7  -4 105.710 31.6016   9
  -3   7   4 173.750 62.0979   3
  -3   7   4 101.021 40.8752   8
  -3   7   4 165.924 71.0632   7
  -3   7   4 133.286 56.8863   1
  -3   7   3 3191.10 253.274   3
  -3   7   3 3209.86 238.080   8
  -3   7   3 3503.18 278.749  10
  -3   7   3 2654.08 130.406   2
   3  -7  -3 3359.55 218.975  11
  -3   7   3 3137.56 272.960   7
  -3   7   3 3244.52 322.749   5
  -3   7   3 2993.45 230.891   1
  -3   7   2 9901.78 610.683   5
  -3   7   2 9697.23 363.315   2
  -3   7   2 10141.3 460.804   8
   3  -7  -2 9641.43 443.383  11
  -3   7   2 10489.9 505.303  10
  -3   7   2 10005.0 510.724   7
  -3   7   2 9473.26 444.243   1
  -3   7   1 1104.06 109.285   2
  -3   7   1 1327.10 159.758  10
  -3   7   1 1350.77 221.541   5
   3  -7  -1 1332.07 144.000  11
  -3   7   1 1391.55 138.233   8
  -3   7   1 1413.89 161.771   7
   3  -7   0 966.120 115.985   2
   3  -7   0 1148.85 135.111  11
  -3   7   0 1352.96 154.716   7
   3  -7   0 1275.29 153.484  10
  -3   7   0 1193.20 142.931  10
  -3   7   0 1270.63 127.520   8
  -3   7   0 1179.15 192.448   5
   3  -7   1 203.508 58.7760  11
   3  -7   1 124.550 48.1745   2
   3  -7   1 322.479 70.1901  10
  -3   7  -1 171.879 72.1777   5
  -3   7  -1 192.606 50.1778   2
  -3   7  -1 218.759 57.7673   7
   3  -7   1 192.714 59.6989   7
  -3   7  -2 355.200 106.099   5
   3  -7   2 557.170 101.891  11
   3  -7   2 484.679 84.3181  10
  -3   7  -2 601.140 97.8542   2
  -3   7  -2 525.984 89.5976   7
   3  -7   2 342.610 78.5224   7
  -3   7  -3 1920.41 192.169   2
  -3   7  -3 2198.79 268.559   5
   3  -7   3 1911.78 160.521  10
   3  -7   3 2043.39 200.234  11
  -3   7  -3 1861.95 166.578   7
   3  -7   3 1250.34 157.131   7
   3  -7   4 8.33853 33.6841  11
  -3   7  -4-5.33121 24.5165   5
  -3   7  -4 8.11037 27.6838   2
   3  -7   4-16.1791 17.0426  10
  -3   7  -4-2.19394 14.8120   7
  -3   7  -5 17182.9 754.337   2
  -3   7  -5 15488.7 614.259   7
   3  -7   5 16710.1 728.525  11
   3  -7   5 16964.4 576.548  10
  -3   7  -5 17731.6 849.659   5
   3  -7   5 15225.0 660.731   6
   3  -7   6 129.966 43.4854   6
   3  -7   6 225.049 73.6608  11
   3  -7   6 109.451 54.3555   9
  -3   7  -6 97.5649 44.7022   2
  -3   7  -6 137.090 41.5999   7
  -3   7  -6 159.610 71.2601   5
   3  -7   7 378.337 73.2333   6
   3  -7   7 712.239 134.311  11
  -3   7  -7 953.802 168.401   5
   3  -7   7 876.123 137.539   9
  -3   7  -7 871.639 154.711   2
  -3   7  -7 400.853 73.0628   7
   3  -7   8 69.1464 40.9906  11
   3  -7   8 47.0635 15.3679   9
  -3   7  -8 101.256 63.1976   2
  -3   7  -8 64.0649 40.9860   5
  -3   6   9 275.803 90.7964  10
  -3   6   9 541.309 116.487   8
   3  -6  -9 454.396 115.572   4
  -3   6   8 136.617 57.3500  10
  -3   6   8 129.408 55.1773   5
  -3   6   8 111.482 46.3035   8
  -3   6   7 22.2304 25.2407  10
  -3   6   7 77.4887 42.6417   5
  -3   6   7-0.34097 15.7437   8
   3  -6  -7 40.8604 22.0527   9
  -3   6   6 803.428 114.266   3
   3  -6  -6 574.180 76.4726   9
   3  -6  -6 918.956 77.8431  11
  -3   6   6 835.790 145.278  10
  -3   6   6 1071.12 148.387   8
  -3   6   6 291.389 109.927   5
  -3   6   5 1977.37 185.637   3
   3  -6  -5 1907.76 134.554  11
  -3   6   5 2089.70 193.808   1
  -3   6   5 2074.97 220.866  10
  -3   6   5 2101.51 195.834   8
  -3   6   5 2058.07 222.452   7
  -3   6   5 1635.23 230.499   5
   3  -6  -5 2215.44 143.690   9
  -3   6   4 2104.00 192.399   3
  -3   6   4 1369.45 228.334   5
   3  -6  -4 2173.65 153.126  11
  -3   6   4 2070.04 181.800   1
  -3   6   4 2267.02 221.253  10
  -3   6   4 2271.34 193.207   8
   3  -6  -4 2000.83 129.119   9
  -3   6   4 2297.03 222.146   7
  -3   6   3 7904.46 398.252   3
  -3   6   3 4985.84 207.382   2
  -3   6   3 8079.09 418.713  10
   3  -6  -3 8842.17 350.631  11
  -3   6   3 9591.07 410.498   8
  -3   6   3 4090.19 369.596   5
  -3   6   3 10611.1 475.511   7
   3  -6  -2 74.9092 31.5369  11
  -3   6   2 38.8201 22.6258  10
  -3   6   2-39.5964 43.2728   5
  -3   6   2 41.6155 27.1906   3
  -3   6   2 48.7196 21.4960   8
   3  -6  -2 64.8248 37.2436   7
  -3   6   2 34.5219 19.9344   2
  -3   6   2 38.9156 22.2094   7
   3  -6  -1 18.4736 21.9015  11
  -3   6   1-14.8886 11.7673  10
  -3   6   1-33.1352 28.6844   5
  -3   6   1 18.9615 20.0906   1
  -3   6   1-0.86237 20.6374   3
  -3   6   1 14.6490 8.96662   8
  -3   6   1 6.80061 8.38803   2
  -3   6   1-25.5902 29.6951   7
   3  -6  -1 14.5145 13.1367   7
  -3   6   0 36.7141 27.7006   7
   3  -6   0-9.67586 21.3283  11
   3  -6   0 0.61785 16.2066  10
  -3   6   0 60.7709 54.9667   5
  -3   6   0 16.2994 34.4524   3
  -3   6   0 14.2148 16.7606  10
   3  -6   0 36.6988 22.7147   7
   3  -6   1 772.031 101.516  10
   3  -6   1 690.737 100.690  11
   3  -6   1 648.926 97.8579   2
  -3   6  -1 759.302 142.339   5
  -3   6  -1 700.111 99.3758  10
  -3   6  -1 711.922 94.6551   2
  -3   6  -1 823.012 104.570   7
   3  -6   1 452.698 83.7811   7
   3  -6   2 4240.28 282.302  11
   3  -6   2 5017.00 267.938  10
  -3   6  -2 4730.08 372.647   5
  -3   6  -2 4613.61 259.949   7
   3  -6   2 4614.83 296.225   2
  -3   6  -2 4591.02 282.038   2
  -3   6  -3 286.772 98.9303   5
   3  -6   3 344.521 80.2783  11
   3  -6   3 184.486 43.9081  10
  -3   6  -3 457.747 94.1967   2
  -3   6  -3 343.849 65.5860   7
   3  -6   4 10996.1 515.962  11
  -3   6  -4 10697.9 599.596   5
  -3   6  -4 10672.4 428.498   7
   3  -6   4 9907.83 396.349  10
  -3   6  -4 11275.1 527.663   2
  -3   6  -5 9270.92 545.749   5
   3  -6   5 8435.09 453.567  11
   3  -6   5 8135.32 426.671   9
  -3   6  -5 8655.54 369.582   7
  -3   6  -5 8997.18 485.880   2
  -3   6  -6 3304.98 283.714   2
   3  -6   6 3305.35 270.210  11
   3  -6   6 3203.15 254.630   9
  -3   6  -6 3184.19 301.134   5
  -3   6  -6 3041.24 192.999   7
  -3   6  -7 3234.49 289.751   2
   3  -6   7 3085.89 260.154   9
  -3   6  -7 2784.67 279.299   5
   3  -6   7 2500.67 237.452  11
  -3   6  -7 2172.41 163.210   7
   3  -6   7 2329.47 169.410   6
   3  -6   8 343.883 89.6207  11
  -3   6  -8 344.805 94.8271   5
   3  -6   8 267.255 78.5034   9
  -3   6  -8 331.007 96.3535   2
  -3   6  -9 2302.36 267.947   2
   3  -6   9 1992.49 225.048  11
   3  -6   9 2161.14 240.916   9
  -3   5  10 360.299 109.348  10
  -3   5  10 465.627 106.864   8
   3  -5 -10 471.612 129.951   4
  -3   5   9 43.3242 15.2793   8
  -3   5   9 53.9795 36.2051  10
   3  -5  -9 62.9134 49.6547   4
  -3   5   8 263.754 78.8235  10
  -3   5   8 154.842 60.8521   5
  -3   5   8 196.713 69.8376   8
   3  -5  -8 223.784 74.7963   4
  -3   5   7 931.038 141.739   5
  -3   5   7 896.320 151.513  10
  -3   5   7 955.531 137.689   8
   3  -5  -7 1110.21 162.516   4
  -3   5   7 965.111 116.306   3
   3  -5  -6 459.979 46.6644  11
  -3   5   6 486.567 101.614  10
  -3   5   6 414.759 79.8218   3
  -3   5   6 203.237 96.0569   5
  -3   5   6 432.782 87.2159   8
   3  -5  -6 385.702 58.3569   9
  -3   5   5 129.545 54.9953  10
   3  -5  -5 134.365 46.2093   1
  -3   5   5 135.924 55.8125   5
  -3   5   5 123.037 48.9471   3
   3  -5  -5 147.888 31.7507   9
  -3   5   5 204.354 55.0104   8
   3  -5  -5 171.497 33.4776  11
  -3   5   4 298.206 66.2338   3
   3  -5  -4 205.214 38.9501  11
  -3   5   4 178.441 59.9067  10
  -3   5   4 170.772 69.4282   5
   3  -5  -4 192.520 32.9682   9
  -3   5   4 214.003 52.1721   8
  -3   5   4 111.480 40.5157   7
   3  -5  -3 286.677 48.9288  11
  -3   5   3 269.287 82.3658   5
   3  -5  -3 314.582 38.0173   9
  -3   5   3 299.406 68.9934   3
  -3   5   3 252.282 51.0056   8
  -3   5   3 328.326 78.8322  10
  -3   5   3 191.761 56.1303   7
   3  -5  -3 269.420 60.5275   7
  -3   5   3 316.869 71.2530   4
  -3   5   3 246.607 31.5573   2
  -3   5   3 305.251 58.4291   1
  -3   5   2 17596.6 694.319   3
  -3   5   2 19634.5 829.132   5
  -3   5   2 19516.1 703.820  10
  -3   5   2 18290.7 659.951   8
   3  -5  -2 17116.8 630.613  11
  -3   5   2 18838.0 704.915   7
   3  -5  -2 19069.6 700.065   7
  -3   5   2 18662.0 629.772   1
  -3   5   2 18949.3 580.786   2
  -3   5   2 18802.0 708.285   4
  -3   5   1 2498.62 206.597   3
   3  -5  -1 2811.39 188.484  11
  -3   5   1 3110.78 206.343  10
  -3   5   1 2458.10 159.742   1
  -3   5   1 2489.51 188.791   7
  -3   5   1 2723.43 162.108   2
  -3   5   0 5867.39 343.650   3
  -3   5   0 6428.63 312.923  11
   3  -5   0 6347.26 315.399  11
  -3   5   0 6406.54 306.580  10
  -3   5   0 6007.77 304.227   7
  -3   5   0 5653.36 283.490   2
  -3   5  -1 4192.96 284.370   3
   3  -5   1 3911.53 246.005  11
  -3   5  -1 4250.45 225.052  10
  -3   5  -1 4482.86 336.730   5
  -3   5  -1 3860.11 221.882   7
   3  -5   1 3451.13 211.873   7
  -3   5  -2 3010.23 242.456   3
  -3   5  -2 3181.87 282.267   5
   3  -5   2 3002.50 218.246  11
   3  -5   2 2864.34 222.364   2
   3  -5   2 2722.27 186.238   7
  -3   5  -2 3216.67 221.523   2
  -3   5  -2 3066.12 182.344   7
  -3   5  -3 30056.3 1066.54   3
   3  -5   3 29344.3 1013.41  11
  -3   5  -3 29927.8 913.947   7
   3  -5   3 30986.8 1052.39   2
   3  -5   3 28822.9 953.417   7
  -3   5  -3 31488.7 1148.99   5
  -3   5  -3 30772.6 1027.88   2
   3  -5   4 239.856 61.8869  11
  -3   5  -4 158.714 62.0801   5
   3  -5   4 168.256 46.5912   9
  -3   5  -4 210.225 61.0243   2
  -3   5  -4 198.564 38.1210   7
   3  -5   5 7778.01 404.127  11
   3  -5   5 7104.80 378.164   9
  -3   5  -5 7929.09 460.361   5
  -3   5  -5 7176.83 299.357   7
  -3   5  -5 6890.84 407.087   2
   3  -5   6 8523.43 436.295   9
   3  -5   6 8918.20 449.037  11
  -3   5  -6 9108.11 499.980   5
  -3   5  -6 8641.94 333.663   7
  -3   5  -6 9778.56 497.046   2
   3  -5   6 6503.82 322.134   6
   3  -5   7 813.515 80.4459   6
   3  -5   7 1421.04 166.713  11
  -3   5  -7 1507.57 184.911   5
   3  -5   7 1301.03 161.221   9
  -3   5  -7 671.609 95.2758   8
  -3   5  -7 1253.04 105.295   7
   3  -5   7 914.975 79.5433   6
  -3   5  -7 1476.74 184.459   2
   3  -5   8 817.611 131.423  11
  -3   5  -8 722.643 121.933   5
   3  -5   8 786.150 131.668   9
  -3   5  -8 714.665 134.876   2
   3  -5   9 495.445 106.660   9
   3  -5   9 550.870 109.400  11
  -3   5  -9 809.056 154.069   2
  -3   4  10 48.9105 46.8293  10
  -3   4  10 56.0266 38.7836   8
   3  -4 -10 67.8836 39.6386   4
  -3   4   9 444.266 94.5108   8
  -3   4   9 396.284 104.128  10
  -3   4   9 298.516 64.3890   5
   3  -4  -9 428.724 109.497   4
  -3   4   8 659.033 130.326  10
  -3   4   8 756.144 120.258   8
   3  -4  -8 849.127 143.694   4
   3  -4  -7 2011.48 213.330   4
  -3   4   7 2171.80 225.255  10
  -3   4   7 2278.79 207.135   8
   3  -4  -7 2047.55 151.048   3
  -3   4   7 2198.97 176.053   3
  -3   4   6-23.3748 24.6077  10
  -3   4   6 16.0050 15.8555   3
  -3   4   6 20.6180 20.6934   8
   3  -4  -6-10.0281 16.9346   3
   3  -4  -6 5.41452 14.4159   4
   3  -4  -6 62.2036 37.9730   1
  -3   4   5 248.791 69.6945  10
   3  -4  -5 252.434 37.7139  11
  -3   4   5 295.084 64.8851   8
   3  -4  -5 156.210 48.7378   3
  -3   4   5 201.049 57.0281   3
   3  -4  -5 194.687 49.4734   1
   3  -4  -5 213.204 59.3497   4
  -3   4   4 1585.65 151.138   3
  -3   4   4 1299.58 65.9196   2
  -3   4   4 1553.58 107.868  11
  -3   4   4 2136.58 181.357   4
  -3   4   4 1814.78 175.069  10
   3  -4  -4 1776.32 112.160  11
   3  -4  -4 1539.50 139.866   3
   3  -4  -4 1782.16 149.391   1
   3  -4  -4 1623.73 91.6727   9
   3  -4  -4 1949.36 177.960   7
  -3   4   4 1700.78 147.496   8
  -3   4   3 2951.71 208.147   3
   3  -4  -3 2285.64 146.417  11
   3  -4  -3 2776.55 114.376   9
  -3   4   3 2569.98 154.589  11
  -3   4   3 2666.31 163.618   1
  -3   4   3 3024.98 217.765  10
   3  -4  -3 3170.45 204.402   3
  -3   4   3 2741.52 184.632   8
  -3   4   3 2845.25 206.258   7
  -3   4   3 2902.08 209.258   4
  -3   4   3 2036.38 123.937   2
  -3   4   2 114422. 3004.44   1
  -3   4   2 113818. 3116.88   3
  -3   4   2 104152. 3023.70  11
  -3   4   2 114565. 3114.67  10
   3  -4  -2 109226. 3030.81  11
   3  -4  -2 114136. 3102.66   3
  -3   4   2 112827. 3104.65   7
  -3   4   2 113788. 3102.86   4
  -3   4   2 117738. 2993.80   2
  -3   4   1 8411.08 394.634   3
  -3   4   1 7849.99 360.638  10
  -3   4   1 7755.49 340.640  11
  -3   4   1 8611.43 306.619   1
  -3   4   1 8883.34 376.234   7
   3  -4  -1 8327.10 361.557   7
   3  -4  -1 7731.62 341.122  11
   3  -4  -1 9268.29 400.137   3
  -3   4   1 8281.48 332.101   2
  -3   4   0 23954.3 830.284   3
   3  -4   0 23636.0 775.753  11
  -3   4   0 23956.9 759.280  10
  -3   4   0 21752.2 748.943   7
   3  -4   0 23638.8 754.152   7
  -3   4   0 24370.0 766.885   2
  -3   4  -1 1040.55 124.840   3
  -3   4  -1 1019.79 92.0720  10
   3  -4   1 969.638 104.476  11
  -3   4  -1 966.002 88.7481   7
   3  -4   1 987.648 91.9283   7
  -3   4  -2 3299.06 237.756   3
   3  -4   2 3171.90 209.614  11
  -3   4  -2 3127.54 157.714  10
  -3   4  -2 2864.27 156.653   7
   3  -4   2 2844.51 169.198   9
   3  -4   2 3014.38 165.616   7
   3  -4   3 87.6465 34.3321  11
  -3   4  -3 59.5285 28.2434  11
   3  -4   3 13.7536 13.3852   2
  -3   4  -3 83.2717 40.0174   3
  -3   4  -3 29.5821 15.5060   5
  -3   4  -3 65.0314 18.9478   7
  -3   4  -4 4824.50 311.223   3
   3  -4   4 4632.60 283.661  11
  -3   4  -4 5420.72 291.392  11
  -3   4  -4 4765.23 330.738   5
   3  -4   4 4844.34 268.320   9
  -3   4  -4 4785.28 199.607   7
   3  -4   4 4662.87 312.925   2
  -3   4  -4 4771.11 299.846   2
  -3   4  -5 1152.41 146.178   3
   3  -4   5 1160.04 135.904  11
  -3   4  -5 1278.58 163.731   5
   3  -4   5 1062.87 126.265   9
  -3   4  -5 1113.94 142.026   2
  -3   4  -5 1164.11 83.1847   7
   3  -4   6 855.270 81.7038   6
   3  -4   6 1092.03 135.567  11
  -3   4  -6 1046.53 143.112   5
  -3   4  -6 1064.84 144.861   2
  -3   4  -6 1249.20 87.5245   7
   3  -4   6 1271.00 144.229   9
   3  -4   6 559.635 60.5960   6
  -3   4  -7 319.813 65.3361   8
   3  -4   7 458.505 87.8891  11
  -3   4  -7 598.976 106.219   5
   3  -4   7 388.454 86.5577   9
  -3   4  -7 387.087 90.8130   2
  -3   4  -7 449.213 54.5231   7
  -3   4  -8 240.138 65.2568   5
   3  -4   8 313.633 72.9080  11
   3  -4   8 241.286 66.9261   9
  -3   4  -8 177.193 62.9240   2
  -3   4  -8 89.2250 26.0140   7
  -3   4  -9 1739.10 219.893   2
   3  -4   9 1813.10 191.349  11
   3  -4   9 1747.07 207.069   9
   3  -4  10 9.24843 37.1023   9
   3  -4  10 9.68884 21.9772  11
  -3   4 -10 61.2752 45.2628   2
  -3   3  11 1166.14 185.812  10
  -3   3  11 1313.00 175.776   8
   3  -3 -11 1341.33 212.257   4
  -3   3  10 3865.57 331.084  10
  -3   3  10 3904.09 306.801   8
   3  -3 -10 4273.27 362.955   4
  -3   3   9 763.393 143.237  10
  -3   3   9 337.537 60.3820   5
  -3   3   9 775.874 110.363   9
  -3   3   9 932.849 132.333   8
   3  -3  -9 942.786 156.264   4
  -3   3   8 1237.20 133.745   5
  -3   3   8 2119.03 224.414  10
   3  -3  -8 2019.33 142.241   3
  -3   3   8 2155.76 176.307   9
  -3   3   8 2021.85 192.883   8
   3  -3  -8 1907.55 210.713   4
  -3   3   8 1715.29 124.246   2
  -3   3   8 2161.45 170.140   3
  -3   3   7 475.523 106.450  10
   3  -3  -7 388.837 94.6429   6
  -3   3   7 493.156 80.3391   3
  -3   3   7 547.780 89.9911   5
  -3   3   7 487.005 74.8392   9
   3  -3  -7 449.532 70.5139   3
  -3   3   7 559.573 94.7415   8
   3  -3  -7 503.577 97.7782   4
  -3   3   7 540.088 59.0634   2
   3  -3  -6 1323.52 128.286   3
  -3   3   6 1279.06 159.109  10
  -3   3   6 901.432 132.339   5
  -3   3   6 1335.23 139.797   8
   3  -3  -6 1572.24 167.856   4
  -3   3   6 1303.45 84.7371   2
  -3   3   6 1415.34 141.304   3
   3  -3  -6 1221.21 140.964   1
   3  -3  -5 62.1701 18.7726  11
  -3   3   5 39.7430 15.2217  11
  -3   3   5 79.8099 36.7403  10
  -3   3   5 40.4810 20.6215   3
   3  -3  -5 2.56776 11.4317   3
  -3   3   5 44.6993 24.3136   8
  -3   3   5 36.3900 21.4670   4
   3  -3  -5 51.3220 28.8739   1
   3  -3  -5 33.5542 25.0513   7
  -3   3   5 56.1645 15.2390   2
   3  -3  -5 39.1056 23.3139   4
  -3   3   4 820.491 108.268   3
   3  -3  -4 849.004 98.8946   3
  -3   3   4 749.067 66.6003  11
  -3   3   4 786.917 67.6823   2
   3  -3  -4 814.582 73.0978  11
  -3   3   4 868.853 99.9528   8
   3  -3  -4 910.008 108.114   4
  -3   3   4 762.612 104.066   4
   3  -3  -4 877.536 93.4682   1
  -3   3   3 25610.4 831.549   3
   3  -3  -3 23584.3 798.195   3
  -3   3   3 23544.1 721.501  11
  -3   3   3 24768.7 809.247   4
  -3   3   3 24427.2 781.821   8
   3  -3  -3 24761.7 751.709   1
   3  -3  -3 22136.2 722.593  11
  -3   3   2 5678.74 297.451   3
   3  -3  -2 5914.09 293.415   3
   3  -3  -2 5445.08 243.779  11
  -3   3   2 5579.22 245.299  11
   3  -3  -2 5562.75 281.663   7
  -3   3   2 5839.16 280.482   4
  -3   3   2 6324.79 308.176  10
  -3   3   1 15184.5 614.927   3
   3  -3  -1 18860.9 639.023   3
  -3   3   1 17704.3 579.582  11
  -3   3   1 17852.1 611.034  10
   3  -3  -1 18331.7 586.970  11
  -3   3   1 18479.8 599.587   7
   3  -3  -1 17923.7 595.704   7
  -3   3   1 16545.8 498.735   1
  -3   3   0 2553.43 195.456   3
  -3   3   0 2292.24 158.840  10
   3  -3   0 3139.58 125.286   9
  -3   3   0 2812.89 165.089   7
   3  -3   0 2284.84 148.460   7
  -3   3   0 3748.13 201.710   2
   3  -3   0 3439.32 195.516  11
  -3   3  -1 6462.91 325.708   3
   3  -3   1 6023.81 286.804  11
  -3   3  -1 6332.45 245.502  10
  -3   3  -1 5826.00 237.703   7
   3  -3   1 5983.86 235.615   7
   3  -3   1 6005.01 234.221   9
  -3   3  -2 21437.2 737.352   3
   3  -3   2 20951.4 694.585  11
   3  -3   2 20406.2 637.441   9
  -3   3  -2 19203.8 579.771   7
  -3   3  -2 20998.9 586.240  10
   3  -3   2 18061.2 590.793   7
  -3   3  -3 41589.4 1278.98   3
   3  -3   3 42288.5 1245.26  11
  -3   3  -3 41243.2 1225.30  11
  -3   3  -3 38852.7 1081.57   7
   3  -3   4 15092.8 535.658   6
  -3   3  -4 16183.4 632.758   3
  -3   3  -4 16851.6 594.930  11
   3  -3   4 14658.1 554.580   9
   3  -3   4 15639.5 597.337  11
  -3   3  -4 15507.4 446.294   7
   3  -3   5 10.6854 10.2208   6
  -3   3  -5 20.2964 31.3324   5
   3  -3   5 0.44957 15.0554  11
  -3   3  -5 7.47010 10.3437  11
   3  -3   5 13.8268 22.9177   9
  -3   3  -5-16.9184 13.5783   2
  -3   3  -5 21.7246 15.5637   3
  -3   3  -5 8.58524 6.80680   7
   3  -3   6 624.295 95.8028  11
  -3   3  -6 532.584 90.3576  11
  -3   3  -6 690.578 106.781   5
   3  -3   6 709.405 106.007   9
  -3   3  -6 605.240 107.136   2
  -3   3  -6 688.629 106.873   3
  -3   3  -6 715.815 58.5485   7
  -3   3  -6 337.832 40.5663   7
  -3   3  -7 2853.21 237.097   3
   3  -3   7 3352.13 238.814  11
  -3   3  -7 3544.06 238.411   5
   3  -3   7 3411.25 258.780   9
  -3   3  -7 2264.22 137.149   7
  -3   3  -7 2703.21 147.731   7
  -3   3  -7 3563.86 276.447   2
   3  -3   8-6.80082 9.21437  11
   3  -3   8-11.0326 27.4376   9
  -3   3  -8 10.9296 24.6635   3
  -3   3  -8-16.8791 25.2414   2
  -3   3  -8-19.8504 17.2835   5
  -3   3  -8 5.69619 16.3087   7
   3  -3   9 755.555 115.697  11
  -3   3  -9 1014.92 164.185   2
   3  -3   9 926.960 146.917   9
   3  -3  10 713.666 136.577   9
   3  -3  10 600.223 104.996  11
  -3   3 -10 574.215 129.864   2
  -3   2  11 75.9970 46.1735  10
  -3   2  11 63.9423 33.3623   9
  -3   2  11 99.3262 51.9622   8
   3  -2 -11 93.0837 53.4555   4
  -3   2  10-30.2168 39.8575  10
  -3   2  10 66.3940 36.0554   9
  -3   2  10 21.0526 32.9166   8
   3  -2 -10 35.0378 37.1575   4
   3  -2  -9 1371.67 186.214   6
   3  -2  -9 3067.78 180.895   3
  -3   2   9 2773.67 260.753  10
  -3   2   9 3084.25 220.312   9
  -3   2   9 3016.59 235.562   8
   3  -2  -9 3184.42 280.276   4
  -3   2   9 2638.44 178.360   2
  -3   2   8 918.744 103.728   5
   3  -2  -8 1583.70 140.356   3
  -3   2   8 1432.12 140.550   5
   3  -2  -8 957.117 150.945   6
  -3   2   8 1815.62 207.996  10
  -3   2   8 1796.51 158.815   9
  -3   2   8 1895.13 177.075   8
   3  -2  -8 1897.98 201.966   4
  -3   2   8 1709.63 134.859   2
   3  -2  -7 6650.75 422.687   6
   3  -2  -7 8636.21 380.694   3
  -3   2   7 8923.69 376.588   9
  -3   2   7 8576.72 409.402   8
   3  -2  -7 9013.28 460.195   4
  -3   2   7 8858.46 415.854   3
  -3   2   7 7560.56 324.635   2
  -3   2   6 1894.90 124.007   2
   3  -2  -6 1793.44 189.667   6
   3  -2  -6 1862.26 162.290   3
  -3   2   6 1693.03 88.5733  11
   3  -2  -6 1996.52 177.728   1
  -3   2   6 2039.30 166.712   8
   3  -2  -6 2216.16 191.245   4
  -3   2   6 1940.55 139.365   9
  -3   2   6 1968.95 173.869   3
  -3   2   5 465.859 57.8970   2
   3  -2  -5 326.913 83.6585   6
  -3   2   5 521.856 87.2229   3
  -3   2   5 471.975 57.0160   9
   3  -2  -5 433.826 78.0363   3
  -3   2   5 480.461 74.9479   8
  -3   2   5 471.399 47.8240  11
  -3   2   5 549.286 88.2436   4
   3  -2  -5 502.295 84.0581   4
   3  -2  -5 489.430 77.9638   1
  -3   2   4 15.3580 14.0746   3
  -3   2   4 44.6211 17.1444   2
   3  -2  -4 12.7758 17.8221   6
   3  -2  -4 28.3466 14.4300  11
  -3   2   4 21.6456 11.2265  11
  -3   2   4 33.7881 12.1254   9
   3  -2  -4 7.43946 8.68339   3
  -3   2   4 50.6967 20.9978   8
   3  -2  -4 8.83330 9.31093   1
  -3   2   4 14.9530 12.4703   4
  -3   2   3 40696.4 1257.96   3
  -3   2   3 39174.7 1147.04  11
   3  -2  -3 38591.6 1288.09   6
   3  -2  -3 42170.3 1239.19   3
   3  -2  -3 41714.0 1159.95   1
  -3   2   3 42189.2 1085.62   9
  -3   2   3 39610.2 1205.77   4
   3  -2  -3 40341.4 1150.98  11
  -3   2   2 86270.5 2283.89   3
   3  -2  -2 82177.2 2255.92   3
  -3   2   2 79043.0 2201.26   4
   3  -2  -2 82663.7 2181.35  11
   3  -2  -2 82453.9 2129.29   1
   3  -2  -1 11.5532 14.3271  11
  -3   2   1 17.8311 20.1887   3
   3  -2  -1-12.3049 12.5771   7
   3  -2   0 957.819 109.200   6
  -3   2   0 734.761 90.8739   3
   3  -2   0 865.674 51.9796   9
   3  -2   0 855.734 71.7943   7
   3  -2   0 891.490 85.7524  11
   3  -2   1 511.023 73.5003   6
   3  -2   1 393.835 58.4059  11
  -3   2  -1 444.159 70.4480   3
   3  -2   1 434.547 40.6641   7
   3  -2   1 453.917 46.7570   9
   3  -2   2 12218.3 457.392   6
  -3   2  -2 12030.9 481.791   3
   3  -2   2 12475.3 457.434  11
  -3   2  -2 11295.2 359.071  10
   3  -2   2 12115.3 415.578   9
   3  -2   3 18900.0 619.584   6
   3  -2   3 18844.3 643.383  11
  -3   2  -3 18429.2 668.219   3
   3  -2   3 17320.2 628.428   3
  -3   2  -3 19645.5 640.868  11
   3  -2   3 16554.2 597.795   9
   3  -2   4 504.956 62.4833   6
   3  -2   4 630.997 85.6896  11
  -3   2  -4 543.690 79.3077  11
  -3   2  -4 550.499 83.0811   3
   3  -2   5 593.352 84.7082  11
  -3   2  -5 575.256 82.4081  11
   3  -2   5 612.500 90.3678   9
  -3   2  -5 551.248 97.4775   2
  -3   2  -5 548.237 84.3866   3
  -3   2  -5 295.737 25.7386   7
  -3   2  -5 436.193 32.8888   7
  -3   2  -5 606.984 91.6470   1
   3  -2   5 645.084 54.5761   6
  -3   2  -6 13618.8 577.493   3
   3  -2   6 16834.1 624.757   9
  -3   2  -6 16293.9 629.197   1
  -3   2  -6 16626.9 579.501   8
   3  -2   6 16706.3 587.956  11
  -3   2  -6 14227.6 434.188   7
  -3   2  -6 17388.1 668.363   2
  -3   2  -6 15666.7 574.851  11
   3  -2   7 6753.51 342.169  11
  -3   2  -7 7093.71 341.972  11
   3  -2   7 7020.21 388.177   9
  -3   2  -7 6483.40 249.264   7
  -3   2  -7 5704.67 314.081   5
  -3   2  -7 6818.42 397.561   2
   3  -2   8-8.79744 9.46432  11
  -3   2  -8 25.5214 16.8701   5
   3  -2   8 48.6225 34.9388   9
  -3   2  -8-14.8456 20.2605   3
  -3   2  -8 16.7653 18.3599   2
   3  -2   9 608.114 114.910   9
  -3   2  -9 646.450 124.794   2
   3  -2   9 623.213 98.4646  11
   3  -2  10 9.95414 32.8483   9
   3  -2  10 38.4130 21.8969  11
  -3   2 -10 17.3090 33.0341   2
  -3   1  11 52.3913 45.7181  10
  -3   1  11-30.2626 31.8130   9
  -3   1  11-9.11516 26.2929   8
   3  -1 -11 42.0585 58.5563   4
   3  -1 -10 581.950 113.342   2
  -3   1  10 639.388 110.578   9
  -3   1  10 572.990 97.1728   8
  -3   1  10 420.345 109.127  10
   3  -1 -10 668.637 131.191   4
   3  -1  -9 13565.1 442.972   3
   3  -1  -9 14290.5 514.513   2
  -3   1   9 13435.1 468.112   9
  -3   1   9 13362.0 459.817   8
   3  -1  -9 13524.9 556.805   4
  -3   1   9 12857.2 426.661   2
   3  -1  -8 390.366 92.0040   6
  -3   1   8 561.139 42.4252  11
  -3   1   8 529.403 90.0108   5
   3  -1  -8 528.101 104.124   2
  -3   1   8 278.285 31.2142  11
  -3   1   8 637.521 95.1799   9
  -3   1   8 695.313 99.9574   8
  -3   1   8 639.068 86.8216   2
   3  -1  -8 714.879 104.152   3
   3  -1  -8 588.260 104.906   4
   3  -1  -7 4968.65 291.277   3
   3  -1  -7 4334.02 309.613   6
   3  -1  -7 5276.17 302.680   2
  -3   1   7 4868.97 277.806   5
  -3   1   7 4976.99 265.868   9
  -3   1   7 3743.39 174.763  11
  -3   1   7 4929.21 275.696   8
   3  -1  -7 5191.76 318.464   4
  -3   1   7 5371.42 329.970   3
  -3   1   7 4689.40 248.595   2
   3  -1  -6 1110.74 130.868   3
  -3   1   6 1255.08 113.206   2
  -3   1   6 1257.66 112.201   9
   3  -1  -6 969.901 135.318   6
  -3   1   6 1272.39 120.871   8
  -3   1   6 1056.28 79.3348  11
   3  -1  -6 1418.88 144.104   4
  -3   1   6 1311.20 152.039   3
  -3   1   5 10733.8 426.428   8
   3  -1  -5 10468.2 464.169   3
   3  -1  -5 10602.2 503.224   6
  -3   1   5 11214.3 416.083   2
  -3   1   5 10964.9 373.024  11
  -3   1   5 10916.4 397.576   9
  -3   1   5 10989.3 496.851   3
   3  -1  -4 24180.4 829.107   3
   3  -1  -4 24830.0 879.675   6
  -3   1   4 24512.7 723.373   9
  -3   1   4 23647.0 728.550  11
  -3   1   4 24495.5 772.877   8
  -3   1   4 25275.7 777.191   2
  -3   1   4 24224.1 792.644   4
   3  -1  -4 23930.2 790.803   4
  -3   1   4 25172.7 866.358   3
   3  -1  -3 341.062 47.4699  11
  -3   1   3 299.589 53.1724   2
  -3   1   3 354.359 71.2174   3
   3  -1  -3 363.746 64.6135   3
  -3   1   3 404.069 55.1480   4
   3  -1  -3 415.883 55.7206   4
   3  -1  -3 321.912 66.5648   6
  -3   1   3 415.742 51.4620  11
   3  -1  -2 0.85691 8.80321   6
   3  -1  -2-6.16897 9.62486  11
  -3   1   2 1.43028 19.3363   3
   3  -1  -2 24.7064 24.0579   3
  -3   1   2 7.82493 8.70776  11
  -3   1   2 21.4166 14.4516   4
   3  -1  -1 86.4588 33.1247   6
   3  -1  -1 123.785 30.2735  11
  -3   1   1 61.0648 26.5909   3
  -3   1   0 1764.79 144.418   3
   3  -1   0 1996.91 155.488   6
  -3   1   0 1918.79 151.956   6
  -3   1   0 1812.62 92.0870   9
   3  -1   0 1869.16 126.295  11
   3  -1   1 18063.6 626.444   6
  -3   1  -1 17389.0 629.855   3
  -3   1  -1 18755.2 631.649   6
   3  -1   1 18663.1 599.247  11
  -3   1  -1 17869.5 526.154   1
  -3   1  -1 17131.7 549.134   9
  -3   1  -2 22639.5 680.523   1
   3  -1   2 22456.1 729.098   6
  -3   1  -2 21615.4 751.790   3
   3  -1   2 23453.4 749.661   3
   3  -1   2 23148.5 729.594  11
  -3   1  -2 21969.3 698.746   9
   3  -1   2 22654.6 695.041   9
  -3   1  -2 21540.3 721.496  11
   3  -1   3 7097.86 288.206   6
  -3   1  -3 6658.07 321.211   3
  -3   1  -3 6134.70 284.447   1
   3  -1   3 6677.61 307.385   3
   3  -1   3 6739.67 301.911  11
  -3   1  -3 6621.00 297.928  11
  -3   1  -3 6502.17 209.548  10
  -3   1  -3 7034.06 305.470   9
  -3   1  -4 13622.8 539.532   3
   3  -1   4 14097.0 530.034  11
  -3   1  -4 14249.6 524.574  11
   3  -1   4 13752.1 523.290   3
  -3   1  -4 14186.2 545.086   9
  -3   1  -4 14941.4 587.326   2
   3  -1   4 15691.2 482.702   6
  -3   1  -4 14001.7 538.681   1
   3  -1   5 16.0028 7.90523   6
   3  -1   5-0.36207 11.9550  11
  -3   1  -5 11.5289 9.62921   1
  -3   1  -5 22.3279 11.4062   2
  -3   1  -5 8.01472 9.48051   9
   3  -1   5 18.7020 21.2622   9
  -3   1  -5 31.0910 21.6142   3
  -3   1  -5 19.9549 7.58929   7
  -3   1  -5 31.6885 19.1435  11
  -3   1  -6 289.485 57.3594  11
  -3   1  -6 381.053 81.1212   1
   3  -1   6 313.850 58.9763  11
   3  -1   6 245.961 58.2778   9
  -3   1  -6 311.061 71.6001   2
  -3   1  -6 309.081 61.1499   3
  -3   1  -6 333.652 63.5360   8
  -3   1  -6 196.985 51.0252   5
  -3   1  -6 267.977 34.8749   7
   3  -1   7 170.497 44.0676  11
  -3   1  -7 102.380 33.2190  11
   3  -1   7 238.643 69.4660   9
  -3   1  -7 83.3137 36.2179   3
  -3   1  -7 152.348 58.3051   2
  -3   1  -7 81.5126 29.7597   5
  -3   1  -7 198.580 36.0797   7
   3  -1   8 7223.04 314.617  11
  -3   1  -8 7192.35 308.154  11
   3  -1   8 8038.23 407.201   9
  -3   1  -8 7830.52 404.496   2
   3  -1   9 161.238 48.2478  11
   3  -1   9 61.5494 30.7774   9
  -3   1  -9 98.0049 56.6999   2
   3  -1  10 71.3215 37.8118   9
  -3   1 -10 68.4757 20.8488   2
  -3   0  11 162.025 64.3777  10
   3   0 -11 94.6446 56.6270   2
  -3   0  11 104.931 60.3706   9
  -3   0  11 96.3311 41.9666   8
   3   0 -11 153.353 71.5789   4
   3   0 -10 675.738 131.953   2
   3   0 -10 672.880 112.263   3
  -3   0  10 621.100 112.094   9
  -3   0  10 568.571 93.2866   8
   3   0 -10 480.527 106.563   4
   3   0  -9 2326.19 224.725   6
  -3   0   9 2549.70 152.073  11
  -3   0   9 3659.80 165.333  11
  -3   0   9 3961.33 178.332   5
   3   0  -9 4490.87 315.097   2
  -3   0   9 3786.43 265.917   9
  -3   0   9 3966.37 249.127   8
   3   0  -9 4041.73 308.408   4
   3   0  -9 4441.40 298.434   3
  -3   0   8 1038.26 128.334   9
   3   0  -8 1157.61 145.859   2
  -3   0   8 1163.94 116.861   5
   3   0  -8 1017.16 142.394   3
  -3   0   8 851.651 78.9547  11
  -3   0   8 1129.89 121.287   8
   3   0  -8 850.871 123.481   6
   3   0  -8 1097.78 146.296   4
  -3   0   8 1142.75 128.838   2
  -3   0   7 556.524 92.2604   5
  -3   0   7 486.921 60.0799  11
  -3   0   7 539.486 82.4604   2
   3   0  -7 565.210 107.857   3
  -3   0   7 493.471 80.5422   9
  -3   0   7 672.614 87.8736   8
   3   0  -7 487.156 92.6682   6
   3   0  -7 571.602 96.1681   4
   3   0  -7 512.685 102.503   2
   3   0  -6 7534.45 399.824   6
  -3   0   6 7683.44 352.099   2
  -3   0   6 6690.50 287.810  11
  -3   0   6 7559.37 332.743   8
  -3   0   6 7897.72 380.514   5
   3   0  -6 8467.43 402.804   2
  -3   0   6 7560.25 339.712   9
  -3   0   6 8589.29 440.769   3
   3   0  -6 7682.98 404.208   3
  -3   0   5 710.414 90.0348   2
   3   0  -5 657.490 107.926   3
  -3   0   5 635.439 67.3878  11
   3   0  -5 791.872 113.501   6
   3   0  -5 668.755 100.960   2
  -3   0   5 608.229 79.1000   8
  -3   0   5 753.898 111.431   3
  -3   0   5 654.855 95.6296   5
  -3   0   4 285.489 54.0651   2
   3   0  -4 162.505 52.4679   6
  -3   0   4 168.684 39.7124  11
  -3   0   4 206.695 57.4097   6
  -3   0   4 280.443 65.8006   3
   3   0  -4 126.021 42.9907   3
  -3   0   4 252.836 56.4990   5
  -3   0   4 275.002 45.2360   8
   3   0  -4 300.023 50.8869   4
   3   0  -3 31854.5 1065.31   6
  -3   0   3 30860.6 1012.19   2
  -3   0   3 30428.4 935.905   4
   3   0  -3 32906.9 939.223   4
  -3   0   3 31799.4 950.997  11
  -3   0   3 33114.5 1081.25   3
   3   0  -2 1102.50 120.723   6
  -3   0   2 983.576 69.0502   4
  -3   0   2 1110.82 126.860   3
   3   0  -1 18340.8 677.217   6
   3   0  -1 19944.7 620.827  11
  -3   0   1 18441.6 690.156   3
   3   0   0 11530.0 475.223   6
   3   0   0 12998.0 445.970  11
  -3   0   0 12444.5 497.282   3
  -3   0  -1 38184.8 1247.57   3
   3   0   1 39456.8 1233.79   6
  -3   0  -1 40582.9 1249.01   6
   3   0   1 42340.6 1163.42   1
   3   0   1 43045.2 1150.65   7
  -3   0  -1 39995.0 1171.93   9
   3   0   1 43230.3 1212.30  11
  -3   0  -2 50846.9 1546.81   3
  -3   0  -2 54395.1 1539.00   6
   3   0   2 52644.9 1533.06   3
  -3   0  -2 51921.5 1510.68  11
   3   0   2 51877.4 1495.18   1
  -3   0  -2 51370.3 1497.68   9
  -3   0  -2 51025.1 1486.89   1
   3   0   2 53697.5 1514.53  11
   3   0   2 54282.1 1412.69   7
   3   0   2 54426.3 1527.88   6
  -3   0  -3 1326.67 122.400   3
  -3   0  -3 1400.37 117.226   6
   3   0   3 1339.62 115.770   3
  -3   0  -3 1300.38 136.681   5
  -3   0  -3 1351.58 118.157   9
  -3   0  -3 1382.36 115.318  11
  -3   0  -3 1233.11 84.9420  10
   3   0   3 1243.76 111.098  11
   3   0   3 917.463 68.1288   7
  -3   0  -3 1032.26 75.2415   7
  -3   0  -3 1194.17 109.785   1
   3   0   3 1535.94 115.173   6
   3   0   4 444.730 56.4341   6
  -3   0  -4 283.040 57.0027   1
  -3   0  -4 342.567 53.3663   6
   3   0   4 326.741 59.4094  11
  -3   0  -4 344.952 58.2105  11
  -3   0  -4 211.656 60.9923   2
  -3   0  -4 316.141 39.1092  10
  -3   0  -4 359.468 61.4891   3
  -3   0  -4 394.594 66.1437   9
  -3   0  -4 348.793 67.7180   5
   3   0   4 301.999 53.2959   3
  -3   0  -4 315.735 38.6801   7
  -3   0  -5 6368.62 318.946   3
  -3   0  -5 7362.09 290.584   6
  -3   0  -5 7137.67 321.611  11
   3   0   5 7400.86 329.510  11
  -3   0  -5 7114.03 273.653  10
   3   0   5 7182.13 358.706   9
  -3   0  -5 6573.64 349.302   5
  -3   0  -5 8127.18 365.742   8
  -3   0  -5 7398.33 368.779   9
  -3   0  -5 7072.32 259.577   7
   3   0   5 6930.26 307.076   3
  -3   0  -5 7222.40 379.505   2
   3   0   5 7345.30 270.342   6
  -3   0  -5 6940.91 365.585   1
   3   0   6 62.3784 28.6077  11
  -3   0  -6 2.65480 13.0183  11
  -3   0  -6 13.4099 9.23489   3
  -3   0  -6 73.4763 41.1931   2
   3   0   6 9.90715 16.7318   9
  -3   0  -6 21.8480 15.4619   5
  -3   0  -6 39.0498 13.6408   7
  -3   0  -7 6518.98 333.139   3
  -3   0  -7 7941.90 359.780  11
   3   0   7 8480.36 440.700   9
   3   0   7 8881.01 379.721  11
  -3   0  -7 8315.57 326.280   7
  -3   0  -7 9260.12 462.898   2
  -3   0  -7 7293.83 347.029   5
  -3   0  -8 761.117 89.4636   3
  -3   0  -8 979.363 110.220  11
   3   0   8 1204.63 121.886  11
   3   0   8 1170.93 158.034   9
  -3   0  -8 970.553 145.615   2
   3   0   9 814.679 136.604   9
   3   0   9 790.956 101.597  11
  -3   0  -9 790.642 129.910   2
   3   0  10-53.3681 35.5382   9
  -3   0 -10 46.9424 46.1436   4
  -3   0 -10 7.11026 20.8726   2
   3   1 -11-0.70319 18.1738   2
  -3  -1  11 43.3849 40.1130   9
  -3  -1  11 49.3004 46.6864   8
   3   1 -11-7.27662 27.7708   4
   3   1 -10-20.5452 29.4919   2
  -3  -1  10 15.8276 8.38001  11
  -3  -1  10-18.1891 24.7566   9
  -3  -1  10 28.8439 17.1316   8
   3   1 -10-6.71116 12.7091   3
   3   1 -10-28.6272 37.8432   4
  -3  -1   9 7317.05 309.592  11
   3   1  -9 8474.82 475.218   2
  -3  -1   9 7306.16 408.172   9
  -3  -1   9 6977.27 343.139   8
   3   1  -9 7540.68 437.582   4
   3   1  -9 8270.90 473.877   3
   3   1  -9 5692.86 363.249   6
   3   1  -8 993.105 133.099   6
  -3  -1   8 1386.58 129.669   5
   3   1  -8 1270.92 167.016   3
  -3  -1   8 1161.79 139.112   9
  -3  -1   8 1354.27 123.660   8
   3   1  -8 1214.26 162.634   2
   3   1  -8 1420.47 160.735   4
   3   1  -7 85.7736 38.0560   6
   3   1  -7 28.0304 29.2213   2
   3   1  -7 37.6150 20.8114   3
  -3  -1   7 5.34253 12.6782   5
  -3  -1   7 57.1876 23.0569   8
  -3  -1   7 35.9863 19.6041   2
   3   1  -7 13.9003 15.9532   4
   3   1  -6 188.650 57.3066   6
   3   1  -6 224.585 62.2592   2
   3   1  -6 124.032 54.9912   3
  -3  -1   6 150.720 58.0162   5
  -3  -1   6 177.853 41.5792   8
  -3  -1   6 131.963 40.6180   2
   3   1  -5 297.036 63.6879   6
  -3  -1   5 258.833 86.4647   3
   3   1  -5 187.901 72.5032   3
  -3  -1   5 317.013 68.7170   5
  -3  -1   5 353.452 48.8343   8
   3   1  -5 370.762 75.4607   2
   3   1  -5 286.766 49.9780   4
  -3  -1   5 256.960 55.9319   2
   3   1  -4 122657. 3487.07   6
  -3  -1   4 128110. 3450.27   2
  -3  -1   4 127227. 3518.08   5
   3   1  -4 124944. 3359.57   4
  -3  -1   4 121906. 3550.60   3
   3   1  -4 127702. 3537.06   3
   3   1  -3 1992.01 171.409   6
  -3  -1   3 1850.13 156.526   2
   3   1  -3 1829.44 104.144   4
  -3  -1   3 1842.79 174.695   5
  -3  -1   3 1955.86 187.746   3
   3   1  -3 1888.84 175.545   3
   3   1  -2 57614.3 1731.91   6
  -3  -1   2 60578.2 1720.28   2
  -3  -1   2 59406.6 1776.23   5
   3   1  -2 53812.1 1542.76   4
  -3  -1   2 58913.9 1775.58   3
  -3  -1   1 2747.11 215.025   5
  -3  -1   1 2722.69 210.063   3
   3   1  -1 2956.90 203.190   6
   3   1   0 4.14999 11.8740   6
  -3  -1   0 30.6988 13.4810   3
  -3  -1   0 20.8065 28.5972   5
   3   1   0 4.41688 12.3793   7
   3   1   1 48335.1 1459.55   3
  -3  -1  -1 52017.3 1475.29   6
  -3  -1  -1 48049.0 1524.13   5
   3   1   1 50331.1 1412.44   1
   3   1   1 50170.4 1384.70   7
   3   1   1 53659.0 1429.92  11
  -3  -1  -1 49385.1 1492.39   3
  -3  -1  -2 8655.93 375.048   6
   3   1   2 8303.20 366.353   3
  -3  -1  -2 8902.08 355.864  11
  -3  -1  -2 8595.30 425.280   5
   3   1   2 8906.99 357.685  11
  -3  -1  -2 8568.24 353.642   9
   3   1   2 8661.19 309.002   7
  -3  -1  -2 8351.71 327.337   7
   3   1   2 8787.32 360.341   1
  -3  -1  -2 8447.29 386.025   3
   3   1   2 9541.16 386.736   6
  -3  -1  -3 6802.76 321.116   6
   3   1   3 7342.30 343.653   1
   3   1   3 7253.30 315.921   3
  -3  -1  -3 7402.97 318.439  11
  -3  -1  -3 6952.72 332.795   1
  -3  -1  -3 7598.81 383.623   5
  -3  -1  -3 6590.27 287.265  10
  -3  -1  -3 7060.88 326.280   9
   3   1   3 6886.08 272.938   7
  -3  -1  -3 6920.65 275.250   7
   3   1   3 7686.72 317.421  11
   3   1   3 7494.49 326.904   6
  -3  -1  -3 6790.98 332.855   3
  -3  -1  -4 6315.40 296.043   6
  -3  -1  -4 5907.19 289.640  11
   3   1   4 6122.65 279.261   3
   3   1   4 7082.60 302.583  11
   3   1   4 6163.15 335.735   1
  -3  -1  -4 6094.95 271.362  10
  -3  -1  -4 6111.12 318.255   9
  -3  -1  -4 6591.68 354.864   5
   3   1   4 6077.13 261.569   7
  -3  -1  -4 6281.32 331.375   1
  -3  -1  -4 6048.68 255.714   7
   3   1   4 6648.71 290.350   6
  -3  -1  -4 6426.02 307.846   3
  -3  -1  -5 5747.42 274.026   6
   3   1   5 5472.82 251.902   3
   3   1   5 5769.19 282.196  11
  -3  -1  -5 5850.40 281.124  11
  -3  -1  -5 4998.01 309.534   5
  -3  -1  -5 5563.14 259.419  10
  -3  -1  -5 6742.37 327.678   8
  -3  -1  -5 5403.23 243.236   7
  -3  -1  -5 5630.86 328.475   1
  -3  -1  -5 5617.26 335.078   2
  -3  -1  -5 5500.54 278.608   3
  -3  -1  -6 4616.21 227.377   6
   3   1   6 4089.15 238.177  11
  -3  -1  -6 4479.90 238.442  11
  -3  -1  -6 4131.62 258.203   5
  -3  -1  -6 4052.31 228.438  10
  -3  -1  -6 4249.82 218.265   7
  -3  -1  -6 4623.87 293.853   2
  -3  -1  -6 4012.01 225.735   3
  -3  -1  -7 4314.66 204.292   6
  -3  -1  -7 3956.76 230.875   5
  -3  -1  -7 4077.26 229.010  11
  -3  -1  -7 4221.20 230.228   7
   3   1   7 3909.88 238.614  11
  -3  -1  -7 4310.18 297.140   2
  -3  -1  -7 3875.07 209.554   3
  -3  -1  -8 10208.5 565.104   4
  -3  -1  -8 10961.4 527.127   2
   3   1   8 9381.09 414.460  11
  -3  -1  -9 1474.55 212.117   4
  -3  -1  -9 1562.62 180.471   2
  -3  -1 -10 294.391 81.4206   2
  -3  -1 -10 383.718 115.838   4
  -3  -2  11 129.708 53.0194   9
   3   2 -11 168.608 72.0590   2
   3   2 -11 140.631 56.8863   4
   3   2 -10-2.77483 30.8830   2
  -3  -2  10 46.1074 23.6743  11
   3   2 -10 60.5828 32.9405   3
  -3  -2  10 78.0331 38.9497   9
  -3  -2  10 21.0734 9.18909   8
   3   2 -10 56.0189 39.2858   4
   3   2  -9 533.218 97.9685   6
   3   2  -9 922.550 161.509   2
   3   2  -9 919.991 162.534   3
  -3  -2   9 831.288 129.994   9
  -3  -2   9 806.374 93.8145   8
   3   2  -9 989.254 142.997   4
   3   2  -8 158.831 49.3615   6
   3   2  -8 126.330 39.6361   2
   3   2  -8 57.5543 46.9821   3
  -3  -2   8 126.564 41.7887   5
  -3  -2   8 77.0954 27.3178   8
   3   2  -8 73.2250 36.5901   4
  -3  -2   7 9964.15 457.443   5
  -3  -2   7 9389.91 358.323   8
   3   2  -7 8780.56 434.519   4
   3   2  -7 9996.34 516.157   2
   3   2  -7 9666.91 541.056   3
   3   2  -7 9052.69 453.811   6
  -3  -2   6 1561.90 158.474   2
  -3  -2   6 1941.20 181.649   5
  -3  -2   6 1590.22 108.982   8
   3   2  -6 1694.70 181.680   2
   3   2  -6 1589.98 193.288   3
   3   2  -6 1545.67 160.507   6
   3   2  -5 423.431 77.1702   6
   3   2  -5 314.638 74.9229   2
   3   2  -5 386.296 104.632   3
  -3  -2   5 437.088 85.9871   5
  -3  -2   5 411.631 47.9224   8
   3   2  -5 419.572 60.6848   4
  -3  -2   5 452.826 84.2498   2
  -3  -2   4 6290.73 331.580   2
   3   2  -4 6364.14 357.936   2
  -3  -2   4 6551.73 367.615   5
   3   2  -4 6027.00 358.446   5
  -3  -2   4 7186.53 414.680   3
   3   2  -4 5808.11 374.220   3
   3   2  -4 5859.64 337.415   6
  -3  -2   3 10418.9 451.282   2
   3   2  -3 10563.8 493.603   5
  -3  -2   3 10513.4 496.630   5
   3   2  -3 9663.55 327.148   4
  -3  -2   3 11204.7 535.626   3
   3   2  -3 10648.9 467.550   6
  -3  -2   2 42016.7 1386.24   5
  -3  -2   2 43225.8 1329.84   2
   3   2  -2 42977.4 1383.58   5
  -3  -2   2 41434.6 1390.48   3
   3   2  -2 44114.2 1344.63   6
  -3  -2   1 1961.42 189.029   5
   3   2  -1 2155.53 168.406   7
  -3  -2   1 1821.87 177.736   3
   3   2  -1 1971.39 168.979   6
  -3  -2   0 9516.72 479.608   5
  -3  -2   0 10172.5 301.783   4
   3   2   0 10397.8 415.880   7
  -3  -2   0 10015.8 467.131   3
   3   2   0 10940.1 459.022   6
  -3  -2  -1 28618.7 914.545  11
  -3  -2  -1 27286.6 1025.64   5
   3   2   1 28839.2 930.350   1
  -3  -2  -1 28564.7 842.040   4
   3   2   1 29126.6 899.666   7
  -3  -2  -1 31291.9 938.105   7
  -3  -2  -1 30612.6 993.233   3
   3   2   1 30903.8 981.272   6
   3   2   1 28802.7 970.089   3
  -3  -2  -1 29623.3 966.889   6
   3   2   2 37825.6 1166.40   3
  -3  -2  -2 34045.3 1258.37   5
   3   2   2 36360.4 1225.21   5
  -3  -2  -2 35939.9 1126.48   8
  -3  -2  -2 39008.2 1136.22  11
  -3  -2  -2 37906.0 1102.68   4
   3   2   2 38516.5 1111.36   7
  -3  -2  -2 37079.5 1126.23   7
   3   2   2 36785.0 1161.50   1
  -3  -2  -2 35899.3 1181.36   3
   3   2   2 41016.2 1191.46   6
  -3  -2  -2 38647.2 1189.49   6
   3   2   3 23000.1 784.415   1
   3   2   3 21313.9 724.972   3
  -3  -2  -3 22302.6 841.997   5
  -3  -2  -3 21700.0 749.595   9
  -3  -2  -3 21936.9 720.569  11
  -3  -2  -3 20862.6 721.174  10
  -3  -2  -3 20872.7 728.210   4
   3   2   3 22456.6 708.381   7
  -3  -2  -3 21074.5 707.380   7
  -3  -2  -3 22223.7 759.763   3
   3   2   3 23235.9 766.515   6
  -3  -2  -3 21694.4 763.704   6
   3   2   4 2885.62 176.434   3
   3   2   4 3100.65 232.514   1
  -3  -2  -4 3012.47 232.121   5
  -3  -2  -4 2950.90 192.842  10
  -3  -2  -4 3069.10 216.531   9
  -3  -2  -4 2951.06 228.051   1
  -3  -2  -4 3104.09 212.172   4
   3   2   4 3123.46 188.677   7
  -3  -2  -4 2896.56 178.597   7
  -3  -2  -4 3092.83 189.958  11
  -3  -2  -4 2927.15 194.850   3
   3   2   4 3255.11 205.303   6
  -3  -2  -4 3108.32 211.311   6
  -3  -2  -5 425.526 73.2464   6
  -3  -2  -5 462.349 69.6491   3
  -3  -2  -5 393.055 63.5525  11
  -3  -2  -5 290.621 81.4603   2
  -3  -2  -5 380.536 63.8960  10
  -3  -2  -5 400.600 79.2953   5
   3   2   5 399.929 54.8958   3
   3   2   5 472.916 91.4318   1
  -3  -2  -5 388.509 77.6086   4
   3   2   5 429.036 69.9689   7
  -3  -2  -5 409.660 62.6747   7
   3   2   6 14809.7 477.425   3
  -3  -2  -6 15501.6 553.993  11
  -3  -2  -6 13905.4 589.080   5
  -3  -2  -6 13693.7 564.332  10
  -3  -2  -6 15461.3 660.863   4
   3   2   6 15615.1 580.044   7
  -3  -2  -6 15056.2 556.074   7
  -3  -2  -6 16269.6 636.733   2
  -3  -2  -6 14431.1 512.098   3
  -3  -2  -6 15984.1 582.996   6
  -3  -2  -7 10968.5 444.805   6
  -3  -2  -7 11151.9 432.104  11
  -3  -2  -7 10013.7 453.670   5
  -3  -2  -7 10357.3 553.240   4
  -3  -2  -7 10213.4 443.875   7
  -3  -2  -7 10739.8 510.654   2
  -3  -2  -8 220.145 49.1987   6
  -3  -2  -8 376.427 84.7239   2
  -3  -2  -8 350.404 98.4243   4
  -3  -2  -9 54.7919 29.3940   2
  -3  -2  -9-12.0367 37.7379   4
  -3  -2 -10 870.912 142.501   2
  -3  -2 -10 1228.00 205.848   4
   3   3 -11 217.281 86.9634   3
  -3  -3  11 133.852 64.7065   9
   3   3 -11 100.164 54.3418   2
   3   3 -11 76.2618 58.9621   4
   3   3 -10 121.181 66.4480   2
   3   3 -10 32.5684 52.1677   3
  -3  -3  10 65.3022 29.4804  11
  -3  -3  10 88.6070 38.7180   9
   3   3 -10 8.64258 27.8361   4
  -3  -3   9 3589.57 289.962   6
   3   3  -9 4109.76 345.746   2
   3   3  -9 2900.08 267.033   4
   3   3  -9 3313.70 340.483   3
   3   3  -8 566.070 104.027   6
  -3  -3   8 616.249 120.950   6
   3   3  -8 815.026 158.855   3
  -3  -3   8 802.015 119.169   5
  -3  -3   8 633.847 69.5218   8
   3   3  -8 873.251 149.666   2
  -3  -3   7 2305.46 230.059   6
   3   3  -7 2311.84 238.407   2
  -3  -3   7 2294.05 123.867   8
  -3  -3   7 2584.67 224.540   5
   3   3  -7 2408.82 262.927   3
   3   3  -7 2210.53 206.359   6
   3   3  -6 523.000 95.5089   6
   3   3  -6 541.509 133.264   3
  -3  -3   6 838.061 135.319   6
  -3  -3   6 410.030 91.7916   5
  -3  -3   6 589.869 51.5726   8
   3   3  -6 731.493 128.548   5
   3   3  -6 485.566 105.235   2
   3   3  -5 75.2768 31.0385   6
  -3  -3   5 69.3933 36.3494   6
   3   3  -5 49.2095 23.9969   3
   3   3  -5 130.210 54.4559   2
  -3  -3   5 123.785 50.2890   5
   3   3  -5 82.1495 39.5164   5
  -3  -3   5 92.7924 18.4941   8
  -3  -3   5 99.9525 47.2877   2
  -3  -3   4 11239.6 504.190   2
  -3  -3   4 10955.1 540.384   5
   3   3  -4 10859.6 550.609   5
   3   3  -4 11086.8 577.444   3
   3   3  -4 12234.3 531.092   6
  -3  -3   3 2355.32 193.204   2
  -3  -3   3 2175.34 209.541   5
   3   3  -3 2550.63 232.241   5
   3   3  -3 2228.22 199.154   6
   3   3  -2 85.7820 34.1160   6
  -3  -3   2 115.548 38.0013   2
  -3  -3   2 132.037 56.0841   3
  -3  -3   2 64.4017 35.8748   5
   3   3  -2 103.446 48.7003   5
   3   3  -2 121.818 44.7840   7
  -3  -3   1 2291.44 190.338   2
  -3  -3   1 2113.94 206.015   5
   3   3  -1 2195.23 182.166   7
  -3  -3   1 2320.94 216.029   3
   3   3  -1 2756.65 212.477   6
   3   3  -1 2270.02 90.4476   4
  -3  -3   0 17377.8 726.966   5
  -3  -3   0 18296.2 581.982   8
   3   3   0 17496.4 646.826   7
  -3  -3   0 18285.8 722.175   3
   3   3   0 17446.7 680.846   6
  -3  -3  -1 52525.8 1705.17   5
   3   3   1 54705.5 1622.56   1
  -3  -3  -1 56375.8 1555.29   8
  -3  -3  -1 50068.9 1580.72  11
  -3  -3  -1 55187.7 1500.55   4
   3   3   1 52896.7 1582.02   7
  -3  -3  -1 56228.8 1628.03   7
  -3  -3  -1 54932.4 1674.28   3
   3   3   1 60244.9 1671.18   6
  -3  -3  -1 57496.1 1668.36   6
  -3  -3  -2 24781.4 836.156  11
  -3  -3  -2 24781.5 943.701   5
  -3  -3  -2 26932.1 837.534   8
   3   3   2 25459.3 887.005   1
  -3  -3  -2 26177.6 807.872   4
   3   3   2 24752.0 834.673   7
  -3  -3  -2 25065.3 855.862   7
  -3  -3  -2 27646.9 918.917   3
   3   3   2 27428.0 908.307   6
   3   3   2 25064.7 882.940   3
  -3  -3  -2 24861.1 893.991   6
  -3  -3  -3 7763.47 358.381  11
  -3  -3  -3 7812.03 433.760   5
  -3  -3  -3 7702.57 379.090  10
  -3  -3  -3 8271.65 378.609   8
  -3  -3  -3 9735.80 395.402   4
   3   3   3 8390.67 378.530   7
  -3  -3  -3 8160.85 377.172   7
   3   3   3 8740.49 434.289   1
  -3  -3  -3 8478.34 407.705   3
   3   3   3 8572.81 413.098   6
  -3  -3  -3 10314.7 448.137   6
   3   3   3 8291.11 382.036   3
   3   3   4 9798.74 405.777   3
  -3  -3  -4 8190.81 399.311  11
   3   3   4 10736.8 505.445   1
  -3  -3  -4 10270.1 496.901   5
  -3  -3  -4 9948.58 448.365  10
  -3  -3  -4 10196.8 452.981   4
   3   3   4 10882.1 449.583   7
  -3  -3  -4 10631.5 439.373   7
  -3  -3  -4 10612.9 449.272   3
  -3  -3  -4 10749.7 472.972   6
   3   3   5 595.614 71.1653   3
  -3  -3  -5 563.945 96.3121   6
  -3  -3  -5 518.489 75.4742  11
  -3  -3  -5 472.642 88.0456  10
  -3  -3  -5 620.488 104.537   5
   3   3   5 669.280 120.615   1
  -3  -3  -5 706.276 105.383   4
   3   3   5 609.377 92.9009   7
  -3  -3  -5 500.948 79.0438   7
   3   3   6 13391.2 452.827   3
  -3  -3  -6 15623.9 551.876  11
  -3  -3  -6 14049.4 598.345  10
   3   3   6 16169.4 711.154   1
  -3  -3  -6 14343.2 622.741   5
  -3  -3  -6 15181.8 665.572   4
   3   3   6 15436.1 611.575   7
  -3  -3  -6 14421.7 580.609   7
  -3  -3  -6 15318.4 629.563   2
  -3  -3  -6 15711.3 615.731   6
  -3  -3  -7 1074.13 134.519   2
  -3  -3  -7 979.096 121.946   6
  -3  -3  -7 881.148 127.062  10
  -3  -3  -7 913.330 98.9659  11
  -3  -3  -7 883.704 124.903   5
  -3  -3  -7 978.512 122.500   7
  -3  -3  -7 1138.89 160.273   4
  -3  -3  -8 4817.73 379.318   4
  -3  -3  -8 5393.35 338.978   2
  -3  -3  -8 5240.71 305.220   6
  -3  -3  -9 2660.15 291.782   4
  -3  -3  -9 2456.39 225.146   2
  -3  -4  10 87.4364 69.6412   6
   3   4 -10 157.952 64.5598   2
   3   4 -10 329.301 103.424   3
  -3  -4  10 249.479 64.1787  11
   3   4 -10 171.911 63.3892   4
   3   4  -9-10.1575 47.6286   2
  -3  -4   9-12.9234 36.6630   6
   3   4  -9-75.2873 69.6791   3
   3   4  -8 760.958 121.471   6
   3   4  -8 1147.05 193.581   3
   3   4  -8 1011.46 168.829   2
  -3  -4   8 994.653 152.688   5
  -3  -4   8 771.243 148.874   6
  -3  -4   7 2395.36 243.416   6
   3   4  -7 2657.76 264.519   2
  -3  -4   7 2739.42 254.148   5
   3   4  -7 2594.71 257.078   5
   3   4  -7 2165.38 264.569   3
   3   4  -7 2654.06 230.133   6
  -3  -4   6 10270.5 545.434   6
   3   4  -6 10128.0 558.797   2
   3   4  -6 11402.0 586.188   5
  -3  -4   6 11145.8 564.750   5
   3   4  -6 9825.31 608.961   3
   3   4  -6 10583.6 512.282   6
  -3  -4   5 10164.3 533.674   6
   3   4  -5 10996.3 554.575   2
   3   4  -5 9928.72 553.711   5
  -3  -4   5 10364.3 544.951   5
   3   4  -5 10342.7 589.975   3
   3   4  -5 10813.4 512.113   6
   3   4  -4 159.851 50.8992   6
  -3  -4   4 75.5904 37.3847   6
   3   4  -4 128.220 57.4214   3
   3   4  -4 188.296 62.3111   2
  -3  -4   4 141.989 57.4938   5
  -3  -4   4 98.3789 14.1989   8
   3   4  -4 194.489 66.6850   5
  -3  -4   4 21.2961 6.96650   8
   3   4  -4 140.127 50.7783   7
  -3  -4   3 4468.28 292.176   2
  -3  -4   3 4621.06 327.150   5
   3   4  -3 4422.79 336.437   5
  -3  -4   3 3635.40 151.012   8
   3   4  -3 4866.07 324.458   7
   3   4  -3 4013.28 281.761   6
  -3  -4   3 4587.86 308.623   6
  -3  -4   2 2273.17 226.397   5
   3   4  -2 2723.36 256.539   5
  -3  -4   2 2446.04 208.299   2
  -3  -4   2 2525.89 125.360   8
   3   4  -2 2559.79 218.533   7
   3   4  -2 2523.13 216.671   6
   3   4  -1 689.874 105.875   6
  -3  -4   1 530.446 99.7133   2
  -3  -4   1 626.132 115.101   5
  -3  -4   1 624.138 63.7131   8
   3   4  -1 581.978 111.281   3
   3   4  -1 676.256 57.2352   4
   3   4  -1 762.812 107.965   7
  -3  -4   0 8569.38 415.352   2
  -3  -4   0 7493.07 438.385   5
  -3  -4   0 7201.31 306.843   8
   3   4   0 7722.60 285.434   4
   3   4   0 7352.15 374.873   7
  -3  -4   0 7499.48 402.750   7
   3   4   0 7748.71 409.417   6
  -3  -4  -1 5300.84 363.816   5
  -3  -4  -1 4978.48 311.808   2
   3   4   1 5741.58 392.686   5
  -3  -4  -1 5429.61 263.785   8
   3   4   1 5358.62 301.357   7
  -3  -4  -1 5486.48 323.360   7
   3   4   1 6147.12 350.401   6
  -3  -4  -1 5509.56 337.588   6
   3   4   2 55.3130 39.9012   6
  -3  -4  -2 105.512 46.5993   6
  -3  -4  -2 75.0221 31.8138  11
  -3  -4  -2 98.7774 50.3575   5
   3   4   2 31.3813 48.9157   5
  -3  -4  -2 61.4301 25.0618   8
   3   4   2 61.5902 31.6357   1
  -3  -4  -2 76.2778 26.1179   4
   3   4   2 49.1506 24.6260   7
  -3  -4  -2 74.0391 34.9796   7
  -3  -4  -3 1673.97 145.560  11
  -3  -4  -3 1796.28 195.263   5
   3   4   3 1636.51 199.055   5
  -3  -4  -3 1766.85 170.709  10
  -3  -4  -3 1818.05 157.392   8
   3   4   3 1784.12 162.849   7
  -3  -4  -3 1609.85 149.498   4
  -3  -4  -3 1678.56 160.788   7
   3   4   3 1568.25 171.484   1
  -3  -4  -3 1639.14 174.977   6
   3   4   3 1512.41 155.211   3
   3   4   4 6252.80 331.294   3
  -3  -4  -4 6984.29 333.431  11
  -3  -4  -4 7162.63 429.179   5
  -3  -4  -4 6933.72 374.182  10
   3   4   4 6679.23 432.014   5
  -3  -4  -4 7682.46 377.637   4
   3   4   4 6625.50 363.345   7
  -3  -4  -4 6621.05 357.841   7
   3   4   4 6866.00 407.903   1
  -3  -4  -4 6596.86 388.099   6
   3   4   5 1053.07 104.264   3
   3   4   5 1231.53 171.832   1
  -3  -4  -5 1228.92 122.738  11
  -3  -4  -5 1108.47 157.221   5
   3   4   5 1320.57 179.886   5
   3   4   5 1346.04 150.850   7
  -3  -4  -5 1262.92 156.224   4
  -3  -4  -5 1153.35 139.995   7
  -3  -4  -5 1293.53 157.226   6
   3   4   6 18485.2 600.334   3
   3   4   6 21137.5 889.593   1
   3   4   6 21670.3 876.256   5
  -3  -4  -6 20521.9 708.782  11
  -3  -4  -6 19362.1 827.483   5
   3   4   6 21182.6 804.542   7
  -3  -4  -6 22144.6 848.451   4
  -3  -4  -6 20060.5 765.499   2
  -3  -4  -6 22591.4 825.380   6
  -3  -4  -7 822.074 123.898   6
  -3  -4  -7 734.630 113.570   2
   3   4   7 856.041 152.646   1
   3   4   7 776.907 124.496   7
  -3  -4  -7 859.289 143.810   4
  -3  -4  -8 1731.27 221.830   4
  -3  -4  -8 1710.57 180.351   2
  -3  -4  -8 1682.60 180.705   6
  -3  -4  -9 3.84328 31.7201   4
   3   5 -10 462.854 142.458   3
  -3  -5  10 543.098 112.890  11
   3   5 -10 762.941 165.444   2
   3   5  -9 63.7752 42.8520   2
   3   5  -9 54.6019 59.9537   3
  -3  -5   9 18.6269 28.6612   6
   3   5  -9 40.4042 37.5974   7
  -3  -5   8-1.48028 15.1806   6
   3   5  -8-11.1030 38.4793   2
   3   5  -8-26.6957 44.8429   3
   3   5  -8-16.5033 11.8668   5
   3   5  -8-60.7319 60.0792   7
   3   5  -7 307.772 111.899   3
  -3  -5   7 206.242 70.2967   6
   3   5  -7 404.552 107.497   2
   3   5  -7 242.744 80.9031   5
   3   5  -7 343.988 104.892   7
  -3  -5   6 1148.18 172.034   6
   3   5  -6 1686.32 235.196   3
   3   5  -6 1302.10 188.340   2
   3   5  -6 1164.77 181.843   5
   3   5  -6 1332.22 192.492   7
  -3  -5   5 4612.35 344.156   6
   3   5  -5 4232.70 342.088   2
   3   5  -5 4305.28 372.499   5
   3   5  -5 4675.32 363.671   7
   3   5  -5 4659.35 388.581   3
  -3  -5   4 27.3990 22.0394   6
   3   5  -4 79.1374 59.0561   3
   3   5  -4-18.9584 35.1625   2
   3   5  -4 2.73690 14.3221   5
   3   5  -4 63.8812 38.9487   7
  -3  -5   3 502.056 105.503   6
   3   5  -3 522.668 119.110   3
   3   5  -3 513.773 110.170   2
  -3  -5   3 432.912 38.4950   8
   3   5  -3 387.449 104.964   5
   3   5  -3 479.056 101.169   7
  -3  -5   2 682.638 110.763   2
  -3  -5   2 668.501 119.181   6
   3   5  -2 584.222 122.772   3
  -3  -5   2 649.070 59.9939   8
   3   5  -2 564.818 132.270   5
   3   5  -2 765.173 122.843   7
   3   5  -1 8530.64 529.405   5
  -3  -5   1 9241.32 459.140   2
  -3  -5   1 9159.04 342.776   8
  -3  -5   1 9718.27 540.253   5
   3   5  -1 8892.25 334.824   4
   3   5  -1 9056.39 462.384   7
   3   5  -1 8973.15 514.826   3
   3   5  -1 9346.35 485.904   6
  -3  -5   1 9029.78 489.462   6
  -3  -5   0 54.2478 28.0285   6
  -3  -5   0 68.0325 45.0281   5
  -3  -5   0 7.73877 27.5371   2
   3   5   0 46.4889 37.8246   5
   3   5   0 8.40250 26.1421   3
  -3  -5   0 34.3284 18.5643   8
   3   5   0 47.1466 19.5962   4
   3   5   0 67.8912 30.3932   7
  -3  -5   0 35.7914 16.6230   7
   3   5   1 26553.4 1050.22   5
  -3  -5  -1 25830.2 814.303   8
   3   5   1 24143.5 790.952   4
  -3  -5  -1 23084.7 892.442   2
   3   5   1 24906.4 895.594   7
  -3  -5  -1 25300.7 934.423   7
   3   5   1 23678.8 943.743   3
  -3  -5  -1 23658.1 941.470   6
  -3  -5  -2 236.286 70.9858   6
  -3  -5  -2 93.3600 44.8019   2
   3   5   2 114.081 57.4806   5
  -3  -5  -2 137.386 42.3882   8
   3   5   2 150.125 60.4649   1
   3   5   2 162.391 51.3784   7
  -3  -5  -2 113.928 46.4000   7
  -3  -5  -3 4875.92 283.701  11
   3   5   3 5269.32 399.954   5
   3   5   3 4836.37 313.053   7
  -3  -5  -3 4835.83 281.000   4
   3   5   3 4704.65 336.694   1
  -3  -5  -3 4748.83 336.886   6
  -3  -5  -4 1388.13 152.410  11
   3   5   4 1716.64 222.286   5
   3   5   4 1682.25 178.045   7
  -3  -5  -4 1762.81 175.290   4
   3   5   4 1620.35 190.672   1
  -3  -5  -4 1805.29 199.792   6
   3   5   4 1125.35 143.795   3
   3   5   5 3192.92 205.724   3
   3   5   5 3716.21 315.590   1
  -3  -5  -5 3279.06 220.906  11
   3   5   5 3452.77 321.910   5
   3   5   5 3434.68 272.362   7
  -3  -5  -5 3460.09 274.133   4
  -3  -5  -5 3504.48 286.391   6
   3   5   6 2755.40 152.522   3
   3   5   6 3081.02 302.974   1
   3   5   6 2994.90 293.739   5
   3   5   6 2938.71 260.256   7
  -3  -5  -6 3302.27 275.724   4
  -3  -5  -6 2786.86 224.311   2
  -3  -5  -6 3171.40 274.954   6
  -3  -5  -7 461.902 107.393   6
   3   5   7 408.065 105.854   1
  -3  -5  -7 425.521 83.1573   2
   3   5   7 464.130 111.191   5
   3   5   7 446.117 103.238   7
  -3  -5  -7 441.190 107.665   4
  -3  -5  -8 188.289 69.3931   6
   3   5   8 153.756 67.8633   7
  -3  -5  -8 181.307 71.3807   4
   3   6  -9 1132.89 206.399   2
  -3  -6   9 811.376 161.296   6
   3   6  -9 717.191 201.212   3
   3   6  -9 1063.72 189.200   5
   3   6  -9 896.214 174.718   7
   3   6  -8 1354.04 247.736   3
   3   6  -8 1462.76 225.822   2
   3   6  -8 1420.96 218.545   5
  -3  -6   8 1223.27 194.549   6
   3   6  -8 1418.38 221.603   7
  -3  -6   7 1571.82 212.515   6
   3   6  -7 1678.39 238.158   5
   3   6  -7 1499.28 248.340   3
   3   6  -7 1780.18 243.981   2
   3   6  -7 1736.67 239.725   7
  -3  -6   6 598.748 134.944   6
   3   6  -6 516.629 129.610   2
   3   6  -6 544.650 138.245   5
   3   6  -6 504.490 148.053   3
   3   6  -6 854.063 162.559   7
   3   6  -5 21692.2 933.747   7
   3   6  -5 20952.0 929.711   2
   3   6  -5 21179.7 991.792   5
   3   6  -5 20222.6 1005.18   3
  -3  -6   5 21042.7 914.200   6
  -3  -6   4 122.257 60.1890   6
   3   6  -4 257.729 90.6617   3
   3   6  -4 252.062 78.8094   2
   3   6  -4 155.666 73.1350   5
   3   6  -4 242.750 76.4878   7
   3   6  -3 1975.60 252.303   5
  -3  -6   3 2107.61 97.8283   8
   3   6  -3 1666.47 204.402   7
   3   6  -3 1942.21 250.064   3
  -3  -6   3 1727.82 221.469   6
  -3  -6   2 205.642 69.7119   6
   3   6  -2 130.962 45.0791   3
   3   6  -2 125.572 57.1634   5
  -3  -6   2 255.987 39.5952   8
   3   6  -2 254.526 45.6633   4
   3   6  -2 270.643 83.8447   7
   3   6  -1 5609.68 442.101   5
  -3  -6   1 5802.89 262.071   8
   3   6  -1 5751.61 269.268   4
   3   6  -1 5814.66 373.179   7
   3   6  -1 5419.68 408.772   3
  -3  -6   1 6053.63 403.314   6
   3   6   0 7314.24 508.128   5
  -3  -6   0 7498.54 333.693   8
   3   6   0 7166.63 324.318   4
   3   6   0 7827.42 436.377   7
  -3  -6   0 6947.72 396.752   2
   3   6   0 7556.32 485.684   3
  -3  -6   0 7789.97 471.894   6
  -3  -6  -1 839.309 143.589   6
  -3  -6  -1 626.476 110.028   2
   3   6   1 804.991 147.400   3
   3   6   1 797.206 153.273   5
  -3  -6  -1 726.152 93.7061   8
   3   6   1 758.726 94.9186   4
   3   6   1 619.999 106.739   7
  -3  -6  -2 255.058 79.1558   6
  -3  -6  -2 202.152 60.1812   2
   3   6   2 226.384 79.6153   3
   3   6   2 103.268 72.3158   5
   3   6   2 244.793 82.7559   1
   3   6   2 258.477 58.9276   4
   3   6   2 263.646 71.6598   7
  -3  -6  -3 313.800 97.9859   6
  -3  -6  -3 40.7014 31.5078   2
   3   6   3 207.745 75.3534   3
   3   6   3 149.109 76.4136   5
   3   6   3 212.577 72.7902   7
   3   6   3 263.402 85.4859   1
  -3  -6  -4 434.612 106.169   6
   3   6   4 447.495 108.315   1
  -3  -6  -4 62.5829 44.9014   2
   3   6   4 413.200 117.787   5
   3   6   4 616.827 116.771   7
  -3  -6  -4 416.080 90.6913   4
  -3  -6  -5 1047.39 165.162   6
  -3  -6  -5 166.184 61.4058   2
   3   6   5 1135.53 195.357   5
   3   6   5 1069.78 173.370   1
   3   6   5 1130.59 162.275   7
  -3  -6  -5 1065.81 154.030   4
  -3  -6  -6 1045.94 165.928   6
   3   6   6 1280.96 199.195   1
   3   6   6 1117.46 190.100   5
  -3  -6  -6 998.781 129.495   2
   3   6   6 1135.96 172.443   7
  -3  -6  -6 1125.21 165.395   4
  -3  -6  -7 348.651 98.5728   6
   3   6   7 127.439 61.6342   1
   3   6   7 354.656 108.836   5
   3   6   7 372.649 102.136   7
  -3  -6  -7 295.531 83.6394   4
   3   6   8 41.1448 45.6575   1
   3   6   8 0.47170 27.8390   7
  -3  -6  -8 5.60718 28.3690   4
  -3  -7   9 55.2004 50.9922   6
   3   7  -9 10.4919 24.1313   2
   3   7  -8 37.3606 50.9125   3
   3   7  -8 23.1327 44.7849   2
  -3  -7   8-97.4985 55.5969   6
   3   7  -8-9.74831 44.6248   5
   3   7  -8-28.1906 39.1779   7
  -3  -7   7 91.4718 69.5118   6
   3   7  -7 20.8272 48.5981   3
   3   7  -7 64.7681 46.9282   2
   3   7  -7 76.6682 62.5286   5
   3   7  -7 53.0998 43.5670   7
  -3  -7   6 194.670 75.5380   6
   3   7  -6 215.398 90.5521   2
   3   7  -6 136.904 78.6121   5
   3   7  -6 217.148 98.3510   3
   3   7  -6 245.310 88.4700   7
   3   7  -5 2406.43 275.563   2
   3   7  -5 2245.90 295.630   5
   3   7  -5 2050.34 292.569   3
   3   7  -5 2414.40 267.864   7
  -3  -7   5 2050.94 260.311   6
   3   7  -4 9745.22 578.287   2
   3   7  -4 9458.34 641.218   5
   3   7  -4 10638.4 591.114   7
   3   7  -4 10432.9 675.334   3
  -3  -7   4 8595.20 563.244   6
  -3  -7   3 330.174 97.5632   6
   3   7  -3 406.996 118.331   3
   3   7  -3 399.426 119.817   5
   3   7  -3 430.863 109.692   7
  -3  -7   2 1548.52 206.744   6
   3   7  -2 1595.60 232.894   3
   3   7  -2 1331.14 220.263   5
  -3  -7   2 1578.89 111.657   8
   3   7  -2 1299.77 120.378   4
   3   7  -2 1606.23 200.483   7
   3   7  -1 8696.64 599.292   5
  -3  -7   1 8172.14 353.359   8
   3   7  -1 8577.22 375.542   4
   3   7  -1 9407.00 512.872   7
   3   7  -1 8227.50 548.342   3
  -3  -7   1 9042.30 546.169   6
  -3  -7   0 689.994 138.047   6
   3   7   0 707.648 145.377   3
   3   7   0 638.954 153.352   5
  -3  -7   0 677.453 90.8764   8
   3   7   0 634.666 88.7967   4
   3   7   0 711.372 129.353   7
  -3  -7  -1 906.019 163.719   6
   3   7   1 681.997 134.217   3
  -3  -7  -1 736.718 107.286   8
   3   7   1 811.703 169.579   5
   3   7   1 773.205 103.130   4
   3   7   1 753.928 137.047   7
  -3  -7  -2 20.1516 25.0711   6
  -3  -7  -2-15.8880 29.9345   2
   3   7   2 50.0057 49.0130   3
   3   7   2 48.9568 51.2396   5
   3   7   2-43.1668 41.9200   1
   3   7   2 1.79428 16.2536   4
   3   7   2 7.48690 27.0254   7
  -3  -7  -3 3.80938 24.2613   6
  -3  -7  -3 4.14047 9.17201   2
   3   7   3 55.9009 41.9274   3
   3   7   3 25.7826 31.8211   5
   3   7   3 50.3894 37.4244   7
   3   7   3 36.2828 37.5807   1
  -3  -7  -4 1038.49 181.064   6
   3   7   4 955.599 167.862   1
   3   7   4 828.873 142.875   3
   3   7   4 832.719 182.061   5
   3   7   4 985.170 160.406   7
   3   7   5 2501.62 311.988   5
   3   7   5 2700.48 277.909   7
  -3  -7  -5 2604.98 286.730   6
   3   7   5 2933.16 304.089   1
   3   7   6 69.0940 50.3225   1
  -3  -7  -6-0.25065 46.2883   6
   3   7   6 77.0043 59.1572   5
   3   7   6 93.1057 59.8005   7
  -3  -7  -6 153.214 67.1480   4
   3   7   7 1977.69 269.142   1
   3   7   7 1350.52 223.768   5
   3   7   7 1733.83 231.679   7
  -3  -7  -7 1989.40 236.764   4
  -3  -7  -7 1826.29 240.462   6
  -3  -8   7 300.196 105.175   6
   3   8  -7 496.091 174.237   3
   3   8  -7 564.253 144.444   2
   3   8  -7 432.544 148.737   5
   3   8  -7 712.917 163.972   7
  -3  -8   6 1434.87 224.151   6
   3   8  -6 1531.18 235.375   2
   3   8  -6 1651.15 282.457   5
   3   8  -6 1626.75 287.398   3
   3   8  -6 1586.53 229.280   7
  -3  -8   5 587.325 135.594   6
   3   8  -5 580.865 158.440   3
   3   8  -5 587.087 141.352   2
   3   8  -5 667.165 171.772   5
   3   8  -5 526.456 128.480   7
  -3  -8   4 258.138 92.0250   6
   3   8  -4 191.904 93.6096   3
   3   8  -4 181.760 92.2777   5
   3   8  -4 225.077 82.8895   7
  -3  -8   3 134.184 64.1452   6
   3   8  -3 254.273 98.9898   3
   3   8  -3 391.619 131.206   5
   3   8  -3 228.676 77.0546   7
  -3  -8   2 451.574 118.616   6
   3   8  -2 205.907 83.4865   3
   3   8  -2 450.425 135.831   5
   3   8  -2 287.868 58.2857   4
   3   8  -2 369.201 103.776   7
   3   8  -1 4827.90 463.838   5
   3   8  -1 4272.75 262.843   4
   3   8  -1 5150.19 386.601   7
   3   8  -1 4348.82 406.205   3
  -3  -8   1 5077.72 413.719   6
   3   8   0 6208.67 528.650   5
   3   8   0 5569.86 318.734   4
   3   8   0 7481.30 473.826   7
   3   8   0 6256.80 484.184   3
  -3  -8   0 6197.81 475.318   6
  -3  -8  -1 1024.26 185.663   6
   3   8   1 797.424 148.518   1
   3   8   1 920.602 196.628   5
   3   8   1 619.918 101.597   4
   3   8   1 854.382 152.965   7
   3   8   1 673.355 154.301   3
  -3  -8  -2 1932.12 254.804   6
   3   8   2 2116.06 300.270   5
   3   8   2 2221.23 261.519   1
   3   8   2 2240.27 251.826   7
   3   8   2 1818.74 242.791   3
  -3  -8  -3-31.2016 52.4964   6
   3   8   3 57.1905 31.3194   3
   3   8   3 59.9578 48.0251   7
   3   8   3 28.7821 44.3446   1
  -3  -8  -4-19.4101 51.6149   6
   3   8   4 68.4124 43.6691   1
   3   8   4 82.9345 45.7656   3
   3   8   4 45.1161 54.0122   5
   3   8   4 34.6207 34.6088   7
  -3  -8  -5 591.683 148.183   6
   3   8   5 583.911 145.028   1
   3   8   5 273.712 109.310   5
   3   8   5 536.363 134.047   7
   3   8   6 331.304 112.267   5
   3   8   6 361.350 110.402   1
  -3  -9   6 151.875 79.5235   6
   3   9  -6 332.059 138.885   3
   3   9  -6 193.193 92.5783   5
   3   9  -6 470.377 132.358   7
   3   9  -6 207.217 80.4717   2
  -3  -9   5 628.647 156.378   6
   3   9  -5 720.956 184.687   3
   3   9  -5 696.883 154.374   2
   3   9  -5 823.585 198.797   5
   3   9  -5 890.291 172.621   7
  -3  -9   4 1198.86 213.435   6
   3   9  -4 1203.88 238.992   3
   3   9  -4 1527.06 270.628   5
   3   9  -4 1483.46 220.874   7
  -3  -9   3 200.073 97.5562   6
   3   9  -3 313.846 120.406   3
   3   9  -3 119.306 64.6573   5
   3   9  -3 432.341 113.605   7
  -3  -9   2 1361.30 222.738   6
   3   9  -2 1199.11 219.774   3
   3   9  -2 1090.64 228.633   5
   3   9  -2 1193.20 190.133   7
  -3  -9   1 59.9950 87.8135   6
   3   9  -1 73.8998 71.3280   3
   3   9  -1 40.7263 66.4894   5
   3   9  -1-13.8929 42.3080   7
  -3  -9   0 66.6455 51.2182   6
   3   9   0 33.9868 30.1051   3
   3   9   0 66.1604 29.6168   5
   3   9   0 136.718 56.7491   7
   3   9   1 1825.37 271.012   3
   3   9   1 2477.18 296.111   1
   3   9   1 2548.34 347.577   5
   3   9   1 2639.02 290.924   7
  -3  -9  -1 2812.99 328.746   6
  -3  -9  -2-46.6026 40.5953   6
   3   9   2 42.8484 46.0160   3
   3   9   2 35.1169 20.0242   5
   3   9   2 7.42048 31.5137   1
   3   9   2 91.3878 50.6153   7
  -3  -9  -3 269.792 98.8127   6
   3   9   3 474.926 125.457   3
   3   9   3 160.093 91.9636   5
   3   9   3 354.640 108.867   7
   3   9   3 452.553 122.180   1
  -3  -9  -4 447.073 136.102   6
   3   9   4 405.998 121.307   1
   3   9   4 193.882 113.961   5
   3   9   4 554.759 134.793   7
  -3 -10   3 1419.51 235.891   6
   3  10  -3 1199.52 255.079   3
   3  10  -3 1310.68 263.098   5
   3  10  -3 1324.89 223.862   7
   3  10  -2 4.39347 68.4190   3
  -3 -10   2 4.68072 30.9580   6
   3  10  -2-40.3110 27.0242   5
   3  10  -2-19.4329 41.4915   7
  -3 -10   1 821.459 182.827   6
   3  10  -1 493.689 143.230   3
   3  10  -1 725.857 188.937   5
   3  10  -1 780.873 167.550   7
  -3 -10   0 181.529 79.7035   6
   3  10   0 53.2660 46.9672   3
   3  10   0 136.549 83.7978   5
   3  10   0 69.3809 45.7242   7
  -3 -10  -1 51.7496 73.3287   6
   3  10   1 64.6557 48.8760   3
   3  10   1 1.90333 31.6426   1
   3  10   1 60.4148 78.8427   5
   3  10   1-6.28874 24.1279   7
  -4  10   4 97.0346 57.7730   1
  -4  10   4 115.917 58.2830  10
  -4  10   4 211.181 93.3062   5
  -4  10   4 52.3583 34.4481   8
   4 -10  -4 40.5303 28.0695  11
  -4  10   4 167.743 71.9308   7
  -4  10   3 100.960 70.9572   5
  -4  10   3 69.2498 40.8841   1
  -4  10   3 27.1589 40.6123   8
   4 -10  -3 61.6104 43.9849  11
  -4  10   3 195.305 87.6968   7
  -4  10   2 51.2977 26.2375   1
   4 -10  -2 34.6248 20.4772  11
  -4  10   2 117.684 88.2527   5
  -4  10   2 144.396 61.5465   8
  -4  10   2 88.7057 58.4439   7
   4 -10  -1 69.4093 43.1586  11
  -4  10   1 16.6942 21.8380   5
  -4  10   1-0.65728 13.8425   8
  -4  10   1 10.9154 17.7357   1
  -4  10   1 81.0013 51.5589   7
   4 -10   0 194.861 68.4935  11
  -4  10   0 84.7097 61.5670   5
  -4  10   0 236.895 73.8990   1
  -4  10   0 153.299 53.8524   8
  -4  10   0 114.339 47.6200   7
  -4  10   0 98.1129 45.7146   2
   4 -10   1 227.948 78.2680  11
  -4  10  -1 491.235 156.169   5
  -4  10  -1 312.046 75.8655   8
  -4  10  -1 294.818 90.6227   7
  -4  10  -1 250.302 71.3995   2
   4 -10   2-5.90894 21.1789  11
  -4  10  -2 89.2198 65.0911   5
  -4  10  -2 65.2952 29.0574   8
  -4  10  -2 42.5453 42.2729   7
  -4  10  -2-8.03231 21.5595   2
  -4  10  -3 116.180 69.4471   5
   4 -10   3 210.939 84.3133  11
  -4  10  -3 103.427 42.5602   8
  -4  10  -3 23.1687 27.9282   7
  -4  10  -3 109.510 52.5516   2
  -4  10  -4 2105.82 319.917   5
   4 -10   4 2132.96 253.506  11
  -4  10  -4 1544.16 210.108   2
   4 -10   4 1677.41 227.044   6
  -4   9   6 139.986 76.2212   5
  -4   9   6 286.260 89.0693   8
  -4   9   6 218.220 86.6474  10
  -4   9   5-33.4814 37.2412   1
  -4   9   5-113.501 66.4144  10
  -4   9   5-98.8658 75.6744   5
  -4   9   5 29.9634 24.7664   8
  -4   9   5-2.43160 37.0790   7
  -4   9   4 1190.66 158.395   1
   4  -9  -4 738.485 115.529  11
  -4   9   4 1215.68 197.001  10
  -4   9   4 1088.00 219.103   5
  -4   9   4 1514.01 183.475   8
  -4   9   4 1270.00 206.491   7
  -4   9   3 155.738 67.7659  10
  -4   9   3 104.974 71.5016   5
  -4   9   3 151.120 55.7395   1
  -4   9   3 121.039 54.4303   8
   4  -9  -3 199.693 76.7343  11
  -4   9   3 258.097 91.1565   7
  -4   9   2 15.9190 21.0781   1
   4  -9  -2 4.47209 13.1908  11
  -4   9   2-32.7943 37.7254  10
  -4   9   2-2.48592 22.3736   5
  -4   9   2 37.4205 38.2696   8
  -4   9   2-13.4258 36.3019   7
   4  -9  -1 644.939 113.258  11
  -4   9   1 942.143 200.118   5
  -4   9   1 710.629 112.090   8
  -4   9   1 834.761 121.523   1
  -4   9   1 625.959 129.448   7
  -4   9   1 626.725 94.8368   2
   4  -9   0 981.367 153.499  11
  -4   9   0 1042.16 134.060   1
  -4   9   0 966.208 130.124   8
  -4   9   0 773.492 137.879   7
  -4   9   0 885.392 118.326   2
  -4   9   0 941.150 205.907   5
   4  -9   1 166.482 57.3417  11
  -4   9  -1 222.393 104.572   5
  -4   9  -1 105.993 44.9895   8
  -4   9  -1 112.525 45.5044   7
  -4   9  -1 149.258 55.1419   2
   4  -9   2 1160.27 171.820  11
  -4   9  -2 1460.02 252.156   5
  -4   9  -2 1054.64 133.882   8
  -4   9  -2 900.593 141.212   7
  -4   9  -2 1117.93 155.161   2
   4  -9   3 535.074 117.590  11
  -4   9  -3 356.604 94.2921   2
  -4   9  -3 226.015 67.2935   7
  -4   9  -3 472.834 142.258   5
  -4   9  -4 3065.22 297.407   2
   4  -9   4 3367.72 308.276  11
  -4   9  -4 3689.69 400.094   5
  -4   9  -4 2254.10 215.376   7
   4  -9   5 3.50428 25.7787   6
   4  -9   5 9.85064 28.9290  11
   4  -9   5-41.4596 37.8592   9
  -4   9  -5-1.03975 29.9567   5
  -4   9  -5 43.3839 31.6855   2
   4  -9   6 185.414 81.3488  11
  -4   9  -6 263.227 111.469   5
   4  -9   6 112.531 51.0820   9
  -4   9  -6 46.8935 18.6528   2
  -4   8   7 178.666 77.8955  10
  -4   8   7 40.0371 48.1440   5
  -4   8   7 49.6379 43.4679   8
  -4   8   6 37.6883 50.3831   5
  -4   8   6 14.4244 22.9399   8
   4  -8  -5 85.5046 35.4226  11
  -4   8   5 150.729 49.4198   1
  -4   8   5 187.065 79.5529  10
  -4   8   5 129.717 76.3274   5
  -4   8   5 278.709 77.3525   8
  -4   8   5 177.819 71.3172   7
  -4   8   4 2036.71 198.146   1
  -4   8   4 3036.47 294.775  10
  -4   8   4 1283.50 238.867   5
  -4   8   4 3342.41 271.722   8
   4  -8  -4 2459.38 200.525  11
  -4   8   4 4039.80 345.791   7
  -4   8   3 237.125 40.3194   2
   4  -8  -3 285.605 62.3061  11
  -4   8   3 269.090 84.8948  10
  -4   8   3 325.396 118.633   5
  -4   8   3 307.809 75.1602   1
  -4   8   3 302.965 68.0362   8
  -4   8   3 260.720 78.5604   7
  -4   8   2-5.31068 10.5628   1
   4  -8  -2 24.9932 26.8556  11
  -4   8   2 12.4191 12.8961  10
  -4   8   2-13.1008 16.2771   5
  -4   8   2-16.8090 38.5100   8
  -4   8   2 36.3981 33.4260   7
  -4   8   2-0.07656 9.96454   2
   4  -8  -1 11.4800 29.9916  11
  -4   8   1 33.8381 27.0272  10
  -4   8   1 32.1687 20.4182   8
  -4   8   1 38.8488 27.6977   1
  -4   8   1 33.9796 22.5331   2
  -4   8   1 54.2361 34.4626   7
  -4   8   1-27.2006 25.8990   5
  -4   8   0 1174.57 133.108   2
   4  -8   0 1168.91 154.132  11
  -4   8   0 929.381 139.391  10
  -4   8   0 859.861 204.343   5
  -4   8   0 1018.44 132.389   8
  -4   8   0 1076.37 148.458   7
   4  -8   1 82.1825 53.0042  11
  -4   8  -1 43.4416 48.9046   5
  -4   8  -1 0.94874 11.6399   8
  -4   8  -1-33.8648 13.0458   2
  -4   8  -1 78.1554 31.2743   7
   4  -8   2 36.8271 24.7278  11
  -4   8  -2 49.2484 45.8317   5
  -4   8  -2 0.31557 21.3056   2
  -4   8  -2 17.0789 30.5162   7
  -4   8  -3 2056.55 212.571   2
   4  -8   3 1972.44 212.802  11
  -4   8  -3 2116.38 290.879   5
  -4   8  -3 1541.99 159.123   7
   4  -8   4 1272.50 178.956  11
  -4   8  -4 911.656 183.673   5
  -4   8  -4 1264.58 171.508   2
  -4   8  -4 686.393 105.157   7
   4  -8   5 34.1060 22.7793  11
  -4   8  -5 47.2930 58.3782   5
   4  -8   5 26.9373 22.6648   9
  -4   8  -5-1.07977 34.3652   2
  -4   8  -5-5.48766 11.8251   7
   4  -8   6 961.804 142.563   6
   4  -8   6 1190.16 184.395  11
   4  -8   6 1120.08 154.299   9
  -4   8  -6 1086.46 176.343   2
  -4   8  -6 1201.75 208.333   5
   4  -8   7 180.272 74.8306  11
   4  -8   7 246.448 78.0211   9
  -4   8  -7 232.032 96.6937   5
  -4   8  -7 213.372 77.3222   2
  -4   7   8 74.3096 42.9902  10
  -4   7   8 49.6719 40.8912   5
  -4   7   8 31.7919 42.5065   8
  -4   7   7 44.9707 39.5167  10
  -4   7   7 21.5340 21.0952   5
  -4   7   7-44.7527 41.1530   8
   4  -7  -6 182.021 43.1854  11
  -4   7   6 283.154 89.2463  10
  -4   7   6 67.3406 58.0268   5
  -4   7   6 250.534 75.2960   8
   4  -7  -5 100.023 34.7181  11
  -4   7   5 179.370 69.6249  10
  -4   7   5 6.16897 27.9120   5
  -4   7   5 151.743 61.1854   8
   4  -7  -4 258.092 55.4619  11
  -4   7   4 361.597 90.3921  10
  -4   7   4 291.694 99.7080   5
   4  -7  -4 306.147 41.4818   9
  -4   7   4 379.831 84.0697   8
  -4   7   4 239.672 66.3489   7
  -4   7   4 241.931 60.4920   1
   4  -7  -3 25.9283 36.7758  11
  -4   7   3-56.3597 45.6116  10
  -4   7   3 26.3097 39.3268   5
   4  -7  -3 21.3676 14.7740   9
  -4   7   3 16.4238 13.0770   8
  -4   7   3-13.6594 39.7647   7
  -4   7   3-4.63911 7.33805   2
  -4   7   3-5.23299 16.7451   1
   4  -7  -2 160.274 45.7859  11
  -4   7   2 240.207 63.6492  10
  -4   7   2 111.505 64.0780   5
  -4   7   2 260.253 65.1157   8
  -4   7   2 165.658 38.2640   2
  -4   7   2 230.265 68.2777   7
  -4   7   1 4739.55 405.894   5
   4  -7  -1 4045.49 275.102  11
  -4   7   1 4185.57 295.343  10
  -4   7   1 4515.13 276.859   8
  -4   7   1 3986.39 292.706   7
  -4   7   0 2645.76 300.432   5
  -4   7   0 2450.43 209.350  10
   4  -7   0 2284.72 208.928  11
  -4   7   0 2573.45 215.660   7
   4  -7   0 1462.15 161.928   7
  -4   7   0 2231.47 178.461   2
   4  -7   1 564.469 103.512  11
  -4   7  -1 649.932 147.135   5
  -4   7  -1 490.889 91.4265  10
  -4   7  -1 479.985 85.3979   2
  -4   7  -1 549.755 92.8708   7
   4  -7   1 285.844 68.6394   7
  -4   7  -2 4558.34 407.221   5
   4  -7   2 4842.47 323.451  11
  -4   7  -2 4710.32 276.922   7
  -4   7  -2 4798.52 309.129   2
   4  -7   3 14.0237 13.0715  11
  -4   7  -3 28.5750 29.4599   5
  -4   7  -3 25.5740 12.2371   2
  -4   7  -3 29.3175 25.9526   7
   4  -7   3 21.4944 29.8709   7
   4  -7   4 6433.79 411.274  11
  -4   7  -4 6874.52 505.241   5
   4  -7   4 6508.76 358.099   9
  -4   7  -4 5694.50 306.515   7
  -4   7  -4 6739.52 414.917   2
   4  -7   5 157.475 49.8974  11
  -4   7  -5 209.439 81.7814   5
   4  -7   5 141.353 56.6348   9
  -4   7  -5 101.230 53.7316   2
  -4   7  -5 93.6312 29.9949   7
   4  -7   6 630.053 99.2224   6
   4  -7   6 740.694 135.975  11
  -4   7  -6 752.301 155.596   5
   4  -7   6 592.245 109.717   9
  -4   7  -6 886.322 155.486   2
   4  -7   7 67.0671 46.4364  11
  -4   7  -7 11.3261 32.4136   5
   4  -7   7 60.6578 42.4278   9
  -4   7  -7 29.8982 21.2879   2
   4  -7   8 63.8353 45.8386  11
  -4   7  -8 28.9079 29.8969   5
  -4   7  -8 50.5576 21.2367   2
  -4   6   9 40.1018 30.5660  10
  -4   6   9-39.9735 38.1130   8
  -4   6   8 793.805 155.176  10
  -4   6   8 633.275 131.835   5
  -4   6   8 932.666 149.972   8
  -4   6   7 21.4417 47.1787  10
  -4   6   7 63.2929 45.0033   5
  -4   6   7-3.74684 36.3639   8
   4  -6  -6 174.622 38.9360  11
  -4   6   6 214.588 70.1259  10
  -4   6   6 114.197 63.0752   5
  -4   6   6 190.598 63.5371   3
  -4   6   6 192.841 63.6442   8
  -4   6   5 871.565 143.318  10
  -4   6   5 793.761 159.468   5
  -4   6   5 798.447 127.847   3
  -4   6   5 914.362 131.565   8
   4  -6  -5 879.382 96.8847  11
   4  -6  -4 26.3606 16.6894  11
  -4   6   4 8.57255 7.19484   2
  -4   6   4-4.69439 17.9486  10
  -4   6   4 0.72602 36.7439   5
   4  -6  -4-0.52645 3.27036   9
  -4   6   4-28.7447 36.5942   3
  -4   6   4-23.6265 36.2412   8
  -4   6   4-4.43774 5.27943   2
  -4   6   3 7564.39 416.809  10
  -4   6   3 7295.21 416.086   3
   4  -6  -3 6687.88 329.750  11
  -4   6   3 7173.26 492.876   5
   4  -6  -3 6699.24 226.758   9
  -4   6   3 7296.15 373.188   8
  -4   6   3 6600.18 394.154   7
  -4   6   3 5898.73 255.422   2
   4  -6  -2 5431.69 300.047  11
  -4   6   2 4456.52 276.807  11
  -4   6   2 6446.87 464.196   5
  -4   6   2 5790.89 318.692   8
  -4   6   2 5708.63 345.330   7
  -4   6   2 5881.20 347.833  10
  -4   6   2 5661.38 261.558   2
  -4   6   2 5822.56 271.527   1
   4  -6  -1 925.235 116.865  11
  -4   6   1 741.878 102.404  11
  -4   6   1 987.285 181.265   5
  -4   6   1 995.384 127.589  10
  -4   6   1 1002.69 96.4616   1
   4  -6  -1 971.777 121.056   7
  -4   6   1 949.381 127.656   7
  -4   6   0 13.6823 19.4262  10
   4  -6   0 10.9442 14.8519  11
  -4   6   0-36.8113 45.8893   5
  -4   6   0 24.5411 21.9269   7
   4  -6   0 9.09128 14.2434   7
   4  -6   1 458.355 85.8081  11
  -4   6  -1 510.563 82.9412  10
  -4   6  -1 379.265 106.262   5
  -4   6  -1 471.740 82.5671   2
  -4   6  -1 481.436 81.1204   7
   4  -6   2 452.428 93.2958  11
  -4   6  -2 556.139 126.193   5
  -4   6  -2 604.929 101.636   2
  -4   6  -2 524.204 77.0857   7
   4  -6   3 2789.97 236.976  11
  -4   6  -3 3201.37 315.545   5
   4  -6   3 2796.82 200.590   9
  -4   6  -3 2765.74 183.253   7
   4  -6   3 2530.49 190.386   7
  -4   6  -3 2835.25 239.113   2
   4  -6   4 471.734 98.1678  11
  -4   6  -4 461.933 115.876   5
   4  -6   4 346.411 71.0666   9
  -4   6  -4 434.349 95.0729   2
  -4   6  -4 394.237 59.9779   7
   4  -6   5 815.465 133.480  11
   4  -6   5 790.814 115.331   9
  -4   6  -5 890.972 158.867   5
  -4   6  -5 860.584 140.048   2
  -4   6  -5 774.949 80.1832   7
   4  -6   6 5820.66 382.759  11
  -4   6  -6 5650.46 427.007   5
  -4   6  -6 5064.83 234.522   7
   4  -6   6 5807.83 355.974   9
  -4   6  -6 5827.81 400.251   2
   4  -6   7 302.069 82.5443  11
   4  -6   7 309.441 80.8573   9
  -4   6  -7 243.444 81.1982   2
  -4   6  -7 243.501 82.1761   5
   4  -6   8-46.1474 40.9062  11
  -4   6  -8 29.2036 40.3429   5
   4  -6   8-18.4474 20.7335   9
  -4   6  -8-17.8448 30.6731   2
  -4   5  10 369.015 98.5852   8
  -4   5  10 498.337 126.143  10
   4  -5 -10 304.655 99.9484   4
  -4   5   9 156.718 49.3778  10
  -4   5   9 152.412 59.1002   8
   4  -5  -9 248.080 75.1511   4
  -4   5   8-32.0099 34.2657   5
  -4   5   8 52.7465 31.8043   8
  -4   5   8 50.1145 50.2879  10
   4  -5  -7 972.154 118.619   3
  -4   5   7 1010.69 164.410  10
  -4   5   7 650.724 137.748   5
  -4   5   7 941.485 140.386   8
  -4   5   7 1165.82 150.070   3
  -4   5   6 3512.82 299.212  10
  -4   5   6 3056.87 287.728   5
  -4   5   6 3647.28 269.903   8
   4  -5  -6 2753.47 240.670   1
   4  -5  -6 3185.59 172.505  11
   4  -5  -6 3254.36 242.621   3
  -4   5   6 3587.28 276.586   3
  -4   5   5 2804.90 238.304   3
   4  -5  -5 2335.62 196.272   1
  -4   5   5 2269.99 255.339   5
  -4   5   5 3125.20 264.978  10
   4  -5  -5 2648.21 165.388  11
  -4   5   5 2699.92 222.938   8
   4  -5  -5 2572.50 216.474   3
   4  -5  -4 290.926 52.0269  11
  -4   5   4 306.306 77.5641  10
  -4   5   4 136.897 28.7162   2
  -4   5   4 310.212 98.8171   5
  -4   5   4 203.036 36.5157   2
  -4   5   4 335.204 77.5030   3
  -4   5   4 329.111 70.0591   8
   4  -5  -4 328.488 78.0765   3
  -4   5   3 281.303 74.3348  10
  -4   5   3 150.242 79.6456   5
   4  -5  -3 145.992 38.9762  11
  -4   5   3 70.2749 28.4175   2
  -4   5   3 284.305 73.1035   3
  -4   5   3 256.799 63.2407   8
   4  -5  -3 156.308 58.1537   3
   4  -5  -3 187.146 52.2807   7
  -4   5   3 168.320 36.9452   1
  -4   5   2 1083.09 142.446   3
  -4   5   2 1210.39 95.0371   1
   4  -5  -2 1202.73 143.178   3
   4  -5  -2 1364.78 128.509  11
  -4   5   2 1099.45 115.582  11
  -4   5   2 1003.60 132.743  10
  -4   5   2 1241.60 141.304   7
   4  -5  -2 1078.99 131.516   7
  -4   5   2 1502.66 156.512   4
  -4   5   2 1078.35 100.349   2
  -4   5   1 1441.35 165.622   3
   4  -5  -1 1591.77 166.757   3
   4  -5  -1 1252.05 131.679  11
  -4   5   1 1488.84 139.055  11
  -4   5   1 1516.84 147.892  10
  -4   5   1 1433.83 141.831   7
   4  -5  -1 1296.91 135.176   7
  -4   5   1 1421.57 98.0760   1
  -4   5   1 1356.65 124.247   2
  -4   5   0 2148.54 207.978   3
   4  -5   0 1900.93 167.817  11
  -4   5   0 2021.14 169.600  11
  -4   5   0 1880.22 157.078  10
   4  -5   0 2013.29 112.565   9
  -4   5   0 1926.96 161.603   7
   4  -5   0 1938.50 190.272   3
  -4   5  -1 891.160 113.139  11
   4  -5   1 775.814 110.407  11
  -4   5  -1 984.010 102.500  10
   4  -5   1 718.071 74.1828   9
  -4   5  -1 763.892 88.3348   7
   4  -5   1 754.199 88.2382   7
  -4   5  -1 960.584 118.349   2
   4  -5   2 5995.31 347.260  11
  -4   5  -2 6918.68 459.092   5
  -4   5  -2 6492.81 284.491  10
  -4   5  -2 6158.63 281.425   7
   4  -5   2 6053.20 284.032   7
  -4   5  -2 6647.47 368.167   2
   4  -5   3 3626.09 261.164  11
  -4   5  -3 3495.79 316.365   5
   4  -5   3 2923.76 195.772   9
  -4   5  -3 3354.42 177.225   7
   4  -5   3 3172.97 187.550   7
  -4   5  -3 3152.31 247.249   2
   4  -5   4 1060.72 140.784  11
  -4   5  -4 1261.37 187.957   5
  -4   5  -4 1061.89 85.0307   7
   4  -5   4 1004.85 121.671   9
  -4   5  -4 1259.18 159.447   2
   4  -5   5 1860.21 176.541   6
   4  -5   5 2288.44 218.549  11
  -4   5  -5 2806.83 279.749   5
   4  -5   5 2651.56 213.214   9
  -4   5  -5 2525.09 128.520   7
  -4   5  -5 2540.75 238.086   2
   4  -5   6 28.3383 16.3663   6
   4  -5   6-16.8972 30.9322  11
  -4   5  -6 29.3482 41.4765   5
   4  -5   6 31.2743 24.2110   9
  -4   5  -6 7.05132 16.6743   2
  -4   5  -6 13.3297 8.73584   7
   4  -5   7 370.611 88.6892  11
  -4   5  -7 273.334 84.6984   5
   4  -5   7 234.502 68.8424   9
  -4   5  -7 298.862 87.2856   2
   4  -5   8 48.6875 32.8827  11
  -4   5  -8 60.9373 43.2441   5
   4  -5   8 75.3903 39.4020   9
  -4   5  -8 126.191 60.7318   2
   4  -5   9 57.1723 34.9829  11
   4  -5   9 72.0760 58.8412   9
  -4   5  -9 107.637 62.3407   2
  -4   4  10 2630.39 291.431  10
  -4   4  10 3192.42 281.597   8
   4  -4 -10 3388.04 322.897   4
  -4   4   9 154.939 68.0449  10
  -4   4   9 124.815 51.5648   5
  -4   4   9 142.123 47.0727   8
   4  -4  -9 85.8485 40.1027   4
   4  -4  -8 2203.54 176.483   3
  -4   4   8 2021.52 214.343   5
  -4   4   8 2384.42 260.266  10
  -4   4   8 2526.36 232.133   8
   4  -4  -8 2487.56 251.480   4
  -4   4   7 196.117 61.0309   3
  -4   4   7 175.724 69.2972  10
  -4   4   7 65.2947 58.0480   5
  -4   4   7 206.308 59.4227   8
   4  -4  -7 262.956 63.4508   3
   4  -4  -7 259.738 75.8311   4
  -4   4   7 193.261 33.3558   2
  -4   4   6 1774.67 96.3083   2
   4  -4  -6 1579.18 165.127   3
  -4   4   6 1407.08 191.392   5
  -4   4   6 1537.51 107.275  11
  -4   4   6 2091.65 220.495  10
   4  -4  -6 1834.02 116.079  11
  -4   4   6 1780.31 175.902   8
   4  -4  -6 1813.16 175.797   1
  -4   4   6 1940.53 197.646   3
   4  -4  -5 1083.85 136.745   3
   4  -4  -5 1245.55 103.241  11
  -4   4   5 1009.53 90.9263  11
  -4   4   5 1200.10 159.368  10
  -4   4   5 1085.63 80.3440   2
  -4   4   5 1247.14 138.740   8
   4  -4  -5 1089.33 122.127   1
  -4   4   5 1193.89 149.301   3
  -4   4   4 6073.35 358.465   3
   4  -4  -4 6625.53 349.883   3
   4  -4  -4 6438.35 278.993  11
  -4   4   4 5533.32 260.644  11
  -4   4   4 4120.84 236.354   2
  -4   4   4 6301.84 368.629  10
  -4   4   4 6634.33 331.668   8
   4  -4  -4 6113.25 290.220   1
  -4   4   4 6493.62 356.663   4
  -4   4   3 14926.5 630.094   3
   4  -4  -3 16348.1 624.856   3
  -4   4   3 15028.9 621.518  10
   4  -4  -3 13773.8 525.926  11
   4  -4  -3 14726.4 605.349   7
  -4   4   3 15117.1 599.349   4
  -4   4   2 40485.7 1266.87   3
   4  -4  -2 41805.6 1257.24   3
   4  -4  -2 38206.9 1152.60  11
  -4   4   2 44409.3 1254.61  10
  -4   4   2 42058.2 1218.37   4
  -4   4   2 37107.5 1136.58   2
  -4   4   1 1063.13 133.517   3
  -4   4   1 993.643 60.8128   1
   4  -4  -1 1197.05 138.674   3
   4  -4  -1 1229.76 119.329  11
  -4   4   1 618.501 90.5102  11
  -4   4   1 1173.79 124.238  10
  -4   4   1 1076.59 108.954   2
  -4   4   0 9609.58 474.716   3
   4  -4   0 11342.4 451.386  11
  -4   4   0 10246.7 428.670  11
  -4   4   0 10482.2 415.743  10
   4  -4   0 9877.89 321.933   9
  -4   4   0 9484.19 309.313   1
  -4   4   0 10138.3 406.197   7
   4  -4   0 9893.77 393.363   7
  -4   4  -1 3535.28 262.981   3
   4  -4   1 3517.25 230.680  11
  -4   4  -1 3678.38 194.064  10
   4  -4   1 3221.46 164.659   9
  -4   4  -1 3020.19 180.949   7
   4  -4   1 3262.27 181.625   7
  -4   4  -2 5029.91 328.970   3
   4  -4   2 5303.36 305.025  11
  -4   4  -2 5500.14 233.421  10
   4  -4   2 5537.16 253.471   9
  -4   4  -2 4899.21 220.264   7
   4  -4   2 5086.69 222.658   7
  -4   4  -2 4983.87 306.667   2
  -4   4  -3 7442.18 420.439   3
   4  -4   3 7361.34 383.294  11
  -4   4  -3 7323.12 260.960   7
  -4   4  -3 7659.93 406.968   2
   4  -4   4 5322.43 295.777   6
   4  -4   4 6318.01 343.720  11
   4  -4   4 6140.95 307.293   9
  -4   4  -4 6820.46 378.893   2
   4  -4   5 8122.39 387.363   6
   4  -4   5 9122.55 457.820  11
  -4   4  -5 10118.6 537.842   5
   4  -4   5 8878.32 428.883   9
  -4   4  -5 9190.84 490.822   2
   4  -4   6 2213.62 151.424   6
   4  -4   6 2316.15 216.942  11
  -4   4  -6 2234.96 233.702   5
   4  -4   6 2466.48 215.834   9
  -4   4  -6 2435.51 237.782   2
  -4   4  -7 1253.02 166.041   5
   4  -4   7 1377.72 168.832   9
  -4   4  -7 1466.57 188.708   2
   4  -4   7 1408.48 169.232  11
   4  -4   8 420.855 96.6821  11
  -4   4  -8 336.853 79.9975   5
   4  -4   8 341.447 88.5765   9
  -4   4  -8 343.816 94.5474   2
   4  -4   9 96.2096 45.4456  11
   4  -4   9 83.0636 48.4056   9
  -4   4  -9 117.613 58.0090   2
  -4   3  10 988.028 173.525  10
  -4   3  10 983.970 146.934   8
   4  -3 -10 1147.44 179.062   4
  -4   3   9 570.679 130.746  10
  -4   3   9 615.908 98.3527   9
   4  -3  -9 570.653 87.9099   3
  -4   3   9 652.401 115.054   8
   4  -3  -9 654.911 129.177   4
   4  -3  -8 921.156 121.361   3
  -4   3   8 994.428 137.035   3
  -4   3   8 1133.61 174.916  10
  -4   3   8 1072.12 115.730   9
  -4   3   8 1053.69 140.318   8
   4  -3  -8 1017.40 154.174   4
  -4   3   8 890.143 86.9801   2
   4  -3  -7 1488.67 161.877   3
  -4   3   7 1319.98 81.3705  11
  -4   3   7 1586.08 195.983  10
  -4   3   7 1608.62 128.189   9
  -4   3   7 1539.97 163.054   8
   4  -3  -7 1443.70 170.881   4
  -4   3   7 1475.32 169.379   3
  -4   3   7 1330.96 104.858   2
   4  -3  -6 4931.66 300.027   1
  -4   3   6 4547.43 217.677   2
   4  -3  -6 4676.83 303.278   3
  -4   3   6 4540.23 202.737  11
  -4   3   6 5438.18 234.527   9
  -4   3   6 4961.83 299.334   8
   4  -3  -6 4895.04 315.288   4
  -4   3   6 4849.71 327.281   3
   4  -3  -5 11029.9 570.904   6
   4  -3  -5 11483.1 506.185   3
  -4   3   5 10636.4 405.767   2
  -4   3   5 10594.7 394.532  11
   4  -3  -5 11114.8 410.990  11
  -4   3   5 11783.3 487.440   8
  -4   3   5 10912.6 499.455   4
   4  -3  -5 11380.8 461.501   1
  -4   3   5 11743.3 545.160   3
   4  -3  -4 34.2426 42.8720   6
   4  -3  -4 36.0100 15.6661  11
  -4   3   4 23.0918 13.0248  11
   4  -3  -4 23.6603 13.2565   1
  -4   3   4 10.6190 14.4526   2
  -4   3   4 38.2802 35.9097   3
   4  -3  -4 11.4426 20.8448   3
  -4   3   4 6.67924 20.7621   8
   4  -3  -4 15.1149 27.5400   7
  -4   3   4 12.9913 9.59647   4
  -4   3   3 2080.84 191.802   3
   4  -3  -3 2180.79 213.385   6
   4  -3  -3 2191.50 188.415   3
  -4   3   3 2110.05 147.407  11
   4  -3  -3 2188.58 149.791  11
   4  -3  -3 2435.41 192.847   7
   4  -3  -3 2102.04 129.083   1
  -4   3   3 2142.85 169.042   4
  -4   3   2 7726.53 395.934   3
   4  -3  -2 7823.77 386.708   3
   4  -3  -2 7754.27 331.084  11
  -4   3   2 5945.19 305.394  11
  -4   3   2 7911.07 347.155   4
  -4   3   1 11953.9 537.874   3
   4  -3  -1 12931.2 540.599   3
   4  -3  -1 13083.8 481.538   7
   4  -3  -1 12337.9 478.109  11
   4  -3   0 139.196 43.6819   6
   4  -3   0 50.7246 24.8223  11
   4  -3   0 82.8096 17.2136   9
  -4   3   0 67.5680 33.7060   3
   4  -3   0 94.9472 27.3815   7
   4  -3   1 824.075 99.7325  11
   4  -3   1 870.795 116.399   6
  -4   3  -1 815.966 54.6560   1
  -4   3  -1 809.864 84.8740  10
   4  -3   1 792.421 68.5125   9
  -4   3  -1 791.363 112.080   3
   4  -3   1 828.063 69.5842   7
   4  -3   2 975.096 119.937   6
  -4   3  -2 1149.25 137.673   3
  -4   3  -2 961.626 76.2621  10
   4  -3   2 961.577 91.5957   9
   4  -3   2 1078.30 118.279  11
   4  -3   2 951.411 63.8667   7
   4  -3   3 183.620 49.5052   6
  -4   3  -3 266.941 56.1983  11
   4  -3   3 265.142 58.6100  11
  -4   3  -3 293.716 28.7086  10
  -4   3  -3 197.563 59.7619   3
   4  -3   3 283.938 68.1874   3
   4  -3   4 57.0973 21.8449   6
   4  -3   4 20.3453 18.7446  11
  -4   3  -4 44.2026 23.5402  11
  -4   3  -4 20.7525 24.3620   2
   4  -3   4 55.0806 27.5132   9
  -4   3  -4 52.3936 17.1909   3
   4  -3   5 1441.81 126.259   6
  -4   3  -5 1736.93 185.456   3
   4  -3   5 1591.05 161.840  11
  -4   3  -5 1433.97 148.932   1
   4  -3   5 1725.21 161.384   9
  -4   3  -5 1678.40 189.178   2
   4  -3   6 1797.09 179.892  11
  -4   3  -6 1963.45 188.323   1
   4  -3   6 1825.21 181.529   9
  -4   3  -6 2000.87 216.556   2
   4  -3   6 2040.47 120.849   6
   4  -3   7 20542.7 799.839  11
  -4   3  -7 19351.9 834.063   5
   4  -3   7 21000.4 829.995   9
  -4   3  -7 21861.5 887.410   2
   4  -3   8 1158.20 148.526  11
  -4   3  -8 1009.21 133.498   5
   4  -3   8 1165.64 159.984   9
  -4   3  -8 1145.68 172.282   2
   4  -3   9 974.386 140.568  11
   4  -3   9 1106.29 165.396   9
  -4   3  -9 1136.73 174.530   2
   4  -3  10 141.102 65.8201   9
  -4   3 -10-30.7034 55.6762   2
  -4   2  11 214.919 79.8626  10
  -4   2  11 258.886 69.8720   9
  -4   2  11 161.809 56.7506   8
   4  -2 -11 153.971 65.3768   4
  -4   2  10 1107.19 176.351  10
  -4   2  10 1106.35 140.696   9
  -4   2  10 984.235 140.467   8
   4  -2 -10 1114.41 172.769   4
   4  -2  -9 1312.37 146.472   3
  -4   2   9 1130.37 178.793  10
  -4   2   9 1387.89 144.044   9
  -4   2   9 1080.82 140.078   8
   4  -2  -9 1066.95 154.643   4
   4  -2  -8 1464.93 158.938   3
  -4   2   8 1402.20 78.4338  11
  -4   2   8 1375.67 160.880   5
  -4   2   8 1797.64 154.055   9
  -4   2   8 1693.05 171.095   8
   4  -2  -8 1618.42 185.770   4
  -4   2   8 1731.77 197.308   3
  -4   2   8 1550.81 133.002   2
  -4   2   7 28.9942 34.2857   3
  -4   2   7 53.6247 13.6308  11
  -4   2   7 15.7808 14.7185   9
   4  -2  -7 21.0695 11.7052   3
  -4   2   7 140.514 50.8398   8
  -4   2   7 17.5429 14.0750   2
   4  -2  -7 9.52844 19.7464   4
   4  -2  -6 1559.98 197.986   6
   4  -2  -6 1522.48 168.712   3
  -4   2   6 1694.81 134.935   2
  -4   2   6 1605.21 111.395  11
  -4   2   6 1756.55 125.120   9
   4  -2  -6 1535.65 157.316   1
  -4   2   6 1793.04 158.806   8
  -4   2   6 1621.44 165.498   4
   4  -2  -6 1959.28 179.509   4
  -4   2   6 1769.69 189.316   3
   4  -2  -5 4009.93 312.498   6
   4  -2  -5 4473.92 283.199   3
  -4   2   5 3752.25 198.037  11
   4  -2  -5 4126.35 239.793   1
  -4   2   5 4264.04 228.994   2
  -4   2   5 4253.05 188.493   9
  -4   2   5 4169.64 252.003   8
  -4   2   5 4202.77 264.844   4
   4  -2  -5 4637.45 303.496   7
   4  -2  -5 3681.59 245.050   4
  -4   2   5 4067.97 298.718   3
   4  -2  -4 4479.20 323.279   6
   4  -2  -4 5038.73 302.383   3
  -4   2   4 4573.10 225.909  11
  -4   2   4 4468.06 249.209   2
   4  -2  -4 4495.25 232.187   1
  -4   2   4 4649.13 177.685   9
   4  -2  -4 4837.33 235.782  11
  -4   2   4 4763.42 264.623   4
  -4   2   4 5118.94 327.772   3
   4  -2  -3 4777.98 320.711   6
   4  -2  -3 4923.74 294.451   3
   4  -2  -3 4987.97 244.919  11
  -4   2   3 4619.25 235.955  11
   4  -2  -3 4758.60 207.760   1
  -4   2   3 4669.45 151.468   9
  -4   2   3 4910.76 254.541   4
  -4   2   3 4676.21 305.984   3
  -4   2   2 82504.3 2377.12   3
   4  -2  -2 87372.2 2418.88   6
   4  -2  -2 83210.2 2352.15   3
   4  -2  -2 86049.8 2266.85  11
   4  -2  -2 76197.0 2288.24   7
  -4   2   2 85078.7 2255.68   4
   4  -2  -2 83231.7 2143.12   1
  -4   2   1 9826.72 461.371   3
   4  -2  -1 9666.31 473.907   6
  -4   2   1 9643.80 290.838   9
   4  -2  -1 10379.3 404.247  11
   4  -2  -1 10721.8 398.075   7
  -4   2   0 16744.4 678.507   3
   4  -2   0 18187.3 696.266   6
   4  -2   0 17961.2 624.298  11
  -4   2   0 17159.8 528.887   9
   4  -2   0 19075.4 580.687   7
   4  -2   1 49980.7 1449.09  11
   4  -2   1 48525.0 1501.06   6
  -4   2  -1 49466.7 1513.37   3
  -4   2  -1 48607.1 1361.76   9
  -4   2  -1 51240.9 1309.30   1
   4  -2   1 47593.4 1328.96   7
   4  -2   2 19512.4 708.115   6
  -4   2  -2 17986.9 712.463   3
   4  -2   2 19439.1 681.837  11
  -4   2  -2 19074.4 627.085   9
   4  -2   2 17995.0 612.854   9
  -4   2  -2 19818.8 590.664   1
   4  -2   3 13356.4 514.733   6
  -4   2  -3 12943.3 557.403   3
  -4   2  -3 12184.9 461.805   1
  -4   2  -3 13653.8 527.526  11
  -4   2  -3 12867.9 494.387   9
   4  -2   3 12713.0 518.517  11
   4  -2   4 47.6253 18.4973   6
   4  -2   4 95.6160 39.7272  11
  -4   2  -4 43.5387 23.8471  11
  -4   2  -4 83.9823 30.2898   1
  -4   2  -4 36.0909 31.7728   2
   4  -2   4 104.654 34.2813   9
  -4   2  -4 86.2288 38.6338   3
   4  -2   4 55.1533 34.6846   3
   4  -2   5 198.397 41.8475   6
   4  -2   5 181.332 51.9328  11
  -4   2  -5 193.253 50.1816  11
  -4   2  -5 238.203 59.6053   1
  -4   2  -5 133.590 53.4395   2
   4  -2   5 169.701 46.0613   9
  -4   2  -5 154.569 48.9571   3
  -4   2  -6 4729.46 322.390   3
   4  -2   6 6443.96 347.205  11
   4  -2   6 6021.89 345.368   9
  -4   2  -6 6734.55 405.653   2
   4  -2   6 5394.56 209.776   6
   4  -2   7 699.615 109.359  11
   4  -2   7 817.223 130.416   9
  -4   2  -7 561.671 104.060   3
  -4   2  -7 953.779 155.302   2
   4  -2   8 172.858 52.6085  11
   4  -2   8 137.249 52.6622   9
  -4   2  -8 136.302 63.7764   2
  -4   2  -8 129.164 49.5576   5
   4  -2   9 642.060 107.292  11
   4  -2   9 646.575 128.258   9
  -4   2  -9 726.274 143.453   2
   4  -2  10 14.5289 18.8892  11
   4  -2  10 18.9056 37.5545   9
  -4   2 -10 26.7188 42.6183   2
  -4   1  11 213.532 78.6919  10
  -4   1  11 242.195 72.8343   9
  -4   1  11 117.691 43.7093   8
   4  -1 -11 179.917 61.2612   4
  -4   1  10 878.308 125.328   9
  -4   1  10 589.589 101.269   8
   4  -1 -10 726.970 137.780   4
   4  -1  -9 4141.21 291.402   3
  -4   1   9 3711.19 256.541   9
  -4   1   9 3928.16 266.538   8
   4  -1  -9 3762.34 303.067   4
   4  -1  -8 3568.76 276.867   3
  -4   1   8 3262.90 170.077  11
  -4   1   8 3352.71 258.209   5
  -4   1   8 3502.20 235.203   9
  -4   1   8 3663.51 249.794   8
   4  -1  -8 3538.97 273.383   4
  -4   1   8 3624.56 303.898   3
  -4   1   8 3127.39 219.584   2
  -4   1   7 862.531 103.626   2
  -4   1   7 733.423 76.5161  11
  -4   1   7 945.695 144.898   3
  -4   1   7 842.547 96.8490   9
   4  -1  -7 863.790 127.875   3
   4  -1  -7 663.214 117.545   6
  -4   1   7 913.104 110.272   8
  -4   1   7 761.790 125.780   5
   4  -1  -7 824.572 119.780   4
   4  -1  -6 1098.95 146.273   3
   4  -1  -6 1427.89 179.353   6
  -4   1   6 1263.03 126.661   2
  -4   1   6 1216.30 102.691  11
  -4   1   6 1208.80 109.073   9
  -4   1   6 1363.84 127.702   8
   4  -1  -6 1312.42 140.411   4
  -4   1   6 1387.76 175.930   3
   4  -1  -5 23697.7 859.846   3
   4  -1  -5 23760.1 913.189   6
  -4   1   5 21474.1 726.621  11
  -4   1   5 23031.2 716.701   9
  -4   1   5 23955.9 776.532   8
  -4   1   5 23384.5 795.338   4
  -4   1   5 24952.2 919.984   3
  -4   1   5 22609.8 782.739   2
   4  -1  -4 5195.51 316.965   3
   4  -1  -4 5345.14 351.285   6
  -4   1   4 5550.39 289.449   2
  -4   1   4 5356.40 253.815  11
  -4   1   4 4990.45 263.861   4
   4  -1  -4 4980.84 255.737   4
  -4   1   4 6189.41 366.210   3
   4  -1  -3-6.92302 12.5217   6
   4  -1  -3-3.83842 11.3701  11
  -4   1   3 1.63490 6.92499  11
  -4   1   3 7.47139 19.3458   3
   4  -1  -3 2.41718 23.5229   3
  -4   1   3-6.45592 6.85992   4
   4  -1  -2 9372.02 462.609   6
   4  -1  -2 10033.0 384.156  11
  -4   1   2 9003.98 337.309   4
  -4   1   2 7805.27 356.549  11
  -4   1   2 9482.99 461.970   3
  -4   1   1 10960.2 511.558   3
   4  -1  -1 11610.9 522.260   6
   4  -1  -1 11671.0 445.126  11
  -4   1   0 1558.98 162.045   3
   4  -1   0 1780.17 167.792   6
  -4   1   0 1840.44 172.196   6
   4  -1   0 1982.57 88.7500   1
   4  -1   0 1860.22 143.913  11
  -4   1   0 1796.52 106.096   9
   4  -1   1 7548.05 371.983   6
  -4   1  -1 7281.40 380.849   3
  -4   1  -1 8016.03 384.181   6
   4  -1   1 7523.52 340.755  11
  -4   1  -1 7483.17 295.741   9
   4  -1   2 11507.4 479.869   6
  -4   1  -2 11455.5 504.088   3
  -4   1  -2 12309.2 494.392   6
   4  -1   2 12333.6 472.394  11
  -4   1  -2 12150.3 472.902  11
  -4   1  -2 11054.7 428.247   9
  -4   1  -2 11301.8 405.021   1
   4  -1   2 11343.9 330.498   7
   4  -1   3 1424.29 132.280   6
  -4   1  -3 1445.99 148.680   3
   4  -1   3 1376.93 132.460  11
  -4   1  -3 1546.49 139.313  11
  -4   1  -3 1321.03 125.107   9
  -4   1  -3 1417.05 119.442   1
   4  -1   4 84.6633 30.3180   6
   4  -1   4 51.9802 28.3921  11
  -4   1  -4 27.0503 15.1132  11
  -4   1  -4 66.5197 36.0478   2
  -4   1  -4 34.9945 10.5363  10
  -4   1  -4 46.3031 24.6872   1
  -4   1  -4 122.442 41.9453   9
  -4   1  -4 32.0135 22.6852   3
   4  -1   4 59.6258 27.3725   9
   4  -1   5 587.948 90.4930  11
  -4   1  -5 677.503 96.6662  11
  -4   1  -5 753.901 122.556   2
  -4   1  -5 536.907 94.8253   3
   4  -1   5 700.639 103.744   9
   4  -1   5 794.233 82.1840   6
  -4   1  -5 823.427 111.713   1
  -4   1  -6 1195.71 141.890   3
   4  -1   6 1676.47 156.734  11
  -4   1  -6 1433.50 148.973  11
  -4   1  -6 1041.52 138.665   5
   4  -1   6 1621.11 167.635   9
  -4   1  -6 1320.81 175.477   2
   4  -1   6 1223.05 85.1474   6
  -4   1  -7 13021.0 624.100   3
   4  -1   7 21724.1 704.251  11
  -4   1  -7 11037.1 604.708   5
   4  -1   7 21133.1 764.408   9
  -4   1  -7 22413.4 829.877   2
   4  -1   8 2364.21 202.191  11
   4  -1   8 2545.58 241.610   9
  -4   1  -8 2414.91 248.438   2
   4  -1   9 442.038 87.0962  11
   4  -1   9 478.841 105.927   9
  -4   1  -9 491.587 115.369   2
   4  -1  10 183.454 74.4996   9
  -4   1 -10 149.792 69.4817   2
  -4   0  11 4.54119 16.1380   9
  -4   0  11-11.9516 11.4157   8
   4   0 -11 2.33876 32.5410   4
   4   0 -10 316.696 86.9273   3
  -4   0  10 247.962 66.1882   9
  -4   0  10 208.677 54.1507   8
   4   0 -10 352.478 91.0303   4
   4   0  -9 3231.16 281.656   3
  -4   0   9 3209.52 246.162   9
  -4   0   9 3166.63 228.629   8
   4   0  -9 3215.68 276.591   4
   4   0  -8 14813.9 659.180   3
   4   0  -8 12175.4 622.385   6
  -4   0   8 13958.0 573.821   2
  -4   0   8 12495.0 588.277   5
  -4   0   8 14625.9 569.670   9
  -4   0   8 10427.2 455.143  11
  -4   0   8 14705.1 558.087   8
   4   0  -8 14464.4 609.203   4
   4   0  -7 12621.6 610.788   6
  -4   0   7 13307.6 544.163   2
  -4   0   7 14156.5 613.262   5
  -4   0   7 12922.3 511.184   9
  -4   0   7 13075.4 511.714   8
   4   0  -7 13329.5 558.143   4
  -4   0   7 14157.9 674.694   3
   4   0  -7 14012.8 630.177   3
   4   0  -6 252.934 68.0041   6
  -4   0   6 208.358 67.1723   3
  -4   0   6 171.422 41.9251  11
   4   0  -6 197.057 62.0372   3
  -4   0   6 253.103 71.4759   5
  -4   0   6 187.191 46.0897   8
  -4   0   6 236.016 59.9699   2
  -4   0   5 213.518 57.2949   2
  -4   0   5 146.835 62.5172   6
  -4   0   5 144.181 46.2807  11
   4   0  -5 210.195 57.4848   3
   4   0  -5 123.049 56.9431   6
  -4   0   5 165.100 54.4008   5
  -4   0   5 291.655 51.8190   8
  -4   0   5 83.2748 44.1357   3
   4   0  -5 140.244 37.1738   4
   4   0  -4 10387.9 484.943   3
   4   0  -4 10179.5 485.924   6
  -4   0   4 6514.84 338.888  11
  -4   0   4 8024.79 401.711   2
  -4   0   4 8561.66 468.320   5
   4   0  -4 8533.54 340.191   4
  -4   0   4 9508.33 487.770   3
   4   0  -3 14847.3 609.779   3
   4   0  -3 15322.7 621.076   6
  -4   0   3 14445.2 573.841   2
  -4   0   3 11932.4 493.503  11
  -4   0   3 13769.2 459.435   4
  -4   0   3 13494.0 619.474   3
   4   0  -2 204.295 56.6140   6
  -4   0   2 258.477 50.6737  11
  -4   0   2 234.127 68.0220   3
  -4   0   2 223.767 34.2529   4
   4   0  -1 7398.25 390.098   6
   4   0  -1 8170.63 342.986  11
  -4   0   1 6786.60 394.484   3
   4   0   0 80528.9 2377.65   6
  -4   0   0 81641.8 2403.73   6
   4   0   0 83089.5 2313.02  11
   4   0   0 84103.2 2229.77   1
  -4   0   0 84854.0 2422.18   3
   4   0   1 55035.5 1630.24   6
  -4   0  -1 55739.7 1650.92   6
  -4   0  -1 53273.8 1520.40   9
   4   0   1 54503.0 1575.90  11
   4   0   1 52194.2 1505.89   7
   4   0   1 54085.2 1505.60   1
  -4   0  -1 53062.8 1656.27   3
  -4   0  -2 53340.5 1654.10   3
  -4   0  -2 57719.8 1644.86   6
   4   0   2 54907.8 1586.84  11
  -4   0  -2 52794.4 1587.63  11
   4   0   2 51073.8 1539.07   1
  -4   0  -2 51728.4 1551.27   9
   4   0   2 55049.5 1463.00   7
   4   0   2 55230.2 1621.03   6
   4   0   3-20.8484 28.1950  11
   4   0   3 8.58643 6.75988   6
  -4   0  -3 10.2443 7.31464   6
  -4   0  -3-5.80453 12.4704  11
  -4   0  -3 9.07027 19.1636   3
  -4   0  -3-10.4730 9.06970   9
  -4   0  -3 17.9229 19.7373   5
  -4   0  -3 50.3686 26.4022   1
   4   0   3-0.56296 3.83050   7
  -4   0  -4 3086.95 228.058   3
  -4   0  -4 3392.31 218.238   6
  -4   0  -4 3118.21 216.534  11
  -4   0  -4 3096.91 161.479  10
  -4   0  -4 3221.11 221.734   9
  -4   0  -4 3300.23 256.290   5
   4   0   4 3357.25 221.988  11
  -4   0  -4 3126.18 215.737   1
  -4   0  -4 3502.34 255.355   2
   4   0   4 3042.54 200.560   6
  -4   0  -5 22465.9 880.739   3
  -4   0  -5 27753.7 857.722   6
   4   0   5 27530.4 892.617  11
  -4   0  -5 27225.1 884.157  11
  -4   0  -5 25768.3 771.476  10
  -4   0  -5 24663.0 947.996   5
  -4   0  -5 23478.8 743.901   7
  -4   0  -5 27789.0 974.907   2
  -4   0  -5 26612.7 918.909   1
   4   0   5 28569.5 829.402   6
   4   0   6 15548.8 575.509  11
  -4   0  -6 14919.7 569.192  11
  -4   0  -6 15541.4 441.974   7
  -4   0  -6 16272.5 673.026   2
   4   0   7 554.511 93.8935  11
  -4   0  -7 638.962 94.8302  11
  -4   0  -7 394.178 78.9156   3
  -4   0  -7 575.682 112.075   2
  -4   0  -7 195.561 54.4800   5
  -4   0  -7 657.873 62.3735   7
   4   0   8 216.293 57.0823  11
  -4   0  -8 285.853 90.6090   2
   4   0   9 512.587 89.6264  11
  -4   0  -9 576.916 120.252   2
  -4   0 -10 225.598 81.2547   2
  -4   0 -10 426.026 117.535   4
   4   1 -11 921.057 162.841   2
  -4  -1  11 673.523 123.662   9
  -4  -1  11 227.494 63.9483   8
   4   1 -11 462.799 112.923   4
   4   1 -10 2644.26 278.654   2
  -4  -1  10 2466.12 231.621   9
  -4  -1  10 1699.45 163.329   8
   4   1 -10 2141.79 231.165   4
   4   1 -10 2863.21 285.577   3
   4   1  -9 6224.11 418.794   2
  -4  -1   9 5581.45 351.686   9
  -4  -1   9 5329.26 296.133   8
   4   1  -9 5683.02 363.269   4
   4   1  -9 6285.48 430.357   3
   4   1  -8 121.316 49.2389   6
  -4  -1   8 19.4500 22.3768  11
   4   1  -8 34.2809 31.2683   3
   4   1  -8-8.71497 55.6228   2
  -4  -1   8 31.5628 18.3505   5
  -4  -1   8 41.7694 15.4778   8
   4   1  -8 72.2856 40.4362   4
   4   1  -7-15.7747 35.1345   6
   4   1  -7 16.6221 24.2769   3
  -4  -1   7 1.61704 23.4806   5
  -4  -1   7 19.1197 11.0940   8
   4   1  -7 12.7535 14.5979   4
   4   1  -6 101.814 56.6117   3
   4   1  -6 175.749 60.5015   6
  -4  -1   6 112.719 45.9999   3
  -4  -1   6 105.224 56.3542   6
  -4  -1   6 117.897 59.6818   5
  -4  -1   6 175.037 40.0248   8
  -4  -1   6 267.656 65.5264   2
   4   1  -5 2036.32 207.080   6
  -4  -1   5 1840.10 206.362   6
  -4  -1   5 1926.78 207.796   5
  -4  -1   5 2120.72 187.093   2
  -4  -1   5 2059.48 137.536   8
   4   1  -5 2067.16 145.670   4
  -4  -1   5 2146.50 241.993   3
   4   1  -5 1920.46 207.725   3
   4   1  -4 7413.16 414.991   6
  -4  -1   4 6943.81 417.608   6
  -4  -1   4 7871.71 391.530   2
  -4  -1   4 8347.72 449.239   5
   4   1  -4 7226.74 290.217   4
  -4  -1   4 7640.64 450.713   3
   4   1  -4 6537.37 412.501   3
   4   1  -3 544.258 95.4420   6
  -4  -1   3 545.832 91.5248   2
  -4  -1   3 475.757 99.4868   3
   4   1  -3 569.749 104.129   3
  -4  -1   3 691.609 120.742   5
   4   1  -2 2648.99 219.453   6
  -4  -1   2 2633.87 236.542   5
  -4  -1   2 2456.50 228.478   3
  -4  -1   1 21012.2 833.168   5
  -4  -1   1 19739.3 806.155   3
   4   1  -1 21110.7 781.523   6
  -4  -1   0 38916.3 1271.70   6
  -4  -1   0 40057.3 1338.47   5
   4   1   0 38462.2 1193.35   7
  -4  -1   0 40093.8 1312.31   3
   4   1   0 38972.1 1267.08   6
  -4  -1  -1 6388.98 353.020   6
   4   1   1 6879.86 323.337  11
  -4  -1  -1 7035.37 404.715   5
   4   1   1 6107.11 290.020   1
   4   1   1 6502.96 282.120   7
  -4  -1  -1 6555.24 373.806   3
   4   1   1 6429.91 345.606   6
  -4  -1  -2 10749.8 492.346   6
  -4  -1  -2 12414.5 572.651   5
  -4  -1  -2 11176.0 450.418   9
   4   1   2 11435.8 400.765   7
  -4  -1  -2 11302.2 464.725  11
   4   1   2 11650.0 470.123  11
   4   1   2 11428.2 454.898   1
  -4  -1  -2 11816.0 527.939   3
   4   1   2 11492.0 493.422   6
  -4  -1  -3 13548.6 561.707   6
   4   1   3 10829.1 514.917   3
   4   1   3 13857.8 545.169   1
  -4  -1  -3 13955.6 537.808  11
   4   1   3 14329.8 538.811  11
  -4  -1  -3 14272.4 636.046   5
  -4  -1  -3 13361.4 531.487   9
  -4  -1  -3 12826.0 533.809   1
   4   1   3 14131.9 459.186   7
   4   1   3 15826.0 578.939   6
  -4  -1  -3 13253.2 576.217   3
  -4  -1  -4 599.826 92.7694   6
   4   1   4 552.584 83.2647  11
  -4  -1  -4 605.064 89.5762  11
   4   1   4 646.044 91.9070   3
  -4  -1  -4 633.011 96.9449   3
  -4  -1  -4 608.445 75.1368  10
  -4  -1  -4 615.831 94.0843   9
  -4  -1  -4 562.637 91.5250   1
  -4  -1  -4 471.421 97.8596   5
   4   1   4 572.330 64.8987   7
   4   1   4 534.267 88.6615   1
  -4  -1  -4 677.601 73.5419   7
   4   1   4 678.623 93.3414   6
  -4  -1  -5 4185.77 253.127   6
   4   1   5 3634.62 227.518   3
  -4  -1  -5 4201.58 252.623  11
   4   1   5 3993.82 248.938  11
  -4  -1  -5 3025.66 266.564   5
  -4  -1  -5 3805.01 210.315  10
  -4  -1  -5 3848.60 274.002   1
   4   1   5 4090.78 200.236   7
  -4  -1  -5 4078.59 298.221   2
  -4  -1  -5 3752.55 195.654   7
   4   1   5 4353.09 240.014   6
  -4  -1  -5 3375.07 246.899   3
   4   1   6 159.907 44.9923  11
  -4  -1  -6 248.403 59.1352  11
  -4  -1  -6 134.405 43.1634   3
  -4  -1  -6 129.123 31.6404  10
  -4  -1  -6 91.1418 52.5456   2
  -4  -1  -6 119.153 38.2461   6
  -4  -1  -6 64.0183 40.9473   5
   4   1   6 139.524 41.9586   3
  -4  -1  -6 177.583 37.0494   7
  -4  -1  -7 2122.79 153.728   6
  -4  -1  -7 2133.65 176.750  11
  -4  -1  -7 1758.62 180.029   5
  -4  -1  -7 2437.52 235.139   2
   4   1   7 2167.60 184.202  11
  -4  -1  -7 1691.00 157.945   3
   4   1   8 329.238 69.0989  11
  -4  -1  -8 245.467 72.2810   2
  -4  -1  -8 249.104 72.1444   4
  -4  -1  -9 125.464 60.9023   2
  -4  -1  -9 88.5455 48.1485   4
   4   2 -11 29.3899 41.1291   3
   4   2 -11-33.9481 49.1611   2
  -4  -2  11-14.3829 21.0647   9
   4   2 -11-10.4622 20.3197   4
   4   2 -10 2199.10 256.288   2
  -4  -2  10 1789.18 206.320   9
  -4  -2  10 1277.01 128.814   8
   4   2 -10 1671.74 198.951   4
   4   2 -10 2080.00 261.118   3
   4   2  -9 3323.68 307.004   2
  -4  -2   9 2788.56 184.041   8
   4   2  -9 2630.89 238.217   4
   4   2  -9 3158.55 318.238   3
  -4  -2   8 772.492 153.122   6
   4   2  -8 800.148 156.715   3
   4   2  -8 936.259 155.662   2
  -4  -2   8 794.367 124.842   5
  -4  -2   8 847.642 89.6586   8
   4   2  -8 813.522 118.341   4
  -4  -2   7 8177.11 485.033   6
   4   2  -7 8274.20 482.388   2
  -4  -2   7 8516.56 466.024   5
  -4  -2   7 8325.41 334.713   8
   4   2  -7 7191.37 375.079   4
   4   2  -7 8420.61 524.111   3
   4   2  -7 7799.02 451.200   6
  -4  -2   6 16377.0 744.063   6
  -4  -2   6 16323.2 719.109   5
  -4  -2   6 15623.2 530.959   8
   4   2  -6 16115.0 760.226   3
   4   2  -6 15790.2 691.955   6
  -4  -2   5 988.066 130.460   2
  -4  -2   5 1160.61 163.601   6
  -4  -2   5 1123.63 172.320   3
   4   2  -5 951.468 162.002   3
  -4  -2   5 1048.82 156.790   5
  -4  -2   5 973.366 86.7823   8
   4   2  -5 1000.02 93.2283   4
   4   2  -5 1218.65 156.358   6
  -4  -2   4 6333.76 395.434   6
  -4  -2   4 5883.15 345.637   2
  -4  -2   4 6362.55 402.052   5
   4   2  -4 5983.29 235.787   4
  -4  -2   4 6008.71 414.281   3
   4   2  -4 6336.66 408.966   3
   4   2  -4 5770.80 363.275   6
  -4  -2   3 11326.9 509.291   2
  -4  -2   3 12043.5 573.058   5
   4   2  -3 9604.68 299.481   4
  -4  -2   3 11244.4 570.624   3
   4   2  -3 11304.4 521.204   6
  -4  -2   2 2510.39 212.339   2
  -4  -2   2 2358.78 236.254   5
  -4  -2   2 2344.63 232.457   3
   4   2  -2 2733.87 225.889   6
  -4  -2   1 4769.88 347.788   5
   4   2  -1 4941.60 291.648   7
  -4  -2   1 4519.17 326.477   3
   4   2  -1 4950.15 312.202   6
  -4  -2   0 11612.5 545.804   6
  -4  -2   0 12185.0 604.535   5
  -4  -2   0 12444.0 358.987   4
   4   2   0 11550.1 486.900   7
  -4  -2   0 12335.3 577.060   3
   4   2   0 12796.2 554.807   6
   4   2   1 76.5205 36.7264   6
  -4  -2  -1 82.5705 34.9269   6
  -4  -2  -1 160.697 44.4102  11
  -4  -2  -1 129.895 46.8792   3
   4   2   1 115.626 34.1863   1
  -4  -2  -1 92.2971 51.7243   5
  -4  -2  -1 130.982 27.6026   4
   4   2   1 91.0185 35.5060   7
   4   2   2 442.169 75.0100   1
   4   2   2 375.608 78.7402   6
  -4  -2  -2 328.546 73.3013   6
  -4  -2  -2 378.835 68.7349  11
  -4  -2  -2 403.085 83.8569   3
  -4  -2  -2 381.496 91.5392   5
  -4  -2  -2 425.203 59.4075   4
   4   2   2 385.354 59.7412   7
  -4  -2  -3 7391.15 392.003   6
   4   2   3 7528.94 382.538   1
  -4  -2  -3 7753.56 449.865   5
  -4  -2  -3 7155.21 362.904   9
  -4  -2  -3 8277.97 376.621   8
  -4  -2  -3 7295.21 341.451   4
   4   2   3 7503.34 322.069   7
  -4  -2  -3 7186.31 338.970   7
  -4  -2  -3 6674.41 354.613  11
  -4  -2  -3 7699.62 401.614   3
   4   2   3 7941.48 388.793   6
   4   2   4 827.073 103.409   3
  -4  -2  -4 659.204 101.209  11
  -4  -2  -4 796.378 112.618   6
  -4  -2  -4 666.084 99.0317   3
  -4  -2  -4 820.810 100.691  10
   4   2   4 764.018 114.014   1
  -4  -2  -4 598.563 124.881   5
   4   2   4 823.218 92.7157   7
  -4  -2  -4 772.629 106.105   4
  -4  -2  -4 760.989 91.1741   7
   4   2   4 914.974 113.620   6
  -4  -2  -5 76157.4 2093.57   6
   4   2   5 61922.9 1967.80   3
  -4  -2  -5 64715.3 2003.52  10
  -4  -2  -5 71796.8 2034.34  11
  -4  -2  -5 64500.8 2140.45   5
   4   2   5 73349.1 2156.82   1
  -4  -2  -5 72902.1 2102.98   4
   4   2   5 74424.3 2001.40   7
  -4  -2  -5 68598.5 1984.72   7
   4   2   5 74449.3 2049.96   6
  -4  -2  -5 67096.0 2049.44   3
  -4  -2  -6 12221.5 515.128   6
   4   2   6 11165.5 440.523   3
  -4  -2  -6 11938.3 492.286  11
  -4  -2  -6 9536.51 519.679   5
  -4  -2  -6 10228.3 464.444  10
  -4  -2  -6 11951.5 567.080   4
   4   2   6 11191.0 461.120   7
  -4  -2  -6 11602.5 460.007   7
  -4  -2  -6 11966.4 567.642   2
  -4  -2  -6 11100.3 481.203   3
  -4  -2  -7 6351.93 328.844   6
  -4  -2  -7 5357.48 304.495  11
  -4  -2  -7 4503.80 316.868   5
  -4  -2  -7 4425.28 291.356  10
  -4  -2  -7 6135.55 404.735   4
  -4  -2  -7 6977.29 406.966   2
  -4  -2  -8 1119.37 163.828   2
  -4  -2  -8 1301.51 191.216   4
  -4  -2  -9-99.9389 51.2878   2
  -4  -2  -9 1.02812 29.7545   4
   4   3 -10 32.6453 31.0195   3
   4   3 -10 11.3809 32.5902   2
  -4  -3  10 95.1599 49.8310   9
   4   3 -10 89.8141 55.5126   4
  -4  -3   9 81.9368 63.6693   6
   4   3  -9 236.137 101.698   3
   4   3  -9 149.414 57.7136   2
   4   3  -9 136.754 49.2819   4
  -4  -3   8 669.363 147.715   6
   4   3  -8 606.733 138.910   3
   4   3  -8 655.759 139.264   2
  -4  -3   8 889.463 141.537   5
  -4  -3   8 747.241 72.8273   8
   4   3  -8 726.142 110.293   4
  -4  -3   7 4683.97 366.992   6
  -4  -3   7 4434.05 332.462   5
   4   3  -7 4491.39 358.699   2
  -4  -3   7 4449.66 198.756   8
   4   3  -7 3984.92 252.757   4
   4   3  -7 4526.68 392.200   3
  -4  -3   6 1374.18 186.023   6
  -4  -3   6 1486.44 188.090   5
   4   3  -6 1432.78 217.337   3
   4   3  -6 1269.87 178.599   2
  -4  -3   6 1417.73 95.1707   8
  -4  -3   5 1641.03 199.915   6
   4   3  -5 1427.10 196.938   3
  -4  -3   5 1368.51 179.872   5
  -4  -3   5 1373.97 92.3062   8
   4   3  -5 1392.89 108.684   4
   4   3  -5 1631.19 182.963   6
  -4  -3   4 9658.81 520.971   6
  -4  -3   4 10650.7 555.996   5
   4   3  -4 10129.1 548.992   5
   4   3  -4 9096.44 321.064   4
   4   3  -4 10149.1 559.336   3
   4   3  -4 9621.81 498.505   6
   4   3  -3 464.090 101.771   6
  -4  -3   3 519.897 98.3617   2
  -4  -3   3 319.519 89.5200   3
  -4  -3   3 582.831 114.571   6
   4   3  -3 562.681 115.579   3
  -4  -3   3 511.021 112.848   5
   4   3  -3 427.931 102.884   5
  -4  -3   2 4848.06 328.262   2
  -4  -3   2 4639.42 357.166   5
   4   3  -2 4945.75 363.971   5
   4   3  -2 5394.94 337.903   7
  -4  -3   2 5664.92 390.003   3
   4   3  -2 5362.22 346.089   6
   4   3  -1 4.38505 9.69556   6
  -4  -3   1 45.0304 45.9473   3
  -4  -3   1 24.5745 31.6235   2
  -4  -3   1-8.02678 19.6924   5
   4   3  -1 25.6855 20.1089   7
  -4  -3   0 30302.6 1090.63   6
  -4  -3   0 32084.2 1171.50   5
  -4  -3   0 30903.1 1015.12  11
   4   3   0 30785.9 1025.65   7
  -4  -3   0 29558.0 1121.07   3
   4   3   0 34012.8 1118.13   6
   4   3   0 27457.3 1079.99   3
   4   3   1 780.434 117.753   6
  -4  -3  -1 778.299 118.975   6
  -4  -3  -1 867.033 131.179   3
  -4  -3  -1 679.070 100.511  11
   4   3   1 782.937 110.696   1
  -4  -3  -1 804.733 99.0832   8
  -4  -3  -1 560.543 123.995   5
   4   3   1 876.032 153.773   5
  -4  -3  -1 875.331 72.4027   4
   4   3   1 808.384 101.508   7
  -4  -3  -2 1292.80 135.734  11
  -4  -3  -2 1557.07 140.975   8
  -4  -3  -2 1350.24 114.442   4
   4   3   2 1035.92 131.507   1
   4   3   2 1203.96 123.115   7
  -4  -3  -2 1368.49 143.429   7
  -4  -3  -2 1142.13 177.961   5
   4   3   2 1466.66 192.332   5
  -4  -3  -2 1259.31 158.992   3
   4   3   2 1461.86 161.658   6
  -4  -3  -2 1376.59 157.199   6
   4   3   3 167.867 48.8259   6
  -4  -3  -3 136.914 53.0944   6
  -4  -3  -3 177.834 58.2938   3
  -4  -3  -3 98.2256 43.2277  11
   4   3   3 162.516 51.6809   1
  -4  -3  -3 125.792 37.8480  10
  -4  -3  -3 175.976 57.7116   5
  -4  -3  -3 94.4082 29.4185   4
   4   3   3 99.5690 37.1807   7
  -4  -3  -3 105.628 37.4313   7
   4   3   4 1326.24 161.179   1
  -4  -3  -4 1285.89 137.754  11
  -4  -3  -4 1312.33 177.672   5
  -4  -3  -4 1326.77 143.482  10
  -4  -3  -4 1361.91 141.744   4
   4   3   4 1235.56 130.294   7
  -4  -3  -4 1229.96 132.119   7
  -4  -3  -4 1409.82 158.652   3
   4   3   4 1533.92 161.166   6
  -4  -3  -4 1365.11 159.374   6
  -4  -3  -5 2643.15 230.603   6
   4   3   5 2588.28 186.052   3
  -4  -3  -5 2672.47 200.904  11
   4   3   5 2579.91 245.343   1
  -4  -3  -5 2462.38 247.342   5
  -4  -3  -5 2285.04 199.215  10
  -4  -3  -5 2829.23 229.580   4
   4   3   5 2676.55 201.445   7
  -4  -3  -5 2417.47 194.184   7
  -4  -3  -5 2306.55 202.973   3
  -4  -3  -6 82.4928 37.7858   6
   4   3   6 91.3009 41.9553   1
  -4  -3  -6 48.0596 22.1903  11
  -4  -3  -6 67.1438 55.0164   2
  -4  -3  -6 117.532 43.4229  10
  -4  -3  -6 84.1531 39.3842   5
   4   3   6 99.7833 30.1884   3
  -4  -3  -6 83.2995 45.7333   4
   4   3   6 129.202 47.9465   7
  -4  -3  -6 103.771 49.2489   3
  -4  -3  -6 56.3769 27.5598   7
  -4  -3  -7 155.694 56.3543   6
  -4  -3  -7 90.6832 52.0554   2
   4   3   7 122.026 48.3805   7
  -4  -3  -7 116.099 59.4655   4
  -4  -3  -8 88.3317 34.8597   2
  -4  -3  -8 164.897 68.6781   4
  -4  -3  -9 57.6019 46.7907   2
  -4  -3  -9 89.6799 59.0508   4
  -4  -4  10 3019.56 310.713   6
   4   4 -10 3194.02 347.459   2
   4   4 -10 2406.85 239.873   4
   4   4 -10 3575.41 386.789   3
  -4  -4   9 582.957 135.295   6
   4   4  -9 576.585 153.673   3
   4   4  -9 522.356 135.502   2
   4   4  -9 379.765 89.3653   4
  -4  -4   8 266.421 94.1420   6
   4   4  -8 277.023 108.553   3
   4   4  -8 207.630 80.3240   2
   4   4  -8 239.656 66.1681   4
  -4  -4   7-40.1207 39.7316   6
   4   4  -7 38.7498 36.8115   3
   4   4  -7 28.0365 20.0554   2
  -4  -4   7 4.55035 5.44185   8
  -4  -4   6 3371.25 312.767   6
   4   4  -6 3560.00 318.459   2
   4   4  -6 3709.54 334.271   5
  -4  -4   6 3431.40 133.432   8
   4   4  -6 3600.02 351.962   3
  -4  -4   5 2224.08 244.482   6
   4   4  -5 2336.35 259.099   5
  -4  -4   5 2212.48 104.792   8
   4   4  -5 1918.97 248.085   3
  -4  -4   4 59.4023 28.7683   6
   4   4  -4 102.679 52.5480   3
   4   4  -4 129.126 60.8327   5
   4   4  -4 148.559 65.2910   7
  -4  -4   3 2207.29 229.269   6
   4   4  -3 1938.21 230.230   5
   4   4  -3 2004.74 214.319   7
   4   4  -3 1754.48 226.263   3
  -4  -4   2 1275.09 172.504   6
   4   4  -2 1247.02 182.183   3
   4   4  -2 1094.74 173.638   5
   4   4  -2 1310.92 161.545   7
  -4  -4   1 7707.49 439.628   2
  -4  -4   1 6754.75 451.856   5
   4   4  -1 6696.87 464.865   5
  -4  -4   1 7170.06 305.081   8
   4   4  -1 7238.38 403.017   7
  -4  -4   1 8206.79 487.927   3
   4   4  -1 6488.38 440.096   3
   4   4  -1 7645.79 430.757   6
  -4  -4   1 7583.53 444.312   6
   4   4   0 2295.55 250.490   5
  -4  -4   0 2258.38 226.572   2
  -4  -4   0 2130.29 239.989   5
  -4  -4   0 2295.61 158.459   8
   4   4   0 2297.82 199.807   7
  -4  -4   0 2308.22 242.334   3
   4   4   0 2611.23 234.518   6
   4   4   0 1976.54 230.175   3
  -4  -4   0 2254.60 226.687   6
  -4  -4  -1 12336.8 517.731  11
   4   4   1 11697.2 627.905   5
   4   4   1 11233.1 532.853   1
  -4  -4  -1 10552.4 456.472   8
   4   4   1 11317.0 506.489   7
  -4  -4  -1 11468.2 542.374   7
  -4  -4  -1 12668.0 609.923   3
   4   4   1 11728.4 564.015   6
   4   4   1 12593.4 603.567   3
  -4  -4  -1 11197.0 562.675   6
   4   4   2 463.263 97.1590   6
  -4  -4  -2 332.797 81.1374   6
  -4  -4  -2 467.965 99.0079   3
  -4  -4  -2 342.419 80.8994  11
   4   4   2 390.020 97.7068   3
  -4  -4  -2 440.021 80.8459   8
   4   4   2 336.022 104.311   5
   4   4   2 422.560 88.3563   1
  -4  -4  -2 433.058 64.4733   4
   4   4   2 407.441 75.7788   7
  -4  -4  -2 433.459 87.4322   7
  -4  -4  -3 1940.72 183.476  11
   4   4   3 2241.69 251.246   5
  -4  -4  -3 2326.66 179.141   4
   4   4   3 2073.74 183.602   7
  -4  -4  -3 1995.10 190.125   7
   4   4   3 2147.95 207.643   1
  -4  -4  -3 2009.19 223.002   3
   4   4   3 2236.22 216.272   6
  -4  -4  -3 2233.46 223.976   6
  -4  -4  -4 813.022 113.500  11
   4   4   4 1431.42 203.030   5
  -4  -4  -4 1618.25 163.354   4
   4   4   4 1238.59 148.839   7
  -4  -4  -4 845.590 127.391   7
   4   4   4 1719.30 200.113   1
  -4  -4  -4 2180.34 224.524   6
   4   4   5 4886.22 295.950   3
   4   4   5 6897.48 431.883   1
  -4  -4  -5 5700.00 330.316  11
  -4  -4  -5 6233.81 377.391   4
   4   4   5 6831.94 372.347   7
  -4  -4  -5 6068.08 353.510   7
  -4  -4  -5 6515.48 403.072   6
   4   4   6 995.257 98.6803   3
  -4  -4  -6 1031.31 149.521   6
   4   4   6 867.154 152.432   1
  -4  -4  -6 1111.84 147.251   2
   4   4   6 884.805 129.658   7
  -4  -4  -6 834.773 141.464   4
   4   4   7 1141.40 159.610   7
  -4  -4  -7 1644.04 202.947   4
  -4  -4  -7 1305.62 180.390   2
  -4  -4  -7 1828.00 201.612   6
  -4  -4  -8 983.691 149.543   2
  -4  -4  -8 998.944 168.753   4
  -4  -5  10 22.0635 17.6001   6
   4   5 -10 9.68682 27.2400   4
  -4  -5   9 827.531 171.765   6
   4   5  -9 700.036 177.682   3
   4   5  -9 983.488 191.665   2
   4   5  -9 822.519 129.128   4
   4   5  -9 789.347 172.168   7
  -4  -5   8 122.922 59.2570   6
   4   5  -8-10.7470 46.6026   3
   4   5  -8 37.0612 24.7408   2
   4   5  -8 190.542 84.6153   7
   4   5  -7 177.249 90.9864   3
  -4  -5   7 66.4337 52.8664   6
   4   5  -7 55.4604 36.8080   2
   4   5  -7 160.317 73.4223   5
   4   5  -7 216.243 83.8572   7
  -4  -5   6 1364.20 198.481   6
   4   5  -6 1135.74 213.456   3
   4   5  -6 1311.34 199.403   2
   4   5  -6 1231.47 199.166   5
   4   5  -6 1636.07 223.505   7
  -4  -5   5 12582.7 671.014   6
   4   5  -5 12591.5 717.060   5
   4   5  -5 12677.4 683.380   7
   4   5  -5 13108.9 737.861   3
  -4  -5   4 961.599 161.627   6
   4   5  -4 737.935 149.089   3
  -4  -5   4 625.897 48.3056   8
   4   5  -4 956.042 172.445   5
   4   5  -4 921.788 154.258   7
  -4  -5   3 925.190 155.669   6
   4   5  -3 912.718 171.510   3
  -4  -5   3 831.385 68.7545   8
   4   5  -3 822.506 167.906   5
   4   5  -3 863.902 63.1961   4
   4   5  -3 992.481 153.139   7
   4   5  -2 25358.9 1087.19   5
  -4  -5   2 25643.3 770.156   8
   4   5  -2 24941.9 712.189   4
   4   5  -2 24507.8 974.075   7
   4   5  -2 24830.6 1071.11   3
  -4  -5   2 25784.8 1030.86   6
  -4  -5   1 1083.92 163.173   6
   4   5  -1 987.835 165.480   3
  -4  -5   1 957.825 93.0304   8
   4   5  -1 987.822 175.873   5
   4   5  -1 960.551 70.6802   4
   4   5  -1 899.393 136.915   7
  -4  -5   0 868.214 144.142   6
   4   5   0 920.953 157.747   3
  -4  -5   0 757.110 93.9635   8
   4   5   0 918.065 165.779   5
   4   5   0 898.801 131.078   7
  -4  -5  -1 16.8410 35.7240   6
   4   5   1 4.13838 24.2321   3
   4   5   1 9.98507 19.6244   1
   4   5   1-12.1736 41.8126   5
  -4  -5  -1 31.4106 18.9627   8
   4   5   1 14.1596 24.1075   7
  -4  -5  -2 43.3170 35.1767   6
   4   5   2 49.7816 21.7332   3
   4   5   2 4.87727 25.5696   5
   4   5   2 114.147 49.8756   1
   4   5   2 65.6851 33.7881   7
   4   5   3 5559.88 443.656   5
   4   5   3 5870.20 360.140   7
  -4  -5  -3 6353.36 326.860   4
   4   5   3 6250.59 400.173   1
  -4  -5  -3 6192.63 412.798   6
   4   5   3 5907.79 378.754   3
  -4  -5  -4 627.542 130.439   6
   4   5   4 536.885 112.252   1
   4   5   4 418.961 121.207   5
   4   5   4 608.982 108.287   7
  -4  -5  -4 641.277 104.826   4
   4   5   5 1965.23 230.602   1
   4   5   5 1682.36 232.113   5
   4   5   5 1416.07 174.291   7
  -4  -5  -5 1559.92 176.668   4
  -4  -5  -5 1539.50 197.864   6
  -4  -5  -6 1331.25 185.923   6
   4   5   6 1111.97 180.657   1
   4   5   6 1326.83 170.747   7
  -4  -5  -6 1329.25 178.691   4
  -4  -5  -7 545.233 124.221   6
  -4  -5  -7 761.940 125.746   2
   4   5   7 675.811 146.417   1
   4   5   7 643.566 125.160   7
  -4  -5  -7 574.335 128.730   4
   4   5   8 193.578 71.0818   7
  -4  -5  -8 236.223 83.3675   4
  -4  -6   9 1147.74 204.973   6
   4   6  -9 1324.20 261.421   3
   4   6  -9 1587.99 255.544   2
   4   6  -9 1390.97 245.399   7
  -4  -6   8 813.080 171.400   6
   4   6  -8 1108.26 224.035   3
   4   6  -8 1223.47 216.281   2
   4   6  -8 1096.68 199.340   5
   4   6  -8 971.124 196.771   7
  -4  -6   7 1010.32 183.582   6
   4   6  -7 867.912 197.481   3
   4   6  -7 969.341 188.884   2
   4   6  -7 1212.63 209.592   5
   4   6  -7 1079.90 193.853   7
   4   6  -6 351.153 115.904   3
   4   6  -6 273.547 97.2170   2
  -4  -6   6 366.326 104.695   6
   4   6  -6 325.157 112.619   5
   4   6  -6 315.716 106.597   7
  -4  -6   5 187.965 74.5077   6
   4   6  -5 97.0489 68.7371   3
   4   6  -5 270.312 104.349   5
   4   6  -5 220.619 89.0532   7
  -4  -6   4 1752.46 230.939   6
   4   6  -4 1848.92 257.200   3
   4   6  -4 1833.91 262.262   5
   4   6  -4 1977.90 239.830   7
   4   6  -3 2454.20 296.821   5
  -4  -6   3 2532.23 134.093   8
   4   6  -3 2588.70 139.839   4
   4   6  -3 2454.42 261.147   7
   4   6  -3 2560.86 302.516   3
  -4  -6   3 2356.81 266.689   6
  -4  -6   2 1496.77 207.671   6
   4   6  -2 1289.34 205.058   3
  -4  -6   2 1421.91 108.792   8
   4   6  -2 1297.52 218.591   5
   4   6  -2 1356.54 95.9447   4
   4   6  -2 1415.18 187.139   7
   4   6  -1 13091.3 748.407   5
  -4  -6   1 13144.3 485.466   8
   4   6  -1 12451.1 441.846   4
   4   6  -1 14066.9 652.414   7
   4   6  -1 14303.7 739.233   3
  -4  -6   1 13477.8 690.319   6
   4   6   0 2642.06 309.972   5
  -4  -6   0 2483.11 175.401   8
   4   6   0 2278.64 147.291   4
   4   6   0 2341.91 231.288   7
   4   6   0 2278.64 267.931   3
  -4  -6   0 2338.19 257.895   6
   4   6   1 7516.75 548.240   5
   4   6   1 7067.56 449.424   1
   4   6   1 7126.58 430.566   7
   4   6   1 7189.06 486.759   3
  -4  -6  -1 7540.90 482.415   6
  -4  -6  -2 737.466 141.849   6
   4   6   2 757.142 145.229   3
   4   6   2 906.902 189.923   5
   4   6   2 743.836 132.457   1
   4   6   2 805.758 132.102   7
  -4  -6  -3 35.6003 43.6978   6
   4   6   3 43.5439 33.3979   3
   4   6   3-3.82439 38.8163   5
   4   6   3-28.9708 14.5594   7
   4   6   3 24.0508 51.8820   1
  -4  -6  -4 1308.79 192.355   6
   4   6   4 1352.94 195.881   1
   4   6   4 1063.68 157.032   3
   4   6   4 1359.13 222.056   5
   4   6   4 1333.13 174.540   7
  -4  -6  -4 1137.22 147.814   4
  -4  -6  -5 86.0998 37.6643   6
   4   6   5 83.6425 32.1541   3
   4   6   5 112.973 64.5290   5
   4   6   5 250.524 83.1320   1
   4   6   5 153.026 60.4108   7
  -4  -6  -5 116.639 57.1485   4
   4   6   6 1768.40 241.250   1
   4   6   6 1635.05 243.550   5
   4   6   6 1880.47 220.347   7
  -4  -6  -6 1870.73 212.856   4
  -4  -6  -6 1850.91 232.682   6
  -4  -6  -7 51.2750 43.6500   6
   4   6   7 90.6233 54.2252   1
   4   6   7 73.9984 46.6801   7
  -4  -6  -7-15.9324 40.4276   4
   4   7  -8 1187.26 253.402   3
   4   7  -8 1127.77 214.093   2
  -4  -7   8 828.842 178.545   6
   4   7  -8 1357.40 236.277   5
   4   7  -8 1419.94 236.642   7
  -4  -7   7 772.064 162.676   6
   4   7  -7 971.830 221.018   3
   4   7  -7 932.910 189.734   2
   4   7  -7 760.631 189.255   5
   4   7  -7 904.443 181.142   7
  -4  -7   6 19.6625 30.6813   6
   4   7  -6-7.82355 55.1302   5
   4   7  -6-47.1625 51.6743   7
  -4  -7   5 353.753 111.768   6
   4   7  -5 285.192 107.272   3
   4   7  -5 281.638 112.201   5
   4   7  -5 300.306 94.7277   7
  -4  -7   4 1555.34 232.054   6
   4   7  -4 1575.57 250.612   3
   4   7  -4 1649.93 262.640   5
   4   7  -4 1776.03 234.117   7
  -4  -7   3-31.1268 28.8921   6
   4   7  -3 85.0109 56.5152   3
   4   7  -3-48.1178 56.8760   5
   4   7  -3 3.59526 9.86895   4
   4   7  -3 21.1313 31.8628   7
  -4  -7   2 462.574 125.846   6
   4   7  -2 697.599 161.175   3
   4   7  -2 507.442 139.599   5
   4   7  -2 512.389 64.2832   4
   4   7  -2 568.510 132.378   7
  -4  -7   1 37.6164 49.5747   6
   4   7  -1 105.118 66.2817   3
   4   7  -1 26.8287 26.5621   5
  -4  -7   1 125.334 39.8895   8
   4   7  -1 37.3865 9.15322   4
   4   7  -1 43.6033 44.1983   7
   4   7   0 3119.80 364.224   5
  -4  -7   0 3513.47 226.600   8
   4   7   0 3314.47 201.704   4
   4   7   0 3653.56 309.110   7
   4   7   0 3255.17 333.713   3
  -4  -7   0 3488.61 338.535   6
  -4  -7  -1 118.729 56.5890   6
   4   7   1 61.0264 24.3648   3
   4   7   1 67.9973 36.8287   1
   4   7   1 57.6817 45.9220   5
   4   7   1 72.8629 57.3652   7
   4   7   2 1900.87 276.327   5
   4   7   2 1975.05 236.826   1
   4   7   2 2187.76 236.759   7
   4   7   2 1891.63 253.471   3
  -4  -7  -2 2117.24 258.142   6
   4   7   3 3215.67 370.959   5
   4   7   3 3387.55 304.452   7
   4   7   3 3540.77 334.362   1
   4   7   3 3314.86 310.607   3
  -4  -7  -3 3326.91 328.855   6
  -4  -7  -4 74.6076 28.9683   6
   4   7   4 7.02541 30.4660   1
   4   7   4 7.91424 19.2283   3
   4   7   4 20.2355 25.7489   5
   4   7   4 3.61833 26.5094   7
  -4  -7  -5 264.614 90.2180   6
   4   7   5 110.291 47.5284   1
   4   7   5 190.632 89.8417   5
   4   7   5 247.001 84.6205   7
   4   7   6 1076.41 197.519   1
  -4  -7  -6 978.530 183.807   6
   4   7   6 837.256 183.268   5
   4   7   6 1156.42 180.362   7
  -4  -7  -6 1144.25 175.383   4
   4   8  -7 256.837 131.546   3
  -4  -8   7 164.643 78.3083   6
   4   8  -7 175.235 97.2272   5
   4   8  -7 255.853 90.2652   7
  -4  -8   6 88.3025 49.6135   6
   4   8  -6 106.703 60.6359   3
   4   8  -6 331.184 129.154   5
   4   8  -6 129.561 69.4497   7
  -4  -8   5 570.401 145.122   6
   4   8  -5 777.297 191.778   3
   4   8  -5 723.359 182.339   5
   4   8  -5 946.050 180.908   7
   4   8  -4 3511.13 412.313   5
   4   8  -4 3088.02 328.456   7
   4   8  -4 3299.16 392.896   3
  -4  -8   4 3327.32 352.672   6
  -4  -8   3 1018.64 189.619   6
   4   8  -3 1011.11 206.741   3
   4   8  -3 926.101 211.159   5
   4   8  -3 782.938 157.198   7
   4   8  -2 2795.74 364.359   5
   4   8  -2 3286.40 319.893   7
   4   8  -2 2444.19 320.043   3
  -4  -8   2 2659.30 320.171   6
   4   8  -1 4303.47 454.750   5
   4   8  -1 4024.57 356.253   7
   4   8  -1 3726.58 389.044   3
  -4  -8   1 4534.24 413.265   6
  -4  -8   0 918.120 180.202   6
   4   8   0 697.383 158.594   3
   4   8   0 886.315 202.652   5
   4   8   0 1091.00 183.153   7
   4   8   1 3427.74 406.300   5
   4   8   1 3131.34 325.732   1
   4   8   1 3612.56 327.705   7
   4   8   1 3265.09 346.520   3
  -4  -8  -1 3753.11 369.712   6
   4   8   2 1994.34 302.063   5
   4   8   2 2107.68 267.036   1
   4   8   2 2176.40 256.451   7
   4   8   2 1923.01 254.380   3
  -4  -8  -2 2092.44 276.739   6
  -4  -8  -3 38.8973 41.5760   6
   4   8   3 80.9097 47.5694   3
   4   8   3 78.7230 89.5280   5
   4   8   3 22.0249 31.4664   7
   4   8   3 36.6763 31.1988   1
  -4  -8  -4 74.5317 45.1482   6
   4   8   4 142.864 74.2920   1
   4   8   4 29.7135 28.5926   3
   4   8   4 57.4854 64.8866   5
   4   8   4 59.7178 49.5764   7
  -4  -9   5 69.4051 53.8734   6
   4   9  -5-97.9150 82.5223   3
   4   9  -5-19.1666 34.9890   5
   4   9  -5 85.2322 61.4931   7
  -4  -9   4 488.140 145.192   6
   4   9  -4 515.438 156.096   3
   4   9  -4 668.463 193.690   5
   4   9  -4 773.153 173.863   7
  -4  -9   3 50.6169 53.1718   6
   4   9  -3 131.462 61.8945   3
   4   9  -3 186.078 120.924   5
   4   9  -3 95.1190 55.3275   7
  -4  -9   2 6.52105 35.4236   6
   4   9  -2 201.801 100.304   3
   4   9  -2 130.375 96.1371   5
   4   9  -2 181.843 74.0328   7
  -4  -9   1 702.897 169.734   6
   4   9  -1 383.449 129.401   3
   4   9  -1 443.517 148.766   5
   4   9  -1 602.645 139.587   7
  -4  -9   0 1872.46 271.646   6
   4   9   0 1551.88 251.525   3
   4   9   0 1838.57 307.892   5
   4   9   0 2023.31 258.834   7
  -4  -9  -1 509.561 136.899   6
   4   9   1 305.771 112.129   3
   4   9   1 465.154 137.895   1
   4   9   1 462.571 154.540   5
   4   9   1 556.769 129.994   7
  -4  -9  -2 363.363 122.518   6
   4   9   2 142.676 74.2180   3
   4   9   2 155.694 55.8259   5
   4   9   2 222.900 85.1296   1
   4   9   2 217.466 85.1015   7
   5 -10  -3-10.4480 19.3789  11
  -5  10   3 32.5616 38.2327  10
  -5  10   3-23.9478 27.3229   8
  -5  10   3-2.93443 34.9387   7
   5 -10  -2 126.055 58.2611  11
  -5  10   2 190.752 79.8408  10
  -5  10   2 369.594 150.128   5
  -5  10   2 372.960 93.0492   8
  -5  10   2 222.602 97.7770   7
   5 -10  -1 135.168 64.9909  11
  -5  10   1 259.271 123.719   5
  -5  10   1 205.154 68.1583   8
  -5  10   1 127.562 76.9202   7
   5 -10   0-19.7045 33.1193  11
  -5  10   0 7.24491 35.7231   5
  -5  10   0 41.5882 13.4824   8
  -5  10   0 47.4246 56.3507   7
  -5  10   0 55.5252 32.7749   2
   5 -10   1 36.8390 39.6769  11
  -5  10  -1-13.6271 42.4667   5
  -5  10  -1 9.22450 22.8073   8
  -5  10  -1 4.13509 27.0752   7
  -5  10  -1 42.3242 29.2337   2
   5 -10   2 635.152 135.192  11
  -5  10  -2 792.290 190.823   5
  -5  10  -2 694.017 113.214   8
  -5  10  -2 136.002 62.6000   7
  -5  10  -2 472.777 104.356   2
   5 -10   3 265.239 69.3711   9
  -5  10  -3 155.439 69.6225   2
  -5   9   5-15.9517 43.6481   5
  -5   9   5 7.92451 33.4546   8
  -5   9   5 35.8874 49.4744  10
   5  -9  -4 18.8824 16.9811  11
  -5   9   4 54.4232 54.4092  10
  -5   9   4 76.7188 82.8951   5
  -5   9   4-50.4258 46.5036   8
  -5   9   4-16.1844 15.5140   1
  -5   9   3 259.201 60.6504   1
   5  -9  -3 104.451 41.7148  11
  -5   9   3 220.331 86.7306  10
  -5   9   3 93.4607 84.1528   5
  -5   9   3 185.625 63.5844   8
  -5   9   3 216.909 75.9283   7
  -5   9   2 2275.37 249.033  10
   5  -9  -2 1598.30 193.269  11
  -5   9   2 1708.78 313.607   5
  -5   9   2 2130.27 218.380   8
  -5   9   2 1958.75 236.274   7
  -5   9   2 1962.22 177.258   1
  -5   9   1 105.650 35.9717   1
   5  -9  -1 107.241 63.5406  11
  -5   9   1 88.6987 43.0339  10
  -5   9   1 236.116 108.612   5
  -5   9   1 94.2283 48.0771   8
  -5   9   1 120.104 59.8692   7
  -5   9   1 108.228 47.6468   2
   5  -9   0-3.28801 28.5852  11
  -5   9   0-43.2486 59.8588   5
  -5   9   0 23.4893 20.2971   8
  -5   9   0-5.19603 13.9042   1
  -5   9   0 23.6786 12.7386   2
  -5   9   0 47.4166 17.2608   7
   5  -9   1 1042.16 160.372  11
  -5   9  -1 934.538 212.396   5
  -5   9  -1 1025.40 142.430   8
  -5   9  -1 1145.39 151.053   2
  -5   9  -1 685.633 119.960   7
   5  -9   2 50.8126 25.4336  11
   5  -9   2 50.0459 30.1973   9
  -5   9  -2 108.605 70.3876   5
  -5   9  -2-32.0681 36.0613   2
  -5   9  -2 15.3230 15.7105   7
  -5   9  -3 1508.62 198.617   2
   5  -9   3 1752.06 220.887  11
   5  -9   3 1680.80 166.516   9
  -5   9  -3 2000.22 305.715   5
   5  -9   4 1239.49 193.504  11
   5  -9   4 1257.01 154.862   9
  -5   9  -4 1258.14 243.247   5
  -5   9  -4 1037.15 173.270   2
   5  -9   5 42.0441 28.4137  11
  -5   9  -5 80.6643 63.2511   5
   5  -9   5 98.6365 47.3286   9
  -5   9  -5 73.4665 40.4025   2
  -5   8   7 18.3441 20.0947  10
  -5   8   7 37.6542 36.0162   8
  -5   8   6-1.34845 51.4601  10
  -5   8   6-26.5117 33.2034   5
  -5   8   6 30.1475 35.0360   8
   5  -8  -5 282.033 66.6445  11
  -5   8   5 614.918 133.176  10
  -5   8   5 407.501 126.322   5
  -5   8   5 639.970 123.935   8
   5  -8  -4 24.3484 13.1075  11
  -5   8   4 52.1644 32.5405   1
  -5   8   4-9.64776 41.1334  10
  -5   8   4 77.1047 61.9609   5
  -5   8   4 24.4988 19.9861   8
   5  -8  -3 232.624 66.2549  11
  -5   8   3 299.256 94.3838  10
  -5   8   3 356.049 120.487   5
  -5   8   3 227.483 55.6718   1
  -5   8   3 284.229 79.9764   8
  -5   8   3 252.091 80.4428   7
  -5   8   3 248.913 44.2136   2
   5  -8  -2 115.015 47.1153  11
  -5   8   2 56.5781 48.4644  10
  -5   8   2 230.974 107.328   5
  -5   8   2 168.889 57.3774   8
  -5   8   2 70.0333 39.0976   7
   5  -8  -1 402.729 94.7543  11
  -5   8   1 398.117 96.0648  10
  -5   8   1 477.994 154.565   5
  -5   8   1 419.227 88.4923   8
  -5   8   1 450.945 84.8596   2
  -5   8   1 284.047 69.6264   7
   5  -8   0-17.4839 22.0017  11
  -5   8   0-4.40518 14.8114  10
  -5   8   0-39.5336 63.5813   5
  -5   8   0 28.9551 30.8137   2
  -5   8   0-8.28832 21.8642   7
   5  -8   1 189.430 69.4059  11
  -5   8  -1 281.522 109.556   5
  -5   8  -1 220.210 64.0629   2
  -5   8  -1 184.212 65.2973   7
   5  -8   2 818.923 140.390  11
  -5   8  -2 778.888 185.175   5
   5  -8   2 724.704 95.8852   9
  -5   8  -2 837.399 133.134   2
  -5   8  -2 460.971 89.0440   7
   5  -8   3 830.326 150.176  11
  -5   8  -3 1051.72 206.181   5
   5  -8   3 859.729 113.578   9
  -5   8  -3 1094.74 158.744   2
  -5   8  -3 724.714 104.549   7
   5  -8   4 4090.25 338.732  11
  -5   8  -4 4497.77 436.671   5
   5  -8   4 3898.88 267.827   9
  -5   8  -4 3965.85 322.367   2
   5  -8   5 4465.68 367.427  11
   5  -8   5 3946.73 295.303   9
  -5   8  -5 4562.01 445.112   5
  -5   8  -5 4185.57 358.622   2
   5  -8   6 95.0844 61.1747  11
  -5   8  -6 161.873 82.0382   5
   5  -8   6 67.4482 39.7556   9
  -5   8  -6 42.5032 22.0961   2
  -5   7   8 180.963 86.0076  10
  -5   7   8 81.0594 58.1039   5
  -5   7   8 168.086 74.5670   8
  -5   7   7 736.909 158.152  10
  -5   7   7 388.220 131.441   5
  -5   7   7 679.012 133.231   8
  -5   7   6 329.478 99.9661  10
  -5   7   6 220.625 93.1568   5
   5  -7  -6 181.321 45.6112  11
  -5   7   6 241.492 73.2821   8
   5  -7  -5 279.171 63.4687  11
  -5   7   5 348.116 105.032  10
  -5   7   5 309.066 112.510   5
  -5   7   5 326.560 91.0510   8
   5  -7  -4 35.4604 25.1770  11
  -5   7   4 144.773 66.5251  10
  -5   7   4 45.1960 52.1785   5
  -5   7   4 69.5601 31.1888   8
  -5   7   4 53.3903 16.3686   2
   5  -7  -3 3065.82 233.877  11
  -5   7   3 3159.15 357.523   5
  -5   7   3 3323.33 284.229  10
  -5   7   3 3440.81 269.321   8
  -5   7   3 3430.28 188.982   2
  -5   7   2 2752.76 174.024   1
   5  -7  -2 2373.86 215.859  11
  -5   7   2 3017.72 344.214   5
  -5   7   2 3131.22 262.492  10
  -5   7   2 2815.08 235.515   8
  -5   7   2 2966.48 257.570   7
  -5   7   1 140.248 34.3836   1
   5  -7  -1 67.8117 33.2469  11
  -5   7   1 117.394 73.6552   5
  -5   7   1 144.860 57.5879  10
   5  -7  -1 112.049 21.9570   9
  -5   7   1 126.790 43.0349   2
  -5   7   1 82.6582 44.7817   7
   5  -7   0 239.836 70.0440  11
  -5   7   0 136.198 72.5927   5
  -5   7   0 180.815 56.1782  10
   5  -7   0 217.809 37.6621   9
  -5   7   0 250.683 47.5304   1
  -5   7   0 220.040 62.0381   2
  -5   7   0 236.043 65.5717   7
   5  -7   1 2000.14 208.054  11
  -5   7  -1 1915.76 176.254  10
  -5   7  -1 2131.96 281.045   5
  -5   7  -1 1971.36 179.758   7
   5  -7   1 1026.93 139.536   7
  -5   7  -1 2057.73 195.260   2
   5  -7   2 659.864 122.818  11
  -5   7  -2 745.446 164.585   5
   5  -7   2 707.495 90.7134   9
  -5   7  -2 697.571 119.205   2
  -5   7  -2 583.797 93.6257   7
   5  -7   2 442.489 79.4590   7
   5  -7   3 2330.25 240.405  11
  -5   7  -3 2193.30 297.106   5
   5  -7   3 2294.86 185.458   9
  -5   7  -3 1741.91 153.600   7
  -5   7  -3 2295.30 234.309   2
   5  -7   4 1771.50 210.350  11
  -5   7  -4 1589.39 245.083   5
   5  -7   4 1576.80 162.046   9
  -5   7  -4 1290.21 120.313   7
  -5   7  -4 2023.81 224.209   2
   5  -7   5 1142.81 175.995  11
  -5   7  -5 1131.79 206.396   5
   5  -7   5 1144.04 146.708   9
  -5   7  -5 991.072 162.485   2
   5  -7   6 26.5353 28.0969  11
  -5   7  -6 64.5022 46.6557   5
   5  -7   6 11.7773 16.7873   9
  -5   7  -6 6.37321 17.9297   2
   5  -7   7 218.777 79.9248  11
  -5   7  -7 84.9188 60.5953   5
   5  -7   7 243.679 73.4385   9
  -5   7  -7 187.077 75.0410   2
  -5   6   8 209.917 78.7628  10
  -5   6   8 77.2702 48.5850   5
  -5   6   8 134.941 57.4581   8
  -5   6   7 171.826 76.8310  10
  -5   6   7 30.8148 57.6963   5
  -5   6   7 286.227 81.9430   8
   5  -6  -6 126.552 35.0827  11
  -5   6   6 99.1098 49.7247  10
  -5   6   6 238.534 93.9230   5
  -5   6   6 203.236 64.5165   8
   5  -6  -6 127.459 54.5474   3
  -5   6   5 1350.20 84.9702   2
   5  -6  -5 2247.29 170.168  11
   5  -6  -5 2623.33 236.676   3
  -5   6   5 843.543 119.929  11
  -5   6   5 2787.99 307.227   5
  -5   6   5 2875.54 270.716  10
  -5   6   5 2334.24 219.164   8
   5  -6  -4 1108.82 126.472  11
  -5   6   4 501.874 84.8052  11
  -5   6   4 1289.44 172.041  10
  -5   6   4 1324.01 220.232   5
  -5   6   4 1435.40 164.738   8
   5  -6  -4 1628.08 190.244   3
  -5   6   4 1260.73 98.2952   2
   5  -6  -3 15074.9 624.253   3
   5  -6  -3 13661.7 509.035  11
  -5   6   3 15423.2 769.658   5
  -5   6   3 15565.2 617.492  10
  -5   6   3 15416.8 569.710   8
  -5   6   2 9.86518 31.0709   5
   5  -6  -2 93.0059 39.2174  11
  -5   6   2 93.4886 45.1285  10
  -5   6   2 79.2350 24.9518   1
   5  -6  -2 123.925 54.8414   3
  -5   6   1 8455.89 273.297   1
   5  -6  -1 9252.95 483.752   3
   5  -6  -1 8660.32 409.613  11
  -5   6   1 9689.52 595.650   5
  -5   6   1 8517.64 421.119  10
   5  -6  -1 5455.75 204.715   9
   5  -6  -1 6411.03 359.755   7
  -5   6   1 6314.08 361.311   2
  -5   6   0 1838.83 252.209   5
  -5   6   0 1961.92 176.496  10
   5  -6   0 1751.63 105.943   9
  -5   6   0 1709.94 108.809   1
  -5   6   0 1861.93 170.005   7
   5  -6   0 1682.46 158.424   7
  -5   6   0 1871.04 182.812   2
   5  -6   0 2024.11 192.538  11
  -5   6  -1 190.415 81.8992   5
   5  -6   1 179.679 63.7469  11
  -5   6  -1 169.839 50.3556  10
   5  -6   1 268.525 45.5530   9
  -5   6  -1 226.650 64.8974   2
  -5   6  -1 153.209 46.5003   7
   5  -6   2 1392.99 168.000  11
  -5   6  -2 1461.71 131.853  10
  -5   6  -2 1298.01 216.116   5
  -5   6  -2 1182.68 122.023   7
   5  -6   2 1131.77 121.616   7
  -5   6  -2 1326.40 165.078   2
   5  -6   3-47.2561 41.0218  11
  -5   6  -3 29.3247 42.1553   5
   5  -6   3 30.2186 23.2213   9
  -5   6  -3 12.4959 13.4040   2
  -5   6  -3 7.27689 12.3246   7
   5  -6   3 3.56399 7.66937   7
   5  -6   4 2654.83 253.795  11
  -5   6  -4 2945.72 321.708   5
   5  -6   4 2776.23 212.957   9
  -5   6  -4 2422.78 147.781   7
  -5   6  -4 2801.27 263.148   2
   5  -6   5 1288.10 164.907   6
   5  -6   5 1824.44 213.372  11
  -5   6  -5 1745.21 245.332   5
   5  -6   5 2023.70 189.207   9
  -5   6  -5 1940.37 221.703   2
  -5   6  -6 1037.32 186.742   5
   5  -6   6 894.079 131.732   9
   5  -6   6 778.558 140.240  11
  -5   6  -6 1018.07 167.042   2
   5  -6   7 203.282 69.4906  11
  -5   6  -7 204.077 88.2813   5
   5  -6   7 217.206 69.5930   9
  -5   6  -7 202.009 76.3054   2
   5  -6   8 801.700 146.525  11
   5  -6   8 616.059 121.930   9
  -5   6  -8 1093.00 183.892   2
  -5   5   9 316.233 101.497  10
  -5   5   9 197.940 68.4872   8
  -5   5   8-13.0676 26.0508  10
  -5   5   8 15.2396 41.6503   5
  -5   5   8-37.3939 38.7604   8
   5  -5  -8 31.5589 27.2994   3
  -5   5   7 460.912 112.948  10
  -5   5   7 366.330 107.363   5
  -5   5   7 518.537 103.243   8
   5  -5  -7 412.087 93.3160   3
  -5   5   6 1980.78 99.2550   2
   5  -5  -6 2233.89 215.442   3
  -5   5   6 2001.24 248.118   5
   5  -5  -6 2012.05 142.732  11
   5  -5  -6 1662.71 164.762   1
  -5   5   6 2222.33 210.920   8
  -5   5   6 2204.77 240.181  10
  -5   5   5 59.2311 28.2200   2
   5  -5  -5 106.893 34.9845  11
  -5   5   5 89.5062 22.4724   2
  -5   5   5 77.1708 55.1706  10
  -5   5   5 91.3235 46.2896   8
   5  -5  -5 92.9967 58.5255   3
   5  -5  -4 7291.52 422.275   3
   5  -5  -4 7256.73 344.742  11
  -5   5   4 5827.15 312.914  11
  -5   5   4 7874.74 450.826  10
  -5   5   4 7856.49 405.987   8
  -5   5   4 6428.83 307.312   2
   5  -5  -3 115.409 41.0140  11
  -5   5   3 109.148 41.9810  11
  -5   5   3 129.647 40.0851   2
  -5   5   3 165.730 59.3911  10
   5  -5  -3 77.6571 44.1320   3
   5  -5  -2 2061.92 205.213   3
   5  -5  -2 1997.17 171.443  11
  -5   5   2 1757.59 160.405  11
  -5   5   2 1990.92 197.309  10
   5  -5  -2 1800.65 180.440   7
   5  -5  -1 1102.02 130.174  11
  -5   5   1 1171.07 140.056  10
   5  -5  -1 1248.70 160.199   3
   5  -5  -1 1105.48 131.839   7
  -5   5   0 66.8040 12.8155   1
   5  -5   0 139.501 49.2881  11
  -5   5   0 170.073 51.8646  10
  -5   5   0 121.368 41.6346   2
   5  -5   0 69.2792 17.1907   9
   5  -5   0 60.8963 40.9096   3
   5  -5   1 354.451 79.3737  11
  -5   5  -1 358.725 66.1650  10
  -5   5  -1 360.919 77.4683   2
   5  -5   1 336.638 47.9354   9
   5  -5   1 341.935 88.2731   3
   5  -5   1 318.899 55.1665   7
   5  -5   2 8204.60 438.246  11
  -5   5  -2 8375.89 346.870  10
   5  -5   2 7700.30 325.830   7
  -5   5  -2 8126.00 443.080   2
   5  -5   3 717.126 126.470   6
   5  -5   3 1066.96 144.433  11
   5  -5   3 894.318 103.313   9
  -5   5  -3 920.153 141.259   2
   5  -5   3 854.232 85.6029   7
   5  -5   4 2049.51 201.980   6
   5  -5   4 2142.36 215.176  11
   5  -5   4 2281.00 188.617   9
  -5   5  -4 2594.30 253.405   2
   5  -5   5 2231.40 207.642   6
   5  -5   5 3086.85 268.169  11
  -5   5  -5 3518.73 341.797   5
   5  -5   5 2887.32 230.281   9
  -5   5  -5 3285.62 292.924   2
   5  -5   6 7519.67 462.494  11
  -5   5  -6 8309.58 539.129   5
   5  -5   6 7609.81 427.210   9
  -5   5  -6 8461.84 507.355   2
   5  -5   7 30.6561 37.4935  11
  -5   5  -7-21.4139 38.5407   5
   5  -5   7 121.423 48.3565   9
  -5   5  -7 19.2108 41.6252   2
   5  -5   8 435.948 103.853  11
   5  -5   8 289.529 83.5767   9
  -5   5  -8 475.292 118.830   2
  -5   4  10 709.677 150.163  10
  -5   4  10 720.276 131.873   8
   5  -4 -10 591.696 129.508   4
  -5   4   9 71.1846 50.2501   5
  -5   4   9 22.3852 35.3236  10
  -5   4   9 45.3335 26.6468   8
   5  -4  -9 34.7406 30.0109   4
   5  -4  -8 1654.01 179.578   3
  -5   4   8 1724.11 225.440   5
  -5   4   8 1753.04 228.804  10
  -5   4   8 1851.64 204.197   8
  -5   4   7 23.1051 9.18070  11
  -5   4   7 94.4624 48.1205   3
  -5   4   7 109.223 54.9396  10
   5  -4  -7 60.8700 40.1369   3
  -5   4   7 61.7422 35.2528   8
  -5   4   6-7.56737 11.7301  11
  -5   4   6-13.8433 29.1517   3
   5  -4  -6 17.9963 18.3672   3
  -5   4   6-10.3086 26.4026   8
   5  -4  -6 1.09303 15.2316  11
  -5   4   6 3.34403 12.6944   2
   5  -4  -6-27.1656 24.2823   1
   5  -4  -5 4099.70 307.869   3
  -5   4   5 4187.88 233.387   2
  -5   4   5 4384.44 341.214  10
  -5   4   5 4658.86 297.800   8
   5  -4  -5 4562.49 244.965  11
   5  -4  -5 3816.78 238.735   1
  -5   4   5 4901.08 354.655   3
  -5   4   4 2897.02 260.297   3
   5  -4  -4 2664.98 231.614   3
   5  -4  -4 2611.66 181.730  11
  -5   4   4 2635.23 242.023  10
   5  -4  -4 2655.07 162.288   1
  -5   4   4 2834.68 217.436   8
  -5   4   3 26683.1 1044.89   3
   5  -4  -3 30529.0 1055.71   3
   5  -4  -3 29675.6 942.222  11
  -5   4   3 30228.7 1056.76  10
   5  -4  -3 29820.7 1013.66   7
  -5   4   3 30422.0 1005.39   4
  -5   4   2 1710.20 188.790   3
   5  -4  -2 1523.80 174.907   3
   5  -4  -2 1377.97 138.341  11
  -5   4   2 1139.10 129.021  11
  -5   4   2 1450.18 159.017  10
   5  -4  -2 1431.67 151.165   7
  -5   4   2 1464.23 149.782   4
  -5   4   1 5699.63 373.470   3
   5  -4  -1 6426.90 416.087   6
   5  -4  -1 6466.59 380.586   3
  -5   4   1 6135.90 323.404  11
  -5   4   1 6018.92 332.960  10
   5  -4  -1 5466.32 314.656  11
   5  -4   0 6270.29 401.406   6
   5  -4   0 6767.25 391.453   3
   5  -4   0 6143.31 336.467  11
  -5   4   0 6585.14 342.892  11
  -5   4   0 6153.85 323.666  10
   5  -4   0 5713.08 285.840   7
  -5   4   0 6377.16 351.769   2
  -5   4  -1 12475.4 364.074   1
   5  -4   1 13344.6 615.903   6
   5  -4   1 13657.1 605.317   3
   5  -4   1 12385.1 544.557  11
  -5   4  -1 13096.5 490.772  10
   5  -4   1 12792.5 429.313   9
   5  -4   1 12596.3 450.660   7
  -5   4  -1 13356.6 576.287   2
   5  -4   2 11008.0 547.428   6
   5  -4   2 12055.8 534.613  11
  -5   4  -2 11411.7 389.600   1
  -5   4  -2 12539.4 428.560  10
   5  -4   2 11579.2 564.114   3
   5  -4   2 11068.9 386.767   7
  -5   4  -2 12619.1 569.402   2
   5  -4   3 5007.60 324.652   6
   5  -4   3 5295.96 330.980  11
  -5   4  -3 4558.12 236.578   1
  -5   4  -3 5450.65 209.215  10
   5  -4   3 4658.49 258.643   9
  -5   4  -3 5374.10 354.057   2
   5  -4   3 5085.12 345.854   3
   5  -4   4 2207.46 203.157   6
   5  -4   4 2338.01 215.388  11
  -5   4  -4 2302.74 174.259   1
   5  -4   4 2362.47 189.336   9
  -5   4  -4 2327.91 231.168   2
   5  -4   5 1568.35 158.317   6
   5  -4   5 1818.57 193.615  11
  -5   4  -5 1677.90 161.636   1
   5  -4   5 1697.77 170.700   9
  -5   4  -5 1890.71 216.334   2
   5  -4   6 69.7608 29.6366   6
   5  -4   6 12.1180 16.3849  11
   5  -4   6 54.7682 31.1479   9
  -5   4  -6 70.9557 52.0348   2
   5  -4   7 310.790 81.5264  11
  -5   4  -7 344.605 94.2150   5
   5  -4   7 229.893 67.8386   9
  -5   4  -7 430.853 105.502   2
   5  -4   8 55.9022 35.1900  11
   5  -4   8 75.8879 37.9418   9
  -5   4  -8 56.9769 45.6120   2
   5  -4   9-0.19799 22.6812  11
   5  -4   9-25.5480 29.8003   9
  -5   4  -9 26.6330 37.3506   2
  -5   3  10 866.657 160.745  10
  -5   3  10 748.264 131.053   8
   5  -3 -10 649.000 130.100   4
  -5   3   9 418.551 114.926  10
  -5   3   9 188.739 77.3320   5
  -5   3   9 514.747 82.3677   9
   5  -3  -9 452.875 93.9039   3
  -5   3   9 519.234 106.541   8
   5  -3  -9 484.483 106.580   4
  -5   3   8 2.71072 14.8635   9
   5  -3  -8-16.0425 29.2164   3
  -5   3   8 36.2680 14.0251   8
  -5   3   8-12.9297 38.5039  10
   5  -3  -8-39.9188 30.3457   4
  -5   3   7 11.3346 6.75032  11
  -5   3   7-17.8894 36.3404   3
  -5   3   7 58.6901 21.8116   9
   5  -3  -7 44.4834 32.8034   3
  -5   3   7-18.2176 25.4993   8
   5  -3  -7 40.8217 28.0281   1
  -5   3   7-11.3827 19.4600   2
   5  -3  -6 951.095 115.624   1
  -5   3   6 892.632 102.437   2
  -5   3   6 748.485 87.8262  11
  -5   3   6 1008.73 158.067   3
   5  -3  -6 897.536 140.743   3
  -5   3   6 940.281 127.165   8
   5  -3  -5 1615.55 187.307   3
   5  -3  -5 1408.41 128.455  11
  -5   3   5 1467.20 138.247   2
  -5   3   5 1527.80 155.653   8
  -5   3   5 1666.17 168.519   4
   5  -3  -5 1387.08 127.871   1
  -5   3   5 1657.02 200.760   3
   5  -3  -4 645.712 84.0967  11
  -5   3   4 795.532 136.856   3
   5  -3  -4 733.430 118.291   3
  -5   3   4 582.880 93.6447   4
   5  -3  -4 653.616 73.4857   1
  -5   3   3 3357.70 280.175   3
   5  -3  -3 3607.95 269.743   3
  -5   3   3 2310.99 182.213  11
   5  -3  -3 3221.88 208.813  11
   5  -3  -3 3340.48 150.305   1
   5  -3  -3 3342.44 241.172   7
  -5   3   3 3414.17 227.937   4
  -5   3   2 2530.84 234.011   3
   5  -3  -2 2658.35 253.544   6
   5  -3  -2 2791.97 234.469   3
  -5   3   2 2581.49 189.412  11
   5  -3  -2 2485.71 185.580  11
  -5   3   2 2616.25 190.330   4
   5  -3  -1 480.366 104.134   6
   5  -3  -1 503.859 80.3574  11
  -5   3   1 465.683 78.4023  11
  -5   3   1 517.219 97.7525   3
   5  -3  -1 475.752 99.6512   3
   5  -3  -1 487.853 81.7375   7
  -5   3   0 5953.33 367.251   3
   5  -3   0 5157.75 348.110   6
   5  -3   0 5145.04 297.459  11
  -5   3   0 5385.10 302.083  11
   5  -3   0 5187.27 253.197   7
   5  -3   1 228.791 68.4914   6
   5  -3   1 160.162 46.0950  11
  -5   3  -1 221.608 63.8494   3
   5  -3   1 190.375 63.0710   3
  -5   3  -1 184.521 56.3418   2
   5  -3   1 242.267 37.5627   7
   5  -3   2 7977.73 418.872   6
  -5   3  -2 7699.02 435.454   3
   5  -3   2 8737.21 443.035   3
   5  -3   2 6282.26 234.340   7
  -5   3  -2 8201.61 424.605   2
  -5   3  -2 7822.00 271.678   1
   5  -3   2 8173.85 397.889  11
   5  -3   3 4290.27 286.279   6
  -5   3  -3 4042.61 211.603   1
   5  -3   3 4154.12 282.833  11
   5  -3   3 4836.92 318.819   3
  -5   3  -3 4263.26 173.693  10
   5  -3   3 3690.32 223.335   9
  -5   3  -3 4556.70 319.738   2
   5  -3   4 8193.21 405.710   6
  -5   3  -4 8719.16 380.958   1
   5  -3   4 8488.28 456.163   3
   5  -3   4 8360.03 394.710   9
   5  -3   4 8137.08 434.562  11
  -5   3  -4 8627.37 485.037   2
   5  -3   5 1963.75 167.046   6
  -5   3  -5 2080.59 180.105   1
   5  -3   5 2160.80 205.322  11
   5  -3   5 1952.70 182.756   9
  -5   3  -5 2203.61 230.147   2
   5  -3   6 11853.7 582.090  11
   5  -3   6 12021.6 571.624   9
  -5   3  -6 13101.7 663.737   2
   5  -3   6 13412.3 483.526   6
   5  -3   7 543.827 104.517  11
   5  -3   7 696.752 117.969   9
  -5   3  -7 600.513 131.427   2
   5  -3   8-11.9046 38.7909  11
   5  -3   8 45.8565 38.6677   9
  -5   3  -8-34.6353 32.7537   2
   5  -3   9 32.6323 36.8968  11
   5  -3   9-7.66730 30.8833   9
  -5   3  -9-20.3037 41.2609   2
  -5   2  10 53.0884 49.7889  10
  -5   2  10 108.307 43.2678   9
  -5   2  10 145.417 57.5681   8
   5  -2 -10 140.337 63.4413   4
   5  -2  -9 2613.00 240.839   3
  -5   2   9 2481.16 191.877   9
  -5   2   9 1920.59 200.783   8
   5  -2  -9 2243.98 233.378   4
  -5   2   8 4248.76 267.054   2
   5  -2  -8 5271.99 358.963   3
  -5   2   8 4532.39 354.709   5
  -5   2   8 5487.73 277.238   9
  -5   2   8 4949.18 322.362   8
   5  -2  -8 5065.43 347.148   4
  -5   2   8 5320.99 387.239   3
  -5   2   7 886.216 109.486   2
  -5   2   7 689.759 83.6720  11
   5  -2  -7 816.261 120.271   1
  -5   2   7 831.305 145.136   3
  -5   2   7 967.685 97.1064   9
   5  -2  -7 1056.03 153.381   3
  -5   2   7 1045.43 129.134   8
   5  -2  -7 805.619 120.513   4
  -5   2   6 154.736 44.2397   2
  -5   2   6 217.551 76.0986   3
  -5   2   6 169.063 33.2575   9
   5  -2  -6 176.647 66.2372   3
  -5   2   6 191.609 57.9186   8
  -5   2   6 147.580 53.3428   4
   5  -2  -6 167.084 53.2721   1
   5  -2  -5 7577.77 423.167   3
  -5   2   5 6419.72 346.935   2
   5  -2  -5 5874.68 310.785   1
  -5   2   5 7320.17 258.068   9
  -5   2   5 7220.59 353.603   8
  -5   2   5 6241.83 347.280   4
  -5   2   5 6848.08 441.981   3
   5  -2  -4 109.321 36.9208  11
  -5   2   4 134.365 55.2220   3
  -5   2   4 115.695 40.5704   2
  -5   2   4 139.940 20.8781   9
   5  -2  -4 95.7614 41.5620   3
  -5   2   4 150.746 44.1575   4
   5  -2  -4 98.8037 26.8560   1
   5  -2  -3 1377.62 183.675   6
   5  -2  -3 1455.36 166.629   3
   5  -2  -3 1252.68 88.1143   1
   5  -2  -3 1408.79 130.973  11
  -5   2   3 1206.99 122.247   4
  -5   2   3 1592.97 186.976   3
  -5   2   2 2823.15 252.237   3
   5  -2  -2 2817.84 254.697   6
   5  -2  -2 2836.52 238.365   3
  -5   2   2 2286.87 182.815  11
   5  -2  -2 2512.51 182.639  11
  -5   2   2 2433.73 94.6125   9
  -5   2   2 2499.84 168.520   4
   5  -2  -1 745.218 124.973   6
   5  -2  -1 663.517 91.9723  11
  -5   2   1 627.131 90.0247  11
  -5   2   1 482.611 44.4893   9
  -5   2   1 579.089 107.093   3
   5  -2  -1 676.071 84.8962   7
  -5   2   0 2556.35 231.956   3
   5  -2   0 2705.48 239.638   6
   5  -2   0 2756.91 199.936  11
  -5   2   0 2756.75 139.092   9
   5  -2   0 2529.57 160.643   7
   5  -2   1 3710.17 270.214   6
  -5   2  -1 3441.77 270.049   3
   5  -2   1 3351.53 228.469  11
  -5   2  -1 3176.91 175.729   9
   5  -2   1 3218.16 160.188   7
   5  -2   2-5.50952 9.76318   6
   5  -2   2 23.2275 27.6890  11
  -5   2  -2 22.5820 24.9873  11
  -5   2  -2-10.7332 13.7422   9
  -5   2  -2-3.19239 14.8011   3
  -5   2  -2 15.6430 10.7857   1
   5  -2   2 14.2043 21.9462   3
   5  -2   2 1.44466 3.18691   7
   5  -2   2 5.64595 4.85482   7
   5  -2   3 7558.96 382.998   6
  -5   2  -3 6923.68 412.619   3
   5  -2   3 8012.12 418.846   3
   5  -2   3 7299.22 380.516  11
  -5   2  -3 6523.96 333.705   9
  -5   2  -3 7322.79 419.224   2
  -5   2  -3 6929.58 304.601   1
   5  -2   4 7619.97 375.996   6
  -5   2  -4 7178.39 426.269   3
   5  -2   4 7996.12 421.905   3
  -5   2  -4 7160.00 370.241   9
   5  -2   4 7867.41 375.190   9
  -5   2  -4 8031.98 453.903   2
   5  -2   4 7073.66 392.429  11
  -5   2  -4 7562.89 351.846   1
  -5   2  -5 7002.00 432.860   3
   5  -2   5 7354.65 404.582  11
   5  -2   5 7761.33 420.424   3
   5  -2   5 7757.02 400.398   9
  -5   2  -5 8140.77 474.153   2
  -5   2  -5 7571.96 383.309   1
   5  -2   5 7843.04 362.704   6
   5  -2   6 1074.10 141.305  11
  -5   2  -6 1072.03 162.934   2
   5  -2   6 1016.49 136.213   9
   5  -2   6 1193.58 106.932   6
   5  -2   7 39.8403 27.7515  11
   5  -2   7 120.209 50.2364   9
  -5   2  -7 85.9406 50.5471   2
   5  -2   8 783.387 124.268  11
   5  -2   8 602.223 120.007   9
  -5   2  -8 844.129 156.222   2
   5  -2   9 60.9251 39.7737  11
   5  -2   9 1.76631 26.3328   9
  -5   2  -9 65.7751 51.4995   2
   5  -1 -10 3093.02 277.797   3
  -5   1  10 3482.64 255.350   9
  -5   1  10 2197.97 210.497   8
   5  -1 -10 2591.45 265.977   4
  -5   1   9 550.923 90.8883   9
   5  -1  -9 623.547 123.947   3
  -5   1   9 465.371 97.7639   8
   5  -1  -9 530.810 103.506   4
   5  -1  -8 7.00776 21.4536   3
  -5   1   8-18.5703 18.1370   9
  -5   1   8 8.42069 12.2721   5
  -5   1   8-9.37360 21.3722   8
  -5   1   8-33.0536 8.77527   2
   5  -1  -8 12.7730 17.6000   4
   5  -1  -7 5267.23 371.810   3
  -5   1   7 5361.30 312.499   2
  -5   1   7 5166.09 381.476   5
  -5   1   7 5380.27 276.656   9
  -5   1   7 5541.25 313.354   8
   5  -1  -7 5576.10 331.301   4
  -5   1   6 368.623 75.8752   2
  -5   1   6 279.251 84.7883   3
  -5   1   6 293.261 51.4737   9
   5  -1  -6 225.854 78.1576   3
  -5   1   6 170.337 69.6905   5
  -5   1   6 392.770 73.0106   8
   5  -1  -6 331.821 72.2582   4
   5  -1  -5 9920.37 517.485   3
  -5   1   5 10578.9 472.333   2
  -5   1   5 9172.64 420.300   4
  -5   1   5 10483.5 578.695   3
   5  -1  -4 640.435 126.497   6
  -5   1   4 787.279 142.152   3
  -5   1   4 657.541 110.400   2
   5  -1  -4 663.332 115.024   3
  -5   1   4 858.048 95.1074   4
   5  -1  -3 629.793 120.623   6
   5  -1  -3 594.437 85.8353  11
  -5   1   3 382.822 70.8801  11
  -5   1   3 687.248 126.200   3
   5  -1  -3 548.106 104.602   3
  -5   1   3 552.392 71.9376   4
   5  -1  -2 10802.5 558.724   6
   5  -1  -2 12600.3 566.990   3
   5  -1  -2 11930.2 484.136  11
  -5   1   2 10523.0 469.795  11
  -5   1   2 11694.4 420.916   4
  -5   1   2 11949.2 589.435   3
   5  -1  -1 13596.4 615.131   6
  -5   1   1 14510.0 634.737   6
   5  -1  -1 13567.5 535.883  11
   5  -1  -1 13293.0 408.562   1
  -5   1   1 13555.7 631.310   3
  -5   1   0 1431.86 176.066   3
   5  -1   0 1650.81 178.690   6
  -5   1   0 1892.65 193.508   6
   5  -1   0 1922.29 97.6554   1
   5  -1   0 1799.62 158.200  11
  -5   1   0 1763.90 117.769   9
   5  -1   1 4.65980 7.31675   6
  -5   1  -1-32.2045 30.9013   6
   5  -1   1 5.60647 16.7664  11
  -5   1  -1-3.86147 12.5023   3
  -5   1  -1-0.48256 7.96856   9
   5  -1   1-13.4835 17.8233   3
   5  -1   2 7085.05 382.997   6
  -5   1  -2 7046.79 413.216   3
  -5   1  -2 7368.09 399.519   6
   5  -1   2 7479.44 405.462   3
  -5   1  -2 7340.32 373.072  11
  -5   1  -2 7045.66 324.626   9
   5  -1   2 6936.66 361.304  11
   5  -1   2 7319.57 246.572   7
   5  -1   3 687.850 103.317   6
   5  -1   3 642.329 97.4850  11
  -5   1  -3 750.237 106.341  11
  -5   1  -3 666.578 113.130   3
  -5   1  -3 555.559 82.7970   9
  -5   1  -3 659.709 86.3048   1
   5  -1   3 604.180 102.231   3
   5  -1   4 774.518 104.184   6
   5  -1   4 845.737 116.207  11
  -5   1  -4 737.860 125.198   2
  -5   1  -4 707.222 63.6331  10
  -5   1  -4 641.870 111.612   3
   5  -1   4 898.935 126.346   3
  -5   1  -4 722.409 98.0298   1
  -5   1  -5 25.3301 15.5580   1
   5  -1   5 13.0392 20.1476   6
   5  -1   5 5.36068 21.8689  11
  -5   1  -5 9.62701 6.11087  10
  -5   1  -5 20.7137 26.4083   2
  -5   1  -5 15.8173 17.3956   3
  -5   1  -5-6.51431 39.1904   5
   5  -1   5 4.69979 13.0674   3
   5  -1   6-10.7663 11.9796   6
   5  -1   6 2.68537 14.2586  11
  -5   1  -6-5.92971 37.4952   2
  -5   1  -6-1.34664 20.9675   3
  -5   1  -6 17.3017 12.1189   5
   5  -1   6 10.0550 20.2095   3
   5  -1   7 32.3437 22.6031  11
  -5   1  -7 54.7545 45.7877   2
   5  -1   8 270.427 70.9153  11
  -5   1  -8 368.338 104.126   2
   5  -1   9 1501.21 172.338  11
  -5   1  -9 1617.59 219.419   2
   5   0 -10 10.9915 26.0783   3
  -5   0  10 20.6920 33.3429   9
  -5   0  10 38.4478 30.5694   8
   5   0 -10 14.0755 27.2414   4
   5   0  -9 67.3009 45.7844   3
  -5   0   9 37.5794 31.6544   9
  -5   0   9-6.56625 14.9490   8
   5   0  -9 53.5333 27.8688   4
  -5   0   8 895.052 104.055  11
  -5   0   8 1072.17 128.313   9
   5   0  -8 1011.51 172.263   3
  -5   0   8 1097.39 128.815   8
  -5   0   8 1201.81 172.835   5
   5   0  -8 1154.20 145.906   4
   5   0  -7 6044.91 416.249   3
  -5   0   7 5274.72 291.734  11
  -5   0   7 6406.88 432.385   5
  -5   0   7 6391.61 324.791   8
   5   0  -7 6568.52 345.325   4
  -5   0   6 470.135 90.4772   2
  -5   0   6 434.684 73.7429  11
   5   0  -6 447.795 105.659   3
  -5   0   6 506.257 111.785   5
  -5   0   6 335.183 67.7774   8
  -5   0   5 135.136 63.2030   6
  -5   0   5 61.6188 28.7070  11
  -5   0   5 92.7444 49.6564   3
   5   0  -5 135.896 62.7431   3
  -5   0   5 45.0831 28.2560   2
  -5   0   5 67.4103 31.5053   5
   5   0  -5 108.905 34.2311   4
   5   0  -4 2287.96 230.597   3
   5   0  -4 2451.21 238.220   6
  -5   0   4 2349.59 241.768   6
  -5   0   4 2388.06 210.095   2
  -5   0   4 2403.42 178.623  11
  -5   0   4 2240.01 241.829   5
  -5   0   4 2280.79 247.795   3
  -5   0   3 2.02993 11.6406  11
  -5   0   3-22.1337 21.5087   3
   5   0  -3-29.5308 34.3432   3
   5   0  -3-0.70156 24.8957   6
  -5   0   3 31.2127 23.8836   5
  -5   0   3 4.52915 6.78347   4
   5   0  -2 1959.72 204.700   6
  -5   0   2 2040.52 166.124  11
  -5   0   2 2016.27 221.717   5
  -5   0   2 1904.13 113.106   4
  -5   0   2 2001.21 220.351   3
  -5   0   1 23.7386 29.6357   6
   5   0  -1 78.3511 25.3984  11
  -5   0   1 68.5149 38.9446   3
   5   0  -1 78.9107 39.9008   6
   5   0   0 1226.93 153.418   6
  -5   0   0 1292.86 162.014   6
   5   0   0 1301.65 135.298  11
   5   0   0 1385.72 102.882   1
  -5   0   0 1328.89 169.345   3
   5   0   1 3209.38 248.985   6
  -5   0  -1 3111.67 254.421   6
   5   0   1 3114.64 251.979   3
   5   0   1 3294.93 223.071  11
  -5   0  -1 2997.18 275.669   5
  -5   0  -1 3017.63 189.563   9
   5   0   1 3178.06 182.460   7
  -5   0  -1 3181.30 264.891   3
   5   0   1 3477.88 185.322   1
   5   0   2 482.056 88.3867   6
  -5   0  -2 479.489 97.2022   6
   5   0   2 423.937 73.7325  11
  -5   0  -2 430.683 80.3133  11
  -5   0  -2 353.655 82.5870   3
  -5   0  -2 511.160 74.8108   9
   5   0   2 434.767 87.2758   3
  -5   0  -2 478.660 114.055   5
   5   0   2 488.821 70.8593   1
   5   0   2 427.555 48.7389   7
  -5   0  -3 4008.81 277.104   6
   5   0   3 3635.46 263.695   3
   5   0   3 3504.75 246.723  11
  -5   0  -3 3601.76 252.752  11
  -5   0  -3 4064.67 320.079   5
  -5   0  -3 3786.66 240.147   9
   5   0   3 3823.80 155.722   7
   5   0   3 3570.65 252.282   6
  -5   0  -3 3812.26 290.788   3
  -5   0  -4 25427.8 652.136   6
   5   0   4 22195.8 617.064   3
   5   0   4 24921.4 627.232  11
  -5   0  -4 23218.9 450.476  10
  -5   0  -4 23405.6 757.604   5
  -5   0  -4 22378.7 579.030   1
   5   0   4 25811.0 622.083   6
  -5   0  -4 22269.0 671.614   3
  -5   0  -5 30059.9 971.901   6
   5   0   5 24404.5 944.601   3
   5   0   5 29240.8 986.926  11
  -5   0  -5 26834.0 833.432  10
  -5   0  -5 22748.8 1028.83   5
  -5   0  -5 26876.5 977.480   1
  -5   0  -5 30846.3 1082.64   2
   5   0   5 33892.9 964.650   6
  -5   0  -5 22856.8 975.072   3
   5   0   6 1486.68 153.706   3
  -5   0  -6 1377.27 103.926  10
  -5   0  -6 1002.26 145.380   3
   5   0   6 1626.37 167.838  11
  -5   0  -6 663.373 133.726   5
  -5   0  -6 1859.56 212.308   2
   5   0   6 1672.59 137.873   6
   5   0   7 150.673 55.0217  11
  -5   0  -7 99.4866 60.5517   2
   5   0   8 506.688 97.1845  11
  -5   0  -8 456.962 118.805   2
   5   0   9 2052.98 205.025  11
  -5   0  -9 2551.16 293.849   2
   5   1 -10 1179.38 192.333   3
  -5  -1  10 1223.63 157.689   9
  -5  -1  10 705.047 101.144   8
   5   1 -10 1125.75 161.799   4
   5   1  -9 44.9057 63.0520   3
  -5  -1   9-21.3252 23.1997   9
  -5  -1   9 11.7125 24.0208   8
   5   1  -9-17.7868 28.9877   4
  -5  -1   8 21.8889 19.7598  11
   5   1  -8 9.78739 22.4074   3
  -5  -1   8 80.1678 38.3927   5
  -5  -1   8 15.9370 10.7611   8
   5   1  -8 54.4041 30.5787   4
  -5  -1   7 5639.90 414.160   6
  -5  -1   7 4142.75 266.214  11
  -5  -1   7 5699.35 399.472   5
  -5  -1   7 5051.53 275.378   8
   5   1  -7 5189.31 291.270   4
   5   1  -7 5554.74 409.819   3
  -5  -1   6 3482.76 323.883   6
  -5  -1   6 2878.40 216.603  11
  -5  -1   6 3672.40 322.563   5
  -5  -1   6 3584.55 212.157   8
   5   1  -6 3518.20 313.865   3
  -5  -1   5 12485.0 644.076   6
  -5  -1   5 12045.4 509.635  11
  -5  -1   5 12323.7 650.711   5
   5   1  -5 12126.6 440.665   4
   5   1  -5 12628.6 640.875   3
   5   1  -4 28.2256 13.4193   6
  -5  -1   4 43.3790 30.5624   3
  -5  -1   4-1.61606 34.7947   6
  -5  -1   4 95.5569 40.5146  11
  -5  -1   4 42.8467 16.8616   2
   5   1  -4 45.7191 42.4027   3
  -5  -1   4 18.7318 22.0798   5
  -5  -1   3 13.9344 14.4707  11
  -5  -1   3 17.3109 12.8053   3
  -5  -1   3 21.8497 31.1271   2
   5   1  -3 6.92666 17.6137   3
  -5  -1   3 38.1470 27.5496   5
   5   1  -2 7625.48 442.774   6
  -5  -1   2 7980.43 384.480  11
  -5  -1   2 8043.91 491.476   5
  -5  -1   2 8175.33 491.389   3
  -5  -1   1 3168.51 268.486   6
  -5  -1   1 3247.22 294.251   5
  -5  -1   1 2796.28 108.667   4
  -5  -1   1 2975.70 273.009   3
   5   1  -1 3467.23 270.288   6
   5   1   0 17179.9 720.918   3
  -5  -1   0 16286.0 717.537   6
  -5  -1   0 15744.0 760.732   5
   5   1   0 16305.7 582.982   1
   5   1   0 16861.3 628.666   7
  -5  -1   0 17260.0 753.248   3
   5   1   0 17412.4 714.822   6
  -5  -1  -1 18416.3 753.902   6
   5   1   1 17740.4 737.287   3
  -5  -1  -1 18227.3 685.152  11
  -5  -1  -1 18332.1 816.282   5
   5   1   1 17511.2 628.766   1
   5   1   1 17129.8 621.257   7
  -5  -1  -1 18568.9 786.581   3
   5   1   1 18662.7 738.679   6
   5   1   2 2348.95 178.168   1
  -5  -1  -2 2614.15 227.962   6
   5   1   2 2230.49 208.844   3
   5   1   2 2257.50 193.671  11
  -5  -1  -2 2500.93 202.285  11
  -5  -1  -2 2719.96 265.334   5
  -5  -1  -2 2287.40 176.079   9
   5   1   2 2427.14 150.218   7
  -5  -1  -2 2177.06 224.110   3
   5   1   2 2622.05 222.289   6
   5   1   3 83.4741 37.2215   6
  -5  -1  -3 124.645 52.1711   6
   5   1   3 178.941 52.6522  11
  -5  -1  -3 120.857 52.2411   3
  -5  -1  -3 41.6797 26.0289   9
  -5  -1  -3 55.2381 32.0250  11
   5   1   3 132.182 50.1246   3
   5   1   3 95.2311 41.9108   1
  -5  -1  -3 106.651 56.7186   5
   5   1   3 78.4920 22.6245   7
  -5  -1  -4 1158.33 148.775   6
   5   1   4 1136.86 137.941   3
   5   1   4 1277.10 147.409  11
  -5  -1  -4 932.442 140.416   3
  -5  -1  -4 1071.75 110.180  10
   5   1   4 1378.11 153.624   1
  -5  -1  -4 989.877 167.606   5
   5   1   4 1287.77 99.0107   7
   5   1   4 1347.92 149.573   6
  -5  -1  -5 946.140 129.476   6
   5   1   5 917.859 126.645  11
  -5  -1  -5 964.026 145.285   2
  -5  -1  -5 786.735 125.915   3
  -5  -1  -5 852.170 96.9394  10
  -5  -1  -5 595.140 133.267   5
   5   1   5 702.017 108.766   3
   5   1   5 853.501 79.8659   7
   5   1   5 1003.22 121.762   6
   5   1   6 664.695 95.2169   6
  -5  -1  -6 717.922 108.299   6
   5   1   6 675.241 111.673  11
  -5  -1  -6 530.170 104.367   3
  -5  -1  -6 471.556 123.882   2
  -5  -1  -6 540.316 76.8531  10
  -5  -1  -6 228.035 85.1953   5
  -5  -1  -7 135.073 44.7339   6
  -5  -1  -7 162.488 72.8188   2
   5   1   7 130.257 49.1469  11
  -5  -1  -8 189.248 77.7692   2
  -5  -1  -8 136.346 59.8571   4
  -5  -1  -9 898.329 171.692   2
  -5  -1  -9 789.685 158.477   4
   5   2 -10 1001.61 198.751   3
  -5  -2  10 916.599 148.971   9
   5   2 -10 970.985 141.530   4
   5   2  -9 400.712 120.937   3
  -5  -2   9 301.740 61.7182   8
   5   2  -9 266.602 70.0083   4
  -5  -2   8 93.1790 49.0236   6
   5   2  -8 64.2011 57.1369   3
  -5  -2   8 83.9744 42.2269   5
  -5  -2   8 8.45542 7.52255   8
   5   2  -8 60.0921 44.4881   4
  -5  -2   7 54.7746 37.4761   6
   5   2  -7 36.2867 34.3993   3
  -5  -2   7 122.226 56.9653   5
  -5  -2   7 119.442 36.3470   8
  -5  -2   6 572.079 127.935   6
   5   2  -6 515.816 128.619   3
  -5  -2   6 449.005 118.505   5
  -5  -2   6 415.302 69.0434   8
   5   2  -6 558.535 73.9087   4
  -5  -2   5 138.901 57.6615   6
   5   2  -5 205.070 82.8158   3
  -5  -2   5 225.407 80.2154   5
   5   2  -5 121.059 27.8018   4
  -5  -2   4 5009.64 381.626   6
  -5  -2   4 4802.91 290.563  11
  -5  -2   4 4552.12 375.947   5
   5   2  -4 4839.57 374.683   3
  -5  -2   3 163.328 67.1145   6
  -5  -2   3 247.808 60.4743  11
   5   2  -3 220.224 75.4691   3
  -5  -2   3 275.721 89.2889   5
  -5  -2   2 8157.63 475.568   6
  -5  -2   2 7823.91 392.078  11
  -5  -2   2 7654.06 443.885   2
  -5  -2   2 8295.50 513.463   5
  -5  -2   2 8800.55 516.480   3
   5   2  -2 6836.62 433.394   6
  -5  -2   1 12096.2 615.160   6
  -5  -2   1 12347.9 667.025   5
   5   2  -1 13248.1 568.571   7
  -5  -2   1 12455.6 646.197   3
   5   2  -1 13233.0 615.495   6
   5   2  -1 12659.2 627.945   3
   5   2   0 24598.4 975.953   3
  -5  -2   0 24775.5 973.526   6
  -5  -2   0 25847.0 896.866  11
  -5  -2   0 25780.2 1063.50   5
  -5  -2   0 25817.9 700.452   4
   5   2   0 24381.7 874.595   7
  -5  -2   0 25154.3 1012.17   3
   5   2   0 24945.3 964.729   6
   5   2   1 259.623 72.7276   6
  -5  -2  -1 207.854 73.4341   6
  -5  -2  -1 224.073 60.6552  11
  -5  -2  -1 214.508 71.2937   3
   5   2   1 218.710 65.0514   3
  -5  -2  -1 149.659 56.7050   5
   5   2   1 162.173 48.7739   1
  -5  -2  -1 269.197 39.9412   4
   5   2   1 190.730 48.6975   7
  -5  -2  -2 4223.53 307.987   6
   5   2   2 3679.95 280.364   3
  -5  -2  -2 3833.22 263.470  11
  -5  -2  -2 3822.91 353.766   5
  -5  -2  -2 4164.31 216.567   4
   5   2   2 3948.04 225.246   7
   5   2   2 3681.19 250.738   1
  -5  -2  -2 3967.91 310.849   3
   5   2   2 4037.18 299.330   6
   5   2   3 1294.82 146.829   1
   5   2   3 1125.83 142.938   3
  -5  -2  -3 878.342 138.673   6
  -5  -2  -3 882.979 140.692   3
  -5  -2  -3 1031.13 164.600   5
  -5  -2  -3 1109.09 117.147   4
   5   2   3 1032.50 106.338   7
   5   2   3 1116.57 145.965   6
  -5  -2  -4 7652.09 436.246   6
   5   2   4 6439.01 384.370   3
   5   2   4 7900.77 426.018   1
  -5  -2  -4 7712.07 495.917   5
  -5  -2  -4 7118.16 366.228  10
  -5  -2  -4 7793.83 388.600   4
   5   2   4 8094.85 347.861   7
  -5  -2  -4 6678.38 421.373   3
   5   2   4 8485.01 428.111   6
  -5  -2  -5 16110.6 665.383   6
  -5  -2  -5 13758.9 707.692   5
  -5  -2  -5 10674.3 526.007  10
   5   2   5 15159.1 665.711   1
  -5  -2  -5 14775.0 626.308   4
   5   2   5 15379.6 538.710   7
  -5  -2  -5 14717.0 554.589   7
  -5  -2  -5 11766.2 609.371   3
   5   2   5 16088.4 629.294   6
  -5  -2  -6 5789.55 348.088   6
  -5  -2  -6 3951.87 346.786   5
  -5  -2  -6 4223.73 271.769  10
  -5  -2  -6 5249.08 354.308   4
   5   2   6 5197.33 268.380   7
  -5  -2  -6 5403.02 385.414   2
  -5  -2  -6 4022.43 306.560   3
  -5  -2  -7 160.567 56.4224   6
  -5  -2  -7 118.392 53.1297   2
  -5  -2  -7 70.5571 42.1003   4
  -5  -2  -8 488.060 135.804   2
  -5  -2  -8 571.847 130.940   4
   5   3 -10 421.038 145.217   3
   5   3 -10 514.063 103.950   4
  -5  -3   9 95.5139 68.6145   6
   5   3  -9 165.139 83.4983   3
   5   3  -9 225.192 60.2263   4
  -5  -3   8 71.5507 50.3516   6
   5   3  -8 25.0899 31.5540   3
  -5  -3   8 45.9830 26.9795   8
   5   3  -8 3.76060 21.3562   4
  -5  -3   7 1292.16 202.535   6
   5   3  -7 1092.06 203.933   3
  -5  -3   7 1175.28 97.7097   8
  -5  -3   6 2298.31 266.971   6
  -5  -3   6 1876.73 129.041   8
   5   3  -6 1999.33 138.053   4
   5   3  -6 2235.63 272.295   3
  -5  -3   5 2650.48 280.983   6
   5   3  -5 2373.49 128.083   4
   5   3  -5 2804.91 297.818   3
  -5  -3   4 600.613 126.518   6
   5   3  -4 534.401 123.661   3
  -5  -3   3 1026.61 167.138   6
   5   3  -3 855.220 153.211   3
   5   3  -3 763.783 130.522   7
  -5  -3   2 81.2227 38.6533   6
   5   3  -2 31.8136 35.7078   3
   5   3  -2 82.8111 38.0789   7
  -5  -3   1 11517.6 602.990   6
   5   3  -1 12494.0 561.158   7
   5   3  -1 11251.4 611.562   3
  -5  -3   0 5332.56 377.312   6
   5   3   0 5636.87 329.665   7
  -5  -3   0 5914.71 415.166   3
   5   3   0 5568.13 396.091   3
  -5  -3  -1 385.086 95.3164   6
  -5  -3  -1 372.642 100.513   3
   5   3   1 283.992 82.6048   3
   5   3   1 234.528 57.1355   1
  -5  -3  -1 320.587 41.6287   4
   5   3   1 250.280 59.1600   7
  -5  -3  -2 8097.36 479.784   6
   5   3   2 8180.86 463.280   3
  -5  -3  -2 8975.49 353.353   4
   5   3   2 8236.19 390.714   7
   5   3   2 8498.61 432.271   1
  -5  -3  -2 7897.38 481.554   3
  -5  -3  -3 3485.95 293.789   6
   5   3   3 3528.85 271.111   3
  -5  -3  -3 3738.38 227.592   4
   5   3   3 3283.04 224.232   7
   5   3   3 3536.04 268.545   1
  -5  -3  -3 3431.57 299.660   3
  -5  -3  -4 2908.07 261.982   6
   5   3   4 2539.05 218.251   3
   5   3   4 2703.01 245.589   1
  -5  -3  -4 2451.95 216.743  10
  -5  -3  -4 2855.66 216.918   4
   5   3   4 2677.39 197.188   7
  -5  -3  -4 2400.26 209.477   7
  -5  -3  -4 2385.25 241.453   3
   5   3   4 2746.58 244.300   6
  -5  -3  -5 1425.13 181.178   6
  -5  -3  -5 1141.18 154.158   3
   5   3   5 810.976 117.383   3
  -5  -3  -5 1454.92 162.376   4
   5   3   5 1299.51 136.048   7
  -5  -3  -5 1122.56 139.679   7
   5   3   5 1429.04 166.854   6
   5   3   5 1377.22 180.102   1
  -5  -3  -6-7.31690 13.2405   2
  -5  -3  -6 1.82410 21.0703   6
  -5  -3  -6-39.2254 32.0869   4
   5   3   6-10.3824 10.6962   7
   5   3   6-29.5556 48.9395   1
  -5  -3  -7 374.966 92.1560   6
  -5  -3  -7 299.600 96.6973   2
   5   3   7 306.238 65.2698   7
  -5  -3  -7 217.637 80.2348   4
  -5  -3  -8 110.382 70.3877   2
  -5  -3  -8 56.3829 48.2859   4
  -5  -4   9 24.7034 51.8338   6
   5   4  -9 0.70525 53.4151   3
   5   4  -9-28.5120 16.0178   4
  -5  -4   8 171.009 94.2554   6
   5   4  -8 130.071 70.5828   3
   5   4  -8 232.824 54.8593   4
  -5  -4   7 701.839 154.468   6
   5   4  -7 609.179 155.928   3
  -5  -4   6 11612.9 664.101   6
  -5  -4   6 10922.1 373.872   8
   5   4  -6 11345.3 410.040   4
   5   4  -6 11957.4 719.899   3
  -5  -4   5 2363.14 270.184   6
   5   4  -5 2156.00 112.676   4
   5   4  -5 2342.69 266.952   7
   5   4  -5 2400.59 290.148   3
  -5  -4   4 4015.86 353.492   6
   5   4  -4 3514.85 349.273   5
   5   4  -4 4121.10 347.240   7
   5   4  -4 3488.03 350.143   3
  -5  -4   3 170.496 69.0868   6
   5   4  -3 144.724 57.9709   3
   5   4  -3 164.054 80.9347   5
   5   4  -3 111.397 54.9406   7
  -5  -4   2 17544.7 816.982   6
   5   4  -2 16781.1 857.858   5
   5   4  -2 18324.8 782.910   7
   5   4  -2 18799.4 879.512   3
  -5  -4   1 7499.13 480.965   6
   5   4  -1 8483.06 549.418   5
   5   4  -1 8206.62 450.801   7
   5   4  -1 7686.13 514.020   3
  -5  -4   0 7180.28 472.975   6
   5   4   0 7215.79 514.464   5
  -5  -4   0 8606.91 376.566   8
   5   4   0 7922.33 427.944   7
   5   4   0 7540.91 497.621   3
  -5  -4  -1 5703.11 400.972   6
   5   4   1 5743.43 448.796   5
   5   4   1 5650.74 364.316   1
   5   4   1 5692.09 337.312   7
   5   4   1 5580.86 402.238   3
  -5  -4  -2 207.240 75.9527   6
  -5  -4  -2 291.417 92.6805   3
   5   4   2 373.559 95.3609   3
   5   4   2 254.889 90.4628   5
  -5  -4  -2 282.201 52.4520   4
   5   4   2 166.492 58.8496   1
   5   4   2 271.755 66.4547   7
  -5  -4  -3 2311.65 246.752   6
   5   4   3 2161.09 220.198   3
  -5  -4  -3 2322.48 179.091   4
   5   4   3 2115.39 189.645   7
  -5  -4  -3 2011.63 207.116   7
   5   4   3 2326.42 225.618   1
  -5  -4  -3 2086.94 235.534   3
  -5  -4  -4 423.754 101.266   6
  -5  -4  -4 359.008 97.2932   3
   5   4   4 352.142 82.7912   3
   5   4   4 301.309 86.0436   1
  -5  -4  -4 488.067 86.5015   4
   5   4   4 380.662 79.6962   7
  -5  -4  -4 361.749 89.2588   7
  -5  -4  -5 4496.77 354.486   6
   5   4   5 3903.65 284.427   3
   5   4   5 4016.95 336.518   1
  -5  -4  -5 4492.39 310.238   4
   5   4   5 4456.01 298.200   7
  -5  -4  -6 447.872 104.310   6
   5   4   6 477.327 115.701   1
   5   4   6 455.667 90.2617   7
  -5  -4  -6 564.047 114.704   4
  -5  -4  -7 1588.52 207.162   6
   5   4   7 1515.69 173.901   7
  -5  -4  -7 1757.74 213.660   4
  -5  -4  -7 1609.89 205.162   2
  -5  -5   9 664.829 159.876   6
   5   5  -9 677.838 199.543   3
  -5  -5   8 810.743 179.052   6
   5   5  -8 1047.44 213.129   3
   5   5  -8 1158.50 211.947   7
  -5  -5   7 53.1592 22.3199   6
   5   5  -7 186.427 104.891   3
   5   5  -7 45.0000 45.3780   7
  -5  -5   6 43.5159 37.2833   6
   5   5  -6 29.7725 31.4446   3
   5   5  -6 74.8339 43.1100   5
   5   5  -6 72.9211 25.7704   4
   5   5  -6 59.5543 45.6875   7
  -5  -5   5 45.2731 53.9464   6
   5   5  -5 108.496 69.1137   3
   5   5  -5 32.0206 41.1393   5
   5   5  -5 22.4265 9.79340   4
   5   5  -5-3.79543 37.1052   7
  -5  -5   4 168.308 71.7063   6
   5   5  -4 60.5692 33.7920   3
  -5  -5   4 98.8946 24.8714   8
   5   5  -4 213.542 94.2436   5
   5   5  -4 177.009 74.7463   7
  -5  -5   3 253.906 92.5794   6
   5   5  -3 141.990 67.0528   3
  -5  -5   3 289.276 47.9447   8
   5   5  -3 270.989 99.2877   5
   5   5  -3 259.292 85.0567   7
  -5  -5   2 1368.34 198.661   6
   5   5  -2 1040.71 186.799   3
  -5  -5   2 1107.60 107.337   8
   5   5  -2 1277.87 213.149   5
   5   5  -2 1436.25 186.576   7
  -5  -5   1 6058.14 442.777   6
   5   5  -1 6268.97 492.516   5
  -5  -5   1 6016.65 299.810   8
   5   5  -1 6659.75 413.195   7
   5   5  -1 6526.92 483.297   3
  -5  -5   0 381.272 103.471   6
   5   5   0 486.180 125.057   3
  -5  -5   0 523.864 82.5450   8
   5   5   0 504.531 133.361   5
   5   5   0 496.616 104.176   7
  -5  -5  -1 1054.56 171.857   6
   5   5   1 1069.90 181.718   3
   5   5   1 866.436 143.013   1
   5   5   1 1032.81 200.469   5
   5   5   1 1266.79 157.344   7
  -5  -5  -2 43.1651 32.6382   6
   5   5   2-3.03528 16.8557   3
   5   5   2 36.5184 13.7497   1
   5   5   2 41.1321 26.2786   7
   5   5   3 336.660 85.6870   1
  -5  -5  -3 251.876 81.2532   6
   5   5   3 310.412 93.9333   3
   5   5   3 309.600 105.626   5
   5   5   3 403.709 89.0393   7
  -5  -5  -3 316.888 69.4924   4
   5   5   4 3496.96 283.536   3
   5   5   4 3634.51 281.921   7
  -5  -5  -4 4127.86 272.064   4
   5   5   4 3727.70 324.098   1
  -5  -5  -4 3816.04 338.958   6
  -5  -5  -5 965.836 167.168   6
   5   5   5 656.978 108.950   3
   5   5   5 925.871 139.818   7
  -5  -5  -5 802.786 128.055   4
   5   5   5 859.457 158.574   1
  -5  -5  -6 2658.94 280.788   6
   5   5   6 2453.83 278.564   1
   5   5   6 2194.22 225.264   7
  -5  -5  -6 2538.34 244.805   4
  -5  -5  -7 1611.77 204.234   4
  -5  -5  -7 1132.33 196.196   2
   5   5   7 1153.97 164.878   7
   5   5   7 1295.19 205.885   1
  -5  -6   8 97.5408 77.9711   6
   5   6  -8 92.9990 58.7062   3
   5   6  -8 104.859 66.4225   7
   5   6  -7 866.424 196.868   3
   5   6  -7 800.705 186.982   5
  -5  -6   7 983.092 186.364   6
   5   6  -7 1026.51 205.752   7
  -5  -6   6 1251.89 212.167   6
   5   6  -6 1278.51 241.248   3
   5   6  -6 1348.30 237.310   5
   5   6  -6 1486.56 234.153   7
   5   6  -5 1652.56 263.764   3
   5   6  -5 2065.95 290.474   5
   5   6  -5 2055.44 263.002   7
  -5  -6   5 1828.69 253.477   6
  -5  -6   4 7384.87 532.126   6
   5   6  -4 7744.48 588.390   5
   5   6  -4 7704.41 526.003   7
   5   6  -4 7448.72 575.677   3
  -5  -6   3 659.302 145.670   6
   5   6  -3 563.114 142.904   3
   5   6  -3 739.913 173.050   5
   5   6  -3 769.075 152.899   7
  -5  -6   2 21839.3 1007.33   6
   5   6  -2 20924.4 1066.49   5
  -5  -6   2 21764.0 717.081   8
   5   6  -2 23366.5 955.051   7
   5   6  -2 20522.1 1023.78   3
   5   6  -1 2061.10 267.882   3
  -5  -6   1 1939.52 154.661   8
   5   6  -1 1893.75 277.077   5
   5   6  -1 2137.53 236.908   7
  -5  -6   1 1888.47 247.965   6
   5   6   0 5191.78 470.479   5
   5   6   0 5567.57 380.581   7
   5   6   0 4909.49 427.505   3
  -5  -6   0 5010.05 415.800   6
   5   6   1 2652.97 329.133   5
   5   6   1 2599.25 271.275   1
   5   6   1 2773.84 262.481   7
   5   6   1 2572.00 298.573   3
  -5  -6  -1 2734.28 302.392   6
  -5  -6  -2 650.251 142.224   6
   5   6   2 617.436 135.060   3
   5   6   2 460.724 128.701   5
   5   6   2 697.131 138.596   1
   5   6   2 624.423 119.221   7
   5   6   3-10.2023 46.0383   1
  -5  -6  -3-48.0742 32.4795   6
   5   6   3-35.3448 37.7669   3
   5   6   3-4.29288 44.3878   5
   5   6   3-50.4864 46.5297   7
   5   6   4 1564.25 190.709   3
  -5  -6  -4 1304.57 208.492   6
   5   6   4 1305.29 197.023   1
   5   6   4 1337.81 231.703   5
   5   6   4 1634.90 197.300   7
  -5  -6  -4 1483.43 161.279   4
  -5  -6  -5 595.570 141.915   6
   5   6   5 809.892 159.212   1
   5   6   5 695.053 129.922   7
  -5  -6  -5 764.767 127.111   4
  -5  -6  -6 195.046 81.7099   6
   5   6   6 43.6778 38.4756   1
   5   6   6 5.47967 28.1783   7
  -5  -6  -6 85.3760 35.3959   4
  -5  -7   7 2005.37 291.730   6
   5   7  -7 3050.19 386.844   5
   5   7  -7 2925.07 346.352   7
   5   7  -7 2545.68 380.104   3
  -5  -7   6 172.089 75.6820   6
   5   7  -6 161.023 72.6116   3
   5   7  -6 59.7208 62.4563   5
   5   7  -6 167.267 83.1899   7
  -5  -7   5 1225.17 217.831   6
   5   7  -5 1574.38 271.729   3
   5   7  -5 1259.83 241.545   5
   5   7  -5 1458.29 225.458   7
   5   7  -4 54.2700 23.8686   3
   5   7  -4-67.1617 64.7048   5
   5   7  -4 90.6652 61.8342   7
  -5  -7   3 919.901 185.770   6
   5   7  -3 911.477 192.370   3
   5   7  -3 813.587 188.465   5
   5   7  -3 849.873 164.620   7
  -5  -7   2 1486.01 227.954   6
   5   7  -2 1310.69 234.827   3
   5   7  -2 1441.38 254.842   5
   5   7  -2 1447.40 207.758   7
   5   7  -1 2300.12 318.977   5
   5   7  -1 2088.67 245.914   7
   5   7  -1 2340.05 306.125   3
  -5  -7   1 2024.87 272.272   6
  -5  -7   0 1499.73 230.644   6
   5   7   0 1368.69 223.563   3
   5   7   0 1858.46 284.762   5
   5   7   0 1572.12 210.653   7
  -5  -7  -1 3.99241 27.0887   6
   5   7   1-23.3931 38.1255   3
   5   7   1-12.9117 21.6199   1
   5   7   1-21.7161 52.7449   5
   5   7   1-27.1842 33.2922   7
  -5  -7  -2 950.837 194.980   6
   5   7   2 859.381 177.479   3
   5   7   2 968.735 199.675   5
   5   7   2 1152.36 186.396   1
   5   7   2 1038.66 163.113   7
   5   7   3 1480.85 215.075   1
  -5  -7  -3 1017.26 190.979   6
   5   7   3 1305.70 198.497   3
   5   7   3 1154.12 227.601   5
   5   7   3 1268.18 185.605   7
  -5  -7  -4 103.688 51.3500   6
   5   7   4-15.5997 27.1273   1
   5   7   4 15.9031 27.6913   3
   5   7   4 55.1557 50.1342   5
   5   7   4 25.6922 40.3291   7
  -5  -7  -5 1.19186 39.2873   6
   5   7   5-33.0593 58.9310   5
   5   7   5 62.2502 63.1204   1
   5   7   5-54.0661 47.2142   7
  -5  -8   5 83.9279 21.0386   6
   5   8  -5 207.478 103.882   3
   5   8  -5 151.878 115.475   5
   5   8  -5 249.545 99.8017   7
  -5  -8   4 149.573 83.3899   6
   5   8  -4 32.9100 45.5245   3
   5   8  -4 80.2168 69.8989   5
   5   8  -4 62.9359 41.7793   7
  -5  -8   3 828.451 178.146   6
   5   8  -3 613.240 162.619   3
   5   8  -3 995.085 226.201   5
   5   8  -3 798.146 167.127   7
  -5  -8   2 288.338 115.452   6
   5   8  -2 158.029 88.4545   3
   5   8  -2 170.356 79.9137   5
   5   8  -2 152.449 69.6334   7
  -5  -8   1 239.105 94.9286   6
   5   8  -1 287.125 118.822   3
   5   8  -1 186.247 101.072   5
   5   8  -1 125.001 65.3596   7
  -5  -8   0 54.8928 54.3183   6
   5   8   0 95.1346 48.2045   3
   5   8   0 79.9931 46.2867   5
   5   8   0 150.490 62.0244   7
   5   8   1 4031.64 451.706   5
   5   8   1 4807.00 413.003   1
   5   8   1 4994.24 401.196   7
   5   8   1 3824.11 402.876   3
  -5  -8  -1 4863.85 445.298   6
  -5  -8  -2 214.270 85.1179   6
   5   8   2 301.002 108.317   3
   5   8   2 195.084 112.128   5
   5   8   2 361.872 114.963   1
   5   8   2 183.640 72.8746   7
   5   8   3-10.8326 18.7427   1
  -5  -8  -3 47.6321 27.5787   6
   5   8   3 140.722 57.6228   3
   5   8   3 24.2273 52.9159   5
   5   8   3 98.7593 60.3627   7
  -5  -9   2-25.9172 21.6124   6
   5   9  -2-65.5978 72.9619   3
   5   9  -2-49.9443 66.4608   5
   5   9  -2-3.50160 29.5985   7
  -5  -9   1 386.317 133.114   6
   5   9  -1 282.429 110.687   3
   5   9  -1 211.738 115.067   5
   5   9  -1 453.684 126.221   7
  -5  -9   0 167.185 88.5482   6
   5   9   0 13.3830 32.4343   3
   5   9   0 96.3825 84.8530   5
   6  -9  -4 28.4635 32.0824  11
  -6   9   4-11.5808 30.3497  10
  -6   9   4 21.8571 30.4375   5
  -6   9   4 73.2572 35.5090   8
   6  -9  -3 231.767 69.7210  11
  -6   9   3 588.641 136.411  10
  -6   9   3 654.077 174.872   5
   6  -9  -2 5.53697 16.3264  11
  -6   9   2 90.7370 43.4942  10
  -6   9   2-65.8102 84.9496   5
  -6   9   2 46.2833 39.8461   8
   6  -9  -1 21.8233 20.5350  11
  -6   9   1 76.4098 54.1213  10
  -6   9   1 55.7419 50.0186   5
  -6   9   1 31.4310 12.0300   8
  -6   9   1 113.544 43.1470   2
   6  -9   0 258.360 82.9147  11
  -6   9   0 136.347 60.0949  10
  -6   9   0 121.602 88.4379   5
  -6   9   0 130.731 43.7870   8
  -6   9   0 31.6658 13.5685   7
  -6   9   0 125.675 51.6400   2
   6  -9   1 404.457 109.795  11
  -6   9  -1 273.816 112.317   5
  -6   9  -1 286.608 78.2079   2
  -6   9  -1 87.8320 51.6366   7
   6  -9   2 785.584 155.263  11
  -6   9  -2 747.421 188.182   5
  -6   9  -2 566.750 121.805   2
  -6   9  -2 219.623 61.4756   7
   6  -9   3 621.779 140.062  11
  -6   9  -3 741.916 199.594   5
  -6   9  -3 756.017 145.346   2
  -6   8   6 184.897 88.5329  10
  -6   8   6 67.3802 47.1750   5
  -6   8   6 103.675 53.0059   8
   6  -8  -5 2.58723 27.7285  11
  -6   8   5-10.6160 46.5317   5
  -6   8   5-17.3733 25.1612   8
   6  -8  -4 774.373 128.577  11
  -6   8   4 1645.20 223.735  10
  -6   8   4 1681.60 275.288   5
  -6   8   4 1915.48 213.808   8
   6  -8  -3 206.424 59.3693  11
  -6   8   3 290.211 92.1189  10
  -6   8   3 83.7670 71.3537   5
  -6   8   3 164.915 64.9797   8
   6  -8  -2 86.4391 37.9159  11
  -6   8   2 9.48235 23.7848  10
  -6   8   2 226.948 120.501   5
  -6   8   2 121.026 39.9771   2
  -6   8   2 251.964 71.2922   8
   6  -8  -1 1080.54 160.460  11
  -6   8   1 1305.59 255.518   5
  -6   8   1 1279.29 173.146  10
  -6   8   1 1385.34 156.512   2
   6  -8   0-14.1870 31.7868  11
  -6   8   0-14.0891 41.6644   5
  -6   8   0-1.88004 20.1486  10
  -6   8   0 34.1055 15.9622   2
   6  -8   1 339.227 91.9184  11
  -6   8  -1 452.807 146.972   5
  -6   8  -1 262.283 75.8617  10
  -6   8  -1 287.795 82.4801   2
   6  -8   2 416.781 106.174  11
  -6   8  -2 650.419 177.940   5
   6  -8   2 535.733 77.6479   9
  -6   8  -2 485.292 108.963   2
  -6   8  -2 314.072 70.4973   7
   6  -8   3 257.524 87.5629  11
  -6   8  -3 289.918 110.887   5
   6  -8   3 218.238 54.4726   9
  -6   8  -3 227.925 82.7063   2
   6  -8   4 2697.61 289.687  11
  -6   8  -4 2119.97 315.350   5
   6  -8   4 2298.13 203.807   9
  -6   8  -4 2658.01 277.537   2
   6  -8   5 90.2624 49.3460  11
  -6   8  -5 60.3984 32.0520   5
   6  -8   5 77.1907 41.0100   9
  -6   8  -5 104.381 57.8934   2
  -6   7   7 0.56513 18.1683  10
  -6   7   7-6.17113 27.3037   5
  -6   7   7 31.3633 19.5740   8
  -6   7   6 231.827 88.0163  10
  -6   7   6 72.2878 61.8520   5
  -6   7   6 237.939 76.1354   8
   6  -7  -5 274.552 61.7905  11
  -6   7   5 591.184 129.708  10
  -6   7   5 444.278 142.241   5
  -6   7   5 635.195 124.750   8
   6  -7  -4 20.6927 13.9041  11
  -6   7   4 9.96696 22.3217  10
  -6   7   4-2.06401 22.7063   5
  -6   7   4 9.56430 8.67929   2
  -6   7   4 21.2679 23.4715   8
   6  -7  -3 36.2157 17.6509  11
  -6   7   3 2.62940 41.5720  10
  -6   7   3 44.5085 63.8247   5
  -6   7   3 1.35679 22.9008   8
   6  -7  -2 585.200 106.738  11
  -6   7   2 662.178 182.944   5
  -6   7   2 502.913 110.247  10
  -6   7   2 582.856 95.6947   2
   6  -7  -1 306.068 76.8632  11
  -6   7   1 238.318 100.144   5
  -6   7   1 425.749 96.2131  10
  -6   7   1 293.921 71.1158   2
  -6   7   0 250.822 31.2614   1
   6  -7   0 240.579 66.9965  11
  -6   7   0 346.096 120.409   5
  -6   7   0 331.149 78.1783  10
   6  -7   0 261.640 34.4251   9
  -6   7   0 425.506 89.5894   2
   6  -7   1 1699.12 198.922  11
  -6   7  -1 1385.06 161.194  10
  -6   7  -1 1948.78 291.032   5
   6  -7   1 1568.73 113.627   9
  -6   7  -1 1311.00 89.5707   1
  -6   7  -1 1665.81 188.688   2
   6  -7   2 438.520 100.391  11
  -6   7  -2 587.458 160.413   5
  -6   7  -2 493.517 84.6321  10
   6  -7   2 483.831 71.6994   9
  -6   7  -2 567.402 118.961   2
   6  -7   3 366.795 102.844  11
  -6   7  -3 426.614 145.210   5
   6  -7   3 374.314 71.3077   9
  -6   7  -3 339.463 98.2864   2
   6  -7   4-64.4734 42.3320  11
  -6   7  -4-26.2068 41.7219   5
   6  -7   4-23.6263 28.9316   9
  -6   7  -4-8.47332 40.6693   2
   6  -7   5 2370.30 267.232  11
  -6   7  -5 2604.08 338.750   5
   6  -7   5 2280.80 212.455   9
  -6   7  -5 2358.76 269.947   2
   6  -7   6 27.7918 51.5447  11
  -6   7  -6-49.0035 44.2357   5
   6  -7   6 91.5845 52.8021   9
  -6   7  -6 8.41368 29.1464   2
  -6   6   8-16.6766 26.0388  10
  -6   6   8 26.2881 39.1001   5
  -6   6   8-7.02614 24.0264   8
  -6   6   7 73.8999 50.8081  10
  -6   6   7 95.8349 56.7716   5
  -6   6   7 222.306 71.0359   8
   6  -6  -7 123.532 53.3983   3
   6  -6  -6 1360.38 195.132   3
   6  -6  -6 769.214 102.095  11
  -6   6   6 1003.76 176.111  10
  -6   6   6 785.906 181.028   5
  -6   6   6 1644.92 196.229   8
   6  -6  -5 48.8771 26.0454  11
  -6   6   5 6.81906 38.5333  10
  -6   6   5-51.5247 52.5572   5
  -6   6   5-10.1333 15.5643   2
  -6   6   5 39.7383 37.0090   8
   6  -6  -5 12.2336 23.4143   3
   6  -6  -4 4610.34 348.390   3
   6  -6  -4 3332.54 253.118  11
  -6   6   4 4265.40 345.085  10
  -6   6   4 4068.73 304.524   8
   6  -6  -3 7595.63 455.480   3
   6  -6  -3 5670.13 331.105  11
  -6   6   3 3985.01 333.165  10
  -6   6   3 2526.48 216.742   2
   6  -6  -2 68.6882 32.5397  11
  -6   6   2 69.5909 35.5819  10
  -6   6   2 79.9188 39.2380   2
   6  -6  -2 66.5391 45.0890   3
   6  -6  -1 638.626 111.734  11
  -6   6   1 695.240 114.193  10
  -6   6   1 609.487 106.615   2
   6  -6  -1 786.334 142.626   3
   6  -6  -1 288.011 71.9754   7
   6  -6   0 1169.89 156.031  11
  -6   6   0 858.075 122.556  10
  -6   6   0 1000.23 143.684   2
   6  -6   0 937.961 160.588   3
   6  -6   0 544.293 93.8971   7
   6  -6   1 4049.24 340.572   3
   6  -6   1 3510.89 294.234  11
  -6   6  -1 4016.72 255.761  10
   6  -6   1 3714.93 187.965   9
  -6   6  -1 3989.72 307.683   2
   6  -6   2 422.064 96.9914  11
  -6   6  -2 330.297 66.4071  10
  -6   6  -2 335.291 96.1331   2
   6  -6   2 246.669 51.7265   7
   6  -6   3 643.230 130.185  11
   6  -6   3 489.003 81.0428   9
  -6   6  -3 707.933 139.563   2
   6  -6   4 1309.94 184.252  11
  -6   6  -4 1257.38 227.653   5
   6  -6   4 1288.11 143.168   9
  -6   6  -4 1587.50 211.526   2
   6  -6   5-13.6504 25.2132  11
  -6   6  -5 51.3380 35.6932   5
   6  -6   5-5.30221 17.0841   9
  -6   6  -5 21.1483 30.3503   2
   6  -6   6 137.871 64.3817  11
  -6   6  -6-3.83175 23.6716   5
   6  -6   6 50.1489 35.1528   9
  -6   6  -6 49.5405 57.2010   2
   6  -6   7-8.94378 20.9033  11
  -6   6  -7 13.7090 31.1494   5
   6  -6   7 4.81679 16.0883   9
  -6   6  -7-17.7976 18.0180   2
  -6   5   9 737.459 161.351  10
  -6   5   9 775.294 148.316   8
  -6   5   8-36.8023 46.7741  10
  -6   5   8-3.02079 17.8362   5
  -6   5   8-11.9350 23.0023   8
   6  -5  -8 21.1155 18.5705   3
  -6   5   7 281.433 95.1848   5
  -6   5   7 300.555 97.6996  10
  -6   5   7 361.119 91.0016   8
   6  -5  -7 353.160 93.4196   3
   6  -5  -6 100.695 37.3172  11
  -6   5   6 202.304 86.0928  10
  -6   5   6 214.505 71.4261   8
   6  -5  -6 59.0654 48.2644   3
   6  -5  -5 108.679 39.8243  11
  -6   5   5 29.8058 17.7054  11
  -6   5   5 83.5548 29.7526   2
  -6   5   5 182.497 76.8535  10
  -6   5   5 141.901 51.7375   8
   6  -5  -5 109.047 34.4149   3
   6  -5  -4 1641.44 201.947   3
   6  -5  -4 1668.65 161.812  11
  -6   5   4 1594.09 205.294  10
  -6   5   4 1800.77 186.764   8
   6  -5  -3 85.1942 33.2042  11
  -6   5   3 98.9128 36.4841   2
  -6   5   3-11.5017 45.4314  10
   6  -5  -3-20.3279 40.5901   3
   6  -5  -2 2997.84 278.305   3
   6  -5  -2 2733.06 226.568  11
  -6   5   2 3103.84 262.540  10
  -6   5   2 3006.05 228.919   2
   6  -5  -1 49.4484 33.8532  11
  -6   5   1 53.6636 28.5994   2
  -6   5   1 3.18886 15.4315  10
   6  -5  -1 20.4553 34.8148   3
   6  -5  -1 14.8374 11.9763   7
   6  -5   0 178.067 54.6453  11
  -6   5   0 213.978 57.9967  10
  -6   5   0 339.255 84.4737   2
   6  -5   0 244.212 75.2212   3
   6  -5   1 4090.13 335.611   3
   6  -5   1 3940.36 300.371  11
  -6   5  -1 4659.59 263.201  10
   6  -5   1 4073.53 194.752   9
   6  -5   1 3732.45 218.212   7
  -6   5  -1 4217.99 311.203   2
   6  -5   2 528.135 106.130  11
  -6   5  -2 478.444 69.5749  10
  -6   5  -2 542.007 105.586   2
   6  -5   2 560.407 118.339   3
   6  -5   2 523.849 63.9725   7
  -6   5  -2 511.442 46.7116   1
  -6   5  -3 8856.79 350.168   1
   6  -5   3 9165.86 505.747  11
  -6   5  -3 9176.05 342.524  10
   6  -5   3 8814.64 398.503   9
  -6   5  -3 9017.67 516.591   2
   6  -5   4 447.900 102.968   6
   6  -5   4 361.881 94.4323  11
  -6   5  -4 487.475 76.8730   1
   6  -5   4 409.657 77.1662   9
  -6   5  -4 366.775 96.0887   2
   6  -5   5 5211.10 379.716  11
   6  -5   5 4603.06 309.475   9
  -6   5  -5 5415.25 419.949   2
   6  -5   6 1043.01 166.972  11
  -6   5  -6 1220.59 212.503   5
   6  -5   6 780.844 126.722   9
  -6   5  -6 1179.15 188.852   2
   6  -5   7 1147.24 177.294  11
  -6   5  -7 965.132 185.770   5
   6  -5   7 794.820 136.420   9
  -6   5  -7 1315.75 205.732   2
  -6   4   9 469.687 132.169  10
  -6   4   9 406.054 110.118   5
  -6   4   9 337.404 92.8764   8
  -6   4   8 574.794 136.827  10
   6  -4  -8 540.786 116.502   3
  -6   4   8 511.366 112.140   8
  -6   4   7 133.407 63.7123  10
   6  -4  -7 107.859 60.1846   3
  -6   4   7 108.316 47.9336   8
  -6   4   6-27.6122 18.7269   2
  -6   4   6-9.75276 16.4639  11
  -6   4   6-11.0666 23.6260  10
   6  -4  -6 19.7285 40.1203   3
  -6   4   6-10.9813 25.3931   8
   6  -4  -6 8.33945 20.6731   1
   6  -4  -5-5.12336 8.63823  11
  -6   4   5-1.30391 17.0792  11
  -6   4   5 1.47831 13.8884   2
   6  -4  -5 42.5846 38.6315   3
   6  -4  -5 69.7229 28.1196   1
  -6   4   5 26.1078 22.9436   8
   6  -4  -4 4191.59 321.529   3
   6  -4  -4 4124.24 257.797  11
   6  -4  -3 2560.45 254.255   3
   6  -4  -3 2584.78 204.397  11
   6  -4  -2 1269.48 141.528  11
   6  -4  -2 1407.92 180.914   3
   6  -4  -2 992.575 131.052   7
   6  -4  -1 245.257 63.4021  11
   6  -4  -1 255.654 78.8685   3
   6  -4  -1 168.395 47.7607   7
   6  -4   0 1772.91 205.409   3
   6  -4   0 1679.08 173.394  11
  -6   4   0 1665.25 164.954  10
   6  -4   0 1488.18 134.319   7
  -6   4   0 1774.88 189.627   2
   6  -4   1 836.540 126.953  11
  -6   4  -1 909.352 139.639   2
  -6   4  -1 797.768 100.592  10
   6  -4   1 937.060 149.850   3
   6  -4   1 756.296 81.3137   7
   6  -4   2 50.9632 41.2793   6
   6  -4   2-17.8543 23.6089  11
  -6   4  -2 11.6498 11.5204  10
  -6   4  -2-3.29080 12.9623   2
  -6   4  -2 2.15867 3.67563   1
   6  -4   2 62.1647 40.7516   3
   6  -4   2 15.0164 13.3302   7
   6  -4   3 2438.65 243.532   6
   6  -4   3 2825.31 269.183   3
   6  -4   3 2648.99 242.591  11
  -6   4  -3 2665.41 143.481  10
   6  -4   3 2576.63 184.442   9
  -6   4  -3 2768.85 264.605   2
  -6   4  -3 2491.15 150.866   1
   6  -4   4 4967.85 335.223   6
   6  -4   4 5411.07 367.052  11
   6  -4   4 5221.93 381.476   3
   6  -4   4 4932.57 293.849   9
  -6   4  -4 5747.10 402.474   2
  -6   4  -4 5122.56 269.083   1
  -6   4  -5 992.748 121.016   1
   6  -4   5 821.127 121.671   6
   6  -4   5 885.121 145.588  11
  -6   4  -5 1069.75 173.672   2
   6  -4   5 1010.53 130.139   9
   6  -4   6 324.185 85.9985  11
   6  -4   6 360.580 79.1898   9
  -6   4  -6 330.634 103.716   2
  -6   4  -7 1062.33 184.781   5
   6  -4   7 1006.02 160.424  11
   6  -4   7 866.695 147.611   9
  -6   4  -7 1059.03 188.038   2
   6  -4   8 63.7992 40.8882  11
   6  -4   8 38.2119 41.0313   9
  -6   4  -8 17.2734 29.0494   2
   6  -3  -9 1787.46 217.482   3
  -6   3   9 1935.46 264.129  10
  -6   3   9 1729.45 205.057   8
   6  -3  -8 1125.05 171.152   3
  -6   3   8 936.079 141.959   8
  -6   3   7 378.992 70.0740  11
   6  -3  -7 991.968 160.105   3
  -6   3   7 1090.80 148.205   8
  -6   3   7 760.328 104.803   2
   6  -3  -6 1850.18 163.813   1
   6  -3  -6 3324.36 289.488   3
  -6   3   6 1483.09 147.140  11
  -6   3   6 2265.12 192.909   2
  -6   3   6 3107.23 241.602   8
   6  -3  -5 239.345 54.5230  11
  -6   3   5 128.964 39.4623  11
  -6   3   5 206.446 58.8737   2
   6  -3  -5 208.652 45.9642   1
   6  -3  -5 222.934 81.0684   3
   6  -3  -4 780.802 106.975  11
  -6   3   4 506.670 85.7317  11
   6  -3  -4 702.945 131.487   3
  -6   3   4 891.309 121.731   4
   6  -3  -4 652.499 65.2298   1
   6  -3  -3 461.079 82.6389  11
  -6   3   3 270.684 65.9022  11
   6  -3  -3 433.536 102.350   3
   6  -3  -3 290.299 73.6634   7
  -6   3   3 275.689 60.6886   4
   6  -3  -2 4504.13 336.366   3
   6  -3  -2 4243.77 271.574  11
   6  -3  -2 4164.88 275.787   7
  -6   3   2 4174.63 256.612   4
   6  -3  -1 11.1763 10.5442  11
   6  -3  -1 16.8753 26.1391   3
   6  -3   0 3629.76 302.968   3
   6  -3   0 4271.95 283.571  11
   6  -3   1 44.1583 32.2762   6
   6  -3   1 92.0151 39.4277  11
   6  -3   1 61.3168 40.4920   3
   6  -3   1 41.7975 17.7786   7
   6  -3   2 669.122 117.602   6
   6  -3   2 632.334 109.425  11
  -6   3  -2 723.409 128.461   2
   6  -3   2 868.637 139.111   3
   6  -3   2 485.090 42.3212   7
   6  -3   3 2157.73 212.441   6
   6  -3   3 2421.98 224.524  11
  -6   3  -3 2011.71 129.048  10
   6  -3   3 2513.07 247.406   3
  -6   3  -3 2015.15 138.536   1
  -6   3  -3 2548.15 254.084   2
   6  -3   4 2363.37 215.624   6
   6  -3   4 2585.08 250.182   3
   6  -3   4 2493.75 234.210  11
   6  -3   4 2438.67 197.299   9
  -6   3  -4 2452.35 174.679   1
  -6   3  -4 2913.09 277.963   2
   6  -3   5 2202.67 193.869   6
   6  -3   5 1977.18 209.857  11
   6  -3   5 1949.87 217.796   3
   6  -3   5 1879.24 186.520   9
  -6   3  -5 2069.34 242.122   2
  -6   3  -5 2240.45 187.559   1
   6  -3   6 718.413 126.777  11
  -6   3  -6 834.206 158.478   2
   6  -3   6 671.505 116.481   9
   6  -3   7 132.681 54.8971  11
   6  -3   7 125.836 55.5379   9
  -6   3  -7 157.155 72.8509   2
   6  -3   8 693.293 129.855  11
   6  -3   8 668.049 129.339   9
  -6   3  -8 802.819 161.247   2
  -6   2  10 475.048 106.121   8
   6  -2 -10 455.228 108.419   4
   6  -2  -9 160.974 71.5768   3
  -6   2   9 161.135 56.9164   8
   6  -2  -9 187.707 67.7608   4
  -6   2   8 119.027 33.4817   9
   6  -2  -8 109.161 61.7664   3
  -6   2   8 184.053 60.3267   8
   6  -2  -7 100.658 41.7537   1
  -6   2   7 60.7118 29.3200  11
  -6   2   7 94.3180 28.2731   9
   6  -2  -7 110.410 50.8301   3
  -6   2   7 106.353 38.0431   8
  -6   2   7 86.6780 36.4628   2
  -6   2   6 237.343 61.4845   2
  -6   2   6 129.247 47.3384  11
  -6   2   6 144.068 31.1104   9
   6  -2  -6 106.536 60.8856   3
   6  -2  -6 146.216 45.5100   1
  -6   2   6 215.144 62.5398   8
  -6   2   5 326.101 71.7323  11
  -6   2   5 418.097 88.1323   2
  -6   2   5 481.060 47.5015   9
   6  -2  -5 581.381 117.809   3
  -6   2   5 413.220 81.7140   4
   6  -2  -5 353.620 60.6247   1
   6  -2  -4 50.0471 20.4737  11
  -6   2   4 3.03285 17.5546  11
   6  -2  -4 27.5841 17.4541   1
  -6   2   4 19.3393 8.05325   9
   6  -2  -4 19.7268 15.6335   3
  -6   2   4 19.2071 18.9534   4
   6  -2  -3-0.59007 13.0344  11
  -6   2   3-13.2429 21.1757  11
   6  -2  -3-0.03487 3.16804   1
  -6   2   3-0.04180 4.41195   9
   6  -2  -3 17.8179 25.2618   3
  -6   2   3 18.7688 14.6692   4
   6  -2  -2 1444.11 181.687   3
   6  -2  -2 1496.23 155.024  11
  -6   2   2 1479.83 150.001  11
  -6   2   2 1336.72 77.4457   9
  -6   2   2 1402.87 127.177   4
   6  -2  -1 17973.3 758.408   3
   6  -2  -1 17089.3 664.581  11
  -6   2   1 16122.6 512.107   9
   6  -2   0 9274.18 507.216   6
   6  -2   0 9819.60 510.868   3
   6  -2   0 9448.26 445.112  11
  -6   2   0 7920.59 322.557   9
   6  -2   0 8304.36 359.428   7
   6  -2   1 5577.26 368.846   6
   6  -2   1 6038.87 388.115   3
   6  -2   1 5681.69 333.675  11
  -6   2  -1 5191.21 253.718   9
   6  -2   1 4875.97 230.523   7
   6  -2   2 64.4343 37.3531  11
  -6   2  -2 105.464 34.5528   9
   6  -2   2 125.091 58.9754   3
   6  -2   2 272.081 76.2607   6
   6  -2   2 40.4976 12.1390   7
   6  -2   2 103.223 22.0067   7
   6  -2   3 963.513 132.915   6
   6  -2   3 994.150 136.634  11
  -6   2  -3 943.228 144.738   2
  -6   2  -3 668.014 95.4208   9
  -6   2  -3 879.323 91.7350   1
   6  -2   3 916.003 147.986   3
   6  -2   4 28011.0 979.243   6
   6  -2   4 28033.3 1039.78   3
   6  -2   4 27595.9 1008.34  11
  -6   2  -4 24611.3 883.780   1
  -6   2  -4 28966.6 1092.26   2
   6  -2   5 6.48868 16.7654   6
   6  -2   5-17.8550 36.0746  11
  -6   2  -5 48.8802 45.2182   2
   6  -2   5 19.6059 24.6725   3
  -6   2  -5 20.9897 20.4013   1
   6  -2   6 103.407 44.5280  11
  -6   2  -6 141.193 62.9163   2
   6  -2   7 559.625 111.830  11
  -6   2  -7 666.236 141.158   2
   6  -2   8 3859.29 314.406  11
  -6   2  -8 4288.13 399.721   2
   6  -1 -10 233.247 94.5687   3
  -6   1  10 118.290 37.6260   8
   6  -1 -10 169.302 67.1777   4
  -6   1   9 20.1556 17.5283   9
   6  -1  -9-39.3262 55.6439   3
  -6   1   9 1.69448 26.9993   8
   6  -1  -9-15.0855 33.0517   4
   6  -1  -8 1472.72 216.418   3
  -6   1   8 1623.67 145.975   9
  -6   1   8 1506.52 166.242   8
   6  -1  -8 1460.90 164.824   4
   6  -1  -7 5949.85 415.690   3
  -6   1   7 6375.63 284.852   9
  -6   1   7 5987.88 338.218   8
   6  -1  -6 2261.96 247.379   3
  -6   1   6 1529.47 154.085  11
  -6   1   6 2237.92 189.574   8
   6  -1  -5 3481.88 302.279   3
  -6   1   5 2592.65 203.967  11
  -6   1   5 3403.13 267.567   2
  -6   1   5 2580.62 196.613   4
  -6   1   4 924.487 116.481  11
  -6   1   4 1075.38 146.761   2
   6  -1  -4 1203.89 170.673   3
  -6   1   4 814.923 98.5638   4
   6  -1  -3 3704.99 310.337   3
  -6   1   3 3317.70 237.490  11
  -6   1   3 3417.24 204.598   4
   6  -1  -2 754.045 107.082  11
  -6   1   2 738.018 103.614  11
   6  -1  -2 722.923 126.150   3
  -6   1   2 738.386 81.8612   4
  -6   1   1 6129.94 414.178   6
   6  -1  -1 6177.90 399.042   3
   6  -1  -1 6254.69 342.794  11
  -6   1   1 5567.32 251.419   9
   6  -1  -1 5897.19 216.404   1
   6  -1   0 8659.60 492.069   6
  -6   1   0 9814.25 526.548   6
   6  -1   0 8995.86 502.923   3
   6  -1   0 9384.89 447.774  11
   6  -1   0 9313.89 315.427   1
  -6   1   0 8387.14 353.274   9
   6  -1   1 7223.97 424.960   6
  -6   1  -1 7416.44 443.400   6
   6  -1   1 6883.49 425.708   3
   6  -1   1 6731.52 377.988  11
  -6   1  -1 6880.17 315.763   9
   6  -1   2 772.673 124.681   6
  -6   1  -2 669.815 121.793   6
   6  -1   2 777.331 115.874  11
  -6   1  -2 748.534 96.3967   9
   6  -1   2 706.264 121.551   3
   6  -1   2 706.604 64.1765   7
   6  -1   3 285.063 71.1894   6
   6  -1   3 383.217 85.5414  11
  -6   1  -3 186.559 53.1926   9
   6  -1   3 260.656 74.9903   3
   6  -1   4-46.9925 38.4514   6
   6  -1   4-8.13975 19.9699  11
  -6   1  -4 34.7722 19.2777   1
   6  -1   4-21.4893 17.2346   3
   6  -1   5 3.68310 19.0049   6
   6  -1   5 36.5120 37.2885  11
  -6   1  -5 15.8906 30.3042   2
  -6   1  -5 43.7888 15.6297  10
  -6   1  -5 8.65225 21.1075   1
   6  -1   5-17.6926 42.4847   3
   6  -1   6 41.6079 40.4806  11
  -6   1  -6 16.0818 16.2280   2
   6  -1   6 96.6676 42.5746   3
   6  -1   7 295.538 77.9153  11
  -6   1  -7 263.725 80.8266   2
   6  -1   8 144.536 56.5032  11
  -6   1  -8 185.890 84.1670   2
   6   0 -10 2523.28 294.372   3
  -6   0  10 2286.06 210.817   9
   6   0 -10 1895.12 206.125   4
   6   0  -9 833.521 172.602   3
  -6   0   9 820.315 117.022   9
  -6   0   9 681.524 106.499   8
   6   0  -9 701.445 120.295   4
   6   0  -8 708.207 147.544   3
  -6   0   8 832.971 109.866   9
  -6   0   8 694.909 105.227   8
   6   0  -8 635.138 102.922   4
   6   0  -7 1724.92 224.825   3
  -6   0   7 1905.03 167.342   8
   6   0  -7 1711.40 157.142   4
   6   0  -6 3326.74 309.947   3
  -6   0   6 3073.48 216.485   8
  -6   0   5 113.481 54.9555   6
   6   0  -5 128.961 60.6233   3
  -6   0   4 44.5325 27.2915   6
   6   0  -4 40.5464 38.6196   3
   6   0  -3 9045.47 503.563   3
  -6   0   3 10167.5 554.675   6
  -6   0   2 1297.16 182.771   6
   6   0  -2 1405.03 185.126   3
  -6   0   2 1298.11 94.5669   4
   6   0  -1 38949.2 1377.00   3
  -6   0   1 39174.3 1392.84   6
   6   0  -1 41780.0 1290.76  11
   6   0  -1 37606.6 1136.93   1
   6   0   0 82.9429 27.8636   1
   6   0   0 60.7592 32.4286   6
  -6   0   0 105.084 54.2406   6
   6   0   0 166.457 58.0643  11
   6   0   0 166.155 64.9315   3
  -6   0   0 70.5508 29.5063   9
   6   0   1 858.125 93.8026   1
   6   0   1 787.199 130.352   6
  -6   0  -1 755.612 138.751   6
   6   0   1 816.571 116.628  11
  -6   0  -1 823.120 98.4699   9
   6   0   1 884.185 142.994   3
   6   0   1 683.811 99.3198   7
  -6   0  -2 1627.96 192.816   6
   6   0   2 1682.81 194.599   3
   6   0   2 1608.48 171.802  11
   6   0   2 1579.68 141.206   1
  -6   0  -2 1495.35 144.636   9
   6   0   2 1563.98 115.502   7
   6   0   2 1614.85 187.563   6
  -6   0  -3 7399.33 437.625   6
   6   0   3 6874.39 415.690   3
   6   0   3 7132.07 401.926  11
   6   0   3 7155.14 260.292   7
   6   0   3 7871.58 432.164   6
  -6   0  -4 66285.4 2039.82   6
   6   0   4 62513.2 2021.43   3
   6   0   4 66774.3 2009.24  11
   6   0   4 66287.3 2006.70   6
   6   0   5 367.464 80.3810   6
  -6   0  -5 387.011 84.5717   6
   6   0   5 393.703 90.0633  11
  -6   0  -5 331.457 104.194   2
  -6   0  -5 272.956 48.7729  10
   6   0   5 365.954 87.5074   3
   6   0   6 1066.55 146.722  11
  -6   0  -6 1090.13 173.493   2
   6   0   6 826.594 131.270   3
   6   0   7 27.7835 14.4712  11
  -6   0  -7-18.3010 47.7539   2
   6   0   7-23.4795 31.6541   3
   6   0   8 2081.39 220.474  11
  -6   0  -8 2551.43 289.980   2
   6   1 -10 83.2829 67.2311   3
  -6  -1  10 195.353 67.0669   9
   6   1 -10 210.345 69.2794   4
  -6  -1   9 592.140 109.217   9
   6   1  -9 563.823 139.918   3
  -6  -1   9 563.797 90.6938   8
   6   1  -9 625.029 103.976   4
   6   1  -8 173.831 79.7518   3
  -6  -1   8 149.334 39.0280   8
   6   1  -8 188.848 54.6836   4
  -6  -1   7 997.923 178.867   6
   6   1  -7 1008.84 182.767   3
  -6  -1   7 855.941 106.199   8
   6   1  -7 880.010 107.849   4
  -6  -1   6 1440.30 217.998   6
   6   1  -6 1301.34 207.667   3
  -6  -1   5 882.896 164.817   6
   6   1  -5 795.131 155.109   3
  -6  -1   4 987.373 171.412   6
   6   1  -4 865.118 159.516   3
  -6  -1   3 160.435 72.9738   6
   6   1  -3 225.681 87.9724   3
   6   1  -2 32068.4 1226.34   3
  -6  -1   2 32166.0 1254.94   6
   6   1  -1 11167.6 579.609   3
  -6  -1   1 10969.8 593.324   6
  -6  -1   1 9775.65 305.053   4
   6   1   0 1770.12 209.171   3
  -6  -1   0 1828.99 221.926   6
   6   1   0 1784.55 147.140   1
   6   1   0 1839.57 173.277   7
  -6  -1  -1 7667.90 471.255   6
   6   1   1 7461.12 452.637   3
  -6  -1  -1 7800.85 368.410   9
   6   1   1 7056.48 353.894   7
   6   1   1 7254.82 351.120   1
  -6  -1  -2 1864.75 215.362   6
   6   1   2 2065.50 174.873   1
   6   1   2 1829.15 205.987   3
   6   1   2 1872.55 144.442   7
   6   1   2 2188.24 220.770   6
   6   1   3 1091.98 142.613  11
  -6  -1  -3 1107.57 164.954   6
   6   1   3 1039.70 133.149   1
   6   1   3 995.900 145.565   3
   6   1   3 1097.35 97.3386   7
   6   1   3 1241.79 163.574   6
  -6  -1  -4 1745.22 202.838   6
   6   1   4 1546.91 180.902   3
   6   1   4 1930.86 191.109  11
   6   1   4 1701.86 118.653   7
   6   1   4 1802.15 193.960   6
   6   1   5 187.120 58.0720   6
   6   1   5 225.188 62.2208  11
  -6  -1  -5 242.320 73.9812   6
  -6  -1  -5 168.817 45.7794  10
   6   1   5 233.878 66.7305   3
  -6  -1  -5 218.976 83.2982   2
   6   1   5 231.344 37.6756   7
   6   1   6 580.932 107.191  11
  -6  -1  -6 567.894 105.606   6
  -6  -1  -6 655.464 136.036   2
   6   1   6 674.774 115.592   3
   6   1   7 1921.90 190.349   3
  -6  -1  -7 2060.20 256.120   2
  -6  -1  -8 75.9656 60.6307   2
  -6  -1  -8 168.930 76.1796   4
   6   2  -9 350.751 120.501   3
   6   2  -9 370.929 79.2385   4
  -6  -2   8 183.914 86.5605   6
   6   2  -8 111.859 59.8353   3
  -6  -2   8 98.9156 36.1747   8
   6   2  -8 137.529 44.3796   4
  -6  -2   7 7419.32 531.586   6
  -6  -2   7 6794.28 329.830   8
   6   2  -7 7017.59 520.102   3
  -6  -2   6 4368.76 398.484   6
   6   2  -6 4260.88 393.226   3
  -6  -2   5 692.005 148.825   6
   6   2  -5 585.305 132.056   3
  -6  -2   4 122.790 59.1682   6
   6   2  -4 192.255 75.6342   3
  -6  -2   3 14503.9 744.789   6
   6   2  -3 13674.2 723.198   3
  -6  -2   2 2458.84 271.369   6
   6   2  -2 2121.23 218.841   7
   6   2  -2 2254.24 257.568   3
   6   2  -1 19118.1 877.412   3
  -6  -2   1 18995.2 876.525   6
   6   2  -1 20876.9 800.832   7
   6   2   0 4355.34 355.001   3
  -6  -2   0 4440.78 360.548   6
   6   2   0 4322.40 272.767   1
  -6  -2   0 4640.25 152.853   4
   6   2   0 4143.71 285.507   7
  -6  -2  -1 754.010 142.919   6
   6   2   1 678.731 129.096   3
  -6  -2  -1 888.572 76.5766   4
   6   2   1 846.548 111.884   7
   6   2   1 813.385 112.250   1
  -6  -2  -2 4.50455 22.3239   6
   6   2   2 27.7406 24.5986   1
   6   2   2 98.2244 53.1793   3
  -6  -2  -2 39.4219 20.8804   4
   6   2   2 7.90935 7.91006   7
  -6  -2  -3 85.5294 50.5023   6
   6   2   3 27.4445 23.3254   3
  -6  -2  -3 78.1845 36.7677   4
   6   2   3 34.7635 23.5735   7
   6   2   3 8.89454 10.7246   1
  -6  -2  -4 15112.3 713.338   6
   6   2   4 14147.5 653.797   3
   6   2   4 15115.4 661.734   1
  -6  -2  -4 13063.9 583.827  10
  -6  -2  -4 15235.6 612.550   4
   6   2   4 15251.5 546.250   7
  -6  -2  -5 320.652 89.8086   6
   6   2   5 247.876 66.0899   3
   6   2   5 263.453 76.2851   1
  -6  -2  -5 253.105 68.7745   4
   6   2   5 273.722 56.4605   7
  -6  -2  -6 281.065 86.8178   6
  -6  -2  -6 278.666 89.3317   2
   6   2   6 219.494 63.2333   3
  -6  -2  -6 276.994 78.8604   4
  -6  -2  -7 68.5816 53.8238   2
  -6  -2  -7 51.1155 33.4092   4
  -6  -3   9 1028.23 204.021   6
   6   3  -9 1392.87 239.775   3
  -6  -3   8 32.4735 64.7014   6
   6   3  -8-15.8008 43.3367   3
   6   3  -8 3.69420 12.3247   4
  -6  -3   7 23.9859 24.2894   6
   6   3  -7 18.8649 23.1701   3
  -6  -3   7 28.0515 16.0730   8
   6   3  -7 50.7960 24.8072   4
  -6  -3   6 3794.65 376.571   6
   6   3  -6 3442.33 366.930   3
  -6  -3   5 451.899 128.519   6
   6   3  -5 288.112 101.003   3
  -6  -3   4 369.919 106.020   6
   6   3  -4 370.072 100.801   3
  -6  -3   3 12337.4 684.018   6
   6   3  -3 11881.7 626.776   7
   6   3  -3 11552.8 676.579   3
  -6  -3   2 21142.2 957.979   6
   6   3  -2 21479.0 890.273   7
   6   3  -2 21606.6 975.970   3
  -6  -3   1 5554.30 417.820   6
   6   3  -1 5176.23 346.604   7
   6   3  -1 5245.18 412.715   3
   6   3   0 3119.65 305.734   3
  -6  -3   0 3242.54 315.230   6
   6   3   0 2933.97 237.789   1
   6   3   0 3199.44 254.560   7
   6   3   1 2462.91 262.459   3
  -6  -3  -1 2537.40 273.567   6
   6   3   1 2690.83 228.752   1
  -6  -3  -1 2874.75 136.947   4
   6   3   1 2846.81 222.552   7
  -6  -3  -2 5692.69 423.844   6
   6   3   2 5378.34 390.961   3
  -6  -3  -2 6687.83 287.542   4
   6   3   2 5815.81 327.095   7
   6   3   2 5942.54 360.652   1
  -6  -3  -3 7097.22 478.531   6
   6   3   3 7091.19 439.960   3
  -6  -3  -3 7839.01 360.372   4
   6   3   3 7000.16 362.758   7
   6   3   3 7471.54 431.409   1
  -6  -3  -4 130.272 56.7558   6
   6   3   4 78.2810 43.7453   1
   6   3   4 137.069 58.2800   3
  -6  -3  -4 115.456 40.6754   4
   6   3   4 93.0803 34.6893   7
  -6  -3  -5 3927.14 336.469   6
   6   3   5 3575.13 277.965   3
   6   3   5 3431.46 304.455   1
  -6  -3  -5 3925.48 284.278   4
   6   3   5 3467.13 239.446   7
  -6  -3  -6 331.071 99.5977   6
   6   3   6 213.229 64.2651   3
  -6  -3  -6 335.998 104.433   2
  -6  -3  -6 266.860 74.1511   4
  -6  -3  -7 99.5270 57.5617   2
  -6  -3  -7 17.5811 34.1982   4
  -6  -4   9 21.6057 28.0303   6
   6   4  -9 10.7356 43.7364   3
  -6  -4   8 1512.18 250.155   6
   6   4  -8 1970.34 300.722   3
  -6  -4   7 340.835 109.126   6
   6   4  -7 247.143 91.9599   3
  -6  -4   6 1166.69 206.287   6
   6   4  -6 1243.72 221.839   3
  -6  -4   6 813.723 81.0162   8
  -6  -4   5 2293.93 283.832   6
   6   4  -5 1944.68 278.031   3
   6   4  -5 1900.05 249.560   7
   6   4  -4 25.0863 28.9364   3
   6   4  -4 12.4367 34.9471   7
  -6  -4   3 15719.7 826.319   6
   6   4  -3 17128.3 786.955   7
   6   4  -3 14757.9 826.362   3
  -6  -4   2 6335.60 474.263   6
   6   4  -2 6452.21 423.303   7
   6   4  -2 6189.71 487.424   3
  -6  -4   1 3366.59 334.465   6
   6   4  -1 3852.23 303.876   7
   6   4  -1 3760.85 360.765   3
  -6  -4   0 1134.78 184.903   6
   6   4   0 1248.24 199.687   3
   6   4   0 1290.63 160.963   1
   6   4   0 1163.89 153.841   7
   6   4   1 2638.07 284.161   3
  -6  -4  -1 3134.78 311.959   6
   6   4   1 2427.40 234.029   1
   6   4   1 2622.62 227.977   7
   6   4   2 50.7342 45.1122   1
  -6  -4  -2 37.9309 28.3659   6
   6   4   2-41.0016 54.7507   3
  -6  -4  -2 58.4750 24.3047   4
   6   4   2 21.7961 15.0009   7
  -6  -4  -3 1123.61 184.166   6
   6   4   3 782.752 141.779   1
   6   4   3 942.352 150.077   3
  -6  -4  -3 1114.40 118.335   4
   6   4   3 1083.14 138.188   7
  -6  -4  -4 2074.24 255.286   6
   6   4   4 2290.96 231.045   3
   6   4   4 2168.58 239.643   1
  -6  -4  -4 2534.03 208.714   4
   6   4   4 2089.78 196.327   7
  -6  -4  -5 59.7090 49.1393   6
   6   4   5 0.49595 22.2879   3
   6   4   5-27.1318 30.8016   1
  -6  -4  -5 25.2012 22.3924   4
   6   4   5-5.89543 18.2807   7
  -6  -4  -6 514.083 122.965   6
   6   4   6 440.280 113.593   1
  -6  -4  -6 518.591 109.251   4
  -6  -5   8 303.544 105.997   6
   6   5  -8 437.603 148.224   3
   6   5  -8 416.182 125.746   7
   6   5  -7 161.917 89.3694   3
   6   5  -7 227.756 102.950   7
  -6  -5   6 413.069 118.162   6
   6   5  -6 553.527 164.953   3
   6   5  -6 636.768 156.948   7
  -6  -5   5 209.661 86.7294   6
   6   5  -5 129.064 68.6350   3
   6   5  -5 103.273 61.6762   7
  -6  -5   4 112.511 52.0317   6
   6   5  -4 166.383 81.0304   3
   6   5  -4 206.838 75.6567   7
  -6  -5   3 4921.70 438.250   6
   6   5  -3 5153.32 406.202   7
   6   5  -3 5556.30 481.158   3
  -6  -5   2 4483.38 407.521   6
   6   5  -2 4763.45 442.375   5
  -6  -5   2 4782.38 266.181   8
   6   5  -2 4838.97 369.998   7
   6   5  -2 4585.93 429.668   3
  -6  -5   1 1387.23 219.082   6
   6   5  -1 1458.39 234.649   3
   6   5  -1 1684.40 256.928   5
   6   5  -1 1553.21 200.040   7
  -6  -5   0 15.3698 27.6407   6
   6   5   0-37.5812 41.0713   3
   6   5   0 33.9212 13.4055   1
   6   5   0 28.0394 22.5584   7
  -6  -5  -1 210.065 83.9407   6
   6   5   1 177.260 86.6690   3
   6   5   1 262.286 74.3393   1
   6   5   1 341.020 82.6411   7
   6   5   2 13947.6 733.645   3
  -6  -5  -2 15087.5 782.224   6
   6   5   2 14273.9 650.869   7
   6   5   2 13305.2 678.160   1
  -6  -5  -3 123.003 61.5420   6
   6   5   3 56.1055 52.6260   1
   6   5   3 8.04774 23.9595   3
   6   5   3 50.0127 33.3340   7
  -6  -5  -3 154.753 41.7642   4
  -6  -5  -4 111.086 45.1438   6
   6   5   4 100.670 45.5957   3
   6   5   4 90.2575 42.4713   1
   6   5   4 114.171 46.7988   7
  -6  -5  -4 135.569 46.9231   4
   6   5   5 1328.28 167.495   3
  -6  -5  -5 1447.29 219.212   6
   6   5   5 1254.65 203.126   1
   6   5   5 1276.37 168.357   7
  -6  -5  -5 1248.18 157.235   4
   6   5   6 697.016 157.578   1
  -6  -6   7 310.662 114.668   6
   6   6  -7 479.558 149.210   3
   6   6  -7 440.021 140.005   7
  -6  -6   6 268.465 97.5833   6
   6   6  -6 245.946 111.905   3
   6   6  -6 348.579 108.394   7
  -6  -6   5 1777.27 267.385   6
   6   6  -5 2043.69 312.047   3
   6   6  -5 1709.67 282.084   5
   6   6  -5 1851.12 256.324   7
  -6  -6   4 1287.36 225.440   6
   6   6  -4 1322.85 241.553   3
   6   6  -4 1208.56 234.676   5
   6   6  -4 1406.89 217.899   7
  -6  -6   3 1335.58 229.445   6
   6   6  -3 1414.69 247.677   3
   6   6  -3 1406.41 252.890   5
   6   6  -3 1646.04 228.308   7
  -6  -6   2 326.113 110.955   6
   6   6  -2 230.988 88.5916   3
   6   6  -2 310.713 118.451   5
   6   6  -2 296.263 94.6843   7
  -6  -6   1 1736.51 258.354   6
   6   6  -1 1791.58 267.328   3
   6   6  -1 1839.10 282.386   5
   6   6  -1 2022.86 240.024   7
  -6  -6   0 1752.33 255.416   6
   6   6   0 1607.04 243.478   3
   6   6   0 1610.84 216.988   1
   6   6   0 1433.57 252.798   5
   6   6   0 1704.68 210.143   7
  -6  -6  -1 221.777 97.8421   6
   6   6   1 75.4656 67.5683   3
   6   6   1 163.771 75.5770   1
   6   6   1 126.114 78.0845   5
   6   6   1 73.0942 30.4632   7
  -6  -6  -2 119.290 56.2707   6
   6   6   2 240.850 89.9566   3
   6   6   2 152.545 85.3923   5
   6   6   2 214.377 75.8675   7
   6   6   2 116.236 57.0133   1
  -6  -6  -3 542.569 145.087   6
   6   6   3 468.241 119.307   1
   6   6   3 414.871 116.562   3
   6   6   3 366.180 95.9857   7
  -6  -6  -4 372.333 118.833   6
   6   6   4 307.283 86.9242   3
   6   6   4 329.068 99.8407   1
   6   6   4 318.663 83.4896   7
  -6  -7   6-51.4494 78.1684   6
   6   7  -6-18.4986 30.8779   3
   6   7  -6 1.65248 32.2624   5
   6   7  -6-0.32808 24.9362   7
  -6  -7   5 265.049 115.595   6
   6   7  -5 181.580 92.0241   3
   6   7  -5 163.195 92.0580   5
   6   7  -5 193.035 84.7435   7
  -6  -7   4 233.716 97.9816   6
   6   7  -4 205.047 102.341   3
   6   7  -4 24.5564 32.9080   5
   6   7  -4 248.843 95.8231   7
  -6  -7   3 28.0281 47.2417   6
   6   7  -3 86.8658 63.4212   3
   6   7  -3 267.565 129.332   5
   6   7  -3 205.856 90.8403   7
  -6  -7   2 169.028 86.6573   6
   6   7  -2 86.9940 20.9729   3
   6   7  -2 165.108 77.4003   5
   6   7  -2 266.603 93.5811   7
  -6  -7   1 305.179 106.055   6
   6   7  -1 212.846 95.3168   3
   6   7  -1 304.782 115.969   5
   6   7  -1 270.848 92.0232   7
  -6  -7   0 125.690 62.5792   6
   6   7   0 283.073 109.588   3
   6   7   0 264.071 96.2342   1
   6   7   0 143.780 73.5573   5
   6   7   0 214.398 77.3678   7
  -6  -7  -1 158.021 79.7222   6
   6   7   1 146.347 89.1250   3
   6   7   1 72.4482 41.5234   5
   6   7   1 244.531 79.2361   1
   6   7   1 211.246 74.3668   7
  -6  -7  -2 2128.55 296.460   6
   6   7   2 2384.27 345.840   5
   6   7   2 2824.32 309.129   1
   6   7   2 2582.18 272.484   7
   6   7   2 2249.91 293.168   3
   6   7   3 69.9033 42.3168   1
  -6  -7  -3 159.817 77.2331   6
   6   7   3 107.576 59.7350   3
   6   7   3 21.7564 39.7319   5
   6   7   3 135.450 66.3605   7
  -6  -8   3-13.9109 38.7576   6
   6   8  -3-17.8274 63.7247   3
   6   8  -3-66.8786 70.2376   5
   6   8  -3 74.3454 55.2091   7
  -6  -8   2 339.859 114.220   6
   6   8  -2 240.565 99.9144   3
   6   8  -2 109.109 64.6928   5
   6   8  -2 290.940 102.746   7
  -6  -8   1 220.632 105.667   6
   6   8  -1 247.915 116.342   3
   6   8  -1 200.213 98.3519   5
   6   8  -1 184.969 73.8473   7
  -6  -8   0 362.025 122.677   6
   6   8   0 162.637 81.1217   3
   6   8   0 250.673 103.948   1
   6   8   0 382.665 140.322   5
   6   8   0 269.411 95.2373   7
   7  -9  -1 2.88231 34.4594  11
  -7   9   1-80.8946 64.8020   5
  -7   9   1-14.0943 12.8585   2
  -7   9   1-61.4170 46.1188   8
   7  -9   0 741.460 144.562  11
  -7   9   0 850.205 228.751   5
  -7   9   0 690.984 126.971   2
   7  -8  -4 267.908 80.8952  11
  -7   8   4 563.624 142.708  10
  -7   8   4 797.125 208.879   5
  -7   8   4 777.142 148.354   8
   7  -8  -3 18.8997 13.5995  11
  -7   8   3-9.07085 39.4963  10
  -7   8   3 51.5654 79.9462   5
  -7   8   3 35.6887 33.2718   8
   7  -8  -2 52.7022 33.6395  11
  -7   8   2 129.732 90.9334   5
  -7   8   2 64.3506 42.7353  10
  -7   8   2 87.9340 41.6278   2
  -7   8   2 141.066 57.2769   8
   7  -8  -1-49.5947 44.7373  11
  -7   8   1-93.4425 89.8260   5
  -7   8   1 13.6657 13.8341  10
  -7   8   1 44.4663 35.1148   2
   7  -8   0 432.971 108.428  11
  -7   8   0 509.850 166.159   5
  -7   8   0 537.914 119.305  10
  -7   8   0 507.248 105.856   2
   7  -8   1 30.4668 30.0259  11
  -7   8  -1 23.5747 43.7819   5
  -7   8  -1 122.370 45.5822  10
  -7   8  -1 16.6973 22.5501   2
   7  -8   2 16.1431 33.7599  11
  -7   8  -2 123.852 98.7429   5
  -7   8  -2 57.5451 48.1949   2
   7  -8   3 281.029 91.6283  11
  -7   8  -3 540.457 168.696   5
  -7   8  -3 427.779 112.293   2
  -7   7   6 3.39645 47.1434  10
  -7   7   6 11.8667 38.3230   5
  -7   7   6 8.95340 17.0098   8
   7  -7  -6 33.0362 30.1894   3
   7  -7  -5-13.5450 23.5453  11
  -7   7   5-13.0791 49.1268  10
  -7   7   5-61.4007 62.7669   5
  -7   7   5 51.5026 39.4394   8
   7  -7  -5-33.1638 35.4669   3
   7  -7  -4 225.642 68.5054  11
  -7   7   4 282.151 140.469   5
  -7   7   4 354.817 101.792  10
  -7   7   4 543.085 122.138   8
   7  -7  -4 496.348 116.801   3
  -7   7   3 612.509 176.836   5
   7  -7  -3 449.534 99.3111  11
  -7   7   3 762.375 140.488  10
  -7   7   3 753.201 115.792   2
  -7   7   3 657.199 126.483   8
   7  -7  -3 685.769 150.068   3
  -7   7   2-19.0240 35.1005   5
   7  -7  -2-43.4615 35.3113  11
  -7   7   2 29.4716 27.9413  10
  -7   7   2 25.6162 25.5848   2
   7  -7  -2-35.2459 24.4637   3
   7  -7  -1-95.3899 47.0280  11
  -7   7   1 37.9239 43.6543  10
  -7   7   1 20.6753 21.8446   2
   7  -7  -1-36.8989 60.8996   3
   7  -7   0 1640.39 204.264  11
  -7   7   0 1603.76 186.570  10
  -7   7   0 1779.71 205.920   2
  -7   7  -1 1496.08 270.842   5
   7  -7   1 1400.80 189.601  11
  -7   7  -1 1525.38 167.479  10
  -7   7  -1 1402.69 193.465   2
   7  -7   2 1026.98 170.406  11
  -7   7  -2 1303.49 254.497   5
  -7   7  -2 1243.68 190.524   2
   7  -7   3-36.4418 46.5515  11
  -7   7  -3-90.6084 56.4043   5
   7  -7   3 43.1150 28.6391   9
  -7   7  -3 17.7674 30.0672   2
   7  -7   4 301.630 94.9587  11
  -7   7  -4 315.815 116.690   5
   7  -7   4 235.752 61.5456   9
  -7   7  -4 285.095 97.8570   2
   7  -7   5 88.0027 57.1752  11
  -7   7  -5-9.55375 43.0633   5
   7  -7   5 134.053 47.6583   9
  -7   7  -5 39.3446 15.8588   2
  -7   6   7-17.5493 58.3215  10
  -7   6   7-42.9247 49.3404   5
  -7   6   7 2.65728 32.6699   8
   7  -6  -7 26.4701 25.7414   3
   7  -6  -6 39.8466 30.0957  11
  -7   6   6 113.205 56.3008  10
  -7   6   6 119.533 53.5570   8
   7  -6  -6 195.133 74.7131   3
   7  -6  -5 3559.96 325.087   3
   7  -6  -5 2071.51 205.042  11
  -7   6   5 3299.87 326.292  10
  -7   6   5 3544.97 302.007   8
   7  -6  -4 4253.74 358.615   3
   7  -6  -4 2734.75 245.031  11
  -7   6   4 3196.97 327.642  10
  -7   6   4 4080.52 320.744   8
  -7   6   4 3945.34 264.810   2
   7  -6  -3 604.814 108.301  11
  -7   6   3 621.362 124.330  10
  -7   6   3 647.052 109.234   2
   7  -6  -3 771.682 153.951   3
   7  -6  -2 1185.95 161.538  11
  -7   6   2 1377.16 181.426  10
   7  -6  -2 1181.82 190.513   3
  -7   6   2 1566.59 177.512   2
   7  -6  -1 141.373 61.0606  11
  -7   6   1 129.555 48.0984  10
  -7   6   1 104.307 49.6548   2
   7  -6  -1 213.154 68.8068   3
   7  -6   0 1060.35 155.222  11
  -7   6   0 967.482 142.181  10
  -7   6   0 1212.42 162.780   2
   7  -6   0 1301.11 203.000   3
   7  -6   0 379.435 80.7083   7
   7  -6   1 261.546 78.3379  11
  -7   6  -1 251.125 72.1373  10
  -7   6  -1 217.798 78.8447   2
   7  -6   1 269.524 104.010   3
   7  -6   2 33.6822 29.0385  11
  -7   6  -2 23.6039 21.4603  10
  -7   6  -2 54.1815 43.4336   2
   7  -6   3 926.566 158.511  11
   7  -6   3 1058.86 117.476   9
  -7   6  -3 1064.12 177.001   2
   7  -6   4 1035.33 171.301  11
   7  -6   4 855.026 115.763   9
  -7   6  -4 959.151 172.939   2
   7  -6   5 227.072 79.4235  11
  -7   6  -5 374.767 119.782   5
   7  -6   5 182.371 58.0880   9
  -7   6  -5 310.231 99.9586   2
   7  -6   6 848.177 131.798   9
  -7   6  -6 1119.61 190.360   2
  -7   5   8 282.617 109.589   5
  -7   5   8 330.793 117.933  10
  -7   5   8 321.895 89.3774   8
   7  -5  -8 231.209 91.2071   3
  -7   5   7 641.837 155.461  10
  -7   5   7 675.502 130.026   8
   7  -5  -7 574.562 132.145   3
   7  -5  -6 245.085 64.2917  11
  -7   5   6 679.704 151.103  10
   7  -5  -6 668.987 144.967   3
  -7   5   6 769.571 137.008   8
   7  -5  -5 77.3237 37.3609  11
  -7   5   5 31.6455 37.0846  10
   7  -5  -5 106.102 47.2514   3
  -7   5   5 88.1670 55.6769   8
   7  -5  -4 666.038 110.014  11
  -7   5   4 543.680 126.512  10
   7  -5  -4 551.496 124.615   3
   7  -5  -3 798.158 122.156  11
  -7   5   3 725.891 139.728  10
   7  -5  -3 830.525 157.742   3
   7  -5  -2 9.63661 24.2384  11
  -7   5   2 15.4320 23.0433   2
  -7   5   2 33.9052 32.0889  10
   7  -5  -2-50.2198 57.3972   3
   7  -5  -1 1451.97 172.371  11
  -7   5   1 1289.47 167.224  10
   7  -5  -1 1399.95 205.710   3
  -7   5   1 1220.21 168.491   2
   7  -5  -1 724.616 110.319   7
   7  -5   0 5.71835 29.9069  11
  -7   5   0-3.59097 27.5490   2
  -7   5   0 6.06643 14.7755  10
   7  -5   0-25.8201 28.3681   3
   7  -5   0 10.1882 7.83971   7
   7  -5   1 106.018 41.5567  11
  -7   5  -1 108.967 42.3594  10
  -7   5  -1 264.279 81.6005   2
   7  -5   1 230.965 86.3674   3
   7  -5   1 191.588 46.2818   7
   7  -5   2 2918.73 297.315   3
   7  -5   2 2281.03 242.781  11
  -7   5  -2 2365.19 178.355  10
  -7   5  -2 2516.81 268.528   2
   7  -5   3 294.243 86.2007  11
  -7   5  -3 179.666 65.1362   2
   7  -5   3 274.298 93.9161   3
   7  -5   4 2618.78 270.266  11
   7  -5   4 2358.08 200.950   9
  -7   5  -4 2929.38 302.069   2
   7  -5   5 277.136 91.4186  11
  -7   5  -5 387.945 108.875   2
   7  -5   5 236.406 65.3463   9
   7  -5   6-8.55756 32.6200  11
   7  -5   6-13.0153 28.0437   9
  -7   5  -6 40.4493 43.2902   2
  -7   4   8 208.986 83.6887  10
   7  -4  -8 188.826 82.7899   3
  -7   4   8 284.870 83.0121   8
  -7   4   7 13.6580 48.5219  10
   7  -4  -7 4.11213 28.8852   3
  -7   4   7 22.1065 30.0439   8
   7  -4  -6 784.998 156.052   3
  -7   4   6 924.219 143.547   8
   7  -4  -5 2405.28 266.493   3
   7  -4  -5 1982.63 186.970  11
  -7   4   5 1444.96 174.580   2
   7  -4  -4-36.2227 27.2284  11
   7  -4  -4 5.38598 28.6679   3
   7  -4  -3 4003.91 350.569   3
   7  -4  -3 3848.06 275.886  11
   7  -4  -2 3017.04 297.423   3
   7  -4  -2 3322.86 258.411  11
   7  -4  -1 1105.01 146.102  11
   7  -4  -1 1006.00 164.451   3
   7  -4  -1 866.125 112.800   7
   7  -4   0 2937.85 293.428   3
   7  -4   0 2523.21 237.294  11
  -7   4   0 3008.24 266.803   2
   7  -4   1 764.290 130.166  11
  -7   4  -1 563.799 91.1993  10
  -7   4  -1 677.779 132.965   2
   7  -4   1 682.918 137.906   3
   7  -4   1 642.397 73.8490   7
   7  -4   2 1106.15 160.437  11
  -7   4  -2 1050.05 113.577  10
  -7   4  -2 1316.66 188.687   2
   7  -4   2 1172.79 180.443   3
   7  -4   2 935.501 68.0850   7
   7  -4   3 5340.97 408.386   3
   7  -4   3 5241.91 374.706  11
  -7   4  -3 5041.13 237.641  10
  -7   4  -3 5935.54 427.242   2
   7  -4   4 212.851 75.4170  11
  -7   4  -4 175.773 70.9872   2
   7  -4   4 210.428 79.7227   3
   7  -4   5 71.3264 44.1915  11
  -7   4  -5 76.9695 57.0031   2
   7  -4   6 1005.22 167.601  11
  -7   4  -6 1168.30 203.025   2
   7  -4   7 965.072 163.745  11
  -7   4  -7 1039.85 198.219   2
   7  -3  -9 735.023 159.565   3
  -7   3   9 591.703 120.792   8
   7  -3  -8 118.582 63.9324   3
  -7   3   8 98.0542 47.3221   8
   7  -3  -7 1285.63 192.805   3
  -7   3   7 1078.88 155.834   8
   7  -3  -6 2939.86 293.288   3
  -7   3   6 2550.96 242.213   8
   7  -3  -5-8.20867 23.7739   3
   7  -3  -4 3590.65 322.600   3
   7  -3  -4 3493.91 256.022  11
   7  -3  -4 2570.54 119.445   1
   7  -3  -3 648.257 104.997  11
   7  -3  -3 626.508 128.687   3
  -7   3   3 438.954 81.6570   4
   7  -3  -2 272.744 69.0019  11
   7  -3  -2 373.035 104.012   3
   7  -3  -2 215.164 58.9083   7
  -7   3   2 297.324 67.2529   4
   7  -3  -1 739.981 118.010  11
   7  -3  -1 873.159 154.651   3
   7  -3  -1 763.741 104.041   7
   7  -3   0 750.232 119.231  11
   7  -3   0 744.595 140.716   3
   7  -3   1 3403.33 317.125   3
   7  -3   1 3545.66 282.258  11
   7  -3   1 3660.75 194.938   7
   7  -3   2 9.00126 26.3620  11
  -7   3  -2 1.27044 20.7257   2
   7  -3   2-2.18396 32.6390   3
   7  -3   2 11.4193 9.16840   7
   7  -3   3 52.6915 35.5869  11
  -7   3  -3 41.3020 42.9846   2
   7  -3   3 13.8316 36.9213   3
   7  -3   4 192.759 63.6474  11
  -7   3  -4 275.790 90.0557   2
   7  -3   4 332.372 92.8428   3
   7  -3   5 820.967 148.468  11
  -7   3  -5 679.340 146.690   2
   7  -3   5 820.554 150.158   3
   7  -3   6 911.568 155.861  11
  -7   3  -6 890.495 173.686   2
   7  -3   7 44.2745 20.6697  11
  -7   3  -7-35.9578 44.6868   2
   7  -2  -9 202.098 91.0045   3
  -7   2   9 184.271 68.7584   8
   7  -2  -8 1286.92 207.578   3
  -7   2   8 1328.08 170.645   8
   7  -2  -7 696.110 147.831   3
  -7   2   7 768.353 125.615   8
   7  -2  -6 240.014 86.6213   3
  -7   2   6 214.023 67.7528   8
  -7   2   5 544.905 46.2906   9
   7  -2  -5 513.135 125.155   3
  -7   2   5 282.274 68.0701   4
   7  -2  -5 477.481 68.5630   1
   7  -2  -4 1024.27 82.1647   1
  -7   2   4 780.707 52.1970   9
   7  -2  -4 1341.58 200.132   3
  -7   2   4 734.627 106.063   4
   7  -2  -3 368.973 80.5423  11
  -7   2   3 334.498 34.4624   9
   7  -2  -3 542.398 124.679   3
  -7   2   3 278.682 58.5240   4
   7  -2  -3 288.451 25.3714   1
   7  -2  -2 14838.1 704.058   3
   7  -2  -2 13690.9 585.697  11
  -7   2   2 12136.5 399.020   9
  -7   2   2 11405.4 487.463   4
   7  -2  -1 1422.80 165.513  11
  -7   2   1 1331.03 99.1818   9
   7  -2  -1 1461.17 201.143   3
   7  -2  -1 1241.84 135.181   7
   7  -2   0-7.58057 27.1681  11
  -7   2   0 38.3419 29.7516   9
   7  -2   0 43.8611 33.5579   3
   7  -2   0 30.1271 19.5427   7
   7  -2   1 415.364 92.7705  11
  -7   2  -1 222.700 47.5640   9
   7  -2   1 435.453 108.216   3
   7  -2   1 284.652 48.4849   7
   7  -2   2 126.589 54.8095  11
  -7   2  -2 47.0497 15.0269   9
   7  -2   2 210.217 72.4835   3
   7  -2   2 48.6661 14.8249   7
   7  -2   2 111.673 24.7362   7
   7  -2   3 31944.2 1246.19   3
   7  -2   3 32553.5 1197.43  11
  -7   2  -3 35304.7 1290.03   2
   7  -2   4 1695.16 213.859   3
   7  -2   4 1525.54 191.197  11
  -7   2  -4 1635.31 222.946   2
   7  -2   4 1411.83 178.239   6
   7  -2   5 137.299 59.8210  11
  -7   2  -5 253.877 96.2692   2
   7  -2   5 180.870 62.3431   3
   7  -2   6 337.398 92.8754  11
  -7   2  -6 343.274 109.376   2
   7  -2   6 171.677 66.2946   3
   7  -2   7 726.603 132.497  11
  -7   2  -7 829.992 174.365   2
   7  -1  -9 60.0616 70.4367   3
  -7   1   9 33.3651 34.7254   8
   7  -1  -8 217.782 91.5054   3
  -7   1   8 153.802 49.9605   8
  -7   1   7 641.776 81.2245   9
   7  -1  -7 513.238 124.855   3
  -7   1   7 517.320 100.009   8
   7  -1  -6 2990.96 310.339   3
   7  -1  -5 1175.14 192.079   3
  -7   1   5 802.593 107.955   4
   7  -1  -4 4194.76 359.454   3
  -7   1   4 2778.94 194.761   4
   7  -1  -3 8718.55 516.681   3
  -7   1   3 5217.49 279.194   4
   7  -1  -2 910.145 133.448  11
   7  -1  -2 977.759 160.499   3
   7  -1  -2 934.040 73.2567   1
  -7   1   2 714.266 88.6556   4
   7  -1  -1-35.5517 42.4370  11
  -7   1   1-0.57198 7.61274   9
   7  -1  -1 34.5023 37.6847   3
   7  -1  -1 6.54172 6.17795   1
   7  -1   0 1832.08 223.227   3
   7  -1   0 1930.01 197.080  11
  -7   1   0 1619.11 134.115   9
   7  -1   1 270.955 71.1857  11
  -7   1  -1 206.865 51.8474   9
   7  -1   1 292.326 85.6111   3
   7  -1   1 170.769 54.2670   7
   7  -1   2 92.8777 42.1191  11
  -7   1  -2 41.2179 24.2914   9
   7  -1   2 1.88466 20.0002   3
   7  -1   2 39.0378 18.9885   7
   7  -1   3 73.2664 46.3525  11
   7  -1   3 60.9047 34.2436   3
   7  -1   4 397.645 95.3113  11
  -7   1  -4 240.124 83.8034   2
   7  -1   4 339.412 90.3679   3
   7  -1   5 2545.94 256.381   3
   7  -1   5 2643.92 253.408  11
  -7   1  -5 2854.86 306.930   2
   7  -1   6 1068.07 159.122  11
  -7   1  -6 1371.94 216.211   2
   7  -1   6 995.291 158.161   3
   7  -1   7 1201.59 173.232  11
  -7   1  -7 1605.84 233.007   2
   7   0  -9 55.7088 50.8117   3
  -7   0   9 12.4880 19.5325   8
  -7   0   8 444.141 80.5628   9
   7   0  -8 532.124 135.034   3
  -7   0   8 400.404 84.9794   8
   7   0  -7 955.597 181.236   3
  -7   0   7 628.995 104.989   8
   7   0  -6 1783.48 242.420   3
   7   0  -5 437.031 118.314   3
   7   0  -4 4395.88 379.801   3
  -7   0   4 4485.50 409.647   6
  -7   0   3 1029.52 188.354   6
   7   0  -3 969.912 175.407   3
  -7   0   3 728.031 72.8214   4
   7   0  -2 10073.0 576.567   3
  -7   0   2 9482.75 584.546   6
  -7   0   2 8113.02 317.092   4
   7   0  -1 2957.48 293.697   3
  -7   0   1 3089.28 311.658   6
   7   0  -1 3123.77 177.606   1
  -7   0   1 2548.54 148.233   4
   7   0   0 709.014 121.863  11
  -7   0   0 799.781 153.114   6
  -7   0   0 513.481 82.6234   9
   7   0   0 703.527 140.574   3
   7   0   0 745.271 83.7351   1
   7   0   0 555.254 97.6241   7
   7   0   1 1657.10 138.262   1
   7   0   1 1893.67 198.611  11
  -7   0  -1 1514.11 209.827   6
  -7   0  -1 1569.84 150.895   9
   7   0   1 1594.44 205.291   3
   7   0   1 1417.87 143.626   7
   7   0   2 67.4432 31.9926   1
  -7   0  -2 106.422 53.7985   6
   7   0   2 105.332 44.9854  11
   7   0   2 66.5410 47.3205   3
   7   0   2 65.4702 24.4233   7
  -7   0  -3 15339.9 732.142   6
   7   0   3 14156.5 694.730   3
   7   0   3 14649.4 672.456  11
   7   0   3 14679.2 466.733   7
  -7   0  -4 668.903 131.321   6
   7   0   4 659.087 124.117  11
   7   0   4 541.329 119.648   3
   7   0   5 534.660 110.201  11
  -7   0  -5 505.625 133.334   2
   7   0   5 484.506 105.821   3
   7   0   6 145.295 62.6787  11
  -7   0  -6 140.966 68.7503   2
   7   0   6 167.550 67.7694   3
   7   0   7 119.824 52.7087  11
  -7   0  -7 294.436 106.212   2
   7   0   7 84.8263 49.0255   3
   7   1  -9 710.659 166.178   3
  -7  -1   9 254.853 73.4615   8
   7   1  -8 90.5915 42.8378   3
  -7  -1   8 86.1528 39.1450   8
   7   1  -7 773.452 163.499   3
  -7  -1   7 432.824 83.4483   8
  -7  -1   6 358.658 118.013   6
   7   1  -6 418.858 117.182   3
  -7  -1   5 189.016 65.4051   6
   7   1  -5 521.672 134.195   3
   7   1  -4 2488.18 287.380   3
  -7  -1   4 2393.53 289.167   6
   7   1  -3 12160.6 688.272   3
  -7  -1   3 12405.1 721.245   6
   7   1  -2 2740.16 293.974   3
  -7  -1   2 2881.69 309.404   6
  -7  -1   1 83.4800 45.6853   6
   7   1  -1 122.171 42.1521   1
   7   1  -1 91.2702 54.3676   3
  -7  -1   1 98.5697 16.4045   4
   7   1  -1 62.1018 29.9317   7
  -7  -1   0 9290.80 583.133   6
   7   1   0 9468.15 567.473   3
   7   1   0 9265.05 409.854   1
   7   1   0 9003.28 452.382   7
  -7  -1  -1 8452.67 543.767   6
   7   1   1 8375.23 521.181   3
   7   1   1 7673.95 391.557   7
   7   1   1 8888.92 398.831   1
  -7  -1  -2 42.0589 39.7365   6
   7   1   2 36.0651 22.0459   1
   7   1   2 6.19607 40.7149   3
   7   1   2 32.4077 16.6817   7
  -7  -1  -3 734.203 149.883   6
   7   1   3 704.249 134.210   3
   7   1   3 886.287 90.3661   7
   7   1   3 746.441 117.449   1
  -7  -1  -4 20.7136 17.0146   6
   7   1   4 29.4627 29.3036   3
   7   1   4 23.3898 13.9116   7
  -7  -1  -5 4.43337 19.1209   6
   7   1   5 2.66524 23.8708   3
  -7  -1  -6 404.725 114.288   2
   7   1   6 475.919 104.565   3
  -7  -1  -7 2635.73 279.599   4
  -7  -1  -7 3367.29 348.287   2
   7   2  -9 390.612 124.193   3
  -7  -2   8 218.409 91.1279   6
   7   2  -8 273.807 114.342   3
  -7  -2   8 180.567 49.6367   8
  -7  -2   7 567.897 155.567   6
   7   2  -7 629.258 152.463   3
  -7  -2   7 414.056 78.6339   8
  -7  -2   6 225.440 101.875   6
   7   2  -6 100.067 59.5259   3
  -7  -2   5 141.382 71.6756   6
   7   2  -5 218.458 88.8908   3
  -7  -2   4 860.987 174.681   6
   7   2  -4 514.186 137.521   3
   7   2  -3 4069.40 385.018   3
  -7  -2   3 4431.24 410.417   6
  -7  -2   2-60.5925 70.4720   6
   7   2  -2-15.6372 28.4850   3
   7   2  -2 29.0405 29.8038   7
   7   2  -1 4861.13 408.072   3
  -7  -2   1 5170.38 430.922   6
   7   2  -1 4670.20 345.417   7
  -7  -2   0 767.973 160.742   6
   7   2   0 625.004 136.843   3
   7   2   0 762.985 110.995   1
   7   2   0 525.104 107.443   7
   7   2   1 56.6155 38.3557   1
  -7  -2  -1 120.176 56.5084   6
   7   2   1 28.7208 39.2414   3
  -7  -2  -1 107.320 24.5478   4
   7   2   1 154.449 54.7677   7
  -7  -2  -2 802.212 156.096   6
   7   2   2 822.141 150.870   3
   7   2   2 1007.39 133.472   1
  -7  -2  -2 828.984 91.6730   4
   7   2   2 732.453 100.283   7
  -7  -2  -3 2221.89 263.304   6
   7   2   3 2276.65 244.936   3
   7   2   3 2277.58 216.091   1
  -7  -2  -3 2241.73 179.980   4
   7   2   3 2177.55 170.158   7
  -7  -2  -4 275.734 88.9203   6
   7   2   4 208.752 67.1964   3
   7   2   4 189.258 62.7598   1
  -7  -2  -4 249.608 60.4639   4
   7   2   4 226.330 47.6388   7
  -7  -2  -5 150.342 72.5134   6
   7   2   5 174.029 64.6777   3
  -7  -2  -5 127.852 44.5204   4
  -7  -2  -6 33.4937 28.1621   2
   7   2   6-43.8636 37.0722   3
  -7  -2  -6 16.6709 33.3802   4
  -7  -3   8 361.296 113.997   6
   7   3  -8 403.703 128.985   3
  -7  -3   7 184.414 84.8316   6
   7   3  -7 169.255 81.6697   3
  -7  -3   6 223.358 106.016   6
   7   3  -6 350.434 118.994   3
  -7  -3   5 16.7348 19.7397   6
   7   3  -5-2.24655 29.0332   3
  -7  -3   4 2416.43 310.278   6
   7   3  -4 1743.94 264.938   3
   7   3  -4 1884.98 243.056   7
  -7  -3   3 1759.47 265.924   6
   7   3  -3 2105.58 282.094   3
   7   3  -3 1997.77 242.018   7
  -7  -3   2 151.064 76.9647   6
   7   3  -2 245.361 96.4763   3
   7   3  -2 216.927 67.8180   7
  -7  -3   1-15.3286 24.4250   6
   7   3  -1-0.83189 42.7123   3
   7   3  -1 32.4553 27.8095   7
  -7  -3   0 650.312 145.288   6
   7   3   0 400.665 110.180   3
   7   3   0 536.285 97.1664   1
   7   3   0 502.130 100.133   7
   7   3   1 14605.4 764.062   3
  -7  -3  -1 14878.2 797.717   6
   7   3   1 15056.1 655.328   1
   7   3   1 15186.1 641.958   7
  -7  -3  -2 319.968 99.5922   6
   7   3   2 303.417 76.2615   1
   7   3   2 368.619 100.956   3
  -7  -3  -2 331.893 50.3186   4
   7   3   2 321.354 72.0247   7
  -7  -3  -3 61.1612 46.4316   6
   7   3   3 57.3651 30.8292   3
   7   3   3 60.9971 29.6161   1
  -7  -3  -3 144.219 42.1883   4
   7   3   3 80.9981 27.9080   7
  -7  -3  -4 2884.91 308.894   6
   7   3   4 2530.90 262.431   3
   7   3   4 2585.70 257.050   1
  -7  -3  -4 3065.50 225.764   4
   7   3   4 2354.24 195.687   7
  -7  -3  -5-3.71643 30.5998   6
   7   3   5 5.53961 19.6838   1
   7   3   5 27.0055 22.4309   3
  -7  -3  -5 0.62932 23.5805   4
  -7  -3  -6 1190.66 204.101   2
  -7  -3  -6 1140.18 161.157   4
  -7  -4   8 325.801 117.358   6
   7   4  -8 595.229 161.166   3
  -7  -4   7 458.165 134.558   6
   7   4  -7 520.091 150.996   3
  -7  -4   6 790.031 181.245   6
   7   4  -6 803.662 191.943   3
   7   4  -6 593.793 150.066   7
  -7  -4   5 589.647 155.460   6
   7   4  -5 350.093 120.181   3
   7   4  -5 260.432 92.6858   7
  -7  -4   4 331.916 118.532   6
   7   4  -4 346.690 115.740   3
   7   4  -4 445.756 116.906   7
  -7  -4   3 9865.24 654.734   6
   7   4  -3 9108.32 562.842   7
   7   4  -3 9515.50 655.323   3
  -7  -4   2-56.4861 54.9766   6
   7   4  -2-15.5778 45.6378   3
   7   4  -2-13.8071 26.4217   7
  -7  -4   1 64.1403 47.6422   6
   7   4  -1 54.8124 63.6543   3
   7   4  -1-4.34702 29.8540   7
  -7  -4   0 47.5855 57.4837   6
   7   4   0 32.0411 32.3873   3
   7   4   0 4.47198 26.8644   1
   7   4   0-31.0096 32.0814   7
  -7  -4  -1-27.1659 36.1344   6
   7   4   1-34.1965 48.5474   3
   7   4   1 10.0384 32.2810   1
   7   4   1-20.3546 29.6407   7
   7   4   2 185.912 67.3301   1
  -7  -4  -2 173.549 73.4815   6
   7   4   2 198.964 115.094   3
   7   4   2 106.400 44.7126   7
  -7  -4  -3 798.666 167.484   6
   7   4   3 491.195 121.470   3
   7   4   3 503.749 115.103   1
   7   4   3 542.628 101.417   7
   7   4   4 123.761 57.7358   1
  -7  -4  -4 88.9798 47.0693   6
   7   4   4 108.414 44.2122   3
   7   4   4 162.129 63.7895   7
   7   4   5 79.6718 33.1462   1
  -7  -4  -5 176.643 82.2917   6
   7   4   5 142.200 56.4565   3
  -7  -5   7 357.271 130.587   6
   7   5  -7 546.676 164.204   3
   7   5  -7 495.574 146.185   7
  -7  -5   6 679.125 165.778   6
   7   5  -6 515.941 156.523   3
   7   5  -6 728.405 173.350   7
  -7  -5   5-42.8623 71.0800   6
   7   5  -5-40.5531 80.5909   3
   7   5  -5 23.8256 43.6945   7
  -7  -5   4-8.94500 22.2411   6
   7   5  -4 23.9857 53.6633   3
   7   5  -4 23.2886 56.8771   7
  -7  -5   3 139.390 63.6722   6
   7   5  -3 140.303 80.3900   3
   7   5  -3 33.1212 26.0038   7
  -7  -5   2 157.327 76.2293   6
   7   5  -2 184.211 90.7364   3
   7   5  -2 237.252 92.7100   7
  -7  -5   1 666.046 162.827   6
   7   5  -1 329.581 108.806   3
   7   5  -1 457.516 109.307   7
  -7  -5   0 256.299 105.363   6
   7   5   0 279.970 101.457   3
   7   5   0 291.179 84.6835   1
   7   5   0 381.733 97.6004   7
  -7  -5  -1 905.172 189.572   6
   7   5   1 947.420 186.009   3
   7   5   1 820.185 156.934   1
   7   5   1 909.379 147.440   7
   7   5   2 179.253 65.7768   1
  -7  -5  -2 139.711 67.3866   6
   7   5   2 132.547 50.1209   3
   7   5   2 154.645 58.5258   7
  -7  -5  -3 272.007 102.298   6
   7   5   3 385.032 99.9433   1
   7   5   3 184.725 70.3902   3
   7   5   3 314.529 79.4037   7
  -7  -5  -4 231.227 115.104   6
   7   5   4 208.504 78.4998   3
   7   5   4 410.106 109.414   1
   7   5   4 236.387 61.1386   7
  -7  -6   5 495.431 151.752   6
   7   6  -5 461.441 151.949   3
   7   6  -5 480.592 137.021   7
  -7  -6   4 173.410 97.5154   6
   7   6  -4 252.311 111.649   3
   7   6  -4 194.834 97.8958   7
  -7  -6   3 1168.42 232.059   6
   7   6  -3 1076.90 225.304   3
   7   6  -3 1510.87 225.274   7
  -7  -6   2 236.750 97.2335   6
   7   6  -2 131.128 75.8369   3
   7   6  -2 120.235 66.4588   7
  -7  -6   1 174.738 77.7434   6
   7   6  -1 23.0625 17.6545   3
   7   6  -1 96.9432 51.7498   7
  -7  -6   0 755.610 176.159   6
   7   6   0 414.470 129.097   3
   7   6   0 538.124 121.950   1
   7   6   0 475.218 113.047   7
  -7  -6  -1 34.5680 18.3899   6
   7   6   1-2.26930 29.9750   3
   7   6   1 27.0215 46.0751   1
   7   6   1-23.5983 33.3165   7
   7   6   2 776.192 150.561   1
  -7  -6  -2 573.556 170.203   6
   7   6   2 355.621 107.701   3
   7   6   2 562.443 118.379   7
  -7  -7   3 122.848 61.3929   6
   7   7  -3 134.048 47.0842   3
   7   7  -3 235.452 88.4413   7
  -7  -7   2 1522.31 271.326   6
   7   7  -2 1661.00 281.561   3
   7   7  -2 1840.41 250.521   7
  -7  -7   1 116.446 77.0972   6
   7   7  -1 52.8124 55.8974   3
   7   7  -1-3.39039 25.8163   7
  -7  -7   0-21.0354 47.1657   6
   7   7   0-7.73252 56.2611   3
   7   7   0 72.5584 54.3997   1
   7   7   0 36.8275 36.4857   7
   8  -8  -1-16.6130 32.6005  11
  -8   8   1 112.136 113.008   5
  -8   8   1 57.1891 39.8912   2
   8  -8   0 189.093 70.0516  11
  -8   8   0 168.560 66.6965   2
   8  -7  -4 299.433 90.9326  11
  -8   7   4 501.467 140.540  10
  -8   7   4 1139.02 182.591   8
   8  -7  -4 1075.14 194.889   3
   8  -7  -3 143.884 58.2511  11
  -8   7   3 156.164 77.4994  10
  -8   7   3 255.865 79.8736   2
   8  -7  -3 234.900 96.8311   3
   8  -7  -2 234.855 78.3366  11
  -8   7   2 387.300 107.901  10
  -8   7   2 250.469 77.3650   2
   8  -7  -2 279.204 98.1910   3
   8  -7  -1 6.84361 24.0725  11
  -8   7   1 24.4290 30.2409  10
   8  -7  -1-60.2964 40.4255   3
   8  -7   0 279.181 82.9775  11
  -8   7   0 234.281 79.4143  10
  -8   7   0 421.675 106.434   2
   8  -7   0 376.290 111.073   3
   8  -7   1 1313.64 199.662  11
  -8   7  -1 1045.28 174.564   2
   8  -7   2 313.893 94.8626  11
  -8   7  -2 343.271 103.203   2
  -8   7  -3 969.313 182.308   2
   8  -6  -5-14.3500 15.5521  11
  -8   6   5-8.60529 40.7824  10
  -8   6   5 50.3440 45.5400   8
   8  -6  -5-55.4808 44.7100   3
   8  -6  -4 476.693 104.044  11
  -8   6   4 826.662 130.559   2
  -8   6   4 772.462 166.115  10
   8  -6  -4 981.426 184.969   3
   8  -6  -3 497.742 110.779  11
  -8   6   3 679.040 124.734   2
  -8   6   3 591.318 133.869  10
   8  -6  -3 811.139 166.418   3
   8  -6  -2 25.5406 14.6183  11
  -8   6   2 34.4927 31.3436  10
  -8   6   2 43.8230 39.5327   2
   8  -6  -2-17.6913 32.3079   3
   8  -6  -1 95.9228 45.6047  11
  -8   6   1 35.3087 49.6343  10
  -8   6   1 89.3129 44.3845   2
   8  -6  -1-72.1085 55.1479   3
   8  -6   0 565.365 120.270  11
  -8   6   0 319.923 96.7008  10
  -8   6   0 511.003 118.648   2
   8  -6   0 534.099 140.326   3
   8  -6   1 161.455 63.3564  11
  -8   6  -1 95.8354 44.0290  10
  -8   6  -1 127.806 60.6534   2
   8  -6   1 99.9406 73.1037   3
   8  -6   2 1890.40 239.755  11
   8  -6   2 1740.52 252.308   3
  -8   6  -2 1958.53 248.926   2
   8  -6   3-20.7946 38.5624  11
  -8   6  -3-38.0695 38.6139   2
   8  -6   4 91.9392 64.6049  11
  -8   6  -4 46.4920 32.1000   2
   8  -5  -6 0.64616 20.2370  11
  -8   5   6-73.1474 56.0788  10
   8  -5  -6 11.5893 36.3398   3
  -8   5   6 16.6793 24.9592   8
   8  -5  -5 179.227 68.7309  11
  -8   5   5 291.860 107.655  10
   8  -5  -5 256.687 96.5729   3
  -8   5   5 465.484 110.322   8
   8  -5  -4 3418.60 338.578   3
   8  -5  -4 2194.28 221.133  11
  -8   5   4 3351.09 323.577  10
   8  -5  -3 480.902 99.7424  11
  -8   5   3 553.125 122.645  10
   8  -5  -3 551.439 139.345   3
   8  -5  -2 150.190 56.2517  11
  -8   5   2 92.0743 55.5819  10
   8  -5  -2 106.702 67.3535   3
  -8   5   2 163.562 63.7459   2
   8  -5  -1 55.6318 43.0851  11
  -8   5   1 75.4461 51.0917   2
  -8   5   1 3.76207 19.3550  10
   8  -5  -1 14.2365 30.3609   3
   8  -5   0 400.169 99.5748  11
  -8   5   0 378.000 99.2339   2
  -8   5   0 345.634 90.8843  10
   8  -5   0 522.013 134.467   3
   8  -5   1 687.976 130.249  11
  -8   5  -1 711.229 108.493  10
  -8   5  -1 714.445 143.413   2
   8  -5   1 749.845 158.692   3
   8  -5   2 210.525 78.3413  11
  -8   5  -2 360.482 103.393   2
   8  -5   2 334.194 110.680   3
   8  -5   3 908.336 162.532  11
  -8   5  -3 982.376 180.140   2
   8  -5   3 915.020 171.327   3
   8  -5   4 11.0028 34.7032  11
  -8   5  -4-15.6024 31.5594   2
   8  -5   5 1689.72 236.632  11
  -8   5  -5 1981.83 271.694   2
   8  -4  -7 62.3243 54.3037   3
  -8   4   7 66.8387 55.6687   8
   8  -4  -6 13.3680 20.3224   3
  -8   4   6 38.6457 31.9198   8
   8  -4  -5 639.040 111.644  11
   8  -4  -5 885.191 168.755   3
   8  -4  -4 475.346 94.9028  11
   8  -4  -4 504.717 130.303   3
   8  -4  -3 5045.24 421.347   3
   8  -4  -3 4335.11 322.276  11
   8  -4  -2 28.6073 34.4222  11
   8  -4  -2 81.4800 59.5741   3
   8  -4  -1 1310.56 172.830  11
   8  -4  -1 1214.44 201.427   3
   8  -4   0 1561.11 198.260  11
   8  -4   0 1413.19 217.321   3
  -8   4   0 1293.43 195.502   2
   8  -4   1 732.969 137.467  11
  -8   4  -1 716.336 143.242   2
   8  -4   1 892.880 167.934   3
   8  -4   2 6044.49 463.993   3
   8  -4   2 6131.82 429.358  11
  -8   4  -2 5252.65 309.982  10
  -8   4  -2 6585.42 468.884   2
   8  -4   3 4377.49 386.451   3
   8  -4   3 4110.31 349.738  11
  -8   4  -3 4318.74 384.969   2
   8  -4   4 1300.34 193.872  11
  -8   4  -4 1412.33 218.744   2
   8  -4   4 987.292 180.998   3
   8  -4   5 148.745 71.9200  11
  -8   4  -5 47.8765 48.7484   2
   8  -4   5 89.2579 51.8115   3
  -8   3   8 251.293 90.5867   8
   8  -3  -7 548.487 137.712   3
  -8   3   7 638.026 123.488   8
   8  -3  -6-89.0091 55.0035   3
  -8   3   6-18.0268 27.4959   8
   8  -3  -5 402.057 110.158   3
   8  -3  -4 2649.23 299.067   3
   8  -3  -4 2519.77 231.448  11
   8  -3  -3-9.83143 30.2089  11
   8  -3  -3-22.9273 42.8177   3
   8  -3  -2-63.3587 38.7947  11
   8  -3  -2-38.2178 38.0798   3
   8  -3  -1 6180.38 463.428   3
   8  -3  -1 6289.93 390.788  11
   8  -3  -1 4611.78 300.913   7
   8  -3   0 659.101 123.444  11
   8  -3   0 660.270 149.157   3
   8  -3   1 782.421 136.853  11
   8  -3   1 806.017 167.275   3
   8  -3   2-14.0558 30.4265  11
  -8   3  -2-20.3005 19.4926   2
   8  -3   3 123.872 62.1515  11
  -8   3  -3 87.9115 49.1053   2
   8  -3   3 286.039 94.8309   3
   8  -3   4 183.821 75.7094  11
  -8   3  -4 294.582 99.3469   2
   8  -3   4 230.060 86.9109   3
   8  -3   5 953.575 165.876  11
  -8   3  -5 1069.24 196.156   2
   8  -3   5 708.096 148.247   3
   8  -2  -8 33.8302 40.2789   3
  -8   2   8 62.8261 45.9784   8
   8  -2  -7 15.5347 39.4364   3
  -8   2   7 48.2605 43.3514   8
   8  -2  -6 202.627 75.8179   3
   8  -2  -5 1473.55 228.535   3
   8  -2  -4 790.515 162.315   3
   8  -2  -3 5069.46 410.460   3
   8  -2  -3 5476.00 346.376  11
   8  -2  -2 57.9153 37.3953  11
   8  -2  -2-5.64558 24.6699   3
  -8   2   2 27.2430 19.5539   4
   8  -2  -1 2070.90 258.449   3
   8  -2  -1 1792.47 201.305  11
   8  -2  -1 1365.32 146.420   7
   8  -2   0 140.595 54.5832  11
  -8   2   0 47.8779 14.7687   9
   8  -2   0 129.177 66.7043   3
   8  -2   1 50.6301 36.1306  11
  -8   2  -1 4.21291 7.78530   9
   8  -2   1 57.5167 44.5328   3
   8  -2   1 32.4327 29.7109   7
   8  -2   2 11271.2 652.803   3
   8  -2   2 11404.6 604.304  11
   8  -2   3 10110.5 609.843   3
   8  -2   3 10051.4 567.377  11
  -8   2  -3 10871.9 634.834   2
   8  -2   4 77.3187 36.8768  11
  -8   2  -4 4.42693 21.5219   2
   8  -2   4 25.6716 50.5935   3
   8  -2   5 1896.50 230.840  11
   8  -2   5 1469.42 216.746   3
  -8   2  -5 2025.78 272.181   2
   8  -2   6 24.0540 43.2230  11
  -8   2  -6-15.6751 29.3872   2
   8  -2   6 27.0576 29.6027   3
   8  -1  -8 544.111 155.178   3
  -8   1   8 500.040 99.5603   8
   8  -1  -7 61.7573 49.0480   3
  -8   1   7-11.6099 22.5131   8
   8  -1  -6 266.065 101.022   3
   8  -1  -5 72.8873 53.5057   3
   8  -1  -4 4499.19 402.650   3
   8  -1  -3 1009.21 189.357   3
  -8   1   2 289.034 51.2417   9
   8  -1  -2 641.621 144.553   3
  -8   1   2 341.232 58.8796   4
   8  -1  -2 542.090 48.6754   1
   8  -1  -1 4360.34 381.830   3
   8  -1  -1 4578.86 334.359  11
  -8   1   1 3233.42 205.776   9
   8  -1   0 10976.5 628.788   3
   8  -1   0 10666.9 547.199  11
   8  -1   1 236.455 80.3506  11
  -8   1  -1 117.851 39.9617   9
   8  -1   1 248.128 86.3338   3
   8  -1   1 215.505 59.2256   7
   8  -1   2 300.393 79.6843  11
   8  -1   2 331.121 100.172   3
   8  -1   2 264.422 45.3298   7
   8  -1   3 734.101 136.062  11
   8  -1   3 687.101 146.089   3
   8  -1   4 988.926 158.894  11
  -8   1  -4 1013.09 182.591   2
   8  -1   4 550.781 130.730   3
   8  -1   5 213.349 78.5089  11
  -8   1  -5 300.689 101.735   2
   8  -1   5 167.504 69.6390   3
   8  -1   6 697.557 138.146  11
  -8   1  -6 739.824 159.930   2
   8  -1   6 639.078 134.995   3
   8   0  -8 1619.20 248.914   3
  -8   0   8 538.029 113.429   8
   8   0  -7 622.600 154.930   3
  -8   0   7 419.167 88.0523   8
   8   0  -6 394.881 122.600   3
   8   0  -5-25.8014 44.7434   3
   8   0  -4 4088.91 397.466   3
  -8   0   4 5023.30 455.963   6
  -8   0   3 93.3443 60.0880   6
   8   0  -3 47.5586 19.8746   3
  -8   0   2 357.467 114.429   6
   8   0  -2 234.274 88.1126   3
   8   0  -2 316.180 59.1941   1
   8   0  -1 254.986 48.5168   1
  -8   0   1 203.900 85.1375   6
  -8   0   1 148.533 38.6791   9
   8   0  -1 149.442 57.9857   3
   8   0   0 923.959 95.6610   1
  -8   0   0 709.283 155.943   6
   8   0   0 813.917 163.377   3
   8   0   0 609.887 117.354   7
   8   0   1-25.4583 35.2834  11
  -8   0  -1 42.1402 56.7182   6
   8   0   1-22.8805 24.4292   1
   8   0   1-6.03348 35.8465   3
   8   0   1-16.2351 28.3767   7
  -8   0  -2 3633.34 354.266   6
   8   0   2 3635.67 340.382   3
   8   0   2 3816.84 318.178  11
   8   0   2 3584.03 207.071   7
  -8   0  -3 3335.12 329.449   6
   8   0   3 2864.58 297.413   3
   8   0   3 2992.69 287.468  11
   8   0   4 122.919 65.1644  11
   8   0   4 137.733 79.8549   3
   8   0   5 271.577 90.8694  11
  -8   0  -5 242.773 87.1832   2
   8   0   5 264.446 93.6212   3
   8   1  -8 91.1853 67.4716   3
  -8  -1   8 1.90398 14.7438   8
   8   1  -7 104.338 57.1551   3
  -8  -1   7 59.3529 44.6030   8
  -8  -1   6-1.06011 28.5814   6
   8   1  -6-3.50105 19.1390   3
  -8  -1   5 850.476 193.917   6
   8   1  -5 731.216 171.150   3
   8   1  -4 3223.01 354.228   3
  -8  -1   4 3122.57 362.615   6
   8   1  -3 3421.60 358.101   3
  -8  -1   3 3562.51 380.479   6
  -8  -1   2-7.30270 40.4658   6
   8   1  -2-17.1322 31.5729   3
  -8  -1   1 386.925 112.773   6
   8   1  -1 238.678 86.3546   3
   8   1  -1 183.679 50.8312   1
   8   1  -1 347.049 88.5765   7
  -8  -1   0 6266.59 500.130   6
   8   1   0 6633.21 488.844   3
   8   1   0 5907.81 363.728   7
   8   1   0 6073.93 330.072   1
  -8  -1  -1 434.627 120.983   6
   8   1   1 607.407 135.022   3
   8   1   1 483.568 88.3463   1
   8   1   1 399.928 79.8168   7
  -8  -1  -2 2783.57 307.810   6
   8   1   2 2460.49 277.821   3
   8   1   2 2565.64 216.534   1
   8   1   2 2560.40 185.398   7
  -8  -1  -3 603.672 140.883   6
   8   1   3 600.283 133.131   3
  -8  -1  -4 221.537 88.9106   6
   8   1   4 187.086 69.5366   3
  -8  -1  -5-53.1694 28.9869   6
   8   1   5 36.9143 48.7479   3
  -8  -1  -5-103.969 72.3572   2
  -8  -2   7 199.595 82.9988   6
  -8  -2   7 71.1848 36.1074   8
  -8  -2   6 934.547 200.770   6
   8   2  -6 805.075 183.965   3
  -8  -2   5 132.655 76.4395   6
   8   2  -5 296.652 113.236   3
   8   2  -4 12645.1 769.180   3
  -8  -2   4 12650.6 794.964   6
  -8  -2   3 1246.27 230.757   6
   8   2  -3 1089.38 204.351   3
   8   2  -3 1324.54 207.162   7
  -8  -2   2 807.015 179.742   6
   8   2  -2 890.012 180.789   3
   8   2  -2 594.228 142.085   7
  -8  -2   1 678.789 164.129   6
   8   2  -1 888.267 174.816   3
   8   2  -1 772.656 115.592   1
   8   2  -1 727.280 135.230   7
  -8  -2   0 307.403 103.734   6
   8   2   0 368.005 124.045   3
   8   2   0 296.706 75.7190   7
   8   2   0 266.919 69.1635   1
  -8  -2  -1 1261.02 218.749   6
   8   2   1 1197.12 198.943   3
   8   2   1 1245.41 147.119   7
   8   2   1 1157.96 144.092   1
  -8  -2  -2 496.523 133.784   6
   8   2   2 436.545 120.426   3
   8   2   2 506.012 87.7297   7
   8   2   2 623.980 111.617   1
  -8  -2  -3 66.5597 64.0035   6
   8   2   3 38.0289 42.3516   3
   8   2   3 115.210 53.2467   1
  -8  -2  -4 363.904 115.986   6
   8   2   4 178.234 73.3208   3
   8   2   4 201.000 65.9505   1
  -8  -2  -5 1155.72 196.241   6
   8   2   5 918.598 160.249   3
  -8  -3   7 347.817 120.303   6
   8   3  -7 534.028 158.638   3
  -8  -3   6 23.3231 38.2205   6
   8   3  -6-17.1044 47.9628   3
  -8  -3   5 22.5277 35.0396   6
   8   3  -5-107.444 81.1384   3
   8   3  -5-47.1197 48.2148   7
   8   3  -4 3416.77 384.386   3
  -8  -3   4 3188.25 381.188   6
   8   3  -4 3060.00 329.385   7
   8   3  -3 2796.43 343.641   3
  -8  -3   3 2769.54 354.527   6
   8   3  -3 2457.26 284.649   7
  -8  -3   2 1778.41 274.233   6
   8   3  -2 1561.51 245.640   3
   8   3  -2 1421.53 211.338   7
  -8  -3   1 0.33641 31.2096   6
   8   3  -1-44.1643 60.8852   3
   8   3  -1-20.8452 38.8338   1
   8   3  -1 26.4715 26.4955   7
  -8  -3   0 946.543 194.665   6
   8   3   0 870.745 176.564   3
   8   3   0 739.673 128.609   1
   8   3   0 860.033 142.269   7
  -8  -3  -1 1714.52 261.237   6
   8   3   1 1647.05 240.129   3
   8   3   1 1394.81 166.712   7
   8   3   1 1540.15 183.817   1
  -8  -3  -2 43.4788 27.9024   6
   8   3   2-8.78931 42.5625   3
   8   3   2 51.7866 32.5730   1
   8   3   2 37.6825 29.7808   7
   8   3   3 533.369 111.392   1
  -8  -3  -3 480.957 143.768   6
   8   3   3 504.012 123.570   3
   8   3   4 114.987 55.8854   1
  -8  -3  -4 231.880 90.9470   6
   8   3   4 180.374 66.5780   3
  -8  -4   6 151.982 99.9019   6
   8   4  -6 147.502 83.4163   3
   8   4  -6 55.3467 55.5826   7
  -8  -4   5 1905.74 306.435   6
   8   4  -5 1892.05 299.645   3
   8   4  -5 2027.84 285.052   7
  -8  -4   4 2785.16 364.868   6
   8   4  -4 2344.28 292.497   7
   8   4  -4 2349.05 334.577   3
  -8  -4   3 142.719 78.2349   6
   8   4  -3 200.351 96.7844   3
   8   4  -3 157.842 73.3116   7
  -8  -4   2 277.827 107.486   6
   8   4  -2 211.724 99.2126   3
   8   4  -2 374.550 96.9010   7
  -8  -4   1 330.638 119.569   6
   8   4  -1 292.655 107.830   3
   8   4  -1 230.525 101.134   1
   8   4  -1 417.808 104.668   7
  -8  -4   0 553.172 157.908   6
   8   4   0 290.454 114.454   3
   8   4   0 247.067 84.3740   1
   8   4   0 365.827 91.3856   7
   8   4   1-7.90302 16.9178   1
  -8  -4  -1 43.7678 42.9703   6
   8   4   1 24.4995 45.3171   3
   8   4   1-25.0565 25.1144   7
  -8  -4  -2 1428.90 242.137   6
   8   4   2 1104.17 171.185   1
   8   4   2 1120.16 204.808   3
   8   4   2 1300.39 163.691   7
  -8  -4  -3 146.584 83.0125   6
   8   4   3 91.1487 41.7022   3
   8   4   3 109.970 65.3341   1
  -8  -5   4 952.215 218.394   6
   8   5  -4 1148.23 229.969   3
   8   5  -4 784.874 166.063   7
  -8  -5   3 503.678 148.024   6
   8   5  -3 656.371 175.071   3
   8   5  -3 461.616 124.409   7
  -8  -5   2 80.2172 35.0562   6
   8   5  -2-29.8267 77.8685   3
   8   5  -2 108.537 58.0074   7
  -8  -5   1 374.345 138.010   6
   8   5  -1 541.516 160.296   3
   8   5  -1 260.472 92.7243   1
   8   5  -1 385.803 104.133   7
  -8  -5   0 191.435 83.0301   6
   8   5   0 233.952 90.7144   3
   8   5   0 115.296 64.5945   1
   8   5   0 201.210 76.7990   7
  -8  -5  -1 301.950 121.411   6
   8   5   1 341.190 117.157   3
   8   5   1 402.714 101.653   7
   8   5   1 275.852 88.6371   1
   9  -6  -3 56.3833 15.7958  11
  -9   6   3 173.362 71.4353   2
   9  -6  -3 185.896 94.3040   3
   9  -6  -2 16.5487 44.8525  11
  -9   6   2 87.1148 59.2392   2
  -9   6   2-17.7902 16.6653  10
   9  -6  -2 49.3223 71.1284   3
   9  -6  -1 357.778 93.0794  11
  -9   6   1 328.019 100.028  10
  -9   6   1 674.507 138.929   2
   9  -6  -1 506.396 139.909   3
   9  -6   0 10.9991 21.2873  11
  -9   6   0 29.3339 41.5889   2
   9  -6   0 56.7520 44.5103   3
   9  -6   1 418.989 108.565  11
  -9   6  -1 307.830 94.0760   2
   9  -6   1 340.852 114.612   3
   9  -5  -4 17.2889 18.2260  11
  -9   5   4-30.7793 57.7408  10
   9  -5  -4 87.0956 58.8036   3
   9  -5  -3 355.313 94.9783  11
  -9   5   3 287.972 96.9963  10
   9  -5  -3 263.550 95.5418   3
   9  -5  -2 2678.64 320.891   3
   9  -5  -2 2402.11 251.245  11
  -9   5   2 2054.12 248.929  10
  -9   5   2 2257.42 252.604   2
   9  -5  -1 223.701 71.7200  11
  -9   5   1 84.6313 37.8512   2
  -9   5   1 103.614 61.2498  10
   9  -5  -1 151.266 87.1912   3
   9  -5   0-15.1414 32.0153  11
  -9   5   0-28.6721 55.6343   2
  -9   5   0-7.79046 26.6515  10
   9  -5   0-59.4073 58.3395   3
   9  -5   1 53.2768 41.3942  11
  -9   5  -1-45.8923 54.7284   2
   9  -5   1-56.9480 53.1439   3
   9  -5   2 452.874 118.572  11
  -9   5  -2 475.769 122.221   2
   9  -5   2 492.791 130.960   3
   9  -4  -5 143.138 64.2180   3
   9  -4  -4 471.576 108.782  11
   9  -4  -4 930.241 186.394   3
   9  -4  -3 22.3500 33.6761  11
   9  -4  -3-16.5728 35.7206   3
   9  -4  -2 35.6367 40.2528  11
   9  -4  -2 142.161 75.4944   3
   9  -4  -1 34.7026 41.4333  11
   9  -4  -1 12.6409 18.5857   3
   9  -4   0-27.2017 29.7664  11
   9  -4   0-18.1773 80.4056   3
  -9   4   0-65.0954 57.2617   2
   9  -4   1 3207.48 344.218   3
   9  -4   1 2630.78 281.483  11
  -9   4  -1 2673.75 301.940   2
   9  -4   2 5532.35 462.536   3
   9  -4   2 5235.59 418.769  11
  -9   4  -2 5498.47 459.004   2
   9  -4   3 302.800 101.518  11
  -9   4  -3 442.133 128.053   2
   9  -4   3 329.045 107.237   3
   9  -3  -6 116.959 76.0983   3
   9  -3  -5-23.1243 31.0993   3
   9  -3  -4 703.313 163.653   3
   9  -3  -3 127.140 53.5772  11
   9  -3  -3 173.850 82.3753   3
   9  -3  -2 1618.82 200.115  11
   9  -3  -2 1621.34 255.200   3
   9  -3  -1 2031.53 277.354   3
   9  -3  -1 1767.60 216.985  11
   9  -3   0 181.503 74.6241  11
   9  -3   0 286.486 90.3098   3
   9  -3   1 146.576 64.5878  11
   9  -3   1 62.3474 50.0471   3
   9  -3   2 85.3199 52.2951  11
  -9   3  -2 2.57949 35.3065   2
   9  -3   2 89.5305 49.3542   3
   9  -3   3 1178.67 191.537  11
  -9   3  -3 1146.02 204.336   2
   9  -3   3 1193.10 208.797   3
   9  -2  -6 90.9470 63.5003   3
   9  -2  -5 729.265 168.439   3
   9  -2  -4 174.210 75.6893   3
   9  -2  -3 129.107 61.9248   3
   9  -2  -2 21.7774 27.1323  11
   9  -2  -2-19.7796 42.3124   3
   9  -2  -1-0.41511 44.6195  11
   9  -2  -1 37.9211 26.1953   3
   9  -2   0 1109.47 172.312  11
   9  -2   0 1105.71 198.965   3
   9  -2   1 1592.27 210.396  11
   9  -2   1 1644.56 244.705   3
   9  -2   2 2394.56 291.700   3
   9  -2   2 2555.58 271.848  11
   9  -2   3 98.1968 46.6005  11
  -9   2  -3 36.8440 64.4661   2
   9  -2   3 55.8006 42.0202   3
   9  -2   4 770.745 153.798  11
  -9   2  -4 593.649 152.182   2
   9  -2   4 519.611 136.104   3
   9  -1  -6 25.3959 49.3700   3
   9  -1  -5 535.018 147.322   3
   9  -1  -4 2389.53 308.846   3
   9  -1  -3 145.733 72.2777   3
   9  -1  -2 82.9645 63.0729   3
   9  -1  -1 183.536 80.6294   3
   9  -1   0 397.238 100.727  11
   9  -1   0 462.120 127.537   3
   9  -1   0 349.732 85.1321   7
   9  -1   1 444.431 107.579  11
   9  -1   1 333.968 97.8609   3
   9  -1   2 12.3290 30.5811  11
   9  -1   2 137.434 82.5074   3
   9  -1   3 585.437 128.122  11
   9  -1   3 499.413 129.329   3
   9  -1   4 364.715 103.437  11
  -9   1  -4 292.487 109.771   2
   9  -1   4 194.390 80.3943   3
   9   0  -6 184.657 99.7301   3
   9   0  -5 1980.97 289.844   3
   9   0  -4 1027.48 205.659   3
   9   0  -3 127.613 61.4131   3
  -9   0   2-24.0171 19.7374   6
   9   0  -2-1.25699 53.1897   3
  -9   0   1 47.7961 39.1958   6
   9   0  -1-40.3272 64.8799   3
   9   0  -1-12.5507 14.6667   7
  -9   0   0 1420.93 240.877   6
   9   0   0 1405.51 224.044   3
   9   0   0 1125.33 145.850   7
  -9   0  -1 215.571 91.6866   6
   9   0   1 165.819 73.5236   3
  -9   0  -2 4.93521 54.6353   6
   9   0   2 7.73648 37.6088   3
   9   0   3 205.469 80.4454   3
   9   1  -6 263.802 106.498   3
   9   1  -5 2344.28 325.287   3
  -9  -1   5 2317.05 336.248   6
  -9  -1   4 1993.20 301.604   6
   9   1  -4 1617.78 262.874   3
  -9  -1   3 830.858 192.806   6
   9   1  -3 732.091 175.177   3
  -9  -1   2 81.5875 69.4658   6
   9   1  -2 183.767 95.0656   3
   9   1  -2 96.0364 49.2028   7
  -9  -1   1 529.171 152.682   6
   9   1  -1 430.790 134.335   3
   9   1  -1 291.112 83.4253   7
   9   1   0 2225.77 292.664   3
  -9  -1   0 1963.04 285.289   6
   9   1   0 1897.61 200.530   7
  -9  -1  -1 137.738 74.4121   6
   9   1   1 189.982 82.0302   3
  -9  -1  -2 139.578 78.4533   6
   9   1   2 92.7666 53.7900   3
  -9  -1  -3 167.167 81.9454   6
   9   1   3 41.1389 50.8108   3
  -9  -2   5 479.320 155.545   6
   9   2  -5 496.804 163.535   3
  -9  -2   4 117.496 64.9001   6
   9   2  -4 225.963 107.508   3
   9   2  -4 186.035 79.3028   7
  -9  -2   3-57.4572 34.5075   6
   9   2  -3-23.7281 70.5466   3
   9   2  -3-28.8420 35.1669   7
  -9  -2   2 64.1867 78.3355   6
   9   2  -2 62.9547 29.1441   3
   9   2  -2 53.3497 45.7759   7
  -9  -2   1 715.627 181.618   6
   9   2  -1 853.963 183.517   3
   9   2  -1 725.201 131.367   7
   9   2   0-7.84893 27.7384   3
   9   2   0 35.8278 44.5781   7
  -9  -2  -1 1477.73 253.049   6
   9   2   1 1255.40 218.171   3
   9   2   1 1410.39 161.669   7
  -9  -2  -2-1.37427 34.2256   6
   9   2   2 43.9115 44.3787   3
  -9  -3   4 343.999 136.536   6
   9   3  -4 126.572 62.0310   3
   9   3  -4 109.966 62.4722   7
  -9  -3   3 80.3797 70.5840   6
   9   3  -3 166.425 85.4270   3
   9   3  -3 57.7188 52.1098   7
  -9  -3   2 52.1875 67.7109   6
   9   3  -2-15.7229 43.6429   3
   9   3  -2-36.0391 45.7330   7
  -9  -3   1 58.0969 70.2071   6
   9   3  -1 92.0071 85.3675   3
   9   3  -1 36.2674 41.0071   7
  -9  -3   0-78.8461 65.6661   6
   9   3   0 107.059 63.3281   3
   9   3   0 31.0294 11.0679   7
  -9  -3  -1 30.8261 40.0364   6
   9   3   1 63.5115 45.5163   3
   9   3   1-2.54798 23.7054   7
  10  -3  -2-10.1393 35.4648  11
  10  -3  -2 31.7354 46.7912   3
  10  -3  -1 249.715 109.823  11
  10  -3  -1 366.696 118.446   3
  10  -3   0-46.1702 62.9440   3
  10  -2  -3-42.2151 65.1229   3
  10  -2  -2 4.13413 50.0876   3
  10  -2  -1 19.4550 30.5415  11
  10  -2  -1 40.5838 54.2420   3
  10  -2   0 120.742 67.5339  11
  10  -2   0 29.6490 20.8287   3
  10  -1  -3 30.7158 41.3038   3
  10  -1  -2 110.653 63.9394   3
  10  -1  -1 615.286 151.998   3
  10  -1   0 73.6876 31.8794   3
  10   0  -3 306.094 122.018   3
  10   0  -2 278.887 104.240   3
  10   0  -2 157.816 63.5663   7
  10   0  -1 66.8001 66.5256   3
  10   0   0 385.664 130.465   3
   0   0   0    0.00    0.00   0
TITL 2016Uniandes030_Mo_1810 in P-1
REM P-1 (#2 in standard setting)
CELL 0.71073   8.143761   9.057672   9.480735  92.4731  97.1105  97.1414
ZERR    1.00   0.000848   0.000976   0.000870   0.0081   0.0081   0.0087
LATT  1
SFAC C N
UNIT 31.00 4.00
TREF
HKLF 4
END
;
_shelx_hkl_checksum              87764
_shelx_res_file
;
TITL 2016Uniandes030_Mo_1810 in P-1
    shelxs.res
    created by SHELXL-2016/6 at 15:41:55 on 29-Jun-2017
REM TITL 2016Uniandes030_Mo_1810 in P-1
CELL  0.71073   8.14935   9.06293   9.48595  92.46519  97.11279  97.13590
ZERR    2 0.0008 0.0010 0.0009 0.0081 0.0081 0.0087
LATT   1
SFAC C N H
UNIT 30 8 32
LIST 4 ! automatically inserted. Change 6 to 4 for CHECKCIF!!
L.S. 10
FMAP 2
PLAN 10
TEMP 25
SIZE 0.192 0.275 0.306
ACTA
CONF
HTAB
BOND $H
EQIV $2 x-1, y, z-1
HTAB C2 N524_$2
HTAB C14 N51
HTAB C13 N51
WGHT    0.064600    0.278300
EXTI    0.048643
FVAR       9.54421
N1    2    0.610529    0.720714    0.169345    11.00000    0.03523    0.04957 =
         0.03364    0.00733   -0.00185   -0.00133
C5    1    0.781831    0.751868    0.209465    11.00000    0.03661    0.04816 =
         0.03712    0.00574   -0.00196    0.00065
N51   2    0.848790    0.722753    0.346114    11.00000    0.03689    0.05437 =
         0.03831    0.00623   -0.00393    0.00336
C52   1    0.986189    0.798297    0.399397    11.00000    0.03808    0.05308 =
         0.03923    0.00622   -0.00036    0.00227
AFIX  43
H52   3    1.039742    0.867236    0.344820    11.00000   -1.20000
AFIX   0
C521  1    1.062226    0.779372    0.544741    11.00000    0.03191    0.04916 =
         0.04008    0.00276   -0.00117    0.00689
C522  1    1.002703    0.668465    0.628343    11.00000    0.04195    0.06274 =
         0.05107    0.01192   -0.00779   -0.00543
AFIX  43
H522  3    0.912991    0.597861    0.592067    11.00000   -1.20000
AFIX   0
C523  1    1.078030    0.664231    0.765557    11.00000    0.05749    0.07612 =
         0.05182    0.02116   -0.00856   -0.00486
AFIX  43
H523  3    1.037087    0.588644    0.820113    11.00000   -1.20000
AFIX   0
N524  2    1.206790    0.762237    0.825614    11.00000    0.05723    0.07378 =
         0.04730    0.00777   -0.01368    0.00489
C525  1    1.262861    0.867027    0.744006    11.00000    0.04751    0.05618 =
         0.05253   -0.00270   -0.01211    0.00079
AFIX  43
H525  3    1.352426    0.936378    0.783235    11.00000   -1.20000
AFIX   0
C526  1    1.197254    0.880080    0.604811    11.00000    0.04174    0.04906 =
         0.04744    0.00246   -0.00218    0.00159
AFIX  43
H526  3    1.242843    0.955235    0.552054    11.00000   -1.20000
AFIX   0
C4    1    0.852640    0.811860    0.097489    11.00000    0.03626    0.06180 =
         0.04263    0.00796    0.00172   -0.00095
AFIX  43
H4    3    0.965593    0.841379    0.094746    11.00000   -1.20000
AFIX   0
C3    1    0.722137    0.820270   -0.012325    11.00000    0.04376    0.05378 =
         0.03463    0.00583    0.00149   -0.00039
C2    1    0.575446    0.764315    0.035530    11.00000    0.03996    0.05129 =
         0.03436    0.00579   -0.00393   -0.00018
AFIX  43
H2    3    0.469588    0.757594   -0.015734    11.00000   -1.20000
AFIX   0
C31   1    0.733963    0.878323   -0.148410    11.00000    0.04753    0.06242 =
         0.04345    0.01172    0.00440   -0.00215
N32   2    0.742809    0.925599   -0.257383    11.00000    0.07282    0.09331 =
         0.05254    0.02808    0.00913    0.00080
C11   1    0.484522    0.652698    0.258749    11.00000    0.03772    0.05432 =
         0.04042    0.01093    0.00283   -0.00369
C14   1    0.486907    0.755548    0.390604    11.00000    0.06070    0.06132 =
         0.05370    0.00997    0.01817    0.00942
AFIX 137
H14A  3    0.403992    0.714575    0.446723    11.00000   -1.50000
H14B  3    0.463250    0.851904    0.362193    11.00000   -1.50000
H14C  3    0.594983    0.764949    0.445949    11.00000   -1.50000
AFIX   0
C12   1    0.312474    0.636864    0.172519    11.00000    0.03983    0.11062 =
         0.06531    0.03189   -0.00243   -0.01476
AFIX 137
H12A  3    0.230620    0.595492    0.229443    11.00000   -1.50000
H12B  3    0.310401    0.572099    0.089351    11.00000   -1.50000
H12C  3    0.287761    0.733002    0.144313    11.00000   -1.50000
AFIX   0
C13   1    0.527362    0.499373    0.298121    11.00000    0.06638    0.04923 =
         0.05353    0.00830    0.00569   -0.00564
AFIX 137
H13A  3    0.442234    0.451203    0.348188    11.00000   -1.50000
H13B  3    0.632707    0.510129    0.357858    11.00000   -1.50000
H13C  3    0.534114    0.440257    0.213104    11.00000   -1.50000
AFIX   0
HKLF 4
REM  2016Uniandes030_Mo_1810 in P-1
REM R1 =  0.0526 for    2419 Fo > 4sig(Fo)  and  0.0588 for all    2807 data
REM    176 parameters refined using      0 restraints
END
WGHT      0.0646      0.2783
REM Instructions for potential hydrogen bonds
EQIV $1 -x+2, -y+2, -z
HTAB C52 N32_$1
HTAB C2 N524_$2
HTAB C14 N51
HTAB C13 N51
REM Highest difference peak  0.229,  deepest hole -0.177,  1-sigma level  0.046
Q1    1   1.0285  0.7835  0.4736  11.00000  0.05    0.23
Q2    1   1.2606  0.7488  0.9168  11.00000  0.05    0.22
Q3    1   1.1138  0.8115  0.5675  11.00000  0.05    0.19
Q4    1   0.7886  0.8445  0.0363  11.00000  0.05    0.18
Q5    1   0.2636  0.7576  0.1559  11.00000  0.05    0.18
Q6    1   0.7915  0.8054  0.0196  11.00000  0.05    0.18
Q7    1   1.2593  0.8340  0.6587  11.00000  0.05    0.18
Q8    1   1.0000  0.7545  0.6093  11.00000  0.05    0.17
Q9    1   1.0182  0.7066  0.7130  11.00000  0.05    0.16
Q10   1   0.2394  0.6620  0.0811  11.00000  0.05    0.16
;
_shelx_res_checksum              12742
loop_
_space_group_symop_operation_xyz
'x, y, z'
'-x, -y, -z'
loop_
_atom_site_type_symbol
_atom_site_label
_atom_site_fract_x
_atom_site_fract_y
_atom_site_fract_z
_atom_site_U_iso_or_equiv
_atom_site_adp_type
_atom_site_calc_flag
_atom_site_occupancy
N N1 0.61053(16) 0.72071(15) 0.16935(14) 0.0405(4) Uani d 1
C C5 0.7818(2) 0.75187(19) 0.20946(17) 0.0415(4) Uani d 1
N N51 0.84879(17) 0.72275(16) 0.34611(15) 0.0441(4) Uani d 1
C C52 0.9862(2) 0.7983(2) 0.39940(18) 0.0441(4) Uani d 1
H H52 1.039742 0.867236 0.344820 0.053 Uiso calc 1
C C521 1.0622(2) 0.77937(19) 0.54474(17) 0.0407(4) Uani d 1
C C522 1.0027(2) 0.6685(2) 0.6283(2) 0.0539(5) Uani d 1
H H522 0.912991 0.597861 0.592067 0.065 Uiso calc 1
C C523 1.0780(3) 0.6642(3) 0.7656(2) 0.0638(6) Uani d 1
H H523 1.037087 0.588644 0.820113 0.077 Uiso calc 1
N N524 1.2068(2) 0.7622(2) 0.82561(17) 0.0614(5) Uani d 1
C C525 1.2629(2) 0.8670(2) 0.7440(2) 0.0543(5) Uani d 1
H H525 1.352426 0.936378 0.783235 0.065 Uiso calc 1
C C526 1.1973(2) 0.8801(2) 0.60481(19) 0.0471(4) Uani d 1
H H526 1.242843 0.955235 0.552054 0.057 Uiso calc 1
C C4 0.8526(2) 0.8119(2) 0.09749(18) 0.0477(4) Uani d 1
H H4 0.965593 0.841379 0.094746 0.057 Uiso calc 1
C C3 0.7221(2) 0.8203(2) -0.01232(17) 0.0448(4) Uani d 1
C C2 0.5754(2) 0.76432(19) 0.03553(17) 0.0430(4) Uani d 1
H H2 0.469588 0.757594 -0.015734 0.052 Uiso calc 1
C C31 0.7340(2) 0.8783(2) -0.14841(19) 0.0518(5) Uani d 1
N N32 0.7428(3) 0.9256(2) -0.25738(19) 0.0730(6) Uani d 1
C C11 0.4845(2) 0.6527(2) 0.25875(18) 0.0449(4) Uani d 1
C C14 0.4869(3) 0.7555(2) 0.3906(2) 0.0573(5) Uani d 1
H H14A 0.403992 0.714575 0.446723 0.086 Uiso calc 1
H H14B 0.463250 0.851904 0.362193 0.086 Uiso calc 1
H H14C 0.594983 0.764949 0.445949 0.086 Uiso calc 1
C C12 0.3125(3) 0.6369(3) 0.1725(2) 0.0740(7) Uani d 1
H H12A 0.230620 0.595492 0.229443 0.111 Uiso calc 1
H H12B 0.310401 0.572099 0.089351 0.111 Uiso calc 1
H H12C 0.287761 0.733002 0.144313 0.111 Uiso calc 1
C C13 0.5274(3) 0.4994(2) 0.2981(2) 0.0575(5) Uani d 1
H H13A 0.442234 0.451203 0.348188 0.086 Uiso calc 1
H H13B 0.632707 0.510129 0.357858 0.086 Uiso calc 1
H H13C 0.534114 0.440257 0.213104 0.086 Uiso calc 1
loop_
_atom_site_aniso_label
_atom_site_aniso_U_11
_atom_site_aniso_U_22
_atom_site_aniso_U_33
_atom_site_aniso_U_12
_atom_site_aniso_U_13
_atom_site_aniso_U_23
N1 0.0352(7) 0.0496(8) 0.0336(7) -0.0013(6) -0.0019(5) 0.0073(6)
C5 0.0366(9) 0.0482(9) 0.0371(8) 0.0007(7) -0.0020(6) 0.0057(7)
N51 0.0369(8) 0.0544(8) 0.0383(7) 0.0034(6) -0.0039(6) 0.0062(6)
C52 0.0381(9) 0.0531(10) 0.0392(9) 0.0023(7) -0.0004(7) 0.0062(7)
C521 0.0319(8) 0.0492(9) 0.0401(9) 0.0069(7) -0.0012(7) 0.0028(7)
C522 0.0419(10) 0.0627(11) 0.0511(10) -0.0054(8) -0.0078(8) 0.0119(9)
C523 0.0575(12) 0.0761(14) 0.0518(11) -0.0049(10) -0.0086(9) 0.0212(10)
N524 0.0572(10) 0.0738(11) 0.0473(9) 0.0049(8) -0.0137(7) 0.0078(8)
C525 0.0475(11) 0.0562(11) 0.0525(11) 0.0008(8) -0.0121(8) -0.0027(8)
C526 0.0417(9) 0.0491(9) 0.0474(10) 0.0016(7) -0.0022(7) 0.0025(7)
C4 0.0363(9) 0.0618(11) 0.0426(9) -0.0010(7) 0.0017(7) 0.0080(8)
C3 0.0438(9) 0.0538(10) 0.0346(8) -0.0004(7) 0.0015(7) 0.0058(7)
C2 0.0400(9) 0.0513(9) 0.0344(8) -0.0002(7) -0.0039(7) 0.0058(7)
C31 0.0475(10) 0.0624(11) 0.0434(10) -0.0022(8) 0.0044(8) 0.0117(8)
N32 0.0728(13) 0.0933(14) 0.0525(10) 0.0008(10) 0.0091(9) 0.0281(10)
C11 0.0377(9) 0.0543(10) 0.0404(9) -0.0037(7) 0.0028(7) 0.0109(7)
C14 0.0607(12) 0.0613(12) 0.0537(11) 0.0094(9) 0.0182(9) 0.0100(9)
C12 0.0398(11) 0.1106(19) 0.0653(13) -0.0148(11) -0.0024(9) 0.0319(13)
C13 0.0664(13) 0.0492(10) 0.0535(11) -0.0056(9) 0.0057(9) 0.0083(8)
loop_
_atom_type_symbol
_atom_type_description
_atom_type_scat_dispersion_real
_atom_type_scat_dispersion_imag
_atom_type_scat_source
C C 0.0033 0.0016 'International Tables Vol C Tables 4.2.6.8 and 6.1.1.4'
N N 0.0061 0.0033 'International Tables Vol C Tables 4.2.6.8 and 6.1.1.4'
H H 0.0000 0.0000 'International Tables Vol C Tables 4.2.6.8 and 6.1.1.4'
loop_
_geom_angle_atom_site_label_1
_geom_angle_atom_site_label_2
_geom_angle_atom_site_label_3
_geom_angle
C2 N1 C5 108.18(14)
C2 N1 C11 125.40(14)
C5 N1 C11 126.41(13)
C4 C5 N1 108.36(14)
C4 C5 N51 132.38(15)
N1 C5 N51 119.25(14)
C52 N51 C5 117.94(15)
N51 C52 C521 121.62(16)
N51 C52 H52 119.2
C521 C52 H52 119.2
C522 C521 C526 117.55(16)
C522 C521 C52 123.47(16)
C526 C521 C52 118.93(16)
C523 C522 C521 119.04(18)
C523 C522 H522 120.5
C521 C522 H522 120.5
N524 C523 C522 124.00(19)
N524 C523 H523 118.0
C522 C523 H523 118.0
C525 N524 C523 116.20(16)
N524 C525 C526 124.30(17)
N524 C525 H525 117.8
C526 C525 H525 117.8
C525 C526 C521 118.88(17)
C525 C526 H526 120.6
C521 C526 H526 120.6
C5 C4 C3 106.99(15)
C5 C4 H4 126.5
C3 C4 H4 126.5
C2 C3 C4 107.62(15)
C2 C3 C31 124.78(16)
C4 C3 C31 127.59(17)
N1 C2 C3 108.83(15)
N1 C2 H2 125.6
C3 C2 H2 125.6
N32 C31 C3 179.5(2)
N1 C11 C12 108.79(14)
N1 C11 C14 108.93(14)
C12 C11 C14 109.19(18)
N1 C11 C13 108.73(15)
C12 C11 C13 109.60(17)
C14 C11 C13 111.55(15)
C11 C14 H14A 109.5
C11 C14 H14B 109.5
H14A C14 H14B 109.5
C11 C14 H14C 109.5
H14A C14 H14C 109.5
H14B C14 H14C 109.5
C11 C12 H12A 109.5
C11 C12 H12B 109.5
H12A C12 H12B 109.5
C11 C12 H12C 109.5
H12A C12 H12C 109.5
H12B C12 H12C 109.5
C11 C13 H13A 109.5
C11 C13 H13B 109.5
H13A C13 H13B 109.5
C11 C13 H13C 109.5
H13A C13 H13C 109.5
H13B C13 H13C 109.5
loop_
_geom_bond_atom_site_label_1
_geom_bond_atom_site_label_2
_geom_bond_distance
N1 C2 1.353(2)
N1 C5 1.391(2)
N1 C11 1.502(2)
C5 C4 1.371(2)
C5 N51 1.392(2)
N51 C52 1.272(2)
C52 C521 1.466(2)
C52 H52 0.9300
C521 C522 1.385(3)
C521 C526 1.385(2)
C522 C523 1.373(3)
C522 H522 0.9300
C523 N524 1.338(3)
C523 H523 0.9300
N524 C525 1.324(3)
C525 C526 1.378(3)
C525 H525 0.9300
C526 H526 0.9300
C4 C3 1.405(2)
C4 H4 0.9300
C3 C2 1.377(2)
C3 C31 1.424(2)
C2 H2 0.9300
C31 N32 1.143(2)
C11 C12 1.520(3)
C11 C14 1.524(3)
C11 C13 1.525(3)
C14 H14A 0.9600
C14 H14B 0.9600
C14 H14C 0.9600
C12 H12A 0.9600
C12 H12B 0.9600
C12 H12C 0.9600
C13 H13A 0.9600
C13 H13B 0.9600
C13 H13C 0.9600
loop_
_geom_hbond_atom_site_label_D
_geom_hbond_atom_site_label_H
_geom_hbond_atom_site_label_A
_geom_hbond_site_symmetry_A
_geom_hbond_distance_DH
_geom_hbond_distance_HA
_geom_hbond_distance_DA
_geom_hbond_angle_DHA
C14 H14C N51 . 0.96 2.44 3.079(3) 123.4
C13 H13B N51 . 0.96 2.46 3.078(2) 122.0
C2 H2 N524 1_454 0.93 2.47 3.390(2) 172.2
C52 H52 N32 2_775 0.93 2.65 3.551(3) 163.1
C525 H525 Cg1 2_776 0.93 2.93 3.486(2) 119.78
loop_
_geom_torsion_atom_site_label_1
_geom_torsion_atom_site_label_2
_geom_torsion_atom_site_label_3
_geom_torsion_atom_site_label_4
_geom_torsion
C2 N1 C5 C4 -1.5(2)
C11 N1 C5 C4 179.40(16)
C2 N1 C5 N51 177.32(15)
C11 N1 C5 N51 -1.8(3)
C4 C5 N51 C52 24.2(3)
N1 C5 N51 C52 -154.26(17)
C5 N51 C52 C521 177.45(15)
N51 C52 C521 C522 7.6(3)
N51 C52 C521 C526 -170.00(17)
C526 C521 C522 C523 0.6(3)
C52 C521 C522 C523 -177.03(19)
C521 C522 C523 N524 0.4(4)
C522 C523 N524 C525 -0.8(4)
C523 N524 C525 C526 0.1(3)
N524 C525 C526 C521 0.9(3)
C522 C521 C526 C525 -1.3(3)
C52 C521 C526 C525 176.50(16)
N1 C5 C4 C3 1.1(2)
N51 C5 C4 C3 -177.47(18)
C5 C4 C3 C2 -0.3(2)
C5 C4 C3 C31 178.36(18)
C5 N1 C2 C3 1.3(2)
C11 N1 C2 C3 -179.61(15)
C4 C3 C2 N1 -0.6(2)
C31 C3 C2 N1 -179.32(17)
C2 N1 C11 C12 1.7(3)
C5 N1 C11 C12 -179.35(19)
C2 N1 C11 C14 -117.26(18)
C5 N1 C11 C14 61.7(2)
C2 N1 C11 C13 120.98(18)
C5 N1 C11 C13 -60.0(2)

_cod_database_fobs_code 2020992
