#------------------------------------------------------------------------------
#$Date: 2018-01-24 08:30:12 +0200 (Wed, 24 Jan 2018) $
#$Revision: 205533 $
#$URL: file:///home/coder/svn-repositories/cod/cif/2/02/09/2020963.cif $
#------------------------------------------------------------------------------
#
# This file is available in the Crystallography Open Database (COD),
# http://www.crystallography.net/. The original data for this entry
# were provided by IUCr Journals, http://journals.iucr.org/.
#
# The file may be used within the scientific community so long as
# proper attribution is given to the journal article from which the
# data were obtained.
#
data_2020963
loop_
_publ_author_name
'Sohr, Julia'
'Schmidt, Horst'
'Voigt, Wolfgang'
_publ_section_title
;
 Higher hydrates of lithium chloride, lithium bromide and lithium iodide
;
_journal_coeditor_code           QF3002
_journal_issue                   2
_journal_name_full               'Acta Crystallographica Section C'
_journal_page_first
;
;
_journal_paper_doi               10.1107/S2053229618001183
_journal_volume                  74
_journal_year                    2018
_chemical_formula_iupac          'Li Br, 5H2 O'
_chemical_formula_moiety         'Br, 5(H2 O), Li'
_chemical_formula_sum            'Br H10 Li O5'
_chemical_formula_weight         176.93
_chemical_name_systematic
;
Lithium bromide pentahydrate
;
_space_group_crystal_system      triclinic
_space_group_IT_number           2
_space_group_name_Hall           '-P 1'
_space_group_name_H-M_alt        'P -1'
_symmetry_space_group_name_Hall  '-P 1'
_symmetry_space_group_name_H-M   'P -1'
_atom_sites_solution_hydrogens   difmap
_audit_creation_method           SHELXL-2014/7
_cell_angle_alpha                89.15(3)
_cell_angle_beta                 77.53(3)
_cell_angle_gamma                71.69(3)
_cell_formula_units_Z            4
_cell_length_a                   6.353(2)
_cell_length_b                   9.453(4)
_cell_length_c                   11.954(5)
_cell_measurement_reflns_used    2523
_cell_measurement_temperature    140
_cell_measurement_theta_max      29.63
_cell_measurement_theta_min      2.36
_cell_volume                     664.4(5)
_computing_cell_refinement
;
X-AREA (Stoe & Cie, 2015)
;
_computing_data_collection
;
X-AREA (Stoe & Cie, 2015)
;
_computing_data_reduction
;
X-RED (Stoe & Cie, 2015)
;
_computing_molecular_graphics
;
DIAMOND (Brandenburg, 2017)
;
_computing_publication_material
;
publCIF (Westrip, 2010)
;
_computing_structure_refinement
;
SHELXL2014 (Sheldrick, 2015)
;
_computing_structure_solution
;
SHELXS97 (Sheldrick, 2008)
;
_diffrn_ambient_temperature      140
_diffrn_detector_area_resol_mean 6.67
_diffrn_measured_fraction_theta_full 0.999
_diffrn_measured_fraction_theta_max 0.981
_diffrn_measurement_device_type  'Stoe IPDS 2T'
_diffrn_measurement_method       'rotation method'
_diffrn_radiation_type           'Mo K\a'
_diffrn_radiation_wavelength     0.71073
_diffrn_reflns_av_R_equivalents  0.1221
_diffrn_reflns_limit_h_max       8
_diffrn_reflns_limit_h_min       -8
_diffrn_reflns_limit_k_max       12
_diffrn_reflns_limit_k_min       -12
_diffrn_reflns_limit_l_max       16
_diffrn_reflns_limit_l_min       -16
_diffrn_reflns_number            3544
_diffrn_reflns_theta_full        25.242
_diffrn_reflns_theta_max         29.241
_diffrn_reflns_theta_min         2.787
_exptl_absorpt_coefficient_mu    6.123
_exptl_absorpt_correction_T_max  0.7189
_exptl_absorpt_correction_T_min  0.2097
_exptl_absorpt_correction_type   integration
_exptl_absorpt_process_details
;
(Coppens, 1970)
;
_exptl_crystal_colour            colourless
_exptl_crystal_density_diffrn    1.769
_exptl_crystal_description       needle
_exptl_crystal_F_000             352
_exptl_crystal_size_max          0.3
_exptl_crystal_size_mid          0.22
_exptl_crystal_size_min          0.05
_refine_diff_density_max         1.046
_refine_diff_density_min         -0.867
_refine_ls_extinction_method     none
_refine_ls_goodness_of_fit_ref   1.001
_refine_ls_hydrogen_treatment    refall
_refine_ls_matrix_type           full
_refine_ls_number_parameters     207
_refine_ls_number_reflns         3544
_refine_ls_number_restraints     30
_refine_ls_restrained_S_all      0.998
_refine_ls_R_factor_all          0.0325
_refine_ls_R_factor_gt           0.0254
_refine_ls_shift/su_max          0.001
_refine_ls_shift/su_mean         0.000
_refine_ls_structure_factor_coef Fsqd
_refine_ls_weighting_details
'w=1/[\s^2^(Fo^2^)+(0.0465P)^2^+0.5280P] where P=(Fo^2^+2Fc^2^)/3'
_refine_ls_weighting_scheme      calc
_refine_ls_wR_factor_gt          0.0648
_refine_ls_wR_factor_ref         0.0711
_reflns_number_gt                2942
_reflns_number_total             3544
_reflns_threshold_expression     'I > 2\s(I)'
_cod_data_source_file            qf3002sup1.cif
_cod_data_source_block           LiBr.5H2O
_cod_original_cell_volume        664.4(4)
_cod_database_code               2020963
_shelx_space_group_comment
;
The symmetry employed for this shelxl refinement is uniquely defined
by the following loop, which should always be used as a source of
symmetry information in preference to the above space-group names.
They are only intended as comments.
;
_shelx_hkl_file
;
   1   0   0  210.53    6.76   0
   2   0   0 8041.45   23.70   0
   3   0   0  861.34    7.75   0
   4   0   0  522.97    6.47   0
   5   0   0  899.34    7.33   0
   6   0   0   37.70    4.80   0
   7   0   0  295.55    5.63   0
   8   0   0  132.73    5.87   0
  -7   1   0  161.81    5.18   0
  -6   1   0    0.69    4.51   0
  -5   1   0  375.78    5.65   0
  -4   1   0  204.62    4.74   0
  -3   1   0  349.15    5.61   0
  -2   1   0  560.31    6.99   0
  -1   1   0   56.02    4.44   0
   1   1   0   20.70    5.31   0
   2   1   0   57.26    5.26   0
   3   1   0    1.56    4.99   0
   4   1   0   18.78    4.18   0
   5   1   0   37.31    4.57   0
   6   1   0   11.54    4.44   0
   7   1   0   45.36    4.45   0
   8   1   0   50.38    5.51   0
  -7   2   0  221.26    6.06   0
  -6   2   0    3.53    4.66   0
  -5   2   0  678.44    6.67   0
  -4   2   0   15.62    4.46   0
  -3   2   0 1469.99    9.04   0
  -2   2   0 2917.19   12.35   0
  -1   2   0 1045.55    9.55   0
   0   2   0 4177.47   21.80   0
   1   2   0  337.64    6.68   0
   2   2   0  180.02    5.93   0
   3   2   0 1641.16   10.86   0
   4   2   0  400.67    7.05   0
   5   2   0 1243.62    8.39   0
   6   2   0   56.61    4.73   0
   7   2   0  261.65    6.09   0
   8   2   0  427.06    6.77   0
  -7   3   0  349.98    6.51   0
  -6   3   0    4.42    4.86   0
  -5   3   0  893.94    7.52   0
  -4   3   0  527.92    6.25   0
  -3   3   0  572.31    6.38   0
  -2   3   0 1230.79    9.20   0
  -1   3   0   20.54    4.42   0
   0   3   0 4410.41   18.55   0
   1   3   0   41.75    3.85   0
   2   3   0 2283.56   12.19   0
   3   3   0  195.53    5.99   0
   4   3   0   42.83    4.60   0
   5   3   0   64.06    5.40   0
   6   3   0    9.83    4.58   0
   7   3   0    0.56    4.76   0
   8   3   0    1.52    4.73   0
  -6   4   0    1.32    5.55   0
  -5   4   0   46.22    4.66   0
  -4   4   0   98.85    4.73   0
  -3   4   0  211.59    5.16   0
  -2   4   0 1145.86    8.01   0
  -1   4   0   28.14    4.90   0
   0   4   0  311.27    6.35   0
   1   4   0  536.25    6.61   0
   2   4   0  177.26    5.61   0
   3   4   0 1897.09   10.44   0
   4   4   0    6.84    4.48   0
   5   4   0 1740.74   10.23   0
   6   4   0  478.65    6.07   0
   7   4   0  551.01    6.57   0
   8   4   0  415.61    6.40   0
  -6   5   0   11.65    5.05   0
  -5   5   0  792.02    7.53   0
  -4   5   0   85.30    5.15   0
  -3   5   0  391.90    5.67   0
  -2   5   0  347.41    5.15   0
  -1   5   0    0.87    4.45   0
   0   5   0 1354.76    9.32   0
   1   5   0 1267.64    8.93   0
   2   5   0   11.55    3.96   0
   3   5   0 2426.39   11.71   0
   4   5   0  220.10    5.94   0
   5   5   0  812.03    7.89   0
   6   5   0   27.19    5.10   0
   7   5   0   74.07    5.03   0
   8   5   0  130.83    5.75   0
  -5   6   0   17.47    5.08   0
  -4   6   0    1.87    5.00   0
  -3   6   0   -0.08    4.76   0
  -2   6   0    1.37    4.10   0
  -1   6   0   22.06    4.40   0
   0   6   0    3.98    3.74   0
   1   6   0  185.51    5.08   0
   2   6   0   65.56    4.82   0
   3   6   0  569.45    6.29   0
   4   6   0   -1.63    4.02   0
   5   6   0  520.19    6.44   0
   6   6   0  108.63    4.78   0
   7   6   0  118.23    5.18   0
   8   6   0  190.95    5.61   0
  -5   7   0  116.02    5.19   0
  -4   7   0  249.47    5.30   0
  -3   7   0   29.44    5.19   0
  -2   7   0 2006.17   10.23   0
  -1   7   0   84.31    4.72   0
   0   7   0 2019.53   10.29   0
   1   7   0 1450.71    8.21   0
   2   7   0   36.87    4.61   0
   3   7   0 2291.72   10.20   0
   4   7   0    3.90    4.00   0
   5   7   0 1149.50    7.80   0
   6   7   0  282.18    6.36   0
   7   7   0  282.06    5.62   0
   8   7   0  372.79    6.29   0
  -4   8   0   82.13    5.04   0
  -3   8   0   45.47    4.49   0
  -2   8   0   62.92    4.82   0
  -1   8   0    4.41    4.58   0
   0   8   0    9.42    4.08   0
   1   8   0   23.84    5.62   0
   2   8   0    6.73    5.49   0
   3   8   0    9.15    4.76   0
   4   8   0   28.29    4.47   0
   5   8   0    4.83    5.14   0
   6   8   0   10.71    4.94   0
   7   8   0    7.58    4.83   0
  -3   9   0   33.00    5.67   0
  -2   9   0  755.38    6.36   0
  -1   9   0   99.09    4.97   0
   0   9   0  423.79    5.79   0
   1   9   0  849.65    7.72   0
   2   9   0  182.14    5.02   0
   3   9   0  701.34    6.89   0
   4   9   0    3.44    4.52   0
   5   9   0  315.72    5.75   0
   6   9   0  409.25    7.32   0
   7   9   0   18.79    5.08   0
  -2  10   0  456.63    6.00   0
  -1  10   0   43.25    5.19   0
   0  10   0  487.60    6.69   0
   1  10   0  138.45    5.00   0
   2  10   0    8.51    3.99   0
   3  10   0  222.14    5.10   0
   4  10   0   45.35    4.77   0
   5  10   0   61.23    4.90   0
   6  10   0    4.63    5.03   0
   7  10   0    3.00    5.19   0
  -1  11   0   50.67    4.44   0
   0  11   0   48.71    4.48   0
   1  11   0  186.97    5.73   0
   2  11   0   29.86    4.45   0
   3  11   0  297.50    5.89   0
   4  11   0   87.72    5.01   0
   5  11   0  180.64    5.57   0
   6  11   0  330.47    5.95   0
   0  12   0  149.29    5.28   0
   1  12   0  321.99    6.72   0
   2  12   0    1.55    4.39   0
   3  12   0  267.91    6.04   0
   4  12   0    2.31    6.32   0
   5  12   0   19.59    5.21   0
  -5 -12   1    4.34    5.77   0
  -4 -12   1  319.24    6.18   0
  -3 -12   1  100.47    5.67   0
  -2 -12   1  159.47    5.03   0
  -1 -12   1  138.41    5.70   0
   0 -12   1   -2.93    4.66   0
  -6 -11   1   98.71    5.61   0
  -5 -11   1   36.17    4.86   0
  -4 -11   1  100.94    5.43   0
  -3 -11   1  103.26    4.85   0
  -2 -11   1  100.26    5.98   0
  -1 -11   1  408.19    6.18   0
   0 -11   1   35.05    4.60   0
   1 -11   1  287.63    5.93   0
  -6 -10   1  459.86    6.46   0
  -5 -10   1    9.25    4.89   0
  -4 -10   1  725.74    6.76   0
  -3 -10   1  305.24    5.63   0
  -2 -10   1   96.15    4.81   0
  -1 -10   1  365.18    5.67   0
   0 -10   1   87.22    4.57   0
   1 -10   1  294.03    5.83   0
   2 -10   1  115.98    5.42   0
   3 -10   1   63.55    4.73   0
  -7  -9   1    1.26    4.99   0
  -6  -9   1   12.34    4.61   0
  -5  -9   1    9.35    4.37   0
  -4  -9   1   24.02    4.74   0
  -3  -9   1   13.88    4.48   0
  -2  -9   1   46.07    4.72   0
  -1  -9   1  165.38    7.01   0
   0  -9   1   18.05    4.83   0
   1  -9   1  114.24    5.08   0
   2  -9   1   29.82    4.81   0
   3  -9   1   23.08    4.78   0
  -7  -8   1   17.89    4.45   0
  -6  -8   1  712.74    7.08   0
  -5  -8   1  219.41    5.65   0
  -4  -8   1  996.44    7.84   0
  -3  -8   1 1008.53    7.57   0
  -2  -8   1   20.63    3.83   0
  -1  -8   1 1628.69    8.63   0
   0  -8   1   47.23    4.86   0
   1  -8   1 1248.70    7.90   0
   2  -8   1  439.94    6.27   0
   3  -8   1  136.89    5.69   0
   4  -8   1  814.59    8.17   0
  -8  -7   1   78.30    5.80   0
  -7  -7   1   13.49    4.21   0
  -6  -7   1  217.29    5.46   0
  -5  -7   1   46.82    4.49   0
  -4  -7   1   62.20    4.44   0
  -3  -7   1  204.99    4.98   0
  -2  -7   1    4.99    4.38   0
  -1  -7   1  214.95    4.84   0
   0  -7   1    4.52    4.55   0
   1  -7   1   32.25    4.33   0
   2  -7   1    6.45    4.42   0
   3  -7   1    1.15    4.50   0
   4  -7   1   35.71    4.99   0
   5  -7   1    5.13    4.95   0
  -8  -6   1   46.69    5.95   0
  -7  -6   1   41.64    4.89   0
  -6  -6   1  455.94    7.23   0
  -5  -6   1   44.81    5.15   0
  -4  -6   1   29.34    4.98   0
  -3  -6   1  696.83    6.78   0
  -2  -6   1  106.15    4.38   0
  -1  -6   1 2490.41   10.74   0
   0  -6   1   61.11    4.46   0
   1  -6   1 1487.73    9.29   0
   2  -6   1 1481.08    8.52   0
   3  -6   1   37.06    4.61   0
   4  -6   1  900.50    7.79   0
   5  -6   1   63.24    5.19   0
  -8  -5   1  258.71    5.82   0
  -7  -5   1    6.17    4.66   0
  -6  -5   1  559.04    7.49   0
  -5  -5   1  500.47    6.44   0
  -4  -5   1  616.66    7.00   0
  -3  -5   1 1949.85   10.41   0
  -2  -5   1   31.50    3.77   0
  -1  -5   1 1927.03   11.09   0
   0  -5   1  185.46    4.88   0
   1  -5   1  653.01    7.13   0
   2  -5   1   56.32    4.00   0
   3  -5   1   71.61    4.45   0
   4  -5   1   48.36    4.26   0
   5  -5   1    1.08    4.77   0
   6  -5   1    8.90    4.80   0
  -8  -4   1   29.07    5.43   0
  -7  -4   1   22.66    4.78   0
  -6  -4   1   94.24    5.19   0
  -5  -4   1  134.86    5.09   0
  -4  -4   1    6.69    4.83   0
  -3  -4   1  666.79    6.68   0
  -2  -4   1   73.44    4.51   0
  -1  -4   1 1542.50   10.10   0
   0  -4   1 1058.61    8.60   0
   1  -4   1  673.03    6.56   0
   2  -4   1 3938.62   13.46   0
   3  -4   1   62.93    4.44   0
   4  -4   1 1220.69    7.57   0
   5  -4   1   57.92    4.62   0
   6  -4   1  313.07    6.41   0
  -8  -3   1  352.69    6.34   0
  -7  -3   1    4.33    4.55   0
  -6  -3   1 1021.00    7.48   0
  -5  -3   1  656.83    7.07   0
  -4  -3   1  882.80    8.13   0
  -3  -3   1 2535.59   12.55   0
  -2  -3   1  353.06    6.63   0
  -1  -3   1 2956.94   13.49   0
   0  -3   1  319.55    6.23   0
   1  -3   1  929.91    7.76   0
   2  -3   1  361.28    4.98   0
   3  -3   1   25.90    3.62   0
   4  -3   1  784.62    6.63   0
   5  -3   1  276.96    5.01   0
   6  -3   1   33.20    4.73   0
   7  -3   1  125.35    5.33   0
  -8  -2   1   26.55    5.43   0
  -7  -2   1    8.43    4.73   0
  -6  -2   1  138.13    4.83   0
  -5  -2   1    0.83    4.08   0
  -4  -2   1    2.89    4.41   0
  -3  -2   1   66.07    5.73   0
  -2  -2   1  829.32    9.07   0
  -1  -2   1  366.16    7.49   0
   0  -2   1   65.62    5.71   0
   1  -2   1   48.87    4.09   0
   2  -2   1  218.10    4.93   0
   3  -2   1   30.07    3.78   0
   4  -2   1  227.40    4.87   0
   5  -2   1  259.44    5.61   0
   6  -2   1  180.38    5.40   0
   7  -2   1  274.83    5.57   0
  -8  -1   1  355.67    6.21   0
  -7  -1   1  107.97    4.91   0
  -6  -1   1 1540.63    8.92   0
  -5  -1   1  959.52    7.77   0
  -4  -1   1  498.04    6.39   0
  -3  -1   1 2806.68   13.52   0
  -2  -1   1  135.16    5.48   0
  -1  -1   1 3096.08   21.33   0
   0  -1   1  694.41   12.52   0
   1  -1   1  452.97    7.62   0
   2  -1   1 9208.06   23.45   0
   3  -1   1  132.04    4.50   0
   4  -1   1 3416.31   12.38   0
   5  -1   1  377.39    5.88   0
   6  -1   1  157.47    5.03   0
   7  -1   1  248.09    5.75   0
  -7   0   1   16.49    4.94   0
  -6   0   1  298.21    5.27   0
  -5   0   1  231.45    4.96   0
  -4   0   1   15.08    3.99   0
  -3   0   1  399.38    5.78   0
  -2   0   1    9.94    3.91   0
  -1   0   1  194.07    6.76   0
   1   0   1    1.69    3.78   0
   2   0   1    4.00    3.77   0
   3   0   1    0.77    3.62   0
   4   0   1   22.93    4.35   0
   5   0   1   31.29    4.41   0
   6   0   1    6.09    4.09   0
   7   0   1   99.27    5.39   0
   8   0   1    5.77    5.15   0
  -7   1   1    3.50    4.96   0
  -6   1   1  240.97    5.82   0
  -5   1   1  379.12    5.74   0
  -4   1   1    5.32    3.97   0
  -3   1   1 1587.10    9.32   0
  -2   1   1  153.10    5.40   0
  -1   1   1 2098.02   13.93   0
   0   1   1  744.06   13.70   0
   1   1   1  219.86    7.34   0
   2   1   1 7585.41   27.08   0
   3   1   1  578.05    7.19   0
   4   1   1  577.89    6.72   0
   5   1   1 1153.03    8.16   0
   6   1   1   61.42    4.36   0
   7   1   1  734.71    7.14   0
   8   1   1   -1.57    4.89   0
  -7   2   1  113.72    5.92   0
  -6   2   1  335.01    5.93   0
  -5   2   1  760.06    6.80   0
  -4   2   1   61.10    4.26   0
  -3   2   1 1494.78    9.10   0
  -2   2   1  496.76    6.19   0
  -1   2   1 1366.57   10.67   0
   0   2   1 1616.30   14.62   0
   1   2   1  185.59    5.59   0
   2   2   1 1188.90   12.01   0
   3   2   1    6.62    4.57   0
   4   2   1  722.71    8.06   0
   5   2   1   21.60    4.63   0
   6   2   1   15.08    4.95   0
   7   2   1   -1.17    4.33   0
   8   2   1    3.79    4.76   0
  -7   3   1    4.28    5.66   0
  -6   3   1   13.83    5.19   0
  -5   3   1   91.43    4.96   0
  -4   3   1   32.37    4.19   0
  -3   3   1  291.30    5.25   0
  -2   3   1  258.08    5.22   0
  -1   3   1  994.21    9.37   0
   0   3   1 8314.15   25.51   0
   1   3   1  925.99    8.89   0
   2   3   1 4713.44   18.34   0
   3   3   1   37.58    5.24   0
   4   3   1  426.31    6.70   0
   5   3   1  627.35    6.48   0
   6   3   1   93.57    4.51   0
   7   3   1  668.44    6.63   0
   8   3   1   76.32    5.14   0
  -6   4   1  132.05    5.77   0
  -5   4   1  715.27    7.91   0
  -4   4   1   39.57    4.21   0
  -3   4   1 2036.57   10.01   0
  -2   4   1  976.37    8.68   0
  -1   4   1 1585.34   10.10   0
   0   4   1  626.95    8.29   0
   1   4   1   42.36    3.91   0
   2   4   1 1684.34   10.35   0
   3   4   1  469.56    6.24   0
   4   4   1  507.39    7.33   0
   5   4   1  798.36    7.39   0
   6   4   1   46.51    5.03   0
   7   4   1  297.28    5.70   0
   8   4   1    5.65    4.94   0
  -6   5   1   19.57    5.42   0
  -5   5   1    2.19    4.65   0
  -4   5   1   46.11    4.71   0
  -3   5   1   11.99    5.19   0
  -2   5   1    1.07    4.45   0
  -1   5   1  194.96    5.39   0
   0   5   1  191.86    4.86   0
   1   5   1   22.03    5.14   0
   2   5   1   22.20    3.32   0
   3   5   1  104.76    4.63   0
   4   5   1  119.24    5.01   0
   5   5   1  379.02    5.93   0
   6   5   1    9.22    4.69   0
   7   5   1  308.85    5.62   0
   8   5   1  104.90    5.50   0
  -5   6   1  524.11    6.19   0
  -4   6   1  151.17    4.75   0
  -3   6   1 1068.60    7.51   0
  -2   6   1  756.83    6.45   0
  -1   6   1  469.50    6.59   0
   0   6   1 2938.45   12.02   0
   1   6   1   47.01    5.30   0
   2   6   1 4957.41   14.67   0
   3   6   1  392.06    5.93   0
   4   6   1  445.33    5.91   0
   5   6   1  885.28    7.18   0
   6   6   1    3.90    4.14   0
   7   6   1  494.74    6.46   0
   8   6   1   14.41    5.01   0
  -5   7   1  121.95    5.31   0
  -4   7   1   35.96    4.47   0
  -3   7   1  111.90    4.38   0
  -2   7   1   82.99    4.95   0
  -1   7   1   42.40    5.36   0
   0   7   1  102.55    5.14   0
   1   7   1    3.94    4.09   0
   2   7   1   11.11    3.79   0
   3   7   1    5.11    4.11   0
   4   7   1    7.34    4.25   0
   5   7   1   77.67    5.39   0
   6   7   1    2.07    4.24   0
   7   7   1   86.13    4.98   0
   8   7   1    8.78    4.45   0
  -4   8   1    0.18    4.86   0
  -3   8   1  229.12    5.82   0
  -2   8   1   52.78    4.65   0
  -1   8   1   66.91    4.04   0
   0   8   1 1242.28    8.24   0
   1   8   1   96.87    4.37   0
   2   8   1 1230.31    8.81   0
   3   8   1 1120.05    8.27   0
   4   8   1  142.55    5.03   0
   5   8   1 1086.52    8.39   0
   6   8   1   31.23    5.14   0
   7   8   1  362.45    6.05   0
   8   8   1   67.56    4.88   0
  -3   9   1  224.89    5.15   0
  -2   9   1  316.22    5.24   0
  -1   9   1   61.71    4.44   0
   0   9   1  446.10    6.18   0
   1   9   1    7.35    4.79   0
   2   9   1  349.21    5.59   0
   3   9   1   25.35    4.84   0
   4   9   1   35.05    4.92   0
   5   9   1   15.46    4.80   0
   6   9   1   37.33    5.00   0
   7   9   1    5.82    4.64   0
  -2  10   1  189.13    5.01   0
  -1  10   1    6.82    4.01   0
   0  10   1  690.32    6.51   0
   1  10   1   87.41    5.05   0
   2  10   1  276.00    5.32   0
   3  10   1  479.19    6.28   0
   4  10   1   91.45    4.84   0
   5  10   1  539.54    7.63   0
   6  10   1    5.28    5.24   0
   7  10   1  304.25    6.12   0
  -1  11   1    4.00    4.70   0
   0  11   1  203.75    5.59   0
   1  11   1  106.93    4.44   0
   2  11   1  243.56    5.20   0
   3  11   1  346.57    5.86   0
   4  11   1    5.65    5.88   0
   5  11   1  319.75    6.22   0
   6  11   1   33.93    4.80   0
   0  12   1   36.40    4.14   0
   1  12   1   14.08    4.73   0
   2  12   1   31.15    4.60   0
   3  12   1   37.82    4.83   0
   4  12   1   21.96    4.70   0
   5  12   1   68.22    5.02   0
  -4 -12   2  138.98    5.73   0
  -3 -12   2   17.47    5.55   0
  -2 -12   2  291.46    6.99   0
  -1 -12   2   66.45    5.13   0
   0 -12   2   72.58    5.23   0
  -6 -11   2  171.31    5.61   0
  -5 -11   2   87.87    5.94   0
  -4 -11   2  449.62    6.29   0
  -3 -11   2    1.86    5.21   0
  -2 -11   2  599.44    6.44   0
  -1 -11   2  247.42    5.70   0
   0 -11   2  268.11    5.72   0
   1 -11   2  288.23    6.49   0
  -6 -10   2   27.16    5.23   0
  -5 -10   2    9.02    5.00   0
  -4 -10   2   -2.05    5.29   0
  -3 -10   2   20.22    4.81   0
  -2 -10   2   41.81    4.94   0
  -1 -10   2    0.45    4.42   0
   0 -10   2    9.10    4.85   0
   1 -10   2  175.02    5.29   0
   2 -10   2    1.26    4.39   0
   3 -10   2  149.32    4.98   0
  -7  -9   2  257.61    6.15   0
  -6  -9   2  314.33    6.22   0
  -5  -9   2  160.81    5.03   0
  -4  -9   2  989.89    7.64   0
  -3  -9   2   31.83    4.64   0
  -2  -9   2 1718.11    9.28   0
  -1  -9   2  570.07    6.58   0
   0  -9   2  346.67    5.87   0
   1  -9   2  608.74    6.60   0
   2  -9   2    2.97    4.90   0
   3  -9   2  392.78    6.57   0
  -7  -8   2  216.17    6.02   0
  -6  -8   2   85.07    5.43   0
  -5  -8   2  123.26    4.87   0
  -4  -8   2  166.03    5.52   0
  -3  -8   2    3.14    4.11   0
  -2  -8   2  103.61    5.15   0
  -1  -8   2    3.10    4.62   0
   0  -8   2    8.63    4.91   0
   1  -8   2    4.16    4.74   0
   2  -8   2    1.63    4.64   0
   3  -8   2   12.82    5.02   0
   4  -8   2   49.46    4.90   0
  -7  -7   2  208.89    6.89   0
  -6  -7   2  131.45    5.45   0
  -5  -7   2  192.55    5.17   0
  -4  -7   2 1041.58    7.44   0
  -3  -7   2   20.49    4.06   0
  -2  -7   2  747.04    7.13   0
  -1  -7   2  520.78    6.07   0
   0  -7   2   47.42    4.37   0
   1  -7   2 1310.68    7.79   0
   2  -7   2  103.49    4.87   0
   3  -7   2  976.75    7.47   0
   4  -7   2  377.17    5.96   0
   5  -7   2   73.86    5.57   0
  -8  -6   2   68.88    5.38   0
  -7  -6   2  304.25    5.74   0
  -6  -6   2  431.94    6.41   0
  -5  -6   2   56.65    5.03   0
  -4  -6   2  876.43    7.71   0
  -3  -6   2   90.41    4.83   0
  -2  -6   2  343.72    5.47   0
  -1  -6   2  508.52    6.51   0
   0  -6   2    2.96    4.96   0
   1  -6   2  488.27    7.18   0
   2  -6   2  152.95    4.94   0
   3  -6   2  144.57    5.24   0
   4  -6   2   83.49    4.99   0
   5  -6   2   26.57    5.25   0
   6  -6   2    6.58    4.87   0
  -8  -5   2    5.99    5.44   0
  -7  -5   2    1.52    5.02   0
  -6  -5   2  140.46    5.84   0
  -5  -5   2   43.98    4.74   0
  -4  -5   2 1588.37    9.39   0
  -3  -5   2  487.91    6.09   0
  -2  -5   2  454.43    6.18   0
  -1  -5   2 1208.33    9.02   0
   0  -5   2  152.66    4.46   0
   1  -5   2 2119.36   10.16   0
   2  -5   2    3.50    3.63   0
   3  -5   2  971.95    7.65   0
   4  -5   2  979.08    7.16   0
   5  -5   2   90.58    5.29   0
   6  -5   2  555.67    6.70   0
  -8  -4   2  103.68    5.70   0
  -7  -4   2  207.35    5.40   0
  -6  -4   2  648.79    7.04   0
  -5  -4   2    0.93    5.45   0
  -4  -4   2 1059.61    8.19   0
  -3  -4   2  945.84    8.49   0
  -2  -4   2  999.65    7.98   0
  -1  -4   2 3901.23   15.90   0
   0  -4   2   16.96    4.82   0
   1  -4   2 2648.76   11.18   0
   2  -4   2  617.22    6.31   0
   3  -4   2  801.30    6.34   0
   4  -4   2  245.21    4.63   0
   5  -4   2   51.74    4.31   0
   6  -4   2  158.55    5.08   0
  -8  -3   2   47.63    5.18   0
  -7  -3   2    5.50    4.58   0
  -6  -3   2   -1.48    4.66   0
  -5  -3   2   14.85    4.60   0
  -4  -3   2    2.99    4.79   0
  -3  -3   2   -0.58    4.57   0
  -2  -3   2  125.42    5.28   0
  -1  -3   2  372.62    6.10   0
   0  -3   2 1229.55   10.48   0
   1  -3   2  916.66    8.68   0
   2  -3   2   36.97    4.09   0
   3  -3   2  170.74    4.83   0
   4  -3   2  330.56    5.11   0
   5  -3   2    1.81    4.15   0
   6  -3   2  118.69    5.32   0
   7  -3   2   94.67    5.49   0
  -8  -2   2  143.98    5.67   0
  -7  -2   2   26.92    4.86   0
  -6  -2   2  686.33    6.60   0
  -5  -2   2  200.97    5.26   0
  -4  -2   2 3542.04   13.52   0
  -3  -2   2 2783.53   13.07   0
  -2  -2   2 5576.42   20.20   0
  -1  -2   2 6909.67   23.90   0
   0  -2   2   35.96    5.76   0
   1  -2   2 4278.81   17.36   0
   2  -2   2   85.89    4.59   0
   3  -2   2 1070.89    7.74   0
   4  -2   2  733.80    6.39   0
   5  -2   2    1.63    4.11   0
   6  -2   2  877.84    7.63   0
   7  -2   2   99.24    5.52   0
  -7  -1   2   38.64    4.77   0
  -6  -1   2  159.41    5.59   0
  -5  -1   2   11.29    4.72   0
  -4  -1   2  616.48    6.82   0
  -3  -1   2  247.59    5.74   0
  -2  -1   2  121.38    5.36   0
  -1  -1   2  314.09    8.22   0
   0  -1   2    5.43    6.12   0
   1  -1   2    4.49    4.67   0
   2  -1   2  591.34    7.96   0
   3  -1   2   50.33    3.67   0
   4  -1   2  183.78    5.05   0
   5  -1   2   17.02    4.55   0
   6  -1   2   96.95    5.12   0
   7  -1   2   14.32    4.78   0
  -7   0   2   69.36    4.90   0
  -6   0   2  309.21    5.96   0
  -5   0   2    2.12    4.08   0
  -4   0   2 1278.13    8.31   0
  -3   0   2  508.76    6.28   0
  -2   0   2   55.17    5.05   0
  -1   0   2 2690.04   17.07   0
   0   0   2  462.45   14.25   0
   1   0   2 2570.79   17.96   0
   2   0   2   33.69    4.09   0
   3   0   2  203.23    5.34   0
   4   0   2 2724.14   11.90   0
   5   0   2  240.91    5.31   0
   6   0   2 1148.78    8.41   0
   7   0   2  486.97    6.85   0
   8   0   2   56.24    5.40   0
  -7   1   2   26.53    4.84   0
  -6   1   2  659.34    6.72   0
  -5   1   2   74.20    4.43   0
  -4   1   2  909.51    7.55   0
  -3   1   2  765.99    7.21   0
  -2   1   2  243.05    5.66   0
  -1   1   2  999.12   10.03   0
   0   1   2   55.70    6.75   0
   1   1   2  677.15   11.31   0
   2   1   2  609.37    7.98   0
   3   1   2   54.43    4.78   0
   4   1   2  126.85    4.64   0
   5   1   2    0.86    4.22   0
   6   1   2   16.49    4.99   0
   7   1   2    1.12    4.68   0
   8   1   2   -1.08    4.82   0
  -7   2   2    2.66    4.97   0
  -6   2   2  212.29    5.40   0
  -5   2   2    7.84    4.49   0
  -4   2   2  141.59    4.66   0
  -3   2   2  310.47    5.33   0
  -2   2   2  371.11    5.91   0
  -1   2   2  825.11    8.87   0
   0   2   2  359.90    7.75   0
   1   2   2 1601.44   11.94   0
   2   2   2 6846.07   23.46   0
   3   2   2  672.71    8.01   0
   4   2   2 6999.75   19.33   0
   5   2   2    0.07    4.14   0
   6   2   2 1079.09    7.78   0
   7   2   2  176.61    5.11   0
   8   2   2  122.57    5.44   0
  -6   3   2  425.86    6.42   0
  -5   3   2   85.57    4.91   0
  -4   3   2  451.15    6.12   0
  -3   3   2  932.86    7.66   0
  -2   3   2    1.36    4.19   0
  -1   3   2 2332.26   11.05   0
   0   3   2 2628.39   15.48   0
   1   3   2 1933.75   11.77   0
   2   3   2 1654.55   11.12   0
   3   3   2  145.97    5.22   0
   4   3   2  713.81    7.21   0
   5   3   2   70.85    4.27   0
   6   3   2  379.98    5.97   0
   7   3   2  122.28    5.02   0
   8   3   2    1.16    4.87   0
  -6   4   2    5.06    5.66   0
  -5   4   2    0.41    4.41   0
  -4   4   2   91.63    5.58   0
  -3   4   2   43.78    4.71   0
  -2   4   2    7.13    3.62   0
  -1   4   2  151.24    4.52   0
   0   4   2   93.62    5.18   0
   1   4   2  367.32    5.84   0
   2   4   2 1147.75    8.73   0
   3   4   2   47.18    3.79   0
   4   4   2  635.27    8.00   0
   5   4   2   91.21    4.98   0
   6   4   2  205.26    5.81   0
   7   4   2  252.68    5.65   0
   8   4   2   68.51    4.96   0
  -6   5   2  218.14    6.30   0
  -5   5   2  273.24    6.98   0
  -4   5   2  639.39    7.42   0
  -3   5   2 1456.81    8.26   0
  -2   5   2   13.07    4.42   0
  -1   5   2 3010.42   11.44   0
   0   5   2 1181.18    8.91   0
   1   5   2 1932.57   10.43   0
   2   5   2 1564.40    9.69   0
   3   5   2  337.15    6.47   0
   4   5   2 2604.84   11.17   0
   5   5   2   30.27    4.58   0
   6   5   2  584.73    6.68   0
   7   5   2  189.52    5.76   0
   8   5   2    9.80    5.10   0
  -5   6   2   17.27    4.86   0
  -4   6   2  111.11    4.70   0
  -3   6   2  122.52    5.15   0
  -2   6   2    9.54    4.09   0
  -1   6   2   51.72    4.49   0
   0   6   2    1.03    3.91   0
   1   6   2   21.73    4.48   0
   2   6   2   27.97    4.64   0
   3   6   2    9.39    4.12   0
   4   6   2    4.20    4.34   0
   5   6   2    9.45    4.23   0
   6   6   2   23.48    4.74   0
   7   6   2  104.17    4.87   0
   8   6   2    2.62    4.56   0
  -5   7   2   73.46    4.29   0
  -4   7   2  127.38    4.91   0
  -3   7   2  801.34    6.73   0
  -2   7   2    9.24    4.36   0
  -1   7   2 1234.05    7.52   0
   0   7   2   10.09    4.99   0
   1   7   2  304.78    5.09   0
   2   7   2  436.27    5.84   0
   3   7   2   32.32    4.18   0
   4   7   2 1107.02    7.67   0
   5   7   2  689.08    6.73   0
   6   7   2   64.43    5.26   0
   7   7   2  783.79    7.14   0
   8   7   2   -0.41    4.54   0
  -4   8   2   69.69    4.87   0
  -3   8   2  378.92    6.11   0
  -2   8   2    8.32    4.38   0
  -1   8   2  323.65    5.66   0
   0   8   2  205.18    5.13   0
   1   8   2   96.00    4.23   0
   2   8   2  355.69    5.75   0
   3   8   2    0.31    4.77   0
   4   8   2  133.08    4.87   0
   5   8   2    5.81    4.48   0
   6   8   2   23.65    4.29   0
   7   8   2    2.84    5.04   0
   8   8   2    2.07    4.88   0
  -3   9   2  156.22    5.57   0
  -2   9   2   14.70    4.23   0
  -1   9   2  135.51    4.19   0
   0   9   2  130.88    5.59   0
   1   9   2   88.71    4.38   0
   2   9   2 1158.54    8.42   0
   3   9   2    4.49    4.05   0
   4   9   2  596.17    6.46   0
   5   9   2  424.04    6.26   0
   6   9   2   48.47    4.24   0
   7   9   2  515.99    6.68   0
  -2  10   2   72.58    5.25   0
  -1  10   2  380.33    5.35   0
   0  10   2  314.16    5.38   0
   1  10   2   51.06    4.88   0
   2  10   2  269.48    5.19   0
   3  10   2   82.89    5.61   0
   4  10   2  263.41    5.29   0
   5  10   2  190.57    6.13   0
   6  10   2   40.95    4.87   0
   7  10   2  140.05    5.77   0
  -1  11   2    4.40    4.17   0
   0  11   2   41.38    4.48   0
   1  11   2    8.48    4.81   0
   2  11   2  236.85    5.65   0
   3  11   2   30.51    4.31   0
   4  11   2   98.10    5.14   0
   5  11   2  126.41    5.18   0
   6  11   2   56.36    4.77   0
   1  12   2   22.26    5.57   0
   2  12   2  619.95    6.67   0
   3  12   2    9.78    4.30   0
   4  12   2  423.01    6.36   0
   5  12   2  116.70    5.56   0
  -4 -12   3   61.94    5.05   0
  -3 -12   3  170.25    5.58   0
  -2 -12   3  239.44    6.80   0
  -1 -12   3    6.82    4.50   0
   0 -12   3  197.37    5.98   0
  -5 -11   3   11.72    5.43   0
  -4 -11   3    5.60    5.95   0
  -3 -11   3   43.93    4.65   0
  -2 -11   3   67.37    5.31   0
  -1 -11   3    4.63    5.71   0
   0 -11   3   47.08    4.82   0
   1 -11   3    6.11    4.95   0
  -6 -10   3    4.91    5.00   0
  -5 -10   3  416.05    6.78   0
  -4 -10   3  326.25    6.22   0
  -3 -10   3  246.41    5.41   0
  -2 -10   3  724.15    7.10   0
  -1 -10   3    1.75    4.73   0
   0 -10   3  905.02    7.21   0
   1 -10   3  220.85    5.94   0
   2 -10   3  331.44    5.86   0
   3 -10   3  242.87    5.93   0
  -7  -9   3   77.32    5.63   0
  -6  -9   3   43.91    5.28   0
  -5  -9   3  102.31    4.92   0
  -4  -9   3   41.26    5.43   0
  -3  -9   3  114.16    5.45   0
  -2  -9   3    6.95    4.69   0
  -1  -9   3   12.56    5.14   0
   0  -9   3   -0.02    4.65   0
   1  -9   3    1.05    5.12   0
   2  -9   3   25.12    4.92   0
   3  -9   3   51.63    4.86   0
  -7  -8   3  119.19    6.42   0
  -6  -8   3   79.67    5.05   0
  -5  -8   3  298.32    5.76   0
  -4  -8   3  324.26    5.63   0
  -3  -8   3  270.42    5.98   0
  -2  -8   3  973.69    7.95   0
  -1  -8   3   22.63    4.75   0
   0  -8   3 1355.76    8.49   0
   1  -8   3  494.78    6.68   0
   2  -8   3   86.22    4.58   0
   3  -8   3  524.71    6.74   0
   4  -8   3   44.29    5.17   0
  -7  -7   3  301.47    5.80   0
  -6  -7   3  117.56    5.59   0
  -5  -7   3  397.23    5.89   0
  -4  -7   3  441.05    6.23   0
  -3  -7   3  127.46    4.95   0
  -2  -7   3 1050.07    8.75   0
  -1  -7   3    7.67    3.98   0
   0  -7   3  470.30    6.06   0
   1  -7   3   40.11    5.22   0
   2  -7   3    2.25    4.41   0
   3  -7   3   24.12    5.22   0
   4  -7   3   19.86    4.98   0
   5  -7   3    4.51    5.34   0
  -7  -6   3   62.02    5.59   0
  -6  -6   3   13.87    5.66   0
  -5  -6   3  161.05    5.32   0
  -4  -6   3   72.85    4.49   0
  -3  -6   3   26.49    4.11   0
  -2  -6   3 1900.17    9.82   0
  -1  -6   3  260.47    5.71   0
   0  -6   3 1740.58    9.89   0
   1  -6   3  549.17    6.63   0
   2  -6   3   76.01    4.60   0
   3  -6   3  842.62    6.92   0
   4  -6   3    1.52    4.19   0
   5  -6   3  517.66    6.99   0
   6  -6   3  146.50    6.05   0
  -7  -5   3  671.34    7.45   0
  -6  -5   3  109.68    5.96   0
  -5  -5   3  832.53    7.64   0
  -4  -5   3  899.52    7.70   0
  -3  -5   3  166.79    4.79   0
  -2  -5   3 1241.00    8.71   0
  -1  -5   3  239.36    6.49   0
   0  -5   3  722.76    7.31   0
   1  -5   3 1164.14    9.05   0
   2  -5   3   52.47    4.86   0
   3  -5   3  813.81    6.44   0
   4  -5   3   81.43    4.29   0
   5  -5   3  167.60    4.73   0
   6  -5   3   66.24    5.07   0
  -8  -4   3    0.44    5.14   0
  -7  -4   3    0.59    4.76   0
  -6  -4   3  127.62    5.58   0
  -5  -4   3   58.68    5.07   0
  -4  -4   3   48.23    5.46   0
  -3  -4   3   83.51    4.94   0
  -2  -4   3   78.76    4.75   0
  -1  -4   3    0.53    4.56   0
   0  -4   3  467.26    7.39   0
   1  -4   3  387.04    5.98   0
   2  -4   3   28.09    5.04   0
   3  -4   3  912.26    7.11   0
   4  -4   3   16.37    3.95   0
   5  -4   3  297.48    5.28   0
   6  -4   3  339.32    6.14   0
   7  -4   3    0.76    3.40   0
  -8  -3   3    4.40    6.39   0
  -7  -3   3  542.92    6.84   0
  -6  -3   3  249.61    6.27   0
  -5  -3   3  505.56    6.09   0
  -4  -3   3 1140.75    8.23   0
  -3  -3   3    1.78    4.70   0
  -2  -3   3 2827.02   13.06   0
  -1  -3   3 2078.70   12.79   0
   0  -3   3 4193.20   18.98   0
   1  -3   3 4427.67   16.36   0
   2  -3   3  147.93    4.64   0
   3  -3   3 2341.25   10.41   0
   4  -3   3  177.95    4.97   0
   5  -3   3  656.76    6.37   0
   6  -3   3  109.94    5.23   0
   7  -3   3   41.35    5.34   0
  -7  -2   3  215.42    5.64   0
  -6  -2   3  151.38    4.94   0
  -5  -2   3  164.06    5.79   0
  -4  -2   3    3.61    4.32   0
  -3  -2   3   20.06    4.63   0
  -2  -2   3  107.13    6.50   0
  -1  -2   3  104.66    6.15   0
   0  -2   3  445.99    8.76   0
   1  -2   3    9.69    4.09   0
   2  -2   3   16.06    5.22   0
   3  -2   3  118.33    4.64   0
   4  -2   3  188.88    4.46   0
   5  -2   3  102.49    5.45   0
   6  -2   3  344.86    6.11   0
   7  -2   3   31.95    5.28   0
  -7  -1   3  173.75    5.93   0
  -6  -1   3  198.61    5.38   0
  -5  -1   3  198.82    5.23   0
  -4  -1   3  494.46    6.49   0
  -3  -1   3   15.68    4.43   0
  -2  -1   3 3442.38   15.65   0
  -1  -1   3 2245.44   15.41   0
   0  -1   3 1249.28   15.89   0
   1  -1   3 5327.65   21.40   0
   2  -1   3  556.69    6.73   0
   3  -1   3 3220.04   12.49   0
   4  -1   3  175.96    5.08   0
   5  -1   3  700.80    6.86   0
   6  -1   3  449.95    5.98   0
   7  -1   3    3.44    4.46   0
   8  -1   3  284.55    7.28   0
  -7   0   3  235.17    5.69   0
  -6   0   3  300.35    5.81   0
  -5   0   3   96.65    4.54   0
  -4   0   3 1002.94    7.71   0
  -3   0   3   35.46    4.97   0
  -2   0   3 2513.19   12.97   0
  -1   0   3  670.39    9.10   0
   0   0   3  322.52   11.14   0
   1   0   3  814.38   10.60   0
   2   0   3   79.24    4.69   0
   3   0   3  243.03    5.39   0
   4   0   3   39.96    4.32   0
   5   0   3   33.03    4.15   0
   6   0   3    9.17    4.29   0
   7   0   3    3.11    4.90   0
   8   0   3    3.47    5.19   0
  -7   1   3    1.55    5.26   0
  -6   1   3   78.27    5.64   0
  -5   1   3    8.63    5.01   0
  -4   1   3 1286.87    8.96   0
  -3   1   3  142.38    5.07   0
  -2   1   3 6298.10   18.98   0
  -1   1   3  932.62    9.52   0
   0   1   3  875.87   12.44   0
   1   1   3 1963.13   15.05   0
   2   1   3   29.31    3.82   0
   3   1   3 1672.79   11.10   0
   4   1   3  159.21    5.32   0
   5   1   3  393.77    5.87   0
   6   1   3 1594.92    9.13   0
   7   1   3    0.31    4.73   0
   8   1   3  527.52    6.91   0
  -7   2   3  206.07    6.92   0
  -6   2   3  452.56    6.71   0
  -5   2   3  123.30    5.24   0
  -4   2   3 1461.00    8.83   0
  -3   2   3   61.04    4.99   0
  -2   2   3 1559.76    9.19   0
  -1   2   3 1053.47    9.62   0
   0   2   3  405.98    7.79   0
   1   2   3 1928.46   13.30   0
   2   2   3  389.00    7.48   0
   3   2   3  900.33    8.54   0
   4   2   3  851.88    8.85   0
   5   2   3   73.05    4.55   0
   6   2   3  276.41    6.28   0
   7   2   3    8.74    4.57   0
   8   2   3   93.93    5.33   0
  -6   3   3   38.47    5.47   0
  -5   3   3   23.79    5.22   0
  -4   3   3  100.85    5.23   0
  -3   3   3   24.35    4.29   0
  -2   3   3   14.85    4.70   0
  -1   3   3   87.46    4.61   0
   0   3   3   74.79    5.42   0
   1   3   3  295.59    5.83   0
   2   3   3  594.30    7.45   0
   3   3   3  250.93    5.55   0
   4   3   3  282.26    6.37   0
   5   3   3   12.23    4.28   0
   6   3   3  904.10    7.79   0
   7   3   3   94.62    4.82   0
   8   3   3  178.83    6.21   0
  -6   4   3  354.68    7.10   0
  -5   4   3    7.94    4.75   0
  -4   4   3 1027.29    8.14   0
  -3   4   3  309.31    5.92   0
  -2   4   3 1689.84    8.44   0
  -1   4   3 1577.94    9.01   0
   0   4   3  367.13    6.96   0
   1   4   3 2594.41   12.74   0
   2   4   3 1153.60    9.06   0
   3   4   3 1551.32    9.22   0
   4   4   3 1048.45    8.62   0
   5   4   3  191.22    5.46   0
   6   4   3  916.98    8.42   0
   7   4   3    6.95    4.18   0
   8   4   3  423.38    6.68   0
  -5   5   3   -0.05    5.02   0
  -4   5   3   64.24    4.73   0
  -3   5   3   15.14    4.56   0
  -2   5   3  370.28    5.81   0
  -1   5   3   30.80    4.46   0
   0   5   3   26.21    5.06   0
   1   5   3    0.99    4.33   0
   2   5   3   15.31    4.34   0
   3   5   3  206.24    4.78   0
   4   5   3  495.63    5.82   0
   5   5   3  105.66    4.58   0
   6   5   3  170.61    4.96   0
   7   5   3    3.26    4.28   0
   8   5   3   43.02    5.24   0
  -5   6   3    4.71    4.90   0
  -4   6   3  148.23    4.99   0
  -3   6   3  159.35    5.62   0
  -2   6   3  262.50    5.20   0
  -1   6   3 1299.25    8.07   0
   0   6   3  215.29    5.48   0
   1   6   3 2807.39   12.10   0
   2   6   3  644.82    6.64   0
   3   6   3 1018.93    7.72   0
   4   6   3  584.31    6.11   0
   5   6   3   17.20    5.03   0
   6   6   3 1150.97    8.08   0
   7   6   3  159.33    5.46   0
   8   6   3  278.79    5.68   0
  -4   7   3  311.80    5.87   0
  -3   7   3  109.28    5.12   0
  -2   7   3  212.48    5.15   0
  -1   7   3  428.96    5.85   0
   0   7   3   15.46    4.53   0
   1   7   3  267.05    5.40   0
   2   7   3   68.02    4.11   0
   3   7   3   33.51    4.37   0
   4   7   3   70.50    4.29   0
   5   7   3   -1.17    4.71   0
   6   7   3   18.38    4.75   0
   7   7   3    0.21    4.84   0
   8   7   3    0.46    4.64   0
  -4   8   3  169.07    5.58   0
  -3   8   3  112.43    5.66   0
  -2   8   3   40.58    4.52   0
  -1   8   3  780.04    6.42   0
   0   8   3  177.72    4.78   0
   1   8   3 1036.81    7.33   0
   2   8   3  248.21    5.80   0
   3   8   3  536.46    6.29   0
   4   8   3 1028.06    7.49   0
   5   8   3   78.02    4.35   0
   6   8   3  900.93    7.25   0
   7   8   3   65.48    4.67   0
   8   8   3   59.68    5.45   0
  -3   9   3  205.40    6.26   0
  -2   9   3   63.34    4.71   0
  -1   9   3  590.42    5.69   0
   0   9   3   28.41    4.35   0
   1   9   3  579.07    6.55   0
   2   9   3  315.68    5.76   0
   3   9   3  169.19    5.08   0
   4   9   3  280.33    5.62   0
   5   9   3    4.29    4.64   0
   6   9   3  100.89    4.85   0
   7   9   3   47.81    4.90   0
  -2  10   3   -0.20    4.37   0
  -1  10   3   55.66    4.92   0
   0  10   3   23.37    4.45   0
   1  10   3   15.38    4.77   0
   2  10   3    2.72    4.39   0
   3  10   3    2.57    4.41   0
   4  10   3  367.43    5.78   0
   5  10   3   35.95    4.64   0
   6  10   3  215.71    5.66   0
   7  10   3  183.22    6.31   0
  -1  11   3  367.28    5.64   0
   0  11   3   61.95    3.88   0
   1  11   3  449.59    6.75   0
   2  11   3  381.80    5.86   0
   3  11   3  100.87    4.94   0
   4  11   3  395.09    6.35   0
   5  11   3    2.31    4.44   0
   6  11   3  294.86    6.10   0
   1  12   3    8.03    4.82   0
   2  12   3   15.90    4.79   0
   3  12   3    0.83    4.64   0
   4  12   3   61.97    5.62   0
   5  12   3    4.53    4.94   0
  -4 -12   4   24.19    5.04   0
  -3 -12   4    3.17    5.39   0
  -2 -12   4    6.76    5.07   0
  -1 -12   4   78.77    5.86   0
  -5 -11   4  333.12    6.30   0
  -4 -11   4   24.93    5.81   0
  -3 -11   4  498.16    6.88   0
  -2 -11   4  132.58    5.66   0
  -1 -11   4  214.50    5.24   0
   0 -11   4  386.70    6.19   0
   1 -11   4   21.24    5.11   0
  -6 -10   4   60.04    5.73   0
  -5 -10   4   24.66    5.53   0
  -4 -10   4   -0.16    5.39   0
  -3 -10   4    0.65    4.76   0
  -2 -10   4   63.07    4.93   0
  -1 -10   4    2.30    4.85   0
   0 -10   4   46.57    5.15   0
   1 -10   4   -1.94    4.90   0
   2 -10   4   52.16    4.97   0
  -6  -9   4  118.04    5.53   0
  -5  -9   4  289.18    6.35   0
  -4  -9   4   15.98    4.91   0
  -3  -9   4  439.91    6.50   0
  -2  -9   4  481.75    6.77   0
  -1  -9   4  289.30    6.16   0
   0  -9   4  746.11    7.50   0
   1  -9   4    2.65    4.64   0
   2  -9   4  921.03    7.18   0
   3  -9   4  266.85    5.95   0
  -7  -8   4  137.42    5.65   0
  -6  -8   4  106.05    5.45   0
  -5  -8   4  247.32    5.73   0
  -4  -8   4  131.55    4.95   0
  -3  -8   4  147.28    5.68   0
  -2  -8   4  472.18    6.98   0
  -1  -8   4   62.92    4.36   0
   0  -8   4  486.32    6.58   0
   1  -8   4    2.35    5.25   0
   2  -8   4  457.78    5.92   0
   3  -8   4    7.34    4.74   0
   4  -8   4   62.79    5.25   0
  -7  -7   4  102.41    6.19   0
  -6  -7   4   24.30    5.17   0
  -5  -7   4  306.76    5.50   0
  -4  -7   4  102.18    5.31   0
  -3  -7   4  559.03    6.59   0
  -2  -7   4  221.34    5.40   0
  -1  -7   4  360.97    5.91   0
   0  -7   4 1220.02    8.32   0
   1  -7   4   15.70    4.63   0
   2  -7   4 1810.87    9.97   0
   3  -7   4  274.12    5.24   0
   4  -7   4  228.56    5.58   0
   5  -7   4  229.82    5.86   0
  -7  -6   4  338.10    6.30   0
  -6  -6   4   14.00    5.20   0
  -5  -6   4 1068.13    7.80   0
  -4  -6   4  229.83    5.13   0
  -3  -6   4 1406.02    8.91   0
  -2  -6   4  715.32    7.19   0
  -1  -6   4  520.11    6.99   0
   0  -6   4 1237.30    8.27   0
   1  -6   4    3.16    5.04   0
   2  -6   4  539.65    6.60   0
   3  -6   4  162.19    5.03   0
   4  -6   4   58.59    4.94   0
   5  -6   4  109.62    4.85   0
   6  -6   4   -1.32    4.91   0
  -7  -5   4   30.93    5.78   0
  -6  -5   4   58.78    5.38   0
  -5  -5   4    0.65    5.10   0
  -4  -5   4   14.82    5.21   0
  -3  -5   4  149.22    5.15   0
  -2  -5   4   27.01    5.29   0
  -1  -5   4  138.94    5.42   0
   0  -5   4  565.69    7.29   0
   1  -5   4   78.93    4.83   0
   2  -5   4  175.77    5.42   0
   3  -5   4  306.12    5.45   0
   4  -5   4   15.98    4.28   0
   5  -5   4  525.56    6.89   0
   6  -5   4    4.35    4.63   0
  -7  -4   4  560.53    7.65   0
  -6  -4   4   30.13    5.60   0
  -5  -4   4 1673.14    9.22   0
  -4  -4   4  243.53    5.60   0
  -3  -4   4 2036.31   11.02   0
  -2  -4   4 1601.45    9.75   0
  -1  -4   4  525.42    7.41   0
   0  -4   4 1634.56   11.15   0
   1  -4   4  104.63    5.19   0
   2  -4   4 1001.10    7.91   0
   3  -4   4  883.81    7.15   0
   4  -4   4   62.08    4.43   0
   5  -4   4  642.46    6.38   0
   6  -4   4   96.93    4.78   0
  -7  -3   4  166.62    6.10   0
  -6  -3   4   76.12    5.03   0
  -5  -3   4  319.18    6.00   0
  -4  -3   4   90.12    5.64   0
  -3  -3   4  220.96    6.15   0
  -2  -3   4  234.06    5.57   0
  -1  -3   4  157.72    6.41   0
   0  -3   4 1666.14   11.71   0
   1  -3   4    3.00    4.51   0
   2  -3   4  103.59    5.13   0
   3  -3   4    9.27    3.92   0
   4  -3   4  108.39    4.53   0
   5  -3   4  162.86    4.83   0
   6  -3   4    4.51    4.71   0
   7  -3   4   92.96    5.84   0
  -7  -2   4  179.06    5.91   0
  -6  -2   4    2.34    4.99   0
  -5  -2   4  672.67    6.90   0
  -4  -2   4  437.30    7.09   0
  -3  -2   4  692.30    7.77   0
  -2  -2   4  717.82    8.42   0
  -1  -2   4    7.04    6.21   0
   0  -2   4 1148.90   12.15   0
   1  -2   4 1750.19   11.78   0
   2  -2   4 1490.92    9.67   0
   3  -2   4 3095.49   12.31   0
   4  -2   4   22.45    3.89   0
   5  -2   4 1641.15    8.96   0
   6  -2   4  248.30    5.62   0
   7  -2   4  452.79    6.77   0
  -7  -1   4  256.03    6.54   0
  -6  -1   4    3.48    5.19   0
  -5  -1   4  437.54    6.53   0
  -4  -1   4  491.90    6.73   0
  -3  -1   4  142.68    6.04   0
  -2  -1   4  469.53    7.13   0
  -1  -1   4   19.58    6.58   0
   0  -1   4 1775.97   15.36   0
   1  -1   4  307.84    7.20   0
   2  -1   4  451.06    6.69   0
   3  -1   4  140.55    4.82   0
   4  -1   4   86.82    4.49   0
   5  -1   4   17.71    4.08   0
   6  -1   4    7.35    5.20   0
   7  -1   4    5.48    4.97   0
   8  -1   4    0.32    5.67   0
  -7   0   4   50.70    5.82   0
  -6   0   4   11.73    5.19   0
  -5   0   4  119.77    4.84   0
  -4   0   4  190.32    5.82   0
  -3   0   4   29.23    4.45   0
  -2   0   4  998.79    8.79   0
  -1   0   4  351.55    7.71   0
   0   0   4 9999.99   34.80   0
   1   0   4 2061.27   15.70   0
   2   0   4 4178.57   17.72   0
   3   0   4 1987.37   11.27   0
   4   0   4    3.87    4.16   0
   5   0   4 1215.54    8.76   0
   6   0   4   41.51    5.06   0
   7   0   4  312.92    5.91   0
   8   0   4  238.81    6.30   0
  -7   1   4  328.47    6.56   0
  -6   1   4   50.61    5.27   0
  -5   1   4  581.21    7.46   0
  -4   1   4  526.37    6.39   0
  -3   1   4  238.87    5.07   0
  -2   1   4 2133.43   11.30   0
  -1   1   4   96.44    6.32   0
   0   1   4 3505.32   19.88   0
   1   1   4 1545.98   11.01   0
   2   1   4  993.48   10.56   0
   3   1   4 1174.86    8.13   0
   4   1   4   26.63    5.48   0
   5   1   4  291.21    6.75   0
   6   1   4   29.90    4.49   0
   7   1   4   12.88    4.52   0
   8   1   4   25.36    5.04   0
  -6   2   4    2.93    4.71   0
  -5   2   4    8.76    4.77   0
  -4   2   4  127.26    4.88   0
  -3   2   4   40.79    4.31   0
  -2   2   4   37.16    4.82   0
  -1   2   4    8.50    4.82   0
   0   2   4  576.74    9.11   0
   1   2   4  440.90    7.18   0
   2   2   4  402.61    8.04   0
   3   2   4  906.13    7.52   0
   4   2   4   12.96    4.10   0
   5   2   4  613.95    6.06   0
   6   2   4   80.72    5.25   0
   7   2   4   64.54    4.81   0
   8   2   4  491.77    6.55   0
  -6   3   4   74.82    5.58   0
  -5   3   4  463.78    6.69   0
  -4   3   4  935.46    7.88   0
  -3   3   4  241.64    5.47   0
  -2   3   4 2766.06   12.68   0
  -1   3   4   88.43    4.74   0
   0   3   4 3404.97   16.24   0
   1   3   4 1065.39    9.05   0
   2   3   4 1505.76   10.22   0
   3   3   4 1624.93   12.78   0
   4   3   4   46.78    4.13   0
   5   3   4  681.56    6.35   0
   6   3   4  414.69    6.34   0
   7   3   4   80.00    4.69   0
   8   3   4  160.42    5.53   0
  -6   4   4   17.18    5.36   0
  -5   4   4  124.51    5.98   0
  -4   4   4   80.73    5.40   0
  -3   4   4    2.86    4.44   0
  -2   4   4   62.82    4.32   0
  -1   4   4   36.21    4.86   0
   0   4   4   48.24    4.50   0
   1   4   4    6.48    4.19   0
   2   4   4  259.80    5.68   0
   3   4   4   59.01    4.11   0
   4   4   4    1.54    4.79   0
   5   4   4  231.28    4.91   0
   6   4   4  406.19    6.28   0
   7   4   4  103.77    4.67   0
   8   4   4  382.62    5.96   0
  -5   5   4  215.18    5.70   0
  -4   5   4  339.01    5.74   0
  -3   5   4  107.20    5.46   0
  -2   5   4  522.09    5.68   0
  -1   5   4  115.42    4.36   0
   0   5   4  827.67    8.89   0
   1   5   4 1314.48    9.63   0
   2   5   4    3.77    3.82   0
   3   5   4 2450.77   11.31   0
   4   5   4  858.33    7.47   0
   5   5   4 1114.58    8.12   0
   6   5   4  520.34    5.79   0
   7   5   4  102.44    4.94   0
   8   5   4  387.69    5.66   0
  -5   6   4   99.81    5.57   0
  -4   6   4  228.93    5.83   0
  -3   6   4    0.69    4.17   0
  -2   6   4  399.82    6.38   0
  -1   6   4   62.03    4.53   0
   0   6   4  563.32    5.91   0
   1   6   4  259.95    6.18   0
   2   6   4    0.87    3.66   0
   3   6   4  191.64    5.08   0
   4   6   4   37.63    4.39   0
   5   6   4   17.24    4.51   0
   6   6   4   12.79    4.86   0
   7   6   4    2.47    4.04   0
   8   6   4    9.97    5.25   0
  -4   7   4  101.81    5.33   0
  -3   7   4   13.00    4.68   0
  -2   7   4  616.61    6.48   0
  -1   7   4  164.06    4.63   0
   0   7   4  879.48    6.74   0
   1   7   4  913.97    7.87   0
   2   7   4   24.99    4.94   0
   3   7   4 1617.25    9.04   0
   4   7   4  238.93    5.08   0
   5   7   4  798.30    7.18   0
   6   7   4  373.49    6.63   0
   7   7   4  145.48    5.57   0
   8   7   4  564.71    5.90   0
  -3   8   4   -2.41    4.62   0
  -2   8   4  535.29    6.33   0
  -1   8   4  202.11    4.95   0
   0   8   4  262.51    5.17   0
   1   8   4  711.89    7.64   0
   2   8   4    0.40    4.35   0
   3   8   4  465.23    6.22   0
   4   8   4  103.97    5.24   0
   5   8   4   96.66    4.68   0
   6   8   4  137.98    5.26   0
   7   8   4   -0.91    4.86   0
   8   8   4   44.32    5.11   0
  -3   9   4    4.02    4.60   0
  -2   9   4   99.78    5.03   0
  -1   9   4   47.64    4.24   0
   0   9   4   37.96    4.32   0
   1   9   4  384.83    6.11   0
   2   9   4   -0.78    4.75   0
   3   9   4  293.96    5.72   0
   4   9   4   17.66    4.70   0
   5   9   4   49.82    4.30   0
   6   9   4  149.15    5.07   0
   7   9   4    2.22    4.37   0
  -2  10   4  412.92    6.03   0
  -1  10   4  290.69    5.18   0
   0  10   4  266.28    5.17   0
   1  10   4  540.24    6.76   0
   2  10   4    4.29    4.84   0
   3  10   4  498.13    6.50   0
   4  10   4  282.78    5.81   0
   5  10   4  150.01    5.10   0
   6  10   4  270.05    5.68   0
   7  10   4   -1.30    4.72   0
   0  11   4   15.06    4.01   0
   1  11   4    5.57    4.48   0
   2  11   4    3.97    4.72   0
   3  11   4   10.05    4.51   0
   4  11   4   -2.33    4.89   0
   5  11   4   29.81    4.52   0
   6  11   4   97.15    5.38   0
   1  12   4  327.28    5.07   0
   2  12   4   62.24    4.98   0
   3  12   4  307.50    6.34   0
   4  12   4  185.18    5.58   0
   5  12   4   15.92    4.66   0
  -3 -12   5  322.78    6.25   0
  -2 -12   5   41.96    5.59   0
  -1 -12   5  388.28    6.20   0
  -5 -11   5   -7.88    5.90   0
  -4 -11   5   15.35    5.80   0
  -3 -11   5    4.57    5.45   0
  -2 -11   5   22.38    5.19   0
  -1 -11   5    6.45    5.23   0
   0 -11   5    9.61    5.91   0
   1 -11   5   39.26    5.31   0
  -5 -10   5   95.30    5.59   0
  -4 -10   5  258.27    6.16   0
  -3 -10   5  525.08    6.66   0
  -2 -10   5   35.92    5.91   0
  -1 -10   5  699.80    7.21   0
   0 -10   5  145.04    5.51   0
   1 -10   5  274.02    5.62   0
   2 -10   5  284.98    5.89   0
  -6  -9   5  236.42    5.86   0
  -5  -9   5  187.66    5.61   0
  -4  -9   5  486.00    6.91   0
  -3  -9   5  331.33    6.74   0
  -2  -9   5   27.73    4.83   0
  -1  -9   5   75.03    5.61   0
   0  -9   5   79.17    5.61   0
   1  -9   5    9.90    5.79   0
   2  -9   5   11.21    4.63   0
   3  -9   5    1.07    5.38   0
  -6  -8   5  110.69    5.17   0
  -5  -8   5  133.24    5.95   0
  -4  -8   5  271.94    5.90   0
  -3  -8   5  551.05    6.89   0
  -2  -8   5   -0.96    5.42   0
  -1  -8   5  677.24    7.26   0
   0  -8   5  218.43    5.92   0
   1  -8   5  422.97    6.15   0
   2  -8   5  353.61    6.37   0
   3  -8   5   16.92    4.90   0
   4  -8   5  562.85    6.83   0
  -7  -7   5   -2.79    5.51   0
  -6  -7   5  495.57    6.53   0
  -5  -7   5  258.82    5.77   0
  -4  -7   5  250.39    5.70   0
  -3  -7   5  788.48    7.58   0
  -2  -7   5   72.05    5.09   0
  -1  -7   5  865.23    8.22   0
   0  -7   5  203.82    5.42   0
   1  -7   5  304.86    6.09   0
   2  -7   5  219.84    5.89   0
   3  -7   5    0.22    4.76   0
   4  -7   5  156.19    4.82   0
   5  -7   5   42.88    4.76   0
  -7  -6   5   17.40    5.83   0
  -6  -6   5   22.05    5.79   0
  -5  -6   5    5.55    5.10   0
  -4  -6   5    3.62    4.56   0
  -3  -6   5    7.32    4.51   0
  -2  -6   5  205.68    5.90   0
  -1  -6   5  186.42    5.72   0
   0  -6   5   43.15    5.51   0
   1  -6   5  222.77    6.64   0
   2  -6   5  384.25    7.02   0
   3  -6   5   29.55    4.17   0
   4  -6   5  524.86    6.38   0
   5  -6   5  181.02    5.51   0
  -7  -5   5   36.20    5.82   0
  -6  -5   5  463.16    7.25   0
  -5  -5   5  563.10    6.78   0
  -4  -5   5   74.20    5.15   0
  -3  -5   5 1699.40    9.93   0
  -2  -5   5  318.07    6.22   0
  -1  -5   5 1998.50   11.34   0
   0  -5   5 1451.96   10.21   0
   1  -5   5  646.82    7.64   0
   2  -5   5 1783.91    9.93   0
   3  -5   5    5.74    4.73   0
   4  -5   5  679.49    6.71   0
   5  -5   5  101.75    5.06   0
   6  -5   5   59.20    5.18   0
  -7  -4   5    3.08    6.15   0
  -6  -4   5   -0.34    5.06   0
  -5  -4   5   40.65    5.02   0
  -4  -4   5   41.63    4.81   0
  -3  -4   5   90.10    5.26   0
  -2  -4   5   49.13    5.27   0
  -1  -4   5    0.58    4.99   0
   0  -4   5   26.91    5.19   0
   1  -4   5    2.17    5.16   0
   2  -4   5  906.22    7.71   0
   3  -4   5    6.27    4.67   0
   4  -4   5  290.92    5.47   0
   5  -4   5   16.32    4.28   0
   6  -4   5   19.28    4.59   0
  -7  -3   5   54.16    5.50   0
  -6  -3   5  180.85    6.03   0
  -5  -3   5  670.67    6.73   0
  -4  -3   5   36.82    5.59   0
  -3  -3   5 2014.93   10.24   0
  -2  -3   5  491.14    6.94   0
  -1  -3   5 2063.74   12.55   0
   0  -3   5 1911.58   13.09   0
   1  -3   5  391.22    6.38   0
   2  -3   5 1576.27   10.05   0
   3  -3   5  144.24    4.65   0
   4  -3   5 1042.55    7.56   0
   5  -3   5  772.16    7.09   0
   6  -3   5   82.27    5.19   0
   7  -3   5  421.87    6.86   0
  -7  -2   5  119.93    5.72   0
  -6  -2   5  280.81    6.18   0
  -5  -2   5  514.21    6.49   0
  -4  -2   5   48.36    4.85   0
  -3  -2   5  534.17    7.07   0
  -2  -2   5 1377.07   10.49   0
  -1  -2   5  155.38    6.70   0
   0  -2   5  950.23   10.79   0
   1  -2   5   48.72    5.22   0
   2  -2   5  359.30    5.96   0
   3  -2   5    1.08    4.43   0
   4  -2   5  378.27    5.45   0
   5  -2   5    2.70    4.27   0
   6  -2   5    4.48    4.67   0
   7  -2   5   27.28    5.48   0
  -7  -1   5   88.75    5.99   0
  -6  -1   5  170.40    5.82   0
  -5  -1   5  470.07    6.63   0
  -4  -1   5   59.68    4.61   0
  -3  -1   5 1090.94    8.28   0
  -2  -1   5  347.67    6.94   0
  -1  -1   5  863.13   10.36   0
   0  -1   5  521.12   10.34   0
   1  -1   5   44.44    5.90   0
   2  -1   5 2589.74   12.48   0
   3  -1   5  603.93    6.80   0
   4  -1   5 2117.05   10.34   0
   5  -1   5 1024.34    7.54   0
   6  -1   5   40.85    5.22   0
   7  -1   5  562.74    6.76   0
  -7   0   5  144.70    5.90   0
  -6   0   5  356.16    6.22   0
  -5   0   5  897.23    7.51   0
  -4   0   5    0.95    4.76   0
  -3   0   5 1430.25    8.92   0
  -2   0   5  429.31    7.68   0
  -1   0   5  600.34    9.21   0
   0   0   5  375.39   10.18   0
   1   0   5   31.71    6.35   0
   2   0   5 1423.69   10.69   0
   3   0   5  643.80    7.63   0
   4   0   5  438.62    6.30   0
   5   0   5  410.72    6.47   0
   6   0   5   11.01    4.92   0
   7   0   5   67.13    5.59   0
   8   0   5    2.75    5.07   0
  -6   1   5    5.73    5.48   0
  -5   1   5   -2.48    4.90   0
  -4   1   5   87.13    4.80   0
  -3   1   5   57.84    4.21   0
  -2   1   5   11.55    5.42   0
  -1   1   5   70.29    6.22   0
   0   1   5   20.38    6.36   0
   1   1   5  151.17    6.33   0
   2   1   5 1811.62   12.89   0
   3   1   5 1124.49    7.93   0
   4   1   5  228.31    4.96   0
   5   1   5 1259.37    7.67   0
   6   1   5   18.55    4.71   0
   7   1   5  712.68    8.02   0
   8   1   5   13.44    5.06   0
  -6   2   5   96.55    5.44   0
  -5   2   5  689.02    6.98   0
  -4   2   5   59.21    5.31   0
  -3   2   5 1010.74    7.93   0
  -2   2   5 1007.52    8.46   0
  -1   2   5  458.39    7.32   0
   0   2   5 3481.92   17.52   0
   1   2   5   35.28    5.65   0
   2   2   5 3350.72   15.53   0
   3   2   5  921.10    7.45   0
   4   2   5  736.58    6.56   0
   5   2   5 1006.91    8.14   0
   6   2   5    4.12    4.18   0
   7   2   5  341.83    5.69   0
   8   2   5   72.40    5.38   0
  -6   3   5   58.14    5.71   0
  -5   3   5  114.30    6.15   0
  -4   3   5   85.27    5.52   0
  -3   3   5  140.78    5.30   0
  -2   3   5    8.18    4.61   0
  -1   3   5   48.00    5.18   0
   0   3   5 1187.87   10.09   0
   1   3   5   14.02    4.68   0
   2   3   5 2212.45   12.80   0
   3   3   5    4.05    4.04   0
   4   3   5   47.38    4.34   0
   5   3   5  107.86    4.36   0
   6   3   5   34.26    4.74   0
   7   3   5  178.19    4.80   0
   8   3   5   14.87    4.83   0
  -5   4   5  270.30    6.96   0
  -4   4   5  112.85    5.98   0
  -3   4   5  600.11    6.19   0
  -2   4   5 1313.05    8.08   0
  -1   4   5  365.51    5.68   0
   0   4   5 2123.08   12.49   0
   1   4   5   76.29    4.74   0
   2   4   5 2031.64   11.47   0
   3   4   5 1070.89    9.29   0
   4   4   5  511.05    5.41   0
   5   4   5 1336.76    7.77   0
   6   4   5  120.16    4.99   0
   7   4   5  550.82    5.68   0
   8   4   5  292.72    5.63   0
  -5   5   5  184.20    5.62   0
  -4   5   5  113.02    5.30   0
  -3   5   5  228.96    5.09   0
  -2   5   5  503.90    5.67   0
  -1   5   5   10.31    4.25   0
   0   5   5   97.60    5.28   0
   1   5   5   27.12    4.84   0
   2   5   5  306.26    5.54   0
   3   5   5   47.92    4.57   0
   4   5   5   16.52    4.10   0
   5   5   5   32.39    3.76   0
   6   5   5   78.06    4.50   0
   7   5   5    1.57    4.15   0
   8   5   5    7.89    4.54   0
  -4   6   5  130.04    5.63   0
  -3   6   5  269.00    5.59   0
  -2   6   5  538.91    6.31   0
  -1   6   5   82.57    4.39   0
   0   6   5  864.43    8.05   0
   1   6   5   25.96    4.23   0
   2   6   5 1692.27    9.37   0
   3   6   5  397.47    5.74   0
   4   6   5   96.01    4.45   0
   5   6   5  793.39    7.20   0
   6   6   5  289.97    5.08   0
   7   6   5  409.70    4.96   0
   8   6   5  243.41    5.15   0
  -4   7   5  141.65    5.39   0
  -3   7   5  240.87    5.60   0
  -2   7   5  360.74    6.30   0
  -1   7   5    6.84    4.48   0
   0   7   5  627.43    6.38   0
   1   7   5   97.07    5.16   0
   2   7   5  589.12    6.25   0
   3   7   5  408.64    6.21   0
   4   7   5   15.94    4.30   0
   5   7   5  193.42    5.05   0
   6   7   5   16.82    4.79   0
   7   7   5   10.30    4.04   0
   8   7   5   10.44    4.57   0
  -3   8   5   21.51    5.44   0
  -2   8   5   58.81    5.41   0
  -1   8   5    2.56    4.14   0
   0   8   5   21.44    3.84   0
   1   8   5   89.72    4.93   0
   2   8   5   90.12    5.26   0
   3   8   5  608.58    6.97   0
   4   8   5   83.65    4.76   0
   5   8   5  694.69    7.14   0
   6   8   5   85.09    5.18   0
   7   8   5  194.67    4.67   0
   8   8   5  125.63    4.74   0
  -2   9   5  402.82    6.12   0
  -1   9   5    1.97    4.16   0
   0   9   5  723.12    6.01   0
   1   9   5  220.44    5.36   0
   2   9   5  397.66    6.44   0
   3   9   5  615.26    6.89   0
   4   9   5    9.40    4.08   0
   5   9   5  377.47    5.85   0
   6   9   5   79.14    5.04   0
   7   9   5  106.50    5.05   0
  -1  10   5    1.88    4.51   0
   0  10   5   33.73    4.15   0
   1  10   5   12.40    4.89   0
   2  10   5    2.80    4.48   0
   3  10   5  131.23    5.18   0
   4  10   5   25.00    5.31   0
   5  10   5  148.69    4.84   0
   6  10   5    5.50    4.40   0
   7  10   5   98.94    5.21   0
   0  11   5  201.41    5.28   0
   1  11   5  308.36    4.70   0
   2  11   5  135.67    5.27   0
   3  11   5  554.41    6.64   0
   4  11   5    4.39    4.99   0
   5  11   5  432.92    6.66   0
   6  11   5  139.91    5.60   0
   2  12   5   22.54    5.29   0
   3  12   5   27.69    5.25   0
   4  12   5   19.80    4.92   0
  -4 -11   6  327.16    7.15   0
  -3 -11   6   80.59    5.60   0
  -2 -11   6  309.63    6.16   0
  -1 -11   6  440.00    6.50   0
   0 -11   6   58.66    6.10   0
   1 -11   6  545.06    7.56   0
  -5 -10   6    7.32    5.27   0
  -4 -10   6  121.57    6.18   0
  -3 -10   6  111.77    5.66   0
  -2 -10   6  219.41    5.94   0
  -1 -10   6  305.11    6.46   0
   0 -10   6  146.09    6.27   0
   1 -10   6   51.42    6.25   0
   2 -10   6   -0.22    5.07   0
  -6  -9   6  111.73    5.49   0
  -5  -9   6    8.62    5.05   0
  -4  -9   6  284.86    6.70   0
  -3  -9   6   81.46    5.38   0
  -2  -9   6  410.96    6.17   0
  -1  -9   6  496.77    6.61   0
   0  -9   6   59.07    5.32   0
   1  -9   6  518.27    7.38   0
   2  -9   6  112.84    5.08   0
   3  -9   6  232.48    6.25   0
  -6  -8   6  269.33    6.34   0
  -5  -8   6   44.35    4.86   0
  -4  -8   6  399.78    6.19   0
  -3  -8   6  116.26    5.81   0
  -2  -8   6  445.33    6.98   0
  -1  -8   6  479.51    7.23   0
   0  -8   6    4.49    5.19   0
   1  -8   6  230.56    6.00   0
   2  -8   6  120.75    6.62   0
   3  -8   6   60.89    5.05   0
   4  -8   6   21.72    5.14   0
  -6  -7   6    5.14    5.36   0
  -5  -7   6    9.82    4.86   0
  -4  -7   6   21.43    5.09   0
  -3  -7   6   20.00    5.08   0
  -2  -7   6   90.66    5.45   0
  -1  -7   6  151.92    5.95   0
   0  -7   6  110.93    5.00   0
   1  -7   6  290.29    6.26   0
   2  -7   6  281.43    6.67   0
   3  -7   6  205.37    5.38   0
   4  -7   6  286.69    5.65   0
   5  -7   6    0.58    4.78   0
  -7  -6   6   78.44    5.07   0
  -6  -6   6  445.41    6.79   0
  -5  -6   6    9.79    4.93   0
  -4  -6   6 1018.89    7.28   0
  -3  -6   6  372.40    6.12   0
  -2  -6   6  467.22    7.53   0
  -1  -6   6  926.82    8.53   0
   0  -6   6  168.35    6.06   0
   1  -6   6  817.87    7.90   0
   2  -6   6  713.03    7.31   0
   3  -6   6  278.90    6.14   0
   4  -6   6  817.44    7.08   0
   5  -6   6    7.07    4.91   0
  -7  -5   6   33.07    5.14   0
  -6  -5   6  138.98    5.69   0
  -5  -5   6   20.99    5.52   0
  -4  -5   6   31.26    5.27   0
  -3  -5   6   32.75    4.94   0
  -2  -5   6   22.15    5.28   0
  -1  -5   6   15.01    6.11   0
   0  -5   6   15.52    5.66   0
   1  -5   6   71.88    5.11   0
   2  -5   6   16.25    4.71   0
   3  -5   6   98.58    5.31   0
   4  -5   6  223.38    5.57   0
   5  -5   6    2.08    4.52   0
   6  -5   6  297.38    6.04   0
  -7  -4   6   37.04    5.67   0
  -6  -4   6  294.15    6.34   0
  -5  -4   6   37.81    4.94   0
  -4  -4   6  478.66    7.12   0
  -3  -4   6  831.22    7.83   0
  -2  -4   6   68.21    5.38   0
  -1  -4   6 2627.10   13.45   0
   0  -4   6  226.72    6.16   0
   1  -4   6 2059.25   11.40   0
   2  -4   6 1203.39    8.78   0
   3  -4   6  486.87    6.61   0
   4  -4   6 1232.22    8.51   0
   5  -4   6    3.99    4.24   0
   6  -4   6  441.88    6.47   0
  -7  -3   6    0.00    5.42   0
  -6  -3   6  297.74    6.43   0
  -5  -3   6  131.53    5.84   0
  -4  -3   6  289.55    5.73   0
  -3  -3   6  654.91    7.28   0
  -2  -3   6  747.07    8.10   0
  -1  -3   6  724.38    9.05   0
   0  -3   6   73.17    6.69   0
   1  -3   6   96.87    5.88   0
   2  -3   6  441.92    6.85   0
   3  -3   6   42.76    4.03   0
   4  -3   6    4.94    5.08   0
   5  -3   6   46.68    5.06   0
   6  -3   6    3.97    4.32   0
   7  -3   6   26.43    5.33   0
  -7  -2   6   -1.22    5.20   0
  -6  -2   6  107.72    6.02   0
  -5  -2   6  146.83    5.38   0
  -4  -2   6  350.60    5.95   0
  -3  -2   6 1231.14    9.47   0
  -2  -2   6  451.22    7.89   0
  -1  -2   6 2579.96   14.54   0
   0  -2   6  119.83    6.67   0
   1  -2   6 1967.35   12.25   0
   2  -2   6  891.53    8.23   0
   3  -2   6  527.67    6.92   0
   4  -2   6  844.26    7.45   0
   5  -2   6   22.09    4.65   0
   6  -2   6  545.99    6.83   0
   7  -2   6  270.34    6.42   0
  -6  -1   6  285.77    6.30   0
  -5  -1   6  224.39    5.66   0
  -4  -1   6  815.43    7.07   0
  -3  -1   6 1531.78    9.91   0
  -2  -1   6  388.78    7.39   0
  -1  -1   6 2029.13   12.91   0
   0  -1   6  174.24    6.75   0
   1  -1   6  873.39    9.70   0
   2  -1   6    2.17    4.11   0
   3  -1   6   49.97    5.02   0
   4  -1   6   12.80    4.10   0
   5  -1   6   90.71    5.11   0
   6  -1   6   36.53    5.06   0
   7  -1   6   98.01    5.53   0
  -6   0   6    5.77    5.05   0
  -5   0   6    1.99    5.03   0
  -4   0   6   86.72    5.58   0
  -3   0   6   71.61    5.00   0
  -2   0   6   10.51    5.27   0
  -1   0   6  351.02    7.43   0
   0   0   6  585.65    9.44   0
   1   0   6  453.97    8.88   0
   2   0   6   35.80    4.82   0
   3   0   6   14.28    4.91   0
   4   0   6  567.80    6.97   0
   5   0   6  364.59    6.25   0
   6   0   6  446.31    6.70   0
   7   0   6  587.65    8.02   0
   8   0   6    2.24    5.10   0
  -6   1   6  506.14    6.80   0
  -5   1   6  284.15    5.63   0
  -4   1   6  799.89    7.72   0
  -3   1   6 1340.25    9.28   0
  -2   1   6   -0.56    5.18   0
  -1   1   6 1398.84   11.17   0
   0   1   6  679.92    9.43   0
   1   1   6  792.23    8.89   0
   2   1   6 1524.79   12.16   0
   3   1   6   16.92    5.08   0
   4   1   6 1537.78    8.72   0
   5   1   6  234.48    4.57   0
   6   1   6  266.30    5.08   0
   7   1   6  276.49    5.78   0
   8   1   6   -0.20    5.16   0
  -6   2   6    1.94    5.41   0
  -5   2   6   10.08    5.29   0
  -4   2   6   33.00    5.27   0
  -3   2   6   27.30    5.17   0
  -2   2   6   42.45    4.54   0
  -1   2   6   13.89    5.28   0
   0   2   6   14.04    4.93   0
   1   2   6    3.62    4.56   0
   2   2   6   95.89    4.93   0
   3   2   6    4.23    4.51   0
   4   2   6 1540.91    8.59   0
   5   2   6   40.47    3.91   0
   6   2   6  224.57    4.93   0
   7   2   6  101.55    5.15   0
   8   2   6    1.17    4.61   0
  -6   3   6  -32.29    6.89   0
  -5   3   6  139.99    6.31   0
  -4   3   6  132.26    5.56   0
  -3   3   6  709.01    7.24   0
  -2   3   6   65.39    5.38   0
  -1   3   6  983.86    9.47   0
   0   3   6 1363.25   11.08   0
   1   3   6  414.35    7.20   0
   2   3   6 3422.88   14.84   0
   3   3   6   43.52    4.76   0
   4   3   6 2046.70    9.90   0
   5   3   6  703.98    7.27   0
   6   3   6  637.43    6.69   0
   7   3   6  602.44    6.52   0
   8   3   6   16.94    5.03   0
  -5   4   6  149.51    5.63   0
  -4   4   6   81.55    5.75   0
  -3   4   6  256.98    5.36   0
  -2   4   6   28.01    4.44   0
  -1   4   6  276.49    6.25   0
   0   4   6 1336.10   10.54   0
   1   4   6   96.12    5.34   0
   2   4   6  238.23    6.06   0
   3   4   6   21.78    4.57   0
   4   4   6   26.21    3.95   0
   5   4   6   22.29    4.88   0
   6   4   6   78.42    4.97   0
   7   4   6   28.18    4.98   0
   8   4   6   -4.63    4.33   0
  -5   5   6  110.55    5.31   0
  -4   5   6   37.73    5.04   0
  -3   5   6  382.61    6.12   0
  -2   5   6   94.44    4.95   0
  -1   5   6  684.57    6.72   0
   0   5   6 1155.97    9.30   0
   1   5   6  331.26    5.76   0
   2   5   6 1711.68    9.49   0
   3   5   6    3.73    3.66   0
   4   5   6 1791.44   10.42   0
   5   5   6  300.15    4.70   0
   6   5   6  571.51    5.80   0
   7   5   6  418.32    5.59   0
   8   5   6   20.33    5.17   0
  -4   6   6   95.79    5.72   0
  -3   6   6  572.73    6.69   0
  -2   6   6  135.16    5.38   0
  -1   6   6  583.96    5.99   0
   0   6   6  478.37    6.62   0
   1   6   6   34.10    4.64   0
   2   6   6  221.93    5.17   0
   3   6   6   65.05    4.48   0
   4   6   6  424.04    6.35   0
   5   6   6  154.78    6.02   0
   6   6   6   68.02    4.39   0
   7   6   6   52.63    4.44   0
   8   6   6    0.12    4.58   0
  -3   7   6   66.96    5.82   0
  -2   7   6  108.99    5.59   0
  -1   7   6  226.33    6.51   0
   0   7   6   83.79    4.56   0
   1   7   6   28.54    4.71   0
   2   7   6  117.30    4.45   0
   3   7   6   88.00    4.58   0
   4   7   6  476.87    6.13   0
   5   7   6  461.09    6.53   0
   6   7   6   12.17    3.82   0
   7   7   6  581.05    6.36   0
   8   7   6   89.34    4.90   0
  -3   8   6  442.71    6.12   0
  -2   8   6  195.50    5.01   0
  -1   8   6  354.57    5.85   0
   0   8   6  501.21    5.82   0
   1   8   6   28.71    4.72   0
   2   8   6  814.80    7.38   0
   3   8   6   95.54    5.08   0
   4   8   6  465.38    6.24   0
   5   8   6  388.96    5.94   0
   6   8   6   11.71    4.59   0
   7   8   6  259.65    5.10   0
  -2   9   6   20.44    5.05   0
  -1   9   6    1.44    4.41   0
   0   9   6   -3.22    4.39   0
   1   9   6    3.81    3.83   0
   2   9   6  168.29    5.81   0
   3   9   6    2.27    4.76   0
   4   9   6  150.65    5.54   0
   5   9   6   85.43    4.79   0
   6   9   6   10.18    4.89   0
   7   9   6  177.38    5.13   0
  -1  10   6  113.93    4.41   0
   0  10   6  362.83    5.91   0
   1  10   6   -3.01    3.99   0
   2  10   6  451.36    6.66   0
   3  10   6  257.39    5.60   0
   4  10   6  197.05    5.46   0
   5  10   6  497.86    7.07   0
   6  10   6    3.31    4.58   0
   0  11   6  109.62    4.74   0
   1  11   6    0.85    4.21   0
   2  11   6    1.70    4.80   0
   3  11   6    1.66    5.14   0
   4  11   6    6.12    4.77   0
   5  11   6    4.84    5.08   0
   6  11   6   -3.19    4.20   0
   3  12   6   87.82    6.46   0
  -3 -11   7   -1.01    5.70   0
  -2 -11   7   67.41    5.90   0
  -1 -11   7    0.86    5.31   0
   0 -11   7   15.71    5.60   0
  -4 -10   7  169.44    6.49   0
  -3 -10   7   17.93    5.83   0
  -2 -10   7  401.44    6.32   0
  -1 -10   7   35.96    5.11   0
   0 -10   7  379.64    6.73   0
   1 -10   7  271.15    6.16   0
   2 -10   7   66.92    5.73   0
  -5  -9   7  118.95    5.99   0
  -4  -9   7  479.13    6.99   0
  -3  -9   7   44.47    6.04   0
  -2  -9   7  240.98    6.59   0
  -1  -9   7   32.97    5.64   0
   0  -9   7  204.85    6.15   0
   1  -9   7  293.89    6.88   0
   2  -9   7   25.73    5.60   0
   3  -9   7   93.28    5.70   0
  -6  -8   7    1.83    5.63   0
  -5  -8   7    4.53    5.27   0
  -4  -8   7   43.07    5.75   0
  -3  -8   7    4.28    5.26   0
  -2  -8   7  117.03    5.75   0
  -1  -8   7   71.60    5.81   0
   0  -8   7  247.25    6.22   0
   1  -8   7  407.35    6.33   0
   2  -8   7   13.60    5.28   0
   3  -8   7  309.63    6.18   0
   4  -8   7   83.05    5.23   0
  -6  -7   7  350.65    6.47   0
  -5  -7   7   98.76    5.24   0
  -4  -7   7  891.93    7.60   0
  -3  -7   7    0.99    5.14   0
  -2  -7   7 1743.30    9.98   0
  -1  -7   7  405.51    6.63   0
   0  -7   7 1477.82    9.70   0
   1  -7   7  671.94    7.76   0
   2  -7   7   57.65    5.30   0
   3  -7   7  303.27    6.12   0
   4  -7   7   70.88    5.49   0
   5  -7   7   96.66    5.37   0
  -6  -6   7    7.97    5.43   0
  -5  -6   7    9.93    4.94   0
  -4  -6   7   71.81    5.19   0
  -3  -6   7    2.16    5.48   0
  -2  -6   7   37.04    5.60   0
  -1  -6   7   56.49    5.97   0
   0  -6   7  319.60    6.00   0
   1  -6   7   94.61    6.43   0
   2  -6   7    3.15    5.21   0
   3  -6   7   98.28    5.30   0
   4  -6   7    2.36    5.16   0
   5  -6   7  106.46    5.77   0
  -6  -5   7  228.29    5.82   0
  -5  -5   7  251.69    6.65   0
  -4  -5   7  687.93    7.30   0
  -3  -5   7    3.41    5.18   0
  -2  -5   7 1427.77    9.67   0
  -1  -5   7  618.68    7.96   0
   0  -5   7  561.65    7.81   0
   1  -5   7 1377.97   10.12   0
   2  -5   7    5.20    5.68   0
   3  -5   7  912.42    7.83   0
   4  -5   7  245.07    6.25   0
   5  -5   7  189.24    5.44   0
   6  -5   7  296.06    6.05   0
  -6  -4   7  218.32    7.06   0
  -5  -4   7   18.87    5.14   0
  -4  -4   7  641.62    6.78   0
  -3  -4   7   34.24    5.34   0
  -2  -4   7  120.63    6.08   0
  -1  -4   7  157.55    6.15   0
   0  -4   7  297.00    6.67   0
   1  -4   7  157.99    6.09   0
   2  -4   7   90.14    5.15   0
   3  -4   7    2.93    4.66   0
   4  -4   7   59.72    4.89   0
   5  -4   7    6.85    4.66   0
   6  -4   7   10.56    5.03   0
  -6  -3   7   91.65    5.56   0
  -5  -3   7   73.67    5.12   0
  -4  -3   7  474.99    6.83   0
  -3  -3   7    7.03    5.26   0
  -2  -3   7  634.19    7.64   0
  -1  -3   7  665.62    8.46   0
   0  -3   7  250.40    7.81   0
   1  -3   7 1744.67   11.67   0
   2  -3   7  103.99    4.94   0
   3  -3   7 1302.20    8.73   0
   4  -3   7  904.27    7.70   0
   5  -3   7  342.70    6.19   0
   6  -3   7  625.76    7.00   0
   7  -3   7   -0.64    5.80   0
  -6  -2   7  347.83    6.78   0
  -5  -2   7  149.17    5.26   0
  -4  -2   7  240.21    6.13   0
  -3  -2   7   17.21    5.29   0
  -2  -2   7   73.44    6.20   0
  -1  -2   7  801.53    9.07   0
   0  -2   7  209.26    7.89   0
   1  -2   7 1334.30   11.08   0
   2  -2   7  261.16    5.85   0
   3  -2   7  362.13    6.03   0
   4  -2   7  258.21    5.96   0
   5  -2   7   29.98    4.08   0
   6  -2   7    2.62    4.89   0
   7  -2   7   10.87    5.90   0
  -6  -1   7    0.61    5.78   0
  -5  -1   7    2.28    5.10   0
  -4  -1   7    1.17    5.11   0
  -3  -1   7   30.59    4.90   0
  -2  -1   7   38.76    5.45   0
  -1  -1   7  469.59    8.17   0
   0  -1   7   16.11    6.01   0
   1  -1   7 1296.03   11.25   0
   2  -1   7  732.41    8.49   0
   3  -1   7  949.49    8.12   0
   4  -1   7  787.66    7.21   0
   5  -1   7  212.88    5.41   0
   6  -1   7  479.87    6.76   0
   7  -1   7   21.40    6.36   0
  -6   0   7  363.10    6.66   0
  -5   0   7    5.13    5.70   0
  -4   0   7  647.71    7.28   0
  -3   0   7  442.28    7.41   0
  -2   0   7 1514.96   10.49   0
  -1   0   7 1775.10   12.53   0
   0   0   7  150.63    7.10   0
   1   0   7 2242.55   14.75   0
   2   0   7 1078.73    9.68   0
   3   0   7 1165.09    9.44   0
   4   0   7  830.80    8.20   0
   5   0   7  188.97    6.11   0
   6   0   7  490.96    5.67   0
   7   0   7    1.61    5.02   0
   8   0   7  131.29    6.05   0
  -6   1   7   42.40    5.40   0
  -5   1   7   34.44    5.86   0
  -4   1   7   21.28    5.10   0
  -3   1   7   33.73    5.24   0
  -2   1   7  361.99    6.68   0
  -1   1   7   55.96    5.96   0
   0   1   7   83.37    6.38   0
   1   1   7  100.43    5.87   0
   2   1   7   65.48    5.66   0
   3   1   7  193.48    5.98   0
   4   1   7    9.87    4.69   0
   5   1   7   37.24    4.25   0
   6   1   7  412.46    6.04   0
   7   1   7   36.45    4.52   0
   8   1   7  251.70    6.02   0
  -5   2   7    2.33    5.57   0
  -4   2   7  708.62    7.98   0
  -3   2   7  410.37    6.56   0
  -2   2   7  989.81    9.05   0
  -1   2   7 1676.02   11.16   0
   0   2   7   44.10    6.03   0
   1   2   7 1874.25   11.49   0
   2   2   7  317.90    5.72   0
   3   2   7  664.50    7.87   0
   4   2   7 1010.27    7.56   0
   5   2   7    1.51    3.89   0
   6   2   7  938.48    7.33   0
   7   2   7  211.64    4.84   0
   8   2   7  228.79    5.84   0
  -5   3   7   18.13    5.54   0
  -4   3   7  239.01    6.61   0
  -3   3   7  214.38    5.80   0
  -2   3   7  127.89    5.77   0
  -1   3   7  286.32    6.09   0
   0   3   7  293.48    6.49   0
   1   3   7  150.65    5.65   0
   2   3   7  235.99    6.27   0
   3   3   7   60.80    4.81   0
   4   3   7  117.11    5.36   0
   5   3   7   57.10    4.45   0
   6   3   7  112.24    5.12   0
   7   3   7   99.87    4.63   0
   8   3   7    3.14    5.23   0
  -5   4   7   -2.64    5.82   0
  -4   4   7  335.19    5.88   0
  -3   4   7  205.40    5.79   0
  -2   4   7  294.96    6.22   0
  -1   4   7  703.07    7.93   0
   0   4   7    3.97    4.83   0
   1   4   7  785.66    7.88   0
   2   4   7  764.50    8.24   0
   3   4   7  357.33    6.09   0
   4   4   7 1453.51    8.16   0
   5   4   7    4.40    4.40   0
   6   4   7  957.36    7.64   0
   7   4   7  242.08    4.95   0
   8   4   7  279.50    5.34   0
  -4   5   7  146.75    5.38   0
  -3   5   7  253.60    7.05   0
  -2   5   7  377.65    6.35   0
  -1   5   7  697.14    6.96   0
   0   5   7   33.66    5.49   0
   1   5   7  593.86    7.22   0
   2   5   7  273.94    6.12   0
   3   5   7   42.61    4.50   0
   4   5   7    5.54    4.58   0
   5   5   7   37.56    4.76   0
   6   5   7   -1.07    3.86   0
   7   5   7   56.27    4.72   0
   8   5   7   13.53    4.80   0
  -4   6   7   -1.84    5.79   0
  -3   6   7   16.89    4.98   0
  -2   6   7   -0.94    5.46   0
  -1   6   7  132.85    5.23   0
   0   6   7  162.40    5.25   0
   1   6   7  386.22    6.62   0
   2   6   7  669.55    6.91   0
   3   6   7  151.95    4.77   0
   4   6   7  535.97    6.91   0
   5   6   7   26.65    3.48   0
   6   6   7  557.08    5.32   0
   7   6   7  245.72    4.74   0
   8   6   7  161.45    5.21   0
  -3   7   7  268.09    6.00   0
  -2   7   7  104.87    4.91   0
  -1   7   7  843.78    7.29   0
   0   7   7  259.70    5.61   0
   1   7   7  687.19    7.81   0
   2   7   7  723.43    7.63   0
   3   7   7  135.25    4.99   0
   4   7   7  467.17    6.26   0
   5   7   7    6.12    4.90   0
   6   7   7  307.26    4.80   0
   7   7   7  111.85    4.95   0
   8   7   7   11.64    4.73   0
  -2   8   7    0.57    4.69   0
  -1   8   7   15.73    4.02   0
   0   8   7   87.47    5.20   0
   1   8   7   84.51    5.54   0
   2   8   7   44.96    4.82   0
   3   8   7   60.95    4.81   0
   4   8   7  107.59    4.77   0
   5   8   7   18.22    4.17   0
   6   8   7  284.79    6.10   0
   7   8   7   14.46    4.29   0
  -2   9   7    2.11    4.20   0
  -1   9   7  544.58    6.40   0
   0   9   7  162.47    4.68   0
   1   9   7  353.23    4.84   0
   2   9   7  462.65    6.81   0
   3   9   7   47.99    4.99   0
   4   9   7  609.22    6.88   0
   5   9   7   65.59    4.91   0
   6   9   7  234.74    6.60   0
   7   9   7  230.57    6.10   0
   0  10   7   56.15    4.53   0
   1  10   7   30.85    3.98   0
   2  10   7  267.85    6.85   0
   3  10   7   16.17    4.95   0
   4  10   7   11.88    4.55   0
   5  10   7    5.40    5.13   0
   6  10   7    3.66    5.35   0
   1  11   7   91.50    4.34   0
   2  11   7  283.92    6.50   0
   3  11   7    0.89    5.35   0
   4  11   7  320.42    6.80   0
   5  11   7   72.60    5.31   0
  -2 -11   8  164.11    6.38   0
  -1 -11   8   57.67    5.31   0
  -4 -10   8    6.21    6.18   0
  -3 -10   8  157.85    6.16   0
  -2 -10   8  259.83    6.38   0
  -1 -10   8   15.69    6.36   0
   0 -10   8   86.29    5.68   0
   1 -10   8    1.07    5.66   0
  -5  -9   8   27.54    5.97   0
  -4  -9   8   13.46    5.90   0
  -3  -9   8   71.49    6.12   0
  -2  -9   8  131.38    5.90   0
  -1  -9   8   18.08    5.29   0
   0  -9   8  232.08    6.98   0
   1  -9   8   31.06    5.83   0
   2  -9   8  213.18    6.77   0
   3  -9   8  220.29    6.56   0
  -5  -8   8  370.33    7.18   0
  -4  -8   8  123.66    5.92   0
  -3  -8   8  163.24    7.11   0
  -2  -8   8  856.69    8.59   0
  -1  -8   8    9.72    5.79   0
   0  -8   8  710.73    7.43   0
   1  -8   8  134.21    5.73   0
   2  -8   8  630.72    8.17   0
   3  -8   8  351.67    7.06   0
   4  -8   8  131.02    6.12   0
  -6  -7   8    5.97    5.22   0
  -5  -7   8   -0.10    5.41   0
  -4  -7   8    0.03    5.47   0
  -3  -7   8    6.23    6.14   0
  -2  -7   8   -0.47    5.82   0
  -1  -7   8   32.14    5.37   0
   0  -7   8   16.94    5.73   0
   1  -7   8    2.84    5.17   0
   2  -7   8  160.26    6.39   0
   3  -7   8  109.95    6.03   0
   4  -7   8   12.76    4.85   0
  -6  -6   8    7.25    5.60   0
  -5  -6   8  403.78    6.42   0
  -4  -6   8  371.52    6.51   0
  -3  -6   8  457.57    7.13   0
  -2  -6   8  700.43    7.88   0
  -1  -6   8   71.10    5.49   0
   0  -6   8  998.04    8.70   0
   1  -6   8  293.56    7.17   0
   2  -6   8  621.64    7.84   0
   3  -6   8  627.46    7.21   0
   4  -6   8    5.40    6.00   0
   5  -6   8  348.82    6.66   0
  -6  -5   8    3.31    5.65   0
  -5  -5   8  254.19    6.01   0
  -4  -5   8   63.60    5.57   0
  -3  -5   8   66.99    5.63   0
  -2  -5   8  678.47    7.70   0
  -1  -5   8    4.74    5.96   0
   0  -5   8  237.19    6.24   0
   1  -5   8   -5.51    6.27   0
   2  -5   8   24.93    5.44   0
   3  -5   8   -0.27    5.54   0
   4  -5   8  117.93    5.44   0
   5  -5   8   19.05    4.76   0
   6  -5   8   17.56    5.51   0
  -6  -4   8   29.21    5.34   0
  -5  -4   8  244.85    6.23   0
  -4  -4   8  284.68    5.87   0
  -3  -4   8  282.15    6.24   0
  -2  -4   8  937.91    8.84   0
  -1  -4   8   19.02    5.75   0
   0  -4   8 1575.01   10.51   0
   1  -4   8  271.29    7.34   0
   2  -4   8  393.99    6.39   0
   3  -4   8  681.18    7.33   0
   4  -4   8   11.68    4.83   0
   5  -4   8  567.79    6.95   0
   6  -4   8  254.63    6.12   0
  -6  -3   8    1.51    5.59   0
  -5  -3   8  552.76    7.10   0
  -4  -3   8  590.57    7.25   0
  -3  -3   8  287.67    6.23   0
  -2  -3   8  828.25    7.87   0
  -1  -3   8   27.68    5.52   0
   0  -3   8   24.36    6.18   0
   1  -3   8  143.19    6.02   0
   2  -3   8   29.51    5.16   0
   3  -3   8  364.00    6.26   0
   4  -3   8    2.09    5.14   0
   5  -3   8   82.49    5.42   0
   6  -3   8   98.81    5.41   0
   7  -3   8   -3.58    5.12   0
  -6  -2   8   -1.15    6.00   0
  -5  -2   8   28.36    5.64   0
  -4  -2   8   60.63    5.49   0
  -3  -2   8   42.53    5.97   0
  -2  -2   8  220.41    6.96   0
  -1  -2   8    9.63    5.03   0
   0  -2   8  200.79    6.61   0
   1  -2   8  558.49    8.75   0
   2  -2   8  130.68    5.70   0
   3  -2   8 1086.04    8.61   0
   4  -2   8   58.31    4.71   0
   5  -2   8  696.35    7.32   0
   6  -2   8  391.90    6.56   0
   7  -2   8  142.96    5.92   0
  -6  -1   8   51.57    6.35   0
  -5  -1   8  325.49    6.82   0
  -4  -1   8 1207.72    9.09   0
  -3  -1   8   61.23    6.63   0
  -2  -1   8 1408.11   10.47   0
  -1  -1   8  163.21    5.86   0
   0  -1   8 1577.53   11.21   0
   1  -1   8 1235.52   11.16   0
   2  -1   8  866.20    8.66   0
   3  -1   8 1346.97    9.72   0
   4  -1   8  124.58    6.08   0
   5  -1   8  495.98    7.33   0
   6  -1   8  262.01    6.12   0
   7  -1   8  106.09    5.46   0
  -6   0   8    0.83    6.09   0
  -5   0   8   14.29    5.04   0
  -4   0   8    0.82    5.45   0
  -3   0   8    0.16    5.46   0
  -2   0   8   12.36    5.50   0
  -1   0   8   33.59    5.30   0
   0   0   8  353.26    7.28   0
   1   0   8  221.48    7.52   0
   2   0   8  479.80    7.47   0
   3   0   8  356.43    6.53   0
   4   0   8   30.34    5.16   0
   5   0   8  278.58    6.99   0
   6   0   8   72.21    4.73   0
   7   0   8   83.64    5.22   0
  -5   1   8  195.18    6.34   0
  -4   1   8  464.94    7.05   0
  -3   1   8    4.71    5.65   0
  -2   1   8  841.45    8.48   0
  -1   1   8  518.55    7.49   0
   0   1   8 1698.25   11.49   0
   1   1   8 2334.35   12.76   0
   2   1   8  395.35    6.51   0
   3   1   8 2381.72   12.82   0
   4   1   8   90.35    4.90   0
   5   1   8  787.43    7.08   0
   6   1   8  192.99    5.54   0
   7   1   8   42.79    5.32   0
   8   1   8  183.09    6.12   0
  -5   2   8   46.93    5.54   0
  -4   2   8  370.78    7.25   0
  -3   2   8   -1.68    5.15   0
  -2   2   8  555.35    7.37   0
  -1   2   8   44.77    5.72   0
   0   2   8   24.16    5.64   0
   1   2   8   24.06    5.82   0
   2   2   8  193.22    5.74   0
   3   2   8   -0.03    4.53   0
   4   2   8   46.46    4.38   0
   5   2   8   23.76    4.46   0
   6   2   8   21.50    4.51   0
   7   2   8    8.00    4.85   0
   8   2   8   48.59    5.84   0
  -5   3   8   21.43    5.99   0
  -4   3   8  273.99    6.66   0
  -3   3   8    4.50    5.34   0
  -2   3   8 1025.92    8.87   0
  -1   3   8  349.82    7.05   0
   0   3   8 1042.42    9.26   0
   1   3   8 1312.45    9.91   0
   2   3   8   89.85    5.31   0
   3   3   8 1475.87   10.21   0
   4   3   8  219.69    5.12   0
   5   3   8  536.25    6.22   0
   6   3   8  700.76    7.12   0
   7   3   8   19.33    4.57   0
   8   3   8  374.49    5.91   0
  -4   4   8  394.30    6.53   0
  -3   4   8    6.00    4.67   0
  -2   4   8  109.15    6.02   0
  -1   4   8  222.23    5.82   0
   0   4   8   27.67    5.34   0
   1   4   8  552.20    7.33   0
   2   4   8   63.30    5.21   0
   3   4   8  352.40    6.47   0
   4   4   8  215.86    5.63   0
   5   4   8   20.81    5.17   0
   6   4   8   72.57    4.67   0
   7   4   8    9.55    4.20   0
   8   4   8    3.68    5.37   0
  -4   5   8   60.97    5.67   0
  -3   5   8   -3.17    4.89   0
  -2   5   8   99.67    5.02   0
  -1   5   8   83.51    4.75   0
   0   5   8   71.22    5.47   0
   1   5   8  376.81    6.72   0
   2   5   8   13.93    5.15   0
   3   5   8  523.25    6.77   0
   4   5   8  622.88    7.94   0
   5   5   8  222.11    4.74   0
   6   5   8  736.42    6.12   0
   7   5   8   -3.37    4.15   0
   8   5   8  404.26    5.90   0
  -3   6   8   30.49    5.90   0
  -2   6   8  277.79    5.95   0
  -1   6   8  366.90    5.86   0
   0   6   8  251.49    6.40   0
   1   6   8  725.26    7.48   0
   2   6   8   74.96    5.14   0
   3   6   8  768.55    7.85   0
   4   6   8  901.63    8.33   0
   5   6   8  215.43    4.55   0
   6   6   8  321.73    4.97   0
   7   6   8   11.29    4.46   0
   8   6   8  110.85    4.52   0
  -3   7   8    2.82    5.23   0
  -2   7   8   -2.49    4.91   0
  -1   7   8    2.30    4.82   0
   0   7   8   53.46    4.12   0
   1   7   8   15.13    5.28   0
   2   7   8   42.80    4.81   0
   3   7   8  109.87    5.36   0
   4   7   8  283.20    6.03   0
   5   7   8   74.40    5.15   0
   6   7   8  205.56    4.98   0
   7   7   8   -1.92    3.75   0
  -2   8   8  218.16    5.93   0
  -1   8   8  323.35    5.77   0
   0   8   8   97.71    4.77   0
   1   8   8  714.50    7.97   0
   2   8   8  134.67    5.49   0
   3   8   8  538.28    7.00   0
   4   8   8  420.70    6.58   0
   5   8   8   71.44    4.85   0
   6   8   8  412.73    5.95   0
   7   8   8   18.45    4.52   0
  -1   9   8   45.29    4.98   0
   0   9   8   20.80    4.58   0
   1   9   8    6.80    4.30   0
   2   9   8   37.67    5.30   0
   3   9   8   -2.04    4.44   0
   4   9   8   14.91    5.35   0
   5   9   8    4.30    4.47   0
   6   9   8   -0.03    5.66   0
   7   9   8    5.49    5.78   0
   0  10   8    4.37    3.75   0
   1  10   8  388.90    5.48   0
   2  10   8   60.00    5.26   0
   3  10   8  239.02    6.39   0
   4  10   8  270.84    6.50   0
   5  10   8   39.15    4.80   0
   6  10   8  261.38    6.36   0
   2  11   8   -0.50    4.38   0
   3  11   8   24.53    5.49   0
   4  11   8   79.65    5.10   0
  -3 -10   9  103.51    6.31   0
  -2 -10   9    7.03    5.85   0
  -1 -10   9  221.39    6.43   0
   0 -10   9   75.46    6.22   0
   1 -10   9   69.73    6.19   0
  -4  -9   9  166.79    6.90   0
  -3  -9   9  825.64    7.95   0
  -2  -9   9   -1.20    6.17   0
  -1  -9   9  384.84    6.63   0
   0  -9   9  386.72    6.71   0
   1  -9   9   36.74    5.48   0
   2  -9   9  227.24    6.58   0
  -5  -8   9   -0.64    5.35   0
  -4  -8   9    5.49    5.70   0
  -3  -8   9    3.16    5.96   0
  -2  -8   9   -0.16    5.52   0
  -1  -8   9   21.72    6.12   0
   0  -8   9   58.38    5.95   0
   1  -8   9   22.52    5.52   0
   2  -8   9   58.48    5.95   0
   3  -8   9    1.32    5.25   0
  -5  -7   9  229.77    6.84   0
  -4  -7   9   74.15    6.15   0
  -3  -7   9  598.26    7.42   0
  -2  -7   9  278.17    6.31   0
  -1  -7   9  428.14    7.12   0
   0  -7   9  736.09    7.18   0
   1  -7   9   70.01    6.02   0
   2  -7   9  403.77    7.55   0
   3  -7   9  100.67    6.64   0
   4  -7   9  286.22    6.49   0
  -5  -6   9  137.54    5.70   0
  -4  -6   9    2.11    5.86   0
  -3  -6   9  195.43    6.57   0
  -2  -6   9    3.20    6.20   0
  -1  -6   9   86.80    5.73   0
   0  -6   9   40.08    5.52   0
   1  -6   9    4.12    5.25   0
   2  -6   9   24.65    5.66   0
   3  -6   9    6.07    4.72   0
   4  -6   9   28.56    6.04   0
   5  -6   9   48.74    5.92   0
  -5  -5   9  159.50    5.94   0
  -4  -5   9    2.73    5.37   0
  -3  -5   9  291.50    6.95   0
  -2  -5   9  660.69    7.48   0
  -1  -5   9  300.59    6.39   0
   0  -5   9 1422.56    9.89   0
   1  -5   9   25.26    5.43   0
   2  -5   9 1660.73   10.34   0
   3  -5   9  163.81    6.00   0
   4  -5   9  801.29    7.88   0
   5  -5   9  317.07    6.35   0
  -6  -4   9    4.52    5.61   0
  -5  -4   9  229.80    6.23   0
  -4  -4   9    6.97    5.74   0
  -3  -4   9  507.96    7.11   0
  -2  -4   9  186.06    5.88   0
  -1  -4   9  206.22    5.84   0
   0  -4   9  966.22    8.31   0
   1  -4   9    1.53    6.35   0
   2  -4   9   65.38    6.45   0
   3  -4   9   14.62    5.41   0
   4  -4   9    8.45    5.92   0
   5  -4   9   63.06    5.30   0
   6  -4   9    1.16    5.19   0
  -6  -3   9    6.47    5.95   0
  -5  -3   9   52.74    5.81   0
  -4  -3   9   34.46    5.74   0
  -3  -3   9  191.58    6.18   0
  -2  -3   9  213.46    6.60   0
  -1  -3   9  215.61    6.08   0
   0  -3   9  708.81    8.07   0
   1  -3   9    1.97    6.45   0
   2  -3   9  774.29    8.44   0
   3  -3   9  263.41    6.27   0
   4  -3   9  317.09    6.52   0
   5  -3   9  498.90    7.09   0
   6  -3   9    9.72    5.17   0
  -6  -2   9   34.80    6.81   0
  -5  -2   9  720.20    7.76   0
  -4  -2   9    5.83    5.53   0
  -3  -2   9  957.68    8.31   0
  -2  -2   9 1056.09    9.17   0
  -1  -2   9  276.57    6.98   0
   0  -2   9 2199.83   11.82   0
   1  -2   9    8.41    5.49   0
   2  -2   9  617.93    7.71   0
   3  -2   9  149.07    5.48   0
   4  -2   9  420.44    6.53   0
   5  -2   9  282.92    6.30   0
   6  -2   9    1.97    5.43   0
   7  -2   9   62.93    5.47   0
  -5  -1   9    7.67    6.10   0
  -4  -1   9   -0.76    5.49   0
  -3  -1   9   12.80    5.16   0
  -2  -1   9    9.96    5.62   0
  -1  -1   9   47.88    5.54   0
   0  -1   9   36.24    5.47   0
   1  -1   9   15.11    6.00   0
   2  -1   9   76.78    6.24   0
   3  -1   9   91.75    5.55   0
   4  -1   9  128.73    5.41   0
   5  -1   9  304.00    6.29   0
   6  -1   9   15.36    5.88   0
   7  -1   9  192.47    6.35   0
  -5   0   9  598.55    7.96   0
  -4   0   9   23.18    5.61   0
  -3   0   9  891.68    8.58   0
  -2   0   9  664.93    8.42   0
  -1   0   9  277.28    6.74   0
   0   0   9  317.99    6.70   0
   1   0   9  103.54    7.13   0
   2   0   9  378.96    7.86   0
   3   0   9 1209.26    9.48   0
   4   0   9  155.69    5.86   0
   5   0   9 1324.23    8.66   0
   6   0   9  101.54    5.50   0
   7   0   9  339.06    5.96   0
  -5   1   9  186.00    6.99   0
  -4   1   9    6.56    5.59   0
  -3   1   9  126.59    6.33   0
  -2   1   9  111.28    6.11   0
  -1   1   9    6.83    5.73   0
   0   1   9  620.28    8.18   0
   1   1   9   -0.06    5.85   0
   2   1   9   50.30    4.88   0
   3   1   9   59.17    5.85   0
   4   1   9    3.68    4.78   0
   5   1   9   99.20    5.26   0
   6   1   9  144.69    5.09   0
   7   1   9  117.33    6.54   0
  -5   2   9  155.26    6.72   0
  -4   2   9  103.71    6.24   0
  -3   2   9  172.66    6.06   0
  -2   2   9  478.40    7.55   0
  -1   2   9    5.98    5.62   0
   0   2   9  933.68    9.87   0
   1   2   9  299.51    6.38   0
   2   2   9 1161.34    8.89   0
   3   2   9 1419.49    9.27   0
   4   2   9   86.58    5.09   0
   5   2   9 1463.85    9.14   0
   6   2   9  142.52    5.02   0
   7   2   9  588.02    7.04   0
   8   2   9  211.72    5.93   0
  -4   3   9   18.21    5.76   0
  -3   3   9  237.69    7.19   0
  -2   3   9  555.61    8.11   0
  -1   3   9   31.52    5.16   0
   0   3   9  353.88    7.39   0
   1   3   9  100.51    5.86   0
   2   3   9   23.11    4.92   0
   3   3   9  339.09    6.25   0
   4   3   9   17.62    4.25   0
   5   3   9  168.36    5.28   0
   6   3   9    1.79    4.66   0
   7   3   9    0.80    4.83   0
   8   3   9   31.25    4.80   0
  -4   4   9   37.58    6.09   0
  -3   4   9    5.98    6.21   0
  -2   4   9  205.98    6.65   0
  -1   4   9    5.73    5.64   0
   0   4   9  609.60    7.91   0
   1   4   9  266.23    6.41   0
   2   4   9  531.39    6.71   0
   3   4   9  902.45    7.50   0
   4   4   9   82.88    5.75   0
   5   4   9  729.51    6.06   0
   6   4   9   89.53    5.14   0
   7   4   9  225.91    6.19   0
   8   4   9  270.93    5.65   0
  -3   5   9  111.96    5.68   0
  -2   5   9 1427.32    9.14   0
  -1   5   9    7.22    5.49   0
   0   5   9  787.37    8.62   0
   1   5   9  261.96    6.38   0
   2   5   9  547.82    7.82   0
   3   5   9  546.54    7.35   0
   4   5   9  142.90    5.54   0
   5   5   9  459.06    6.69   0
   6   5   9  170.52    4.65   0
   7   5   9  111.56    5.04   0
   8   5   9  105.01    4.81   0
  -3   6   9   -2.58    4.85   0
  -2   6   9   44.20    4.96   0
  -1   6   9   -4.85    4.49   0
   0   6   9   89.45    5.86   0
   1   6   9    9.46    5.20   0
   2   6   9  197.22    6.19   0
   3   6   9   48.34    5.20   0
   4   6   9   27.74    4.50   0
   5   6   9   97.97    5.66   0
   6   6   9  125.26    4.86   0
   7   6   9   48.35    4.21   0
  -2   7   9  431.97    6.90   0
  -1   7   9   19.93    5.03   0
   0   7   9  398.06    6.26   0
   1   7   9  313.93    6.79   0
   2   7   9  448.99    7.14   0
   3   7   9  693.71    8.00   0
   4   7   9    1.13    5.32   0
   5   7   9  469.48    7.04   0
   6   7   9  215.24    5.54   0
   7   7   9   47.17    4.63   0
  -1   8   9    5.42    4.86   0
   0   8   9  125.58    4.29   0
   1   8   9   13.05    5.14   0
   2   8   9    3.40    4.94   0
   3   8   9    2.45    4.73   0
   4   8   9   45.64    5.00   0
   5   8   9   26.08    5.58   0
   6   8   9   49.17    4.62   0
   7   8   9    9.87    5.10   0
   0   9   9  187.18    5.20   0
   1   9   9  213.68    5.14   0
   2   9   9   56.54    5.51   0
   3   9   9  554.91    7.48   0
   4   9   9   80.93    5.15   0
   5   9   9  371.18    6.75   0
   6   9   9  248.98    5.50   0
   1  10   9   94.63    5.36   0
   2  10   9    7.34    6.23   0
   3  10   9   44.92    5.09   0
   4  10   9    7.97    5.18   0
   5  10   9    0.73    5.25   0
  -1 -10  10  697.56    8.37   0
  -3  -9  10    0.75    5.41   0
  -2  -9  10    4.42    5.39   0
  -1  -9  10   15.51    6.39   0
   0  -9  10    5.61    5.44   0
   1  -9  10   43.28    5.87   0
   2  -9  10   63.40    5.98   0
  -4  -8  10  162.84    6.21   0
  -3  -8  10  237.98    6.54   0
  -2  -8  10  164.06    5.82   0
  -1  -8  10  884.53    8.34   0
   0  -8  10   11.43    5.99   0
   1  -8  10  363.53    6.70   0
   2  -8  10  330.45    6.91   0
   3  -8  10   53.85    6.17   0
  -4  -7  10  119.65    6.47   0
  -3  -7  10   55.41    5.82   0
  -2  -7  10   11.08    5.86   0
  -1  -7  10   29.35    5.85   0
   0  -7  10    5.71    5.45   0
   1  -7  10   10.55    6.22   0
   2  -7  10   19.54    5.56   0
   3  -7  10    4.10    5.21   0
   4  -7  10    4.92    5.91   0
  -5  -6  10   56.10    6.44   0
  -4  -6  10  290.75    6.74   0
  -3  -6  10  418.21    7.68   0
  -2  -6  10  278.53    5.97   0
  -1  -6  10  678.12    7.21   0
   0  -6  10  159.39    6.03   0
   1  -6  10  306.11    6.88   0
   2  -6  10  598.20    7.22   0
   3  -6  10   55.86    5.70   0
   4  -6  10  548.69    7.15   0
  -5  -5  10   23.28    6.30   0
  -4  -5  10   77.51    5.75   0
  -3  -5  10  120.84    5.85   0
  -2  -5  10   14.29    5.79   0
  -1  -5  10  279.31    6.66   0
   0  -5  10   61.04    5.98   0
   1  -5  10   95.11    5.86   0
   2  -5  10  329.61    6.94   0
   3  -5  10    8.11    5.53   0
   4  -5  10  154.76    6.00   0
   5  -5  10    9.66    5.11   0
  -5  -4  10    6.78    6.25   0
  -4  -4  10   83.38    5.78   0
  -3  -4  10  164.84    6.26   0
  -2  -4  10    3.03    5.85   0
  -1  -4  10  455.03    7.11   0
   0  -4  10  214.88    6.53   0
   1  -4  10  361.79    7.16   0
   2  -4  10  373.10    7.35   0
   3  -4  10   17.64    6.09   0
   4  -4  10  578.35    7.44   0
   5  -4  10  122.93    5.90   0
   6  -4  10  203.39    6.15   0
  -5  -3  10  199.19    6.48   0
  -4  -3  10   72.62    6.13   0
  -3  -3  10  807.64    7.80   0
  -2  -3  10   33.74    5.11   0
  -1  -3  10 1266.05    8.89   0
   0  -3  10  329.40    6.81   0
   1  -3  10  370.92    6.93   0
   2  -3  10 1641.00   11.03   0
   3  -3  10   10.00    5.30   0
   4  -3  10  495.05    7.10   0
   5  -3  10    4.70    4.97   0
   6  -3  10  114.76    5.82   0
  -5  -2  10    5.17    5.73   0
  -4  -2  10   -0.16    5.96   0
  -3  -2  10   14.31    5.31   0
  -2  -2  10   -3.55    5.83   0
  -1  -2  10   80.99    5.44   0
   0  -2  10   53.31    6.52   0
   1  -2  10  130.88    6.35   0
   2  -2  10  284.43    7.25   0
   3  -2  10   24.89    5.33   0
   4  -2  10  252.66    6.27   0
   5  -2  10   36.06    5.45   0
   6  -2  10   92.02    6.42   0
  -5  -1  10  184.66    6.53   0
  -4  -1  10   32.81    5.85   0
  -3  -1  10 1032.68    8.94   0
  -2  -1  10    6.80    5.87   0
  -1  -1  10 1413.99    9.11   0
   0  -1  10 1130.49    9.05   0
   1  -1  10  562.00    9.02   0
   2  -1  10  931.32    8.77   0
   3  -1  10    1.00    5.19   0
   4  -1  10  251.52    6.59   0
   5  -1  10  280.04    6.46   0
   6  -1  10  145.51    5.15   0
   7  -1  10  359.45    6.93   0
  -5   0  10   87.97    6.51   0
  -4   0  10   32.02    5.97   0
  -3   0  10  170.62    7.01   0
  -2   0  10    0.78    5.21   0
  -1   0  10   90.99    6.03   0
   0   0  10   23.92    6.23   0
   1   0  10    6.00    5.75   0
   2   0  10    2.28    5.49   0
   3   0  10    1.27    5.78   0
   4   0  10    4.45    5.64   0
   5   0  10   49.73    6.17   0
   6   0  10   52.14    5.17   0
   7   0  10  116.84    5.59   0
  -5   1  10  123.56    6.74   0
  -4   1  10   95.26    5.82   0
  -3   1  10  582.49    7.56   0
  -2   1  10  111.72    6.31   0
  -1   1  10  634.66    7.74   0
   0   1  10 1321.68    9.87   0
   1   1  10  217.30    6.88   0
   2   1  10 1070.54    8.83   0
   3   1  10   23.92    5.16   0
   4   1  10 1014.62    9.39   0
   5   1  10  509.37    6.70   0
   6   1  10  251.77    5.83   0
   7   1  10  539.24    6.74   0
  -4   2  10    2.82    5.54   0
  -3   2  10  334.65    6.86   0
  -2   2  10   17.24    5.29   0
  -1   2  10  271.96    6.94   0
   0   2  10  188.35    6.54   0
   1   2  10   17.38    5.13   0
   2   2  10  400.53    7.28   0
   3   2  10   36.66    5.02   0
   4   2  10    6.35    5.40   0
   5   2  10   56.81    5.22   0
   6   2  10   30.47    5.20   0
   7   2  10   27.66    6.34   0
  -4   3  10   15.90    5.92   0
  -3   3  10  128.39    6.36   0
  -2   3  10   73.69    5.49   0
  -1   3  10  117.39    6.10   0
   0   3  10  272.79    6.62   0
   1   3  10    0.39    4.85   0
   2   3  10  580.17    7.81   0
   3   3  10  257.01    5.98   0
   4   3  10  776.58    7.43   0
   5   3  10  904.52    7.93   0
   6   3  10  133.84    5.46   0
   7   3  10  706.58    8.18   0
  -3   4  10  379.74    8.15   0
  -2   4  10   43.98    5.54   0
  -1   4  10  302.29    7.18   0
   0   4  10 1310.41   10.08   0
   1   4  10   26.09    5.02   0
   2   4  10 1113.90    9.43   0
   3   4  10   49.45    5.26   0
   4   4  10  192.96    5.31   0
   5   4  10  164.26    5.21   0
   6   4  10  125.52    6.00   0
   7   4  10   85.62    4.43   0
  -3   5  10    4.17    5.55   0
  -2   5  10   11.04    5.02   0
  -1   5  10    1.56    5.42   0
   0   5  10   86.68    6.01   0
   1   5  10   -0.59    4.97   0
   2   5  10  237.16    5.59   0
   3   5  10   59.93    5.59   0
   4   5  10  202.56    5.66   0
   5   5  10  254.27    6.23   0
   6   5  10   53.69    5.45   0
   7   5  10  189.18    5.02   0
  -2   6  10  152.86    6.21   0
  -1   6  10  237.08    5.83   0
   0   6  10  695.46    8.36   0
   1   6  10   -0.67    5.38   0
   2   6  10  281.18    6.71   0
   3   6  10  283.12    5.94   0
   4   6  10  220.31    6.84   0
   5   6  10  577.99    6.77   0
   6   6  10   41.32    5.19   0
   7   6  10  267.63    5.46   0
  -2   7  10    0.75    5.29   0
  -1   7  10    9.32    4.81   0
   0   7  10    8.39    4.52   0
   1   7  10   -0.02    4.91   0
   2   7  10   26.34    5.77   0
   3   7  10    7.50    4.84   0
   4   7  10    6.42    5.00   0
   5   7  10   30.28    5.89   0
   6   7  10   -3.31    5.20   0
   7   7  10   46.30    5.00   0
  -1   8  10   52.41    5.43   0
   0   8  10  368.87    6.29   0
   1   8  10    0.63    4.41   0
   2   8  10  263.62    6.44   0
   3   8  10  161.15    5.84   0
   4   8  10  178.64    5.76   0
   5   8  10  418.79    7.24   0
   6   8  10   22.58    4.71   0
   0   9  10  117.05    5.28   0
   1   9  10    6.55    4.30   0
   2   9  10   36.21    5.24   0
   3   9  10   98.17    5.69   0
   4   9  10    3.08    5.02   0
   5   9  10   70.61    5.91   0
   6   9  10   14.16    5.44   0
   2  10  10   95.14    5.03   0
   3  10  10  115.92    5.93   0
   4  10  10   18.79    5.27   0
  -2  -9  11  154.07    6.24   0
  -1  -9  11  157.80    6.13   0
   0  -9  11   36.31    5.77   0
   1  -9  11  455.20    7.10   0
  -3  -8  11    6.76    5.43   0
  -2  -8  11   38.54    5.59   0
  -1  -8  11   14.97    5.80   0
   0  -8  11    8.58    5.81   0
   1  -8  11    1.62    5.75   0
   2  -8  11   -0.70    5.32   0
  -4  -7  11  250.50    6.95   0
  -3  -7  11   65.27    5.63   0
  -2  -7  11  360.56    6.72   0
  -1  -7  11  554.02    7.38   0
   0  -7  11  476.00    7.61   0
   1  -7  11  884.13    8.43   0
   2  -7  11    0.87    5.95   0
   3  -7  11  279.95    7.19   0
  -4  -6  11  280.89    6.55   0
  -3  -6  11   58.71    6.31   0
  -2  -6  11  230.99    6.61   0
  -1  -6  11  178.60    6.55   0
   0  -6  11    0.95    5.63   0
   1  -6  11  134.60    6.17   0
   2  -6  11    2.81    5.14   0
   3  -6  11   44.93    5.33   0
   4  -6  11    8.38    6.46   0
  -4  -5  11   29.54    6.10   0
  -3  -5  11    3.67    4.95   0
  -2  -5  11  141.03    5.75   0
  -1  -5  11  298.83    6.27   0
   0  -5  11   71.13    6.10   0
   1  -5  11  543.17    7.21   0
   2  -5  11  125.62    6.54   0
   3  -5  11  225.05    6.32   0
   4  -5  11  235.98    6.83   0
   5  -5  11   31.94    5.90   0
  -4  -4  11  683.59    7.94   0
  -3  -4  11  136.24    5.62   0
  -2  -4  11  414.28    6.57   0
  -1  -4  11  522.46    7.19   0
   0  -4  11   93.47    5.86   0
   1  -4  11  703.97    7.78   0
   2  -4  11    6.72    6.00   0
   3  -4  11  191.03    6.36   0
   4  -4  11  223.48    6.83   0
   5  -4  11   -2.77    5.61   0
  -5  -3  11    1.01    5.68   0
  -4  -3  11    1.00    6.41   0
  -3  -3  11    4.54    5.62   0
  -2  -3  11   49.25    5.37   0
  -1  -3  11   26.09    5.79   0
   0  -3  11    2.68    5.54   0
   1  -3  11   98.04    5.91   0
   2  -3  11  171.59    6.83   0
   3  -3  11  102.37    6.23   0
   4  -3  11  336.72    6.47   0
   5  -3  11   19.91    5.75   0
   6  -3  11  311.22    7.16   0
  -5  -2  11    5.16    6.41   0
  -4  -2  11  316.39    6.67   0
  -3  -2  11   74.73    5.42   0
  -2  -2  11   22.08    6.18   0
  -1  -2  11  794.06    7.80   0
   0  -2  11    1.01    5.10   0
   1  -2  11 1226.93    9.25   0
   2  -2  11  422.35    7.98   0
   3  -2  11  305.02    6.65   0
   4  -2  11  970.90    8.47   0
   5  -2  11    3.53    5.50   0
   6  -2  11  187.87    7.37   0
  -4  -1  11  112.76    6.71   0
  -3  -1  11   33.01    6.39   0
  -2  -1  11   50.69    5.98   0
  -1  -1  11   19.97    5.68   0
   0  -1  11    3.61    5.43   0
   1  -1  11    6.22    5.95   0
   2  -1  11   25.96    6.44   0
   3  -1  11   11.24    5.77   0
   4  -1  11   89.79    5.48   0
   5  -1  11    3.02    5.67   0
   6  -1  11   69.16    5.74   0
  -4   0  11  124.37    6.56   0
  -3   0  11  332.85    6.95   0
  -2   0  11  211.55    6.27   0
  -1   0  11  983.72    8.34   0
   0   0  11   15.29    5.43   0
   1   0  11 1321.63    9.76   0
   2   0  11 1013.13    8.87   0
   3   0  11  477.47    7.89   0
   4   0  11 1155.47    9.93   0
   5   0  11   48.34    6.31   0
   6   0  11  457.29    6.46   0
   7   0  11   41.85    5.12   0
  -4   1  11  182.43    7.55   0
  -3   1  11  112.17    6.33   0
  -2   1  11    1.23    5.56   0
  -1   1  11  270.21    6.52   0
   0   1  11  106.28    6.26   0
   1   1  11  218.57    6.29   0
   2   1  11   65.92    5.81   0
   3   1  11   13.57    5.11   0
   4   1  11  192.48    6.34   0
   5   1  11   19.46    4.97   0
   6   1  11   35.25    5.89   0
   7   1  11   -0.22    4.99   0
  -4   2  11   21.85    5.85   0
  -3   2  11  184.62    6.27   0
  -2   2  11  171.61    6.44   0
  -1   2  11  666.61    8.10   0
   0   2  11    3.16    5.79   0
   1   2  11  645.29    8.57   0
   2   2  11  217.58    5.89   0
   3   2  11  141.58    6.50   0
   4   2  11  226.62    6.08   0
   5   2  11   40.57    4.77   0
   6   2  11  317.49    6.76   0
   7   2  11  331.48    6.35   0
  -3   3  11  407.72    7.61   0
  -2   3  11   29.14    5.77   0
  -1   3  11  788.86    8.52   0
   0   3  11    4.85    5.75   0
   1   3  11  445.79    7.28   0
   2   3  11  374.37    7.17   0
   3   3  11   61.65    5.52   0
   4   3  11  861.30    7.96   0
   5   3  11   11.17    5.97   0
   6   3  11  105.77    5.19   0
   7   3  11   11.67    5.64   0
  -3   4  11    5.51    5.71   0
  -2   4  11   28.61    6.08   0
  -1   4  11   44.05    6.29   0
   0   4  11    6.80    5.42   0
   1   4  11   38.80    5.39   0
   2   4  11   71.93    5.49   0
   3   4  11    3.86    5.19   0
   4   4  11  221.42    5.85   0
   5   4  11   51.48    4.66   0
   6   4  11  198.88    5.92   0
   7   4  11  223.53    5.62   0
  -2   5  11   15.91    6.01   0
  -1   5  11  508.14    7.58   0
   0   5  11   34.09    6.07   0
   1   5  11  295.06    6.82   0
   2   5  11  803.54    8.09   0
   3   5  11    1.54    5.08   0
   4   5  11  466.26    6.64   0
   5   5  11  206.71    5.68   0
   6   5  11   91.55    6.41   0
   7   5  11  309.67    5.82   0
  -2   6  11    4.20    4.81   0
  -1   6  11   57.48    5.79   0
   0   6  11    1.72    5.39   0
   1   6  11   17.27    5.52   0
   2   6  11   26.65    5.09   0
   3   6  11    3.04    4.95   0
   4   6  11   36.98    5.44   0
   5   6  11   28.06    4.65   0
   6   6  11   52.44    5.40   0
   7   6  11   78.78    5.56   0
  -1   7  11  207.12    6.31   0
   0   7  11  384.87    6.75   0
   1   7  11  159.83    6.07   0
   2   7  11 1009.62   10.82   0
   3   7  11    3.18    5.24   0
   4   7  11  507.64    7.21   0
   5   7  11   90.33    6.47   0
   6   7  11  318.21    6.63   0
   0   8  11    0.97    4.53   0
   1   8  11    7.96    5.45   0
   2   8  11   16.12    5.33   0
   3   8  11    7.39    6.22   0
   4   8  11   22.71    5.42   0
   5   8  11   32.71    5.55   0
   6   8  11   13.48    5.28   0
   1   9  11   40.67    5.13   0
   2   9  11  163.86    6.73   0
   3   9  11    1.58    5.68   0
   4   9  11  199.16    6.89   0
   5   9  11   71.93    6.17   0
  -2  -8  12  512.88    7.59   0
  -1  -8  12   15.94    5.73   0
   0  -8  12  363.29    6.89   0
   1  -8  12  194.62    6.66   0
  -3  -7  12   15.06    5.37   0
  -2  -7  12  138.91    6.09   0
  -1  -7  12   38.38    5.49   0
   0  -7  12  125.48    6.09   0
   1  -7  12  104.79    6.35   0
   2  -7  12    8.51    6.10   0
   3  -7  12   33.29    5.52   0
  -3  -6  12   18.58    5.64   0
  -2  -6  12  185.35    6.39   0
  -1  -6  12    6.03    5.21   0
   0  -6  12  130.11    5.85   0
   1  -6  12  283.61    6.42   0
   2  -6  12  135.11    6.56   0
   3  -6  12  494.13    7.52   0
  -4  -5  12  185.12    6.02   0
  -3  -5  12   34.49    5.28   0
  -2  -5  12  765.53    7.46   0
  -1  -5  12   87.81    6.30   0
   0  -5  12  605.22    7.77   0
   1  -5  12  214.16    6.50   0
   2  -5  12   54.56    6.57   0
   3  -5  12  173.26    6.41   0
   4  -5  12    7.17    6.15   0
  -4  -4  12   41.17    6.04   0
  -3  -4  12    4.87    5.94   0
  -2  -4  12   58.99    5.82   0
  -1  -4  12   12.41    5.01   0
   0  -4  12  299.78    6.50   0
   1  -4  12  132.86    6.50   0
   2  -4  12  125.34    6.37   0
   3  -4  12  157.56    6.94   0
   4  -4  12   30.72    5.63   0
   5  -4  12   98.52    6.03   0
  -4  -3  12  324.21    6.47   0
  -3  -3  12   20.22    5.35   0
  -2  -3  12  908.45    8.12   0
  -1  -3  12   64.96    5.43   0
   0  -3  12  139.54    5.62   0
   1  -3  12  396.99    6.91   0
   2  -3  12    2.47    6.25   0
   3  -3  12  562.24    8.03   0
   4  -3  12   68.24    5.77   0
   5  -3  12  187.75    6.46   0
  -4  -2  12   56.51    5.43   0
  -3  -2  12    1.87    5.96   0
  -2  -2  12   38.70    5.67   0
  -1  -2  12    1.09    5.20   0
   0  -2  12    0.80    5.34   0
   1  -2  12    6.64    5.71   0
   2  -2  12    0.78    5.96   0
   3  -2  12   33.14    6.26   0
   4  -2  12    3.88    5.71   0
   5  -2  12   34.91    6.18   0
   6  -2  12   56.07    5.74   0
  -4  -1  12  459.02    7.19   0
  -3  -1  12    3.49    5.24   0
  -2  -1  12  566.75    6.86   0
  -1  -1  12  189.68    6.23   0
   0  -1  12  211.36    6.65   0
   1  -1  12  762.11    8.40   0
   2  -1  12   91.48    6.84   0
   3  -1  12  881.22    9.87   0
   4  -1  12  269.58    6.47   0
   5  -1  12  254.42    6.83   0
   6  -1  12  725.58    8.64   0
  -4   0  12  150.20    6.82   0
  -3   0  12    8.57    6.29   0
  -2   0  12  202.00    6.06   0
  -1   0  12  120.64    6.06   0
   0   0  12   48.99    6.02   0
   1   0  12  160.94    6.02   0
   2   0  12   30.10    5.65   0
   3   0  12   80.84    6.58   0
   4   0  12    6.74    5.57   0
   5   0  12    8.10    6.26   0
   6   0  12    6.26    5.63   0
  -3   1  12   -0.98    5.73   0
  -2   1  12    7.30    5.80   0
  -1   1  12  208.97    6.18   0
   0   1  12   41.65    5.27   0
   1   1  12  859.83    8.50   0
   2   1  12    2.96    5.84   0
   3   1  12  795.73    8.60   0
   4   1  12  462.92    6.73   0
   5   1  12  253.88    7.15   0
   6   1  12  364.22    6.60   0
  -3   2  12   40.36    5.74   0
  -2   2  12  678.21    7.88   0
  -1   2  12  352.31    7.09   0
   0   2  12  130.10    6.04   0
   1   2  12  560.77    7.02   0
   2   2  12    4.23    5.24   0
   3   2  12  360.61    7.18   0
   4   2  12    6.72    5.86   0
   5   2  12   51.17    5.17   0
   6   2  12  157.93    6.87   0
   7   2  12   -1.48    5.81   0
  -3   3  12    6.48    5.81   0
  -2   3  12   10.68    5.82   0
  -1   3  12   64.25    6.38   0
   0   3  12   49.85    5.49   0
   1   3  12  223.89    6.56   0
   2   3  12   39.59    5.97   0
   3   3  12  239.26    6.49   0
   4   3  12  248.48    6.22   0
   5   3  12   98.34    4.86   0
   6   3  12  250.03    7.42   0
   7   3  12   -2.14    5.06   0
  -2   4  12  170.24    6.41   0
  -1   4  12  419.22    7.70   0
   0   4  12    2.70    5.09   0
   1   4  12  766.06    8.50   0
   2   4  12    5.08    5.62   0
   3   4  12  450.85    7.13   0
   4   4  12  278.12    6.56   0
   5   4  12   39.67    4.97   0
   6   4  12  404.35    5.36   0
   7   4  12   48.35    5.68   0
  -2   5  12    9.10    5.84   0
  -1   5  12    3.92    6.25   0
   0   5  12   -0.44    6.11   0
   1   5  12    0.82    5.11   0
   2   5  12   -1.17    5.72   0
   3   5  12    2.20    6.14   0
   4   5  12   19.09    5.27   0
   5   5  12   -1.62    5.11   0
   6   5  12   92.40    5.21   0
  -1   6  12  279.00    7.06   0
   0   6  12   54.54    6.08   0
   1   6  12  388.73    7.07   0
   2   6  12   45.44    5.89   0
   3   6  12  312.37    7.39   0
   4   6  12  660.18    7.66   0
   5   6  12   49.43    5.48   0
   6   6  12  477.91    6.24   0
   0   7  12    3.32    5.35   0
   1   7  12  101.67    7.06   0
   2   7  12   28.31    5.61   0
   3   7  12   41.90    5.63   0
   4   7  12    6.70    5.75   0
   5   7  12    1.58    5.84   0
   6   7  12    7.57    4.90   0
   1   8  12  147.97    6.64   0
   2   8  12   72.59    5.61   0
   3   8  12   84.37    5.74   0
   4   8  12  271.17    6.67   0
   5   8  12    5.41    5.54   0
  -1  -7  13   47.72    6.10   0
   0  -7  13  314.39    7.13   0
   1  -7  13    0.30    5.76   0
  -2  -6  13  103.89    5.66   0
  -1  -6  13   85.95    5.63   0
   0  -6  13  273.25    6.22   0
   1  -6  13   14.34    5.64   0
   2  -6  13  238.18    7.27   0
   3  -6  13   58.54    5.79   0
  -3  -5  13    7.88    5.14   0
  -2  -5  13   87.04    5.40   0
  -1  -5  13   -1.06    5.44   0
   0  -5  13  162.33    5.94   0
   1  -5  13    8.80    5.68   0
   2  -5  13  189.34    6.39   0
   3  -5  13  111.30    6.57   0
   4  -5  13  142.27    6.08   0
  -3  -4  13  159.28    6.05   0
  -2  -4  13  335.22    6.44   0
  -1  -4  13   15.90    5.67   0
   0  -4  13 1018.19    8.51   0
   1  -4  13  137.11    6.45   0
   2  -4  13  496.88    7.71   0
   3  -4  13  276.07    7.06   0
   4  -4  13   16.33    6.78   0
  -3  -3  13   12.22    5.08   0
  -2  -3  13   12.02    5.91   0
  -1  -3  13    0.46    5.03   0
   0  -3  13   41.87    5.65   0
   1  -3  13    0.98    5.47   0
   2  -3  13    9.20    6.38   0
   3  -3  13   47.73    5.97   0
   4  -3  13    5.39    5.48   0
   5  -3  13   62.18    6.37   0
  -3  -2  13  196.90    6.36   0
  -2  -2  13  576.95    6.83   0
  -1  -2  13   11.17    5.12   0
   0  -2  13 1526.32    9.35   0
   1  -2  13   77.73    5.92   0
   2  -2  13  519.63    7.56   0
   3  -2  13  286.44    8.15   0
   4  -2  13  139.71    6.34   0
   5  -2  13  365.58    7.88   0
  -3  -1  13   74.56    5.63   0
  -2  -1  13  187.37    5.99   0
  -1  -1  13   -2.25    5.36   0
   0  -1  13  140.60    5.78   0
   1  -1  13   61.55    5.77   0
   2  -1  13   34.70    6.10   0
   3  -1  13   50.21    5.70   0
   4  -1  13    7.57    6.14   0
   5  -1  13   11.29    6.00   0
   6  -1  13   -2.29    5.28   0
  -3   0  13  108.18    6.60   0
  -2   0  13  366.69    6.63   0
  -1   0  13   22.76    5.27   0
   0   0  13  164.51    5.40   0
   1   0  13   72.14    5.24   0
   2   0  13   22.14    5.58   0
   3   0  13  487.13    7.51   0
   4   0  13    7.76    5.67   0
   5   0  13  642.13    9.49   0
   6   0  13  141.14    6.20   0
  -3   1  13  136.98    6.34   0
  -2   1  13  315.45    6.79   0
  -1   1  13    0.48    5.48   0
   0   1  13  483.16    6.40   0
   1   1  13  117.50    5.74   0
   2   1  13  178.04    7.22   0
   3   1  13  154.54    5.91   0
   4   1  13   -3.99    6.05   0
   5   1  13  109.95    5.32   0
   6   1  13    9.42    6.19   0
  -2   2  13   87.52    6.18   0
  -1   2  13    3.04    5.88   0
   0   2  13   24.82    5.61   0
   1   2  13   80.69    5.23   0
   2   2  13  134.67    6.63   0
   3   2  13  310.31    7.32   0
   4   2  13   -0.22    5.71   0
   5   2  13  362.42    5.98   0
   6   2  13  251.82    5.76   0
  -2   3  13  335.66    7.69   0
  -1   3  13   26.13    6.07   0
   0   3  13  358.86    6.88   0
   1   3  13  326.37    6.36   0
   2   3  13    5.80    5.01   0
   3   3  13  619.56    8.42   0
   4   3  13   40.54    5.66   0
   5   3  13  493.74    6.78   0
   6   3  13  104.22    5.26   0
  -1   4  13    7.23    5.80   0
   0   4  13    0.22    5.59   0
   1   4  13   26.85    5.83   0
   2   4  13   38.07    5.81   0
   3   4  13   91.56    6.09   0
   4   4  13   -2.48    5.45   0
   5   4  13   90.44    5.50   0
   6   4  13    9.66    4.57   0
  -1   5  13   57.31    6.15   0
   0   5  13  336.16    7.05   0
   1   5  13  320.45    6.56   0
   2   5  13   58.77    5.69   0
   3   5  13  535.91    7.38   0
   4   5  13    3.98    5.03   0
   5   5  13  340.24    5.92   0
   6   5  13  284.06    5.62   0
   0   6  13    9.49    6.24   0
   1   6  13   43.24    5.77   0
   2   6  13   -0.78    5.38   0
   3   6  13   34.69    5.61   0
   4   6  13    9.79    5.67   0
   5   6  13   19.30    5.26   0
   1   7  13  134.72    6.24   0
   2   7  13   25.86    6.09   0
   3   7  13  214.83    6.63   0
   4   7  13   12.75    5.07   0
   5   7  13  104.23    6.00   0
  -1  -6  14  100.93    5.75   0
   0  -6  14   51.54    5.55   0
   1  -6  14   17.84    6.00   0
  -2  -5  14   28.17    5.19   0
  -1  -5  14  289.16    6.19   0
   0  -5  14  174.24    7.05   0
   1  -5  14   65.74    5.59   0
   2  -5  14  348.59    7.17   0
   3  -5  14   34.81    6.72   0
  -2  -4  14    2.66    5.47   0
  -1  -4  14    1.80    5.12   0
   0  -4  14   17.18    5.71   0
   1  -4  14    0.94    5.34   0
   2  -4  14    1.50    5.26   0
   3  -4  14    2.34    6.17   0
   4  -4  14   10.80    5.44   0
  -2  -3  14   11.24    5.45   0
  -1  -3  14  367.32    6.76   0
   0  -3  14  216.05    6.29   0
   1  -3  14   57.38    5.99   0
   2  -3  14  889.33    8.84   0
   3  -3  14   43.81    6.37   0
   4  -3  14  347.13    7.18   0
  -2  -2  14    4.63    5.27   0
  -1  -2  14   98.87    6.30   0
   0  -2  14   31.75    5.32   0
   1  -2  14    3.93    5.57   0
   2  -2  14   23.33    5.38   0
   3  -2  14    7.85    6.09   0
   4  -2  14    1.94    6.05   0
   5  -2  14    5.06    5.81   0
  -2  -1  14   17.23    5.72   0
  -1  -1  14  199.09    6.49   0
   0  -1  14  423.37    7.02   0
   1  -1  14   17.18    5.16   0
   2  -1  14  527.28    8.08   0
   3  -1  14   47.71    6.68   0
   4  -1  14   73.45    5.81   0
   5  -1  14  196.35    6.99   0
  -2   0  14   65.98    5.64   0
  -1   0  14  215.18    6.52   0
   0   0  14  223.26    5.46   0
   1   0  14   20.68    5.13   0
   2   0  14  223.31    6.33   0
   3   0  14   15.25    5.86   0
   4   0  14   63.82    6.32   0
   5   0  14   42.34    6.10   0
  -2   1  14    3.82    5.73   0
  -1   1  14   41.04    6.23   0
   0   1  14  359.66    6.89   0
   1   1  14    5.50    5.50   0
   2   1  14  187.74    6.00   0
   3   1  14   14.18    5.96   0
   4   1  14   83.61    5.91   0
   5   1  14  147.57    5.75   0
  -2   2  14  110.77    6.25   0
  -1   2  14  154.73    6.37   0
   0   2  14  330.93    6.32   0
   1   2  14    5.91    5.17   0
   2   2  14  508.45    7.34   0
   3   2  14  186.43    6.61   0
   4   2  14   80.71    6.30   0
   5   2  14  296.64    6.33   0
  -1   3  14    2.82    5.46   0
   0   3  14    9.75    5.07   0
   1   3  14    4.27    5.24   0
   2   3  14   32.59    5.57   0
   3   3  14   23.94    5.95   0
   4   3  14   12.64    6.24   0
   5   3  14  125.80    5.50   0
   0   4  14  478.16    7.06   0
   1   4  14   15.97    5.25   0
   2   4  14  655.19    7.99   0
   3   4  14  204.48    6.77   0
   4   4  14   80.12    6.23   0
   5   4  14  362.47    6.67   0
   0   5  14  104.61    6.03   0
   1   5  14    2.87    5.15   0
   2   5  14   34.19    5.50   0
   3   5  14   12.34    5.44   0
   4   5  14    3.37    5.52   0
   5   5  14    2.74    5.96   0
   1   6  14   35.89    6.26   0
   2   6  14   76.87    5.87   0
   3   6  14  278.91    7.77   0
   4   6  14    9.38    5.33   0
  -1  -4  15  324.41    6.20   0
   0  -4  15    3.25    5.45   0
   1  -4  15  331.20    6.75   0
   2  -4  15   48.96    5.46   0
  -1  -3  15   40.53    5.68   0
   0  -3  15    7.45    5.60   0
   1  -3  15   46.50    5.56   0
   2  -3  15    3.08    5.74   0
   3  -3  15   11.39    6.17   0
  -1  -2  15  136.72    6.14   0
   0  -2  15   47.18    5.39   0
   1  -2  15  207.66    5.53   0
   2  -2  15  245.27    6.31   0
   3  -2  15   18.77    6.11   0
   4  -2  15  556.94    8.14   0
  -1  -1  15  159.87    5.77   0
   0  -1  15   24.01    5.08   0
   1  -1  15  113.05    5.58   0
   2  -1  15  154.11    6.19   0
   3  -1  15   19.76    5.63   0
   4  -1  15  105.13    6.71   0
  -1   0  15  101.97    6.06   0
   0   0  15    2.39    5.46   0
   1   0  15   87.06    5.91   0
   2   0  15  368.78    6.60   0
   3   0  15    7.41    6.81   0
   4   0  15  517.90    8.96   0
  -1   1  15  305.41    6.40   0
   0   1  15  159.52    5.61   0
   1   1  15  219.29    6.36   0
   2   1  15  341.75    6.92   0
   3   1  15   12.35    6.69   0
   4   1  15  294.47    7.83   0
   5   1  15   65.69    6.16   0
   0   2  15    0.62    5.34   0
   1   2  15   18.83    5.04   0
   2   2  15   69.58    5.70   0
   3   2  15    2.25    5.36   0
   4   2  15    3.33    6.36   0
   5   2  15    2.03    5.81   0
   0   3  15   72.07    5.72   0
   1   3  15  194.69    6.28   0
   2   3  15  233.00    6.62   0
   3   3  15   -1.24    5.93   0
   4   3  15  384.79    7.65   0
   1   4  15   11.13    5.53   0
   2   4  15    7.11    5.40   0
   3   4  15    2.84    5.13   0
   4   4  15   12.92    6.16   0
   2   5  15  178.12    6.85   0
   3   5  15   25.18    5.42   0
   1  -2  16   80.78    5.63   0
   2  -2  16    2.50    5.42   0
   1  -1  16  106.18    5.50   0
   2  -1  16    2.22    5.45   0
   3  -1  16  188.75    6.99   0
   1   0  16  284.47    6.07   0
   2   0  16   27.07    5.48   0
   3   0  16  194.92    6.74   0
   1   1  16   14.37    4.80   0
   2   1  16   -4.17    4.99   0
   3   1  16   42.78    6.31   0
   2   2  16   68.74    5.92   0
   3   2  16  210.00    7.05   0
;
_shelx_hkl_checksum              12110
_shelx_res_file
;
TITL
    libr_5h2o_2.res
    created by SHELXL-2016/6 at 15:38:21 on 15-Jan-2018
CELL  0.71073  6.35270  9.45320 11.95410 89.14800 77.53000 71.69500
ZERR 4  0.00230  0.00360  0.00450  0.03100  0.02900  0.02900
LATT 1
SFAC Li O  H  Br
UNIT 4  20  40  4
OMIT -3 70
L.S. 12
ACTA
BOND
FMAP 2
PLAN -2
DANG 1.32 0.01 H10A H10B
DANG 1.32 0.01 H9A H9B
DANG 1.32 0.01 H8A H8B
DANG 1.32 0.01 H7A H7B
DANG 1.32 0.01 H6A H6B
DANG 1.32 0.01 H5A H5B
DANG 1.32 0.01 H4A H4B
DANG 1.32 0.01 H3A H3B
DANG 1.32 0.01 H2A H2B
DANG 1.32 0.01 H1A H1B
DFIX 0.82 0.02 O1 H1A O1 H1B
DFIX 0.82 0.02 O2 H2A O2 H2B
DFIX 0.82 0.02 O3 H3A O3 H3B
DFIX 0.82 0.02 O4 H4A O4 H4B
DFIX 0.82 0.02 O5 H5A O5 H5B
DFIX 0.82 0.02 O6 H6A O6 H6B
DFIX 0.82 0.02 O7 H7A O7 H7B
DFIX 0.82 0.02 O8 H8A O8 H8B
DFIX 0.82 0.02 O9 H9A O9 H9B
DFIX 0.82 0.02 O10 H10A O10 H10B
WGHT    0.046500    0.528002
FVAR       0.62166
MOLE 1
BR1   4    0.784810    0.798180    0.665444    11.00000    0.01580    0.01556 =
         0.01686    0.00205   -0.00397   -0.00396
BR2   4    0.809491    0.225688    0.110519    11.00000    0.01625    0.01626 =
         0.01735    0.00353   -0.00496   -0.00522
O10   2    0.274389    0.876333    0.602586    11.00000    0.02211    0.02345 =
         0.02003    0.00346   -0.00593   -0.00828
O9    2    0.718463    0.664052    0.938518    11.00000    0.02091    0.02183 =
         0.01873    0.00343   -0.00591   -0.00776
O6    2    0.682701    0.478327    0.619863    11.00000    0.01935    0.02074 =
         0.02257    0.00341   -0.00642   -0.00957
O2    2    0.305010    0.112150    0.841642    11.00000    0.02006    0.01823 =
         0.02641    0.00593   -0.00713   -0.00930
O4    2    0.596738    0.179685    0.635354    11.00000    0.01722    0.01430 =
         0.01420    0.00130   -0.00309   -0.00470
O3    2    0.235814    0.484974    0.621448    11.00000    0.01624    0.01968 =
         0.02074    0.00400   -0.00422   -0.00243
O5    2    0.414803    0.394158    0.832066    11.00000    0.01752    0.01401 =
         0.01432    0.00133   -0.00209   -0.00356
O1    2    0.089637    0.191903    0.628268    11.00000    0.01731    0.01668 =
         0.01422   -0.00032   -0.00290   -0.00339
O8    2    0.923050    0.375859    0.834238    11.00000    0.01773    0.01638 =
         0.01618    0.00094   -0.00417   -0.00392
O7    2    0.757278    0.096484    0.856029    11.00000    0.02176    0.01802 =
         0.02206   -0.00220   -0.00878   -0.00159
LI1   1    0.254281    0.291023    0.724396    11.00000    0.01552    0.02183 =
         0.02098    0.00010   -0.00450   -0.00612
LI2   1    0.754360    0.288672    0.729899    11.00000    0.01730    0.02316 =
         0.02203   -0.00288   -0.00659   -0.00625
H6B   3    0.699649    0.552572    0.643906    11.00000    0.04791
H3B   3    0.132014    0.561196    0.649913    11.00000    0.04382
H3A   3    0.259793    0.493452    0.551346    11.00000    0.07666
H2B   3    0.428769    0.094935    0.857151    11.00000    0.03861
H1A   3    0.101885    0.218513    0.561043    11.00000    0.03172
H4A   3    0.626221    0.176520    0.564853    11.00000    0.05763
H1B   3    0.143845    0.099485    0.621177    11.00000    0.02149
H7B   3    0.776202    0.124791    0.917120    11.00000    0.04158
H4B   3    0.627301    0.092608    0.653964    11.00000    0.02987
H2A   3    0.270424    0.036812    0.845343    11.00000    0.04659
H9A   3    0.614422    0.703671    0.906549    11.00000    0.05276
H9B   3    0.806754    0.712858    0.925502    11.00000    0.05055
H10A  3    0.176680    0.839087    0.632908    11.00000    0.04335
H10B  3    0.368308    0.859945    0.642219    11.00000    0.06010
H6A   3    0.549375    0.492357    0.622709    11.00000    0.05932
H7A   3    0.837201    0.009490    0.843005    11.00000    0.03332
H5A   3    0.365270    0.486871    0.839922    11.00000    0.03226
H8A   3    0.868680    0.462735    0.861447    11.00000    0.03511
H5B   3    0.393773    0.366091    0.898721    11.00000    0.03218
H8B   3    0.950119    0.323118    0.887365    11.00000    0.04126
HKLF 4
REM
REM R1 =  0.0254 for    2942 Fo > 4sig(Fo)  and  0.0325 for all    3544 data
REM    207 parameters refined using     30 restraints
END
WGHT      0.0561      0.0000
REM Highest difference peak  1.046,  deepest hole -0.867,  1-sigma level  0.127
Q1    1   0.6708  0.7836  0.7429  11.00000  0.05    1.05
Q2    1   0.2856  0.7991  0.8211  11.00000  0.05    0.94
;
_shelx_res_checksum              75638
loop_
_space_group_symop_operation_xyz
'x, y, z'
'-x, -y, -z'
loop_
_atom_site_type_symbol
_atom_site_label
_atom_site_fract_x
_atom_site_fract_y
_atom_site_fract_z
_atom_site_U_iso_or_equiv
_atom_site_adp_type
_atom_site_calc_flag
_atom_site_occupancy
Br Br1 0.78481(4) 0.79818(3) 0.66544(2) 0.01628(7) Uani d 1
Br Br2 0.80949(4) 0.22569(3) 0.11052(2) 0.01645(7) Uani d 1
O O10 0.2744(4) 0.8763(2) 0.60259(18) 0.0214(4) Uani d 1
O O9 0.7185(3) 0.6641(2) 0.93852(17) 0.0200(4) Uani d 1
O O6 0.6827(3) 0.4783(2) 0.61986(18) 0.0199(4) Uani d 1
O O2 0.3050(3) 0.1121(2) 0.84164(18) 0.0205(4) Uani d 1
O O4 0.5967(3) 0.1797(2) 0.63535(16) 0.0154(3) Uani d 1
O O3 0.2358(3) 0.4850(2) 0.62145(18) 0.0197(4) Uani d 1
O O5 0.4148(3) 0.3942(2) 0.83207(16) 0.0159(3) Uani d 1
O O1 0.0896(3) 0.1919(2) 0.62827(16) 0.0166(3) Uani d 1
O O8 0.9231(3) 0.3759(2) 0.83424(16) 0.0171(3) Uani d 1
O O7 0.7573(3) 0.0965(2) 0.85603(18) 0.0211(4) Uani d 1
Li Li1 0.2543(8) 0.2910(5) 0.7244(4) 0.0193(9) Uani d 1
Li Li2 0.7544(8) 0.2887(5) 0.7299(4) 0.0205(9) Uani d 1
H H6B 0.700(7) 0.553(3) 0.644(4) 0.048(13) Uiso d 1
H H3B 0.132(6) 0.561(3) 0.650(3) 0.044(12) Uiso d 1
H H3A 0.260(9) 0.493(5) 0.5513(16) 0.077(19) Uiso d 1
H H2B 0.429(4) 0.095(4) 0.857(4) 0.039(12) Uiso d 1
H H1A 0.102(7) 0.219(3) 0.561(2) 0.032(10) Uiso d 1
H H4A 0.626(9) 0.177(5) 0.5649(16) 0.058(15) Uiso d 1
H H1B 0.144(6) 0.0995(19) 0.621(3) 0.021(9) Uiso d 1
H H7B 0.776(7) 0.125(4) 0.917(2) 0.042(12) Uiso d 1
H H4B 0.627(7) 0.093(2) 0.654(3) 0.030(10) Uiso d 1
H H2A 0.270(6) 0.037(3) 0.845(4) 0.047(13) Uiso d 1
H H9A 0.614(6) 0.704(5) 0.907(4) 0.053(14) Uiso d 1
H H9B 0.807(6) 0.713(5) 0.926(4) 0.051(14) Uiso d 1
H H10A 0.177(5) 0.839(5) 0.633(4) 0.043(13) Uiso d 1
H H10B 0.368(6) 0.860(6) 0.642(4) 0.060(16) Uiso d 1
H H6A 0.549(4) 0.492(5) 0.623(5) 0.059(16) Uiso d 1
H H7A 0.837(6) 0.009(2) 0.843(3) 0.033(11) Uiso d 1
H H5A 0.365(6) 0.487(2) 0.840(3) 0.032(10) Uiso d 1
H H8A 0.869(7) 0.463(2) 0.861(3) 0.035(11) Uiso d 1
H H5B 0.394(7) 0.366(4) 0.899(2) 0.032(10) Uiso d 1
H H8B 0.950(7) 0.323(3) 0.887(3) 0.041(12) Uiso d 1
loop_
_atom_site_aniso_label
_atom_site_aniso_U_11
_atom_site_aniso_U_22
_atom_site_aniso_U_33
_atom_site_aniso_U_12
_atom_site_aniso_U_13
_atom_site_aniso_U_23
Br1 0.01580(12) 0.01556(12) 0.01686(13) -0.00396(9) -0.00397(9) 0.00205(9)
Br2 0.01625(12) 0.01626(12) 0.01735(13) -0.00522(9) -0.00496(9) 0.00353(9)
O10 0.0221(9) 0.0234(10) 0.0200(10) -0.0083(8) -0.0059(8) 0.0035(7)
O9 0.0209(9) 0.0218(9) 0.0187(9) -0.0078(8) -0.0059(7) 0.0034(7)
O6 0.0194(9) 0.0207(9) 0.0226(10) -0.0096(7) -0.0064(8) 0.0034(7)
O2 0.0201(9) 0.0182(9) 0.0264(10) -0.0093(7) -0.0071(8) 0.0059(8)
O4 0.0172(8) 0.0143(8) 0.0142(9) -0.0047(6) -0.0031(7) 0.0013(6)
O3 0.0162(9) 0.0197(9) 0.0207(10) -0.0024(7) -0.0042(7) 0.0040(7)
O5 0.0175(8) 0.0140(8) 0.0143(8) -0.0036(6) -0.0021(7) 0.0013(6)
O1 0.0173(8) 0.0167(8) 0.0142(9) -0.0034(7) -0.0029(7) -0.0003(7)
O8 0.0177(9) 0.0164(8) 0.0162(9) -0.0039(7) -0.0042(7) 0.0009(7)
O7 0.0218(9) 0.0180(9) 0.0221(10) -0.0016(7) -0.0088(8) -0.0022(7)
Li1 0.016(2) 0.022(2) 0.021(2) -0.0061(17) -0.0045(17) 0.0001(17)
Li2 0.017(2) 0.023(2) 0.022(2) -0.0062(17) -0.0066(17) -0.0029(18)
loop_
_atom_type_symbol
_atom_type_description
_atom_type_scat_dispersion_real
_atom_type_scat_dispersion_imag
_atom_type_scat_source
Li Li -0.0003 0.0001 'International Tables Vol C Tables 4.2.6.8 and 6.1.1.4'
O O 0.0106 0.0060 'International Tables Vol C Tables 4.2.6.8 and 6.1.1.4'
H H 0.0000 0.0000 'International Tables Vol C Tables 4.2.6.8 and 6.1.1.4'
Br Br -0.2901 2.4595 'International Tables Vol C Tables 4.2.6.8 and 6.1.1.4'
loop_
_geom_angle_atom_site_label_1
_geom_angle_atom_site_label_2
_geom_angle_atom_site_label_3
_geom_angle_site_symmetry_1
_geom_angle_site_symmetry_3
_geom_angle
Li2 O4 Li1 . . 96.7(2)
Li2 O5 Li1 . . 93.48(19)
Li1 O1 Li2 . 1_455 96.67(19)
Li2 O8 Li1 . 1_655 95.8(2)
O1 Li1 O4 . . 98.0(2)
O1 Li1 O8 . 1_455 83.77(18)
O4 Li1 O8 . 1_455 170.5(3)
O1 Li1 O2 . . 93.6(2)
O4 Li1 O2 . . 86.09(19)
O8 Li1 O2 1_455 . 84.52(19)
O1 Li1 O3 . . 95.7(2)
O4 Li1 O3 . . 91.8(2)
O8 Li1 O3 1_455 . 97.3(2)
O2 Li1 O3 . . 170.7(3)
O1 Li1 O5 . . 177.4(3)
O4 Li1 O5 . . 84.09(17)
O8 Li1 O5 1_455 . 93.9(2)
O2 Li1 O5 . . 84.88(18)
O3 Li1 O5 . . 85.84(18)
O1 Li1 Li2 . 1_455 41.90(13)
O4 Li1 Li2 . 1_455 139.6(2)
O8 Li1 Li2 1_455 1_455 42.01(13)
O2 Li1 Li2 . 1_455 91.40(19)
O3 Li1 Li2 . 1_455 96.09(19)
O5 Li1 Li2 . 1_455 135.9(2)
O1 Li1 Li2 . . 139.4(2)
O4 Li1 Li2 . . 41.49(13)
O8 Li1 Li2 1_455 . 136.4(2)
O2 Li1 Li2 . . 86.45(18)
O3 Li1 Li2 . . 85.93(18)
O5 Li1 Li2 . . 42.72(13)
Li2 Li1 Li2 1_455 . 177.5(3)
O4 Li2 O1 . 1_655 95.6(2)
O4 Li2 O8 . . 173.7(3)
O1 Li2 O8 1_655 . 83.46(18)
O4 Li2 O5 . . 85.47(18)
O1 Li2 O5 1_655 . 178.1(3)
O8 Li2 O5 . . 95.6(2)
O4 Li2 O6 . . 89.21(19)
O1 Li2 O6 1_655 . 92.2(2)
O8 Li2 O6 . . 97.1(2)
O5 Li2 O6 . . 86.24(19)
O4 Li2 O7 . . 85.49(18)
O1 Li2 O7 1_655 . 97.5(2)
O8 Li2 O7 . . 88.45(19)
O5 Li2 O7 . . 84.13(19)
O6 Li2 O7 . . 169.3(2)
O4 Li2 Li1 . 1_655 137.0(2)
O1 Li2 Li1 1_655 1_655 41.44(13)
O8 Li2 Li1 . 1_655 42.16(13)
O5 Li2 Li1 . 1_655 137.5(2)
O6 Li2 Li1 . 1_655 93.56(19)
O7 Li2 Li1 . 1_655 96.63(18)
O4 Li2 Li1 . . 41.80(13)
O1 Li2 Li1 1_655 . 137.1(2)
O8 Li2 Li1 . . 139.4(2)
O5 Li2 Li1 . . 43.79(13)
O6 Li2 Li1 . . 84.36(17)
O7 Li2 Li1 . . 85.52(17)
Li1 Li2 Li1 1_655 . 177.5(3)
loop_
_geom_bond_atom_site_label_1
_geom_bond_atom_site_label_2
_geom_bond_site_symmetry_2
_geom_bond_distance
O6 Li2 . 2.197(5)
O2 Li1 . 2.170(5)
O4 Li2 . 2.124(5)
O4 Li1 . 2.137(5)
O3 Li1 . 2.179(5)
O5 Li2 . 2.165(5)
O5 Li1 . 2.208(5)
O1 Li1 . 2.112(5)
O1 Li2 1_455 2.131(5)
O8 Li2 . 2.132(5)
O8 Li1 1_655 2.138(5)
O7 Li2 . 2.342(6)
Li1 Li2 1_455 3.169(6)
Li1 Li2 . 3.185(6)
loop_
_geom_hbond_atom_site_label_D
_geom_hbond_atom_site_label_H
_geom_hbond_atom_site_label_A
_geom_hbond_site_symmetry_A
_geom_hbond_distance_DH
_geom_hbond_distance_HA
_geom_hbond_distance_DA
_geom_hbond_angle_DHA
O8 H8B Br2 1_556 0.816(18) 2.86(3) 3.594(2) 151(4)
O5 H5B O9 2_667 0.833(18) 1.97(2) 2.790(3) 168(4)
O8 H8A O9 . 0.825(18) 1.978(19) 2.800(3) 174(4)
O5 H5A Br2 2_666 0.832(18) 2.615(19) 3.442(2) 173(3)
O7 H7A Br2 2_756 0.816(18) 2.77(3) 3.491(2) 149(3)
O6 H6A O3 . 0.808(18) 2.018(18) 2.816(3) 169(4)
O10 H10B Br1 . 0.816(19) 2.60(3) 3.340(2) 151(4)
O10 H10A Br1 1_455 0.823(18) 2.58(2) 3.347(2) 155(4)
O9 H9B Br2 2_766 0.821(18) 2.63(2) 3.407(2) 159(4)
O9 H9A Br2 2_666 0.820(18) 2.62(2) 3.364(2) 152(4)
O2 H2A Br2 2_656 0.807(18) 2.71(2) 3.504(2) 170(4)
O4 H4B Br1 1_545 0.823(18) 2.66(2) 3.465(2) 167(3)
O7 H7B Br2 1_556 0.827(18) 2.589(18) 3.414(2) 176(4)
O1 H1B O10 1_545 0.830(17) 2.006(18) 2.836(3) 179(3)
O4 H4A O10 2_666 0.822(18) 1.99(2) 2.794(3) 168(4)
O1 H1A Br1 2_666 0.833(18) 2.64(2) 3.435(2) 160(3)
O2 H2B O7 . 0.813(18) 2.09(2) 2.873(3) 162(4)
O3 H3A O6 2_666 0.826(19) 2.03(2) 2.854(3) 178(5)
O3 H3B Br1 1_455 0.826(18) 2.58(2) 3.364(2) 159(4)
O6 H6B Br1 . 0.808(18) 2.57(2) 3.361(2) 165(5)
