#------------------------------------------------------------------------------
#$Date: 2017-07-25 11:58:46 +0300 (Tue, 25 Jul 2017) $
#$Revision: 199066 $
#$URL: file:///home/coder/svn-repositories/cod/cif/2/02/07/2020766.cif $
#------------------------------------------------------------------------------
#
# This file is available in the Crystallography Open Database (COD),
# http://www.crystallography.net/. The original data for this entry
# were provided by IUCr Journals, http://journals.iucr.org/.
#
# The file may be used within the scientific community so long as
# proper attribution is given to the journal article from which the
# data were obtained.
#
data_2020766
loop_
_publ_author_name
'Mohana, Marimuthu'
'Thomas Muthiah, Packianathan'
'Butcher, Ray J.'
_publ_section_title
;
 Supramolecular interactions in carboxylate and sulfonate salts of
 2,6-diamino-4-chloropyrimidinium
;
_journal_coeditor_code           KU3199
_journal_issue                   7
_journal_name_full               'Acta Crystallographica Section C'
_journal_page_first              536
_journal_page_last               540
_journal_paper_doi               10.1107/S2053229617008798
_journal_volume                  73
_journal_year                    2017
_chemical_formula_iupac          'C4 H6 Cl N4 +, C7 H7 O3 S -, H2 O'
_chemical_formula_moiety         'C4 H6 Cl N4 +, C7 H7 O3 S -, H2 O'
_chemical_formula_sum            'C11 H15 Cl N4 O4 S'
_chemical_formula_weight         334.78
_chemical_name_systematic
;
2,6-Diamino-4-chloropyrimidinium <i>p</i>-toluenesulfonate
;
_space_group_crystal_system      triclinic
_space_group_IT_number           2
_space_group_name_Hall           '-P 1'
_space_group_name_H-M_alt        'P -1'
_symmetry_space_group_name_Hall  '-P 1'
_symmetry_space_group_name_H-M   'P -1'
_atom_sites_solution_hydrogens   mixed
_audit_creation_method           SHELXL-2016/6
_cell_angle_alpha                81.617(5)
_cell_angle_beta                 89.511(4)
_cell_angle_gamma                74.154(5)
_cell_formula_units_Z            2
_cell_length_a                   6.5400(3)
_cell_length_b                   7.2557(4)
_cell_length_c                   15.7696(9)
_cell_measurement_reflns_used    2852
_cell_measurement_temperature    120(2)
_cell_measurement_theta_max      76.0
_cell_measurement_theta_min      5.7
_cell_volume                     711.79(7)
_computing_cell_refinement
;
CrysAlis PRO (Agilent, 2012)
;
_computing_data_collection
;
CrysAlis PRO (Agilent, 2012)
;
_computing_data_reduction
;
CrysAlis PRO (Agilent, 2012)
;
_computing_molecular_graphics
;
PLATON (Spek, 2009), Mercury (Macrae <i>et al.</i>, 2008)
and POVRay (Cason, 2004)
;
_computing_publication_material
;
PLATON (Spek, 2009) and publCIF (Westrip, 2010)
;
_computing_structure_refinement
;
SHELXL2016 (Sheldrick, 2015b)
;
_computing_structure_solution
;
SHELXT (Sheldrick, 2015a)
;
_diffrn_ambient_temperature      120(2)
_diffrn_detector_area_resol_mean 10.6501
_diffrn_measured_fraction_theta_full 0.993
_diffrn_measured_fraction_theta_max 0.956
_diffrn_measurement_device_type  'SuperNova CCD'
_diffrn_measurement_method       '\w scans'
_diffrn_radiation_type           CuK\a
_diffrn_radiation_wavelength     1.54184
_diffrn_reflns_av_R_equivalents  0.0230
_diffrn_reflns_limit_h_max       8
_diffrn_reflns_limit_h_min       -5
_diffrn_reflns_limit_k_max       9
_diffrn_reflns_limit_k_min       -9
_diffrn_reflns_limit_l_max       18
_diffrn_reflns_limit_l_min       -19
_diffrn_reflns_number            5135
_diffrn_reflns_theta_full        67.500
_diffrn_reflns_theta_max         76.019
_diffrn_reflns_theta_min         5.675
_exptl_absorpt_coefficient_mu    3.967
_exptl_absorpt_correction_T_max  1.00000
_exptl_absorpt_correction_T_min  0.23532
_exptl_absorpt_correction_type   multi-scan
_exptl_absorpt_process_details
;
(CrysAlis PRO; Agilent, 2012)
;
_exptl_crystal_colour            colorless
_exptl_crystal_density_diffrn    1.562
_exptl_crystal_density_method    'not measured'
_exptl_crystal_description       chunk
_exptl_crystal_F_000             348
_exptl_crystal_size_max          0.530
_exptl_crystal_size_mid          0.270
_exptl_crystal_size_min          0.150
_refine_diff_density_max         0.581
_refine_diff_density_min         -0.507
_refine_ls_extinction_coef       0.0161(19)
_refine_ls_extinction_expression Fc^*^=kFc[1+0.001xFc^2^\l^3^/sin(2\q)]^-1/4^
_refine_ls_extinction_method
;
SHELXL2016 (Sheldrick, 2015b)
;
_refine_ls_goodness_of_fit_ref   1.089
_refine_ls_hydrogen_treatment    mixed
_refine_ls_matrix_type           full
_refine_ls_number_parameters     248
_refine_ls_number_reflns         2852
_refine_ls_number_restraints     6
_refine_ls_restrained_S_all      1.088
_refine_ls_R_factor_all          0.0368
_refine_ls_R_factor_gt           0.0360
_refine_ls_shift/su_max          0.001
_refine_ls_shift/su_mean         0.000
_refine_ls_structure_factor_coef Fsqd
_refine_ls_weighting_details
'w=1/[\s^2^(Fo^2^)+(0.0658P)^2^+0.3251P] where P=(Fo^2^+2Fc^2^)/3'
_refine_ls_weighting_scheme      calc
_refine_ls_wR_factor_gt          0.0995
_refine_ls_wR_factor_ref         0.1003
_reflns_number_gt                2769
_reflns_number_total             2852
_reflns_threshold_expression     'I > 2\s(I)'
_cod_data_source_file            ku3199sup1.cif
_cod_data_source_block           II
_cod_database_code               2020766
_shelx_space_group_comment
;
The symmetry employed for this shelxl refinement is uniquely defined
by the following loop, which should always be used as a source of
symmetry information in preference to the above space-group names.
They are only intended as comments.
;
_shelx_estimated_absorpt_t_min   0.228
_shelx_estimated_absorpt_t_max   0.588
_shelx_hkl_file
;
   0   0   2 28153.9 383.970  19
   0   0  -2 29463.0 419.896  20
   0   0  -3 11384.2 327.518  20
   0   0   3 8854.82 264.704  19
   0   0   4 420863. 2087.91  19
   0   0  -4 421355. 2346.69  20
   0   0  -5 2950.30 228.955  20
   0   0  -6 289993. 2445.86  20
   0   0  -7 8997.21 481.939  20
   0   0  -8 225.630 119.674  20
   0   0  -9 118049. 2019.45  20
   0   0 -10 85942.9 1870.99  20
   0   0  11 34105.3 1063.93  21
   0   0 -11 33188.5 1235.29  20
   0   0 -12 579.915 185.223   8
   0   0  12 160.779 116.341  21
   0   0  12 261.942 156.320   1
   0   0  13 493430. 5413.73   1
   0   0 -13 560276. 5210.57  20
   0   0  13 519247. 5104.98   6
   0   0  13 555846. 4415.09  21
   0   0 -13 489019. 4940.78   8
   0   0 -14 613.291 248.693   9
   0   0  14 804.386 243.562   6
   0   0 -14 668.000 225.920   8
   0   0 -15 38316.4 1541.00   9
   0   0  15 37334.3 1363.63   6
   0   0  16 51118.8 1485.19   6
   0   0 -16 48539.0 1666.30   9
   0   0  17 157938. 2284.32   6
   0   0 -17 162364. 2819.64   9
   0   0 -18 2665.94 331.641   9
   0   0 -19 53434.8 1086.75   9
   0  -1  18 3303.01 238.559   6
   0   1 -18 2044.47 251.840   9
   0   1 -17 1177.11 241.126   9
   0  -1  17 981.358 193.179   6
   0   1 -16 5821.25 576.246   9
   0  -1  16 6088.64 534.166   6
   0  -1  15 6263.99 586.929   6
   0   1 -15 4814.88 569.412   9
   0  -1  14 55179.2 1782.27   6
   0   1 -14 55710.3 1869.56   9
   0   1 -13 339080. 4486.62   9
   0  -1  13 336441. 4385.07   6
   0   1 -12 72311.5 1991.09   9
   0  -1  12 72315.4 1744.00  21
   0  -1  12 70357.5 1952.98   6
   0   1 -11 87373.1 2061.59   9
   0  -1  11 89567.9 2105.36   6
   0   1 -11 92557.8 2020.78  20
   0   1 -10 6631.64 518.473  20
   0   1  -9 463.227 147.491  20
   0  -1   8 80588.7 1419.25  19
   0   1  -8 83067.8 1554.87  20
   0   1  -7 47143.7 1085.24  20
   0  -1   7 51854.1 1067.79  19
   0   1  -6 7367.99 394.085  20
   0  -1   6 6922.36 379.194  19
   0  -1   5 36915.3 807.985  19
   0  -1   4 148783. 1461.10  19
   0  -1   3 3110.33 195.509  19
   0  -1   2 84093.4 918.613  19
   0  -1   1 265428. 1345.51  22
   0  -1   1 269840. 1436.52  19
   0  -1   0 200029. 947.702  22
   0  -1  -1 403.531 42.5472  16
   0  -1  -1 182.205 31.2991  22
   0  -1  -2 259956. 1665.48  20
   0  -1  -3 470865. 2488.70  20
   0   1   4 321846. 1604.12  21
   0   1   4 327482. 2005.40  10
   0  -1  -5 96898.5 1424.71  20
   0   1   5 93365.2 1027.08  21
   0   1   6 181892. 1864.56  10
   0  -1  -6 178992. 2127.92  20
   0   1   7 297017. 2212.94  21
   0   1   7 287550. 2534.72  10
   0   1   8 41695.5 1052.68  10
   0  -1  -8 40063.2 1182.54  20
   0   1   8 41900.4 899.253  21
   0   1   9 39430.1 937.282  21
   0  -1  -9 39574.0 1249.42  20
   0   1  10 10249.0 503.815  21
   0  -1 -10 9912.86 654.461  20
   0   1  11 1468.88 207.179  21
   0  -1 -11 400.764 173.429  20
   0  -1 -12 13385.6 870.752  20
   0  -1 -12 11692.1 706.451   8
   0   1  12 12373.5 750.929   1
   0  -1 -13 2112.59 364.609  20
   0  -1 -13 1510.35 277.086   8
   0   1  13 2013.60 338.787   1
   0  -1 -14 2774.98 386.676   8
   0   1  14 3021.60 421.604   1
   0   1  15 58612.6 1796.24   1
   0   1  15 59878.3 1606.18   6
   0  -1 -15 60418.2 1735.74   8
   0  -1 -16 24963.5 1097.49   8
   0   1  16 25612.0 1157.96   1
   0  -1 -16 27556.6 1280.28   9
   0   1  16 26818.1 998.626   6
   0  -1 -17 736.261 244.402   9
   0  -1 -18 7264.58 551.438   9
   0  -1 -19 2313.41 265.226   9
   0  -2  17 26957.8 846.548   6
   0   2 -17 25222.2 811.978   9
   0   2 -16 15865.9 816.628   9
   0  -2  16 16679.8 823.196   6
   0   2 -15 154084. 2811.53   9
   0  -2  15 151283. 2818.33   6
   0  -2  14 11035.4 837.208   6
   0   2 -14 10396.1 787.456   9
   0   2 -13 53339.6 1799.97   9
   0  -2  13 57255.8 1918.08   6
   0   2 -12 9343.18 757.950   9
   0  -2  12 9558.70 791.925   6
   0  -2  11 672457. 6336.41   6
   0   2 -11 664539. 6007.64   9
   0   2 -10 89395.2 2049.15   9
   0  -2  10 88074.3 2182.52   6
   0   2 -10 84685.4 1846.85  20
   0   2  -9 25419.6 965.447  20
   0  -2   9 22645.5 880.898  19
   0   2  -8 338783. 3375.83  20
   0  -2   8 357910. 3351.91  19
   0  -2   7 585313. 4151.28  19
   0  -2   6 56898.4 1234.29  19
   0  -2   5 197356. 2162.82  19
   0  -2   4 3809.35 296.064  19
   0  -2   3 124525. 1541.00  19
   0  -2   2 630777. 3307.96  19
   0  -2   1 169468. 1609.99  19
   0  -2   1 173738. 1460.68  22
   0  -2   0 269930. 1637.35  22
   0  -2  -1 96475.4 941.013  22
   0  -2  -1 98788.0 705.012  14
   0   2   3 26784.9 616.895  10
   0  -2  -3 29323.2 544.325  22
   0   2   4 43209.9 816.642  10
   0  -2  -5 102060. 1711.06  20
   0   2   5 103409. 873.245  21
   0  -2  -6 77703.2 1619.57  20
   0   2   6 78003.4 1272.89  10
   0   2   7 147078. 1908.15  10
   0  -2  -7 141460. 2340.66  20
   0  -2  -8 9016.15 640.171  20
   0   2   8 10271.3 392.360  21
   0   2   8 10038.5 533.061  10
   0   2   9 2995.94 309.133  10
   0  -2  -9 3611.64 431.537  20
   0   2  10 2945.56 329.803  10
   0  -2 -10 1783.26 342.535  20
   0  -2 -11 194985. 3409.51  20
   0   2  11 187907. 2631.71   1
   0  -2 -12 340390. 4093.59   8
   0   2  12 350488. 3937.87   1
   0  -2 -12 354133. 4699.57  20
   0  -2 -13 134405. 2644.15   8
   0   2  13 144230. 2625.92   1
   0   2  14 2394.23 365.251   1
   0  -2 -14 1949.11 340.563   8
   0  -2 -15 172237. 2869.28   8
   0   2  15 173234. 2911.64   1
   0  -2 -16 18980.1 942.891   8
   0   2  16 19108.7 948.263   1
   0   2  17 3821.45 403.788   1
   0  -2 -17 4292.33 426.885   8
   0  -2 -18 30588.8 1098.01   9
   0  -2 -19 13554.8 609.164   9
   0  -3  16 49599.4 1237.14   6
   0  -3  15 152440. 2150.96   5
   0  -3  15 152306. 2567.21   6
   0  -3  14 2566.62 396.924   6
   0   3 -14 2780.64 370.906   9
   0  -3  13 174.504 161.506   6
   0   3 -13 149.939 141.879   9
   0  -3  12 442.084 239.541   6
   0   3 -12 284.257 184.154   9
   0  -3  11 76170.3 2291.74   6
   0   3 -11 72706.8 2044.82   9
   0   3 -10 5779.84 566.656   9
   0  -3  10 6054.23 521.421  19
   0  -3  10 5384.90 621.539   6
   0   3  -9 211246. 3171.34   9
   0  -3   9 214807. 2961.20  19
   0  -3   8 12299.4 830.535   6
   0  -3   8 11276.5 676.198  19
   0  -3   7 7756.19 552.192  19
   0  -3   6 61468.3 1476.35  19
   0  -3   5 1922.18 262.455  19
   0  -3   4 3919.35 356.093  19
   0  -3   3 13318.0 622.658  19
   0  -3   2 87453.2 1532.89  19
   0  -3   1 90181.5 1353.97  22
   0  -3   1 94053.5 1523.57  19
   0  -3   0 269611. 2104.88  22
   0  -3  -1 5354.78 282.088  22
   0  -3  -2 2847.65 146.007  14
   0  -3  -2 2471.66 181.955  16
   0   3   3 4248.14 310.930  10
   0  -3  -3 3962.41 235.478  22
   0   3   4 152181. 1809.21  10
   0  -3  -4 147060. 1444.37  22
   0  -3  -5 85967.9 1210.97  22
   0   3   5 93539.6 1458.34  10
   0   3   6 7581.88 445.621  10
   0  -3  -6 7756.60 392.445  22
   0   3   7 154361. 2078.59  10
   0   3   8 16996.5 734.305  10
   0   3   9 21904.6 866.999  10
   0   3  10 588.140 166.124  10
   0   3  11 4835.35 441.217  10
   0   3  11 4718.03 433.927   1
   0   3  12 17243.9 853.583  10
   0   3  12 19185.3 901.216   1
   0   3  13 12169.4 747.312   1
   0   3  14 76466.1 1881.88   1
   0  -3 -14 79443.0 2049.79   8
   0  -3 -15 453.074 205.132   8
   0   3  15 391.547 179.320   1
   0   3  16 34454.4 1170.26   1
   0  -3 -16 36177.0 1238.78   8
   0  -3 -17 14966.1 743.267   8
   0   3  17 14633.4 700.026   1
   0  -3 -18 96746.8 1812.85   9
   0  -3 -18 88834.7 1584.36   8
   0  -3 -19 1447.81 190.040   9
   0   4 -15 37237.6 1011.66   4
   0  -4  14 17756.3 732.883   5
   0   4 -13 125035. 2097.68   9
   0  -4  13 128458. 2647.69   6
   0  -4  13 120393. 2297.82   5
   0  -4  12 4723.29 569.335   6
   0  -4  12 4918.97 525.642   5
   0   4 -12 4081.14 416.685   9
   0  -4  11 293.293 212.235   6
   0   4 -11 136.529 130.861   9
   0  -4  10 1171.89 338.873   6
   0   4 -10 972.895 259.013   9
   0   4  -9 442911. 4585.25   9
   0  -4   9 453472. 5655.38   6
   0   4  -8 11102.5 706.103   9
   0  -4   8 10329.6 837.264   6
   0  -4   8 10562.2 711.979  19
   0  -4   7 816.056 215.521  19
   0   4  -7 906.495 227.461   9
   0  -4   7 550.213 201.756   6
   0  -4   6 21952.2 989.654  19
   0  -4   6 20964.6 1084.68   6
   0  -4   5 103272. 2089.47  19
   0  -4   4 47966.6 1402.10  19
   0  -4   3 5241.55 459.649  19
   0  -4   2 19300.5 860.048  19
   0  -4   1 218678. 2849.84  19
   0  -4   0 298079. 3242.46  19
   0  -4  -1 2503.64 225.701  16
   0  -4  -1 2515.27 246.282  22
   0   4   2 4386.66 366.611  10
   0  -4  -2 4373.71 271.871  16
   0   4   3 6776.14 453.504  10
   0   4   4 488016. 3735.79  10
   0   4   5 1140.76 200.560  10
   0   4   6 100101. 1790.97  10
   0   4   7 34357.1 1074.05  10
   0   4   8 144359. 2253.56  10
   0  -4  -8 146978. 2522.92   7
   0   4   9 37577.0 1206.75  10
   0   4   9 37513.0 1131.04   1
   0   4  10 73129.5 1711.81  10
   0   4  10 70587.6 1624.59   1
   0   4  11 29314.3 1095.41  10
   0   4  11 29985.1 1110.57   1
   0   4  12 4776.66 465.644   1
   0   4  13 25966.1 1039.95   1
   0  -4 -14 148965. 2808.96   8
   0   4  14 134831. 2343.34   1
   0  -4 -15 8850.23 644.054   8
   0   4  15 8303.24 565.675   1
   0   4  16 5549.96 429.010   1
   0  -4 -16 5482.77 462.808   8
   0  -4 -17 45520.4 1150.09   8
   0   4  17 44200.0 1050.05   1
   0  -4 -18 24193.9 720.923   8
   0   4  18 22745.9 589.937   1
   0   5 -14 17286.1 600.806   4
   0  -5  13 69057.6 1269.66   5
   0   5 -13 67779.3 1466.81   4
   0   5 -12 696.128 208.262   4
   0  -5  12 320.094 145.532   5
   0  -5  11 1031.88 247.901   5
   0  -5  10 5913.80 599.101   5
   0  -5   9 7384.10 699.899   5
   0  -5   8 7574.57 730.978   5
   0  -5   7 161716. 3308.66   5
   0  -5   6 71562.7 2193.35   5
   0  -5   5 2363.45 408.797   5
   0  -5   5 2942.49 401.535  19
   0  -5   4 119441. 2486.90  19
   0  -5   4 117653. 2655.96   5
   0  -5   3 86970.1 2216.05   5
   0  -5   3 87057.3 2135.87  19
   0  -5   2 12142.9 787.602  19
   0   5  -2 13399.1 661.829   4
   0  -5   2 11348.6 791.797   5
   0  -5   1 9058.62 680.888   5
   0  -5   1 8741.57 667.790  19
   0  -5   0 17099.7 927.299  19
   0  -5   0 18328.0 949.558   5
   0  -5  -1 5928.90 530.166   5
   0  -5  -1 5538.04 530.174  19
   0   5   2 16714.7 803.477  10
   0  -5  -2 18599.6 979.565   7
   0  -5  -3 28963.2 1199.08   7
   0   5   3 26688.8 992.148  10
   0  -5  -3 25729.4 1118.12  19
   0  -5  -4 1115.42 246.576   7
   0   5   4 1058.13 209.727  10
   0  -5  -5 2666.36 374.635   7
   0   5   5 2420.88 311.543  10
   0  -5  -6 82001.8 2040.70   7
   0   5   6 77279.9 1724.01  10
   0  -5  -7 135981. 2632.08   7
   0   5   7 130887. 2278.48  10
   0   5   8 11061.7 670.468  10
   0  -5  -8 10075.4 728.579   7
   0   5   9 92920.5 1948.81  10
   0   5   9 92397.4 1876.50   1
   0   5  10 179912. 2652.03   1
   0   5  11 55598.0 1496.55   1
   0   5  12 6803.60 525.123   1
   0   5  13 13866.1 713.224   1
   0  -5 -14 16421.2 800.481  15
   0   5  14 18029.4 772.277   1
   0  -5 -15 21790.4 744.049  15
   0  -5 -15 21012.2 894.885   8
   0   5  15 20535.4 758.105   1
   0   5  16 45813.3 998.520   1
   0  -5 -16 49928.8 1180.64   8
   0   5  17 5641.80 280.752   1
   0  -5 -17 5738.48 341.392   8
   0   6 -12 16120.9 551.588   4
   0   6 -11 76123.0 1454.43   4
   0  -6  11 74279.9 1371.20   5
   0   6 -10 700.584 177.576   4
   0  -6  10 1673.03 264.623   5
   0   6  -9 4647.61 441.414   4
   0  -6   9 4540.84 472.968   5
   0  -6   8 4273.16 500.008   5
   0   6  -8 4332.25 455.646   4
   0  -6   7 59083.5 1894.07   5
   0   6  -7 61777.9 1690.79   4
   0   6  -6 28919.9 1164.62   4
   0  -6   6 27779.2 1351.64   5
   0  -6   5 8406.87 769.270   5
   0   6  -5 8234.88 624.241   4
   0  -6   4 48199.2 1806.99   5
   0   6  -4 45036.9 1409.66   4
   0   6  -3 195140. 2808.45   4
   0  -6   3 195498. 3622.38   5
   0  -6   2 101806. 2601.63   5
   0   6  -2 105093. 1965.18   4
   0  -6   1 81170.9 2273.71   5
   0   6  -1 71361.0 1894.17  10
   0   6   0 9071.79 675.454  10
   0  -6  -1 7053.20 697.964   7
   0   6   1 5083.68 492.792  10
   0  -6  -2 81692.4 2288.05   7
   0   6   2 78587.5 1857.54  10
   0   6   3 116774. 2228.84  10
   0  -6  -3 118389. 2668.91   7
   0   6   4 398.461 160.654  10
   0  -6  -4 367.996 194.696   7
   0  -6  -5 4490.39 530.705   7
   0   6   5 4230.02 426.363  10
   0  -6  -6 61599.7 1887.94   7
   0  -6  -7 11437.2 813.452   7
   0  -6  -8 27143.9 1215.05   7
   0   6   9 64041.7 1538.97   1
   0   6  10 17368.0 791.992   1
   0   6  11 19806.5 825.513   1
   0   6  12 8763.48 521.748   1
   0   6  13 952.210 172.062   1
   0  -6 -13 1484.57 262.297  15
   0  -6 -14 6347.72 435.763  15
   0  -6 -14 7240.59 496.300   8
   0   6  14 6096.13 375.830   1
   0  -6 -15 17040.4 633.014   8
   0   6  15 16078.6 510.592   1
   0  -6 -15 17372.1 535.353  15
   0  -6 -16 83462.3 1134.47   8
   0  -7   9 20128.2 691.950   7
   0   7  -8 568.183 117.559   4
   0  -7   8 856.913 115.134   3
   0  -7   8 903.978 191.980   7
   0   7  -7 491.800 126.826   4
   0   7  -6 31184.0 933.056   4
   0   7  -5 129977. 1946.49   4
   0   7  -4 103470. 1739.87   4
   0  -7   4 91718.7 2365.20   7
   0  -7   3 538.089 237.289   7
   0   7  -3 767.669 165.838   4
   0  -7   2 76449.9 2208.21   7
   0  -7   1 60404.7 1960.50   7
   0  -7   0 6678.48 663.592   7
   0  -7  -1 6641.11 652.293   7
   0  -7  -2 20251.7 1110.69   7
   0  -7  -3 81309.6 1885.17  15
   0  -7  -3 85246.8 2236.68   7
   0  -7  -4 34252.7 1317.67  15
   0  -7  -4 34198.1 1403.86   7
   0  -7  -5 136286. 2740.55  15
   0  -7  -5 136460. 2746.60   7
   0  -7  -6 44992.0 1625.59  15
   0  -7  -6 43356.2 1514.21   7
   0  -7  -7 13854.8 825.279   7
   0  -7  -7 13923.4 921.130  15
   0   7   8 45187.3 1193.36   1
   0  -7  -8 46673.3 1644.26  15
   0  -7  -9 113594. 2481.53  15
   0   7   9 112945. 1795.69   1
   0   7  10 1066.05 181.048   1
   0  -7 -10 200.408 163.349  15
   0   7  11 10328.6 487.199   1
   0  -7 -11 11396.7 691.042  15
   0  -7 -12 20741.9 815.904  15
   0   7  12 18630.8 583.898   1
   0   7  13 1801.92 159.271   1
   0  -7 -13 1720.85 206.754  15
   0  -7 -14 5008.03 267.160   8
   0  -8   5 75861.1 1067.19   3
   0  -8   5 78945.5 1213.74   7
   0  -8   4 2556.99 265.090   7
   0  -8   3 3630.13 343.621   7
   0  -8   2 3312.38 352.029   7
   0  -8   1 45331.9 1305.37   7
   0  -8   0 26378.5 1019.65   7
   0  -8  -1 45403.2 1347.11   7
   0  -8  -2 7209.18 545.340   7
   0  -8  -3 3001.12 356.157   7
   0  -8  -4 1873.35 281.456   7
   0  -8  -4 1765.92 212.685   3
   0  -8  -5 5715.36 382.707  15
   0  -8  -5 4796.97 414.760   7
   0   8   6 58845.4 1133.98   1
   0  -8  -6 61946.3 1309.71  15
   0   8   7 8192.27 401.462   1
   0  -8  -7 9019.84 508.051  15
   0  -8  -8 40233.7 1042.69  15
   0   8   8 35352.0 784.831   1
   0  -8  -9 35793.2 933.167  15
   0   8   9 34209.1 688.877   1
   0  -8 -10 233.341 86.5083  15
   1  -8  -7 34707.8 755.473  15
   1  -8  -6 33584.1 727.863  15
  -1   8   4 3056.93 201.528   1
   1  -8  -4 3267.06 229.663   3
   1  -8  -3 9550.36 450.919   3
   1  -8  -3 10382.5 495.523   7
   1  -8  -2 4365.79 323.507   7
   1  -8  -2 4266.95 332.671   3
   1  -8  -1 97323.9 1469.58   7
   1  -8  -1 92721.4 1587.80   3
   1  -8   0 20037.6 733.220   3
   1  -8   0 21665.2 665.895   7
   1  -8   1 6726.70 347.061   7
   1  -8   1 6232.48 402.976   3
   1  -8   2 32242.1 841.990   3
   1  -8   3 51139.8 915.119   3
   1  -7 -12 2980.32 229.674   8
   1  -7 -12 3997.81 312.797  15
   1  -7 -11 2316.47 241.664   8
   1  -7 -11 2153.02 274.631  15
   1  -7 -10 2575.47 332.041  15
  -1   7  10 2824.19 204.141   1
  -1   7   9 58806.4 1043.12   1
   1  -7  -9 61246.1 1657.44  15
   1  -7  -8 13194.7 811.138  15
  -1   7   8 12385.8 517.228   1
  -1   7   7 419.714 114.291   1
   1  -7  -7 580.686 201.571  15
   1  -7  -6 6682.17 535.991   7
   1  -7  -6 6406.88 572.251  15
   1  -7  -5 109430. 2196.89   7
   1  -7  -5 112760. 2307.28  15
   1  -7  -4 3101.97 377.497  15
   1  -7  -4 2969.12 362.912   3
   1  -7  -4 2715.84 373.179   7
   1  -7  -3 2052.98 290.221  15
   1  -7  -3 1858.78 331.345   7
   1  -7  -2 4157.24 464.459   7
   1  -7  -1 20568.6 1025.52   7
   1  -7   0 44818.5 1508.04   7
   1  -7   1 160752. 2840.62   7
   1  -7   2 728.193 235.689   7
   1  -7   3 25015.3 1073.77   7
   1  -7   4 11067.2 692.221   7
   1  -7   5 73538.1 1644.66   7
   1  -7   6 2408.52 246.829   3
   1  -7   6 2824.78 302.094   7
   1  -7   7 5347.22 328.607   7
   1  -6 -15 2269.43 200.748   8
   1  -6 -14 3196.04 283.781   8
   1  -6 -14 3299.29 275.240  15
   1  -6 -13 50079.4 1278.02  15
   1  -6 -13 52900.1 1297.96   8
   1  -6 -12 102111. 2126.37  15
  -1   6  12 103419. 1443.25   1
  -1   6  11 6455.22 401.289   1
   1  -6 -11 6360.07 607.730  15
  -1   6  10 258.975 111.594   1
   1  -6 -10 390.707 226.974  15
   1  -6  -9 24038.0 1310.26  15
  -1   6   9 20801.2 787.536   1
  -1   6   8 21280.8 821.299   1
   1  -6  -8 24102.0 1343.12  15
   1  -6  -7 12251.1 791.815   7
   1  -6  -7 12660.5 995.352  15
   1  -6  -6 29671.6 1258.11   7
   1  -6  -6 30753.6 1504.30  15
   1  -6  -5 77238.6 2310.17  15
   1  -6  -5 79651.9 2095.92   7
   1  -6  -4 7327.53 687.399  15
   1  -6  -4 7565.15 667.348   7
   1  -6  -3 60875.4 1878.29   7
   1  -6  -3 57005.4 1793.81  15
   1  -6  -2 47924.4 1524.37  15
   1  -6  -2 50344.0 1730.70   7
   1  -6  -1 244.576 171.716   7
   1  -6   0 2169.49 398.480   7
   1  -6   1 185877. 3507.17   7
   1  -6   1 196640. 3487.13   5
   1  -6   2 18166.8 1103.54   5
   1  -6   3 4806.80 589.706   5
   1  -6   4 9478.42 804.466   5
   1  -6   5 52098.8 1843.05   5
  -1   6  -5 52170.4 1335.63   4
   1  -6   6 716.929 261.058   5
  -1   6  -6 671.390 178.326   4
  -1   6  -7 89994.0 1750.02   4
   1  -6   7 92466.6 2297.80   5
   1  -6   8 1277.16 282.162   5
  -1   6  -8 1015.11 197.945   4
   1  -6   8 1265.11 182.630   3
   1  -6   9 815.338 215.474   5
  -1   6  -9 623.581 148.201   4
  -1   6 -10 16019.6 595.240   4
   1  -6  10 18493.3 765.354   5
   1  -6  11 96310.7 1395.20   5
   1  -5 -17 4701.55 281.224   8
   1  -5 -16 108331. 1601.21   8
   1  -5 -15 400.620 154.271   8
   1  -5 -14 4601.30 443.505   8
  -1   5  14 5224.29 349.138   1
   1  -5 -14 4564.75 400.322  15
  -1   5  13 6225.14 413.002   1
   1  -5 -13 6638.96 559.410  15
  -1   5  12 15947.4 703.917   1
   1  -5 -12 16637.9 982.317  15
  -1   5  11 4960.61 409.091   1
   1  -5 -11 5359.67 610.537  15
  -1   5  10 35714.1 1116.55   1
  -1   5   9 24046.0 903.786   1
  -1   5   8 2617.80 311.708  10
   1  -5  -8 1872.12 329.786   7
   1  -5  -7 139303. 2712.03   7
  -1   5   7 145175. 2294.46  10
   1  -5  -6 57080.2 1739.96   7
  -1   5   6 56019.6 1428.54  10
  -1   5   5 12330.3 664.708  10
   1  -5  -5 12549.9 809.829   7
   1  -5  -4 2052.01 340.099   7
  -1   5   4 1698.98 258.932  10
   1  -5  -3 391202. 4484.04   7
  -1   5   3 364636. 3617.09  10
   1  -5  -2 28410.5 1177.46  15
  -1   5   2 28610.8 1049.71  10
   1  -5  -2 29418.1 1250.56   7
   1  -5  -2 29153.5 1208.60  18
  -1   5   1 3978.58 404.355  10
   1  -5  -1 3987.99 446.379  18
   1  -5  -1 4504.90 476.453   5
   1  -5  -1 4059.37 489.454   7
   1  -5   0 3872.79 448.090  19
   1  -5   0 3931.23 462.142   5
   1  -5   0 3753.29 421.464  18
   1  -5   1 21241.3 1080.46   5
   1  -5   1 20313.1 960.208  18
   1  -5   1 22875.6 1090.69  19
   1  -5   2 3777.17 434.125  18
   1  -5   2 4167.92 489.267  19
   1  -5   2 3998.48 488.637   5
   1  -5   2 2896.74 376.201  16
   1  -5   3 181275. 2809.32  18
   1  -5   3 172719. 3239.15   5
   1  -5   4 3256.36 448.013  16
   1  -5   4 4190.86 535.616   5
   1  -5   5 53514.8 1927.22   5
   1  -5   6 58858.2 2051.51   5
   1  -5   7 49231.9 1898.30   5
   1  -5   8 1300.96 342.682   5
   1  -5   9 5951.87 636.200   5
   1  -5  10 40642.2 1516.74   5
   1  -5  11 6284.49 549.095   5
   1  -5  12 18367.2 801.443   5
   1  -5  13 14617.3 563.899   5
  -1   5 -13 13236.8 544.482   4
   1  -4 -18 7981.32 394.237   8
   1  -4 -18 7177.19 353.802   9
   1  -4 -17 3895.63 341.471   8
   1  -4 -16 78766.1 1678.32   8
   1  -4 -15 4723.19 475.980   8
  -1   4  15 4758.17 365.697   1
  -1   4  14 62902.2 1432.33   1
   1  -4 -14 65941.9 1852.17   8
  -1   4  13 1687.71 263.736   1
   1  -4 -13 1709.21 310.922  15
  -1   4  12 11182.9 637.135   1
   1  -4 -12 9577.73 765.602  15
  -1   4  11 16825.7 767.526  10
  -1   4  11 15067.3 739.315   1
  -1   4  10 227846. 2817.47   1
  -1   4  10 242733. 2974.40  10
  -1   4   9 655.574 155.638   1
  -1   4   9 75.8562 73.6410  10
  -1   4   8 673.970 162.760  10
   1  -4  -8 646.659 186.781   7
  -1   4   7 36596.7 1103.06  10
   1  -4  -7 38103.7 1290.02   7
  -1   4   6 46223.3 1210.20  10
  -1   4   5 10380.5 557.623  10
  -1   4   4 213960. 2495.51  10
   1  -4  -3 15545.7 758.769  19
  -1   4   3 14306.0 657.818  10
  -1   4   2 98676.9 1729.07  10
   1  -4  -2 96453.8 1658.46  16
   1  -4  -2 97401.4 1906.97  19
   1  -4  -1 67510.3 1395.94  16
   1  -4  -1 72973.1 1671.86  19
   1  -4   0 23207.2 872.564  16
   1  -4   0 27631.1 1051.21  19
   1  -4   1 828.720 195.432  16
   1  -4   1 2921.63 352.491  19
   1  -4   2 26919.5 1079.14  19
   1  -4   3 115835. 2290.00  19
   1  -4   4 1130.08 243.223  19
   1  -4   5 1854.45 329.342   6
   1  -4   5 2124.29 333.031  19
   1  -4   6 2282.38 374.197   6
   1  -4   6 1428.47 292.481  19
   1  -4   7 8281.50 647.308  19
   1  -4   7 8068.06 735.759   6
   1  -4   8 18778.3 1139.31   6
   1  -4   9 72995.8 2264.86   6
   1  -4  10 15788.0 1066.71   6
   1  -4  11 3923.50 522.275   6
   1  -4  12 60429.0 1897.79   6
   1  -4  12 62822.2 1857.76   5
   1  -4  13 183477. 2999.72   6
   1  -4  13 192869. 2916.70   5
   1  -4  14 4300.93 379.108   5
   1  -4  15 25316.5 638.217   5
   1  -3 -19 7923.08 370.009   9
   1  -3 -18 77188.6 1467.98   8
   1  -3 -18 74292.1 1489.04   9
  -1   3  17 42970.7 958.496   1
   1  -3 -17 45155.1 1316.94   8
   1  -3 -16 20815.9 971.725   8
  -1   3  16 19943.4 774.112   1
  -1   3  15 77764.1 1668.58   1
   1  -3 -15 75640.4 1950.67   8
   1  -3 -14 238091. 3631.01   8
  -1   3  14 219600. 2918.29   1
  -1   3  13 26631.7 1037.48   1
   1  -3 -13 24123.2 1198.04   8
  -1   3  12 37036.6 1178.95   1
  -1   3  11 42997.5 1228.69   1
  -1   3  11 37683.9 1169.13  10
  -1   3  10 40506.5 1187.40  10
  -1   3  10 49973.8 1254.70   1
  -1   3   9 32130.0 1025.25  10
  -1   3   8 311113. 3068.77  10
  -1   3   7 10162.1 529.389  10
  -1   3   6 79334.2 1409.28  10
   1  -3  -5 198654. 2422.87  14
  -1   3   5 192048. 2082.27  10
  -1   3   4 89094.6 1402.01  10
   1  -3  -4 101011. 1593.21  14
   1  -3  -3 60399.0 1114.92  14
  -1   3   3 60157.0 1133.80  10
   1  -3  -2 70619.0 1258.84  16
   1  -3  -2 69593.7 1118.99  14
   1  -3  -1 231153. 2467.77  19
   1  -3  -1 236438. 2395.92  16
   1  -3   0 28738.7 881.293  16
   1  -3   0 28284.5 887.050  19
   1  -3   1 64573.5 1368.77  19
   1  -3   2 9959.60 555.659  19
   1  -3   3 67226.1 1487.50  19
   1  -3   4 167825. 2445.79  19
   1  -3   5 436686. 4115.31  19
   1  -3   6 45243.5 1372.45  19
   1  -3   7 686.403 203.200   6
   1  -3   7 468.901 156.431  19
   1  -3   8 118204. 2667.82   6
   1  -3   8 120227. 2324.93  19
   1  -3   9 242766. 3704.59  21
   1  -3   9 240188. 3979.28   6
   1  -3  10 39894.0 1683.35   6
   1  -3  11 2992.18 482.464   6
   1  -3  12 32235.8 1501.89   6
   1  -3  13 84748.2 2337.54   6
   1  -3  14 20303.7 1055.12   6
   1  -3  15 92470.5 1954.83   6
   1  -3  16 1999.17 255.520   6
   1  -3  16 2110.44 214.904   5
   1  -2 -19 99.5728 101.062   9
   1  -2 -18 43698.4 1288.42   9
   1  -2 -17 1066.54 282.912   9
   1  -2 -17 1450.36 289.326   8
  -1   2  16 28468.7 1048.23   1
   1  -2 -16 29125.8 1228.68   8
  -1   2  15 10234.1 660.692   1
   1  -2 -15 10084.0 747.264   8
  -1   2  14 52803.5 1516.95   1
   1  -2 -14 56666.6 1768.66   8
   1  -2 -13 730.431 253.509   8
  -1   2  13 600.373 178.298   1
   1  -2 -12 51484.5 1896.84  20
  -1   2  12 54052.9 1467.48   1
   1  -2 -12 53516.2 1720.94   8
   1  -2 -11 16914.2 1078.88  20
  -1   2  11 19781.3 823.109   1
   1  -2 -10 78773.1 2221.46  20
  -1   2  10 71601.1 1542.02  10
  -1   2   9 23013.7 813.666  10
   1  -2  -9 24414.7 1173.56  20
   1  -2  -8 86005.6 2093.23  20
  -1   2   8 89343.1 1534.01  10
  -1   2   7 252659. 2420.99  10
   1  -2  -7 244295. 3347.05  20
  -1   2   6 180663. 1913.04  10
   1  -2  -6 182154. 2698.16  20
   1  -2  -5 12929.8 667.110  20
  -1   2   5 13906.4 501.382  10
  -1   2   4 29871.6 676.499  10
   1  -2  -4 24129.4 832.310  20
  -1   2   3 8058.27 343.890  10
   1  -2  -2 62077.3 1020.25  16
   1  -2  -2 67335.5 1032.70  14
   1  -2  -1 520.122 95.6959  14
   1  -2  -1 699.563 63.0589  21
   1  -2  -1 466.687 102.064  16
   1  -2  -1 518.765 95.0106  19
   1  -2   0 23346.7 629.468  19
   1  -2   0 25011.7 575.601  14
   1  -2   1 25537.9 614.683  14
   1  -2   1 21886.5 644.974  19
   1  -2   2 349487. 2715.36  19
   1  -2   3 29853.0 843.078  19
   1  -2   4 272696. 2697.15  19
   1  -2   5 245192. 2722.88  19
   1  -2   6 46079.8 1231.55  19
  -1   2  -7 32299.1 881.573  20
   1  -2   7 31805.4 1060.16  19
   1  -2   8 157500. 2432.34  19
   1  -2   9 775.987 199.288   6
   1  -2  10 333121. 4465.40   6
   1  -2  10 345845. 4212.56  21
   1  -2  11 285955. 4325.13   6
   1  -2  11 292359. 3840.54  21
   1  -2  12 46835.2 1781.33   6
   1  -2  13 144856. 3121.84   6
   1  -2  14 8591.33 746.143   6
   1  -2  15 107487. 2417.15   6
   1  -2  16 576.460 193.638   6
   1  -2  17 61236.9 1307.12   6
   1  -1 -19 134934. 1966.08   9
   1  -1 -18 3116.26 384.654   9
   1  -1 -17 50941.3 1651.12   9
   1  -1 -16 161197. 2986.14   8
   1  -1 -16 167610. 3222.34   9
  -1   1  15 33124.1 1277.78   1
   1  -1 -15 33392.1 1403.98   8
   1  -1 -14 1065.30 280.649   8
  -1   1  14 797.509 213.106   1
  -1   1  13 25046.1 1080.58   1
   1  -1 -13 24788.3 1157.73   8
  -1   1  12 102397. 2082.27   1
   1  -1 -12 98090.3 2444.26  20
   1  -1 -11 6324.26 543.703   8
   1  -1 -11 5792.09 563.297  20
   1  -1 -10 2150.02 345.588  20
   1  -1  -9 12113.9 755.994  20
   1  -1  -8 26575.7 1055.38  20
  -1   1   8 30355.8 863.603  10
   1  -1  -7 19402.8 839.481  20
  -1   1   7 19203.6 633.517  10
  -1   1   6 71999.5 1114.72  10
   1  -1  -6 65615.7 1424.54  20
   1  -1  -5 2189.45 250.705  20
  -1   1   5 2570.41 196.707  10
   1  -1  -1 27781.8 563.554  14
   1  -1  -1 26817.2 556.873  16
   1  -1  -1 26231.0 311.546  21
   1  -1  -1 24374.7 389.486  19
   1  -1  -1 25618.8 512.827  20
   1  -1   0 96823.1 827.892  21
   1  -1   0 96915.9 911.107  19
   1  -1   1 90476.4 952.677  14
   1  -1   1 87031.7 988.919  19
   1  -1   2 85402.4 1092.21  19
   1  -1   3 265974. 2129.00  19
   1  -1   4 479800. 3088.19  19
   1  -1   5 32498.1 860.004  19
  -1   1  -6 108905. 1373.92  20
   1  -1   6 107183. 1661.35  19
  -1   1  -7 558908. 3386.65  20
  -1   1  -8 122804. 1728.86  20
   1  -1   9 498.016 174.418  21
  -1   1  -9 166.559 82.7154  20
   1  -1  10 83218.8 1935.55  21
   1  -1  11 127526. 2441.08  21
  -1   1 -11 133201. 2369.13   9
   1  -1  11 128242. 2689.08   6
  -1   1 -12 27148.6 1130.20   9
   1  -1  12 26591.2 1276.02   6
   1  -1  12 27988.9 1147.42  21
   1  -1  13 62563.2 1972.97   6
  -1   1 -13 58680.3 1723.36   9
   1  -1  14 41193.3 1604.69   6
  -1   1 -14 39135.8 1423.60   9
  -1   1 -15 21636.0 1004.82   9
   1  -1  15 23189.2 1154.11   6
  -1   1 -16 148996. 2338.50   9
   1  -1  16 149849. 2682.01   6
   1  -1  17 183983. 2591.31   6
   1  -1  18 11087.6 496.719   6
   1   0 -19 13288.9 597.051   9
   1   0 -18 2345.16 342.934   9
   1   0 -17 16233.0 949.326   9
   1   0 -16 117055. 2734.02   9
   1   0 -15 42764.4 1717.88   9
   1   0 -14 70335.5 2198.68   9
   1   0 -14 73425.7 2093.97   8
  -1   0  13 34023.9 1343.38   1
   1   0 -13 35838.2 1432.31   8
   1   0 -13 38012.1 1488.50  20
   1   0 -12 73.1680 138.088  20
  -1   0  12 88.8987 119.236   1
   1   0 -12 178.445 157.179   8
   1   0 -11 3279.46 382.480   8
   1   0 -11 5298.34 534.882  20
   1   0 -10 97929.8 2094.61  20
   1   0  -9 53771.1 1492.49  20
   1   0  -8 26007.1 973.887  20
   1   0  -7 74935.5 1499.22  20
   1   0  -6 111693. 1698.34  20
   1   0  -5 34089.6 853.858  20
   1   0  -4 481111. 2908.01  20
   1   0  -3 336999. 2150.08  20
  -1   0   3 391949. 1624.67  10
   1   0  -2 629349. 2505.32  20
   1   0  -1 175520. 1073.20  20
  -1   0   1 176379. 818.770  22
   1   0   0 2400.22 126.743  21
   1   0   0 2287.89 86.0204  20
   1   0   1 41921.1 596.751  21
   1   0   2 180807. 1417.03  21
   1   0   3 406119. 2468.51  21
   1   0   5 43784.1 1004.76  21
  -1   0  -5 47673.2 797.487  20
   1   0   6 984391. 5121.60  21
  -1   0  -6 999999. 4228.04  20
   1   0   7 38271.5 1058.87  21
  -1   0  -7 46974.5 997.861  20
   1   0   8 46045.8 1221.20  21
  -1   0  -8 48129.3 1111.75  20
  -1   0  -9 90803.4 1679.31  20
   1   0   9 90579.3 1781.08  21
  -1   0 -10 276038. 3093.06  20
   1   0  10 261533. 3161.29  21
   1   0  11 67512.1 1817.88   1
   1   0  11 67619.3 1661.09  21
   1   0  12 205540. 2995.22  21
   1   0  12 219054. 3530.10   1
   1   0  13 26247.1 1290.46   1
   1   0  14 49060.0 1768.94   1
  -1   0 -14 47551.0 1599.84   9
   1   0  14 47748.3 1671.54   6
  -1   0 -15 8358.66 661.950   9
   1   0  15 7837.40 678.112   6
   1   0  16 1158.36 269.980   6
  -1   0 -16 625.527 209.722   9
  -1   0 -17 19636.0 858.840   9
   1   0  17 20116.5 884.695   6
  -1   0 -18 8025.31 427.665   9
   1   0  18 7840.48 461.706   6
   1   1 -19 9338.12 412.036   9
   1   1 -18 42107.2 1214.95   9
   1   1 -17 192826. 3093.59   9
   1   1 -16 11248.6 852.877   9
   1   1 -15 30239.0 1437.52   9
  -1  -1  14 70460.0 1857.15   6
   1   1 -14 69712.9 2207.84   9
  -1  -1  13 21961.2 1049.45   6
   1   1 -13 22067.6 1218.98   9
   1   1 -12 218.640 162.327  20
   1   1 -12 459.497 246.066   9
  -1  -1  12 313.383 155.607   6
   1   1 -11 67016.3 1839.09  20
   1   1 -11 66363.5 1897.70   9
   1   1 -11 63208.8 1761.95   8
   1   1 -10 165638. 2709.22  20
   1   1  -9 2117.99 301.809  20
   1   1  -8 122315. 2049.15  20
  -1  -1   8 111506. 1510.19  19
  -1  -1   7 130924. 1511.01  19
   1   1  -7 124907. 1922.16  20
   1   1  -6 184027. 2164.79  20
  -1  -1   6 198712. 1751.86  19
  -1  -1   5 65828.1 933.083  19
  -1  -1   3 88607.8 914.077  19
  -1  -1   3 87459.7 1012.41  22
  -1  -1   2 13923.0 369.831  22
   1   1   1 60243.5 598.775  10
   1   1   1 60483.1 507.730  14
   1   1   2 7240.72 246.258  10
   1   1   2 7910.83 161.958  16
   1   1   3 780.145 108.837  21
   1   1   3 869.833 106.644  10
  -1  -1  -4 12556.5 423.760  20
   1   1   4 12005.3 433.227  21
   1   1   5 37150.1 811.304  21
  -1  -1  -5 35795.9 806.858  20
   1   1   6 19258.2 643.096  10
  -1  -1  -6 17996.9 635.222  20
   1   1   6 18841.2 629.640  21
   1   1   7 76495.0 1363.25  21
   1   1   7 80138.9 1430.33  10
  -1  -1  -8 157694. 2208.60  20
   1   1   8 162661. 2095.60  21
  -1  -1  -9 655261. 4865.64  20
   1   1   9 673349. 4507.75  21
   1   1  10 209539. 2638.63  21
  -1  -1 -10 211023. 2931.95  20
   1   1  11 1606.95 278.063   1
  -1  -1 -11 1648.78 296.104  20
   1   1  11 1711.25 259.097  21
  -1  -1 -12 112162. 1939.06   8
   1   1  12 100885. 2241.43   1
   1   1  12 105354. 2019.56  21
   1   1  12 94493.7 1932.34  12
   1   1  13 34470.7 1379.61   1
  -1  -1 -13 34482.9 1131.13   8
   1   1  14 82322.3 2189.97   1
  -1  -1 -14 84361.4 1837.89   8
   1   1  15 4118.08 511.934   1
  -1  -1 -16 8991.10 676.296   9
   1   1  16 8470.81 624.272   6
   1   1  16 8198.55 686.306   1
  -1  -1 -17 645.518 190.579   9
   1   1  17 896.727 203.713   6
   1   1  18 18180.2 690.230   6
  -1  -1 -18 18249.6 762.988   9
  -1  -1 -19 55883.6 935.978   9
   1   2 -18 19999.1 658.149   9
   1   2 -17 49920.5 1370.83   9
   1   2 -16 8185.29 666.334   9
  -1  -2  16 8394.86 505.543   6
  -1  -2  15 11330.4 701.469   6
   1   2 -15 11470.3 858.075   9
   1   2 -14 691.085 277.822   9
  -1  -2  14 917.534 238.645   6
   1   2 -13 90743.5 2521.58   9
  -1  -2  13 86369.9 2225.23   6
  -1  -2  12 263022. 3902.90   6
   1   2 -12 263445. 4204.90   9
   1   2 -11 158835. 2812.70  20
  -1  -2  11 167007. 3010.22   6
   1   2 -11 167841. 3175.19   9
   1   2 -10 1173.09 241.586  20
   1   2 -10 755.936 233.689   9
  -1  -2  10 603.219 213.117   6
   1   2  -9 42941.3 1334.17  20
  -1  -2   9 39047.3 1057.69  19
  -1  -2   8 43060.8 1079.16  19
   1   2  -8 45369.8 1308.58  20
  -1  -2   7 52059.6 1138.20  19
  -1  -2   6 16432.5 609.473  19
  -1  -2   5 18668.6 611.782  19
  -1  -2   4 525328. 3316.01  22
  -1  -2   4 546620. 3200.56  19
  -1  -2   3 160695. 1676.91  22
  -1  -2   3 165561. 1673.52  19
  -1  -2   2 63776.3 979.102  22
  -1  -2   1 437401. 2482.40  22
   1   2   2 268502. 1804.92  10
  -1  -2  -2 261562. 1984.54  22
   1   2   3 55516.7 867.278  10
   1   2   3 50000.9 763.014  21
   1   2   4 7137.35 322.313  21
   1   2   4 7733.14 360.210  10
   1   2   5 111305. 1371.70  21
   1   2   5 108094. 1435.49  10
   1   2   6 143424. 1628.09  21
   1   2   6 134755. 1762.64  10
   1   2   7 50660.5 1023.12  21
   1   2   7 47670.3 1115.51  10
  -1  -2  -8 125917. 2219.19  20
   1   2   8 124915. 1907.46  10
   1   2   9 244.401 96.9784  21
   1   2   9 504.802 153.723  10
  -1  -2  -9 218.808 155.897  20
   1   2  10 12437.8 598.123  21
  -1  -2 -10 11411.1 748.761  20
   1   2  10 10669.0 638.600  10
   1   2  11 47410.0 1383.55   1
   1   2  11 49250.6 1218.09  21
   1   2  12 99884.0 2170.16   1
  -1  -2 -12 104409. 2065.21   8
   1   2  12 98038.0 1910.98  12
   1   2  13 174742. 2592.82  12
  -1  -2 -13 179692. 2731.97   8
   1   2  14 139605. 2747.36   1
  -1  -2 -14 130902. 2305.59   8
   1   2  15 25489.8 1180.75   1
  -1  -2 -15 23480.7 958.063   8
  -1  -2 -16 53075.9 1411.27   8
   1   2  16 47672.9 1556.30   1
   1   2  17 4959.65 408.486   6
   1   2  17 4906.47 480.345   1
   1   2  18 481.800 115.421   6
  -1  -2 -18 82.9564 95.9791   9
  -1  -2 -19 25349.7 716.861   9
   1   3 -17 13102.0 511.456   9
   1   3 -16 18567.2 799.851   9
   1   3 -16 19452.7 652.433   4
   1   3 -15 30238.0 1212.29   9
  -1  -3  14 1957.43 322.546   6
   1   3 -14 1795.12 352.628   9
   1   3 -13 699.643 273.571   9
  -1  -3  13 351.411 201.408   6
   1   3 -12 148092. 3175.90   9
  -1  -3  12 145675. 3025.28   6
   1   3 -11 195591. 3556.20   9
  -1  -3  11 192483. 3507.11   6
   1   3 -10 59384.8 1711.48  20
  -1  -3  10 54344.4 1839.22   6
   1   3 -10 55555.8 1833.56   9
  -1  -3  10 57593.9 1459.27  19
  -1  -3   9 10097.4 766.941   6
   1   3  -9 9303.33 721.849   9
   1   3  -9 10402.1 703.661  20
  -1  -3   9 10689.4 632.548  19
  -1  -3   8 67694.0 1547.99  19
  -1  -3   7 14022.8 678.973  19
  -1  -3   6 140483. 2075.27  19
  -1  -3   5 277969. 2868.75  19
  -1  -3   4 287236. 2832.43  19
  -1  -3   3 34917.3 929.630  22
  -1  -3   3 33577.0 942.140  19
  -1  -3   2 23393.5 723.300  22
  -1  -3   2 20010.8 709.031  19
  -1  -3   1 47947.9 992.880  22
  -1  -3   0 34616.0 839.138  22
  -1  -3  -1 216774. 2064.71  22
  -1  -3  -2 59456.4 507.724  16
   1   3   2 56557.9 1042.81  10
   1   3   3 818864. 3982.19  10
  -1  -3  -3 768865. 4103.12  22
   1   3   4 2366.48 234.778  10
  -1  -3  -4 2445.38 253.778  22
   1   3   5 45019.1 1040.07  10
  -1  -3  -5 46432.7 1103.43  22
   1   3   6 54096.3 1186.03  10
   1   3   7 247494. 2041.46  21
   1   3   7 224682. 2566.98  10
   1   3   8 86174.5 1655.39  10
   1   3   9 4881.29 427.696  10
   1   3  10 4455.23 406.312   1
   1   3  10 2130.03 294.388  10
   1   3  11 83396.9 1865.54   1
   1   3  11 85875.3 1909.29  10
   1   3  12 112247. 1952.54  12
   1   3  12 112719. 2264.78   1
   1   3  13 4056.75 375.834  12
   1   3  13 3438.71 422.897   1
   1   3  14 2196.98 271.375  12
   1   3  14 1682.11 320.708   1
  -1  -3 -14 1676.66 300.366   8
  -1  -3 -15 26376.5 1040.82   8
   1   3  15 26181.7 1131.14   1
  -1  -3 -16 14763.3 725.330   8
   1   3  16 14600.0 815.297   1
  -1  -3 -17 20573.2 771.085   8
   1   3  17 20981.8 728.260   6
   1   3  17 20128.9 880.075   1
  -1  -3 -18 40843.5 1120.62   9
   1   3  18 40086.3 1085.77   1
  -1  -3 -19 10818.1 454.639   9
   1   4 -15 26161.4 843.277   4
   1   4 -15 25710.9 859.094   9
   1   4 -14 4804.85 448.202   4
   1   4 -14 4876.32 451.623   9
   1   4 -13 571.447 207.624   9
  -1  -4  12 29188.2 1336.47   6
   1   4 -12 28124.7 1275.72   9
  -1  -4  11 44739.1 1510.45   5
   1   4 -11 43712.5 1622.06   9
  -1  -4  11 44374.6 1716.17   6
  -1  -4  10 376686. 4515.79   5
   1   4 -10 379137. 4799.09   9
  -1  -4  10 369399. 5006.36   6
  -1  -4   9 146942. 2832.55   5
   1   4  -9 152505. 2983.87   9
  -1  -4   9 151265. 3192.70   6
  -1  -4   8 1184.47 271.415   5
  -1  -4   8 1409.77 333.208   6
   1   4  -8 1278.39 269.713   9
   1   4  -7 210.490 148.172   9
  -1  -4   7 155.420 115.622  19
  -1  -4   7 693.965 224.847   5
  -1  -4   7 470.964 183.678   6
   1   4  -6 207089. 2965.59   9
  -1  -4   6 209466. 3342.69   6
  -1  -4   6 217152. 2990.05  19
  -1  -4   5 143260. 2383.78  19
  -1  -4   4 11795.7 680.076  19
  -1  -4   3 36584.0 1190.33  19
  -1  -4   2 15415.8 753.427  19
  -1  -4   2 15339.0 690.278  22
  -1  -4   1 16016.9 675.292  22
  -1  -4   0 10557.7 534.513  22
  -1  -4  -1 338109. 2993.47  22
  -1  -4  -2 304777. 2900.86  22
   1   4   2 317661. 2943.78  10
  -1  -4  -3 451010. 3487.55  22
   1   4   3 438725. 3465.89  10
  -1  -4  -4 50379.2 1169.96  22
   1   4   4 54988.9 1248.31  10
  -1  -4  -5 13579.8 633.461  22
   1   4   5 15299.5 678.341  10
  -1  -4  -6 27926.3 958.803  22
   1   4   6 27006.8 934.865  10
   1   4   7 343092. 3427.70  10
  -1  -4  -7 344833. 3511.16  22
   1   4   8 144442. 2309.19  10
   1   4   9 23628.7 962.297  10
   1   4   9 26956.2 988.992   1
   1   4  10 124103. 2236.80   1
   1   4  10 124879. 2307.61  10
   1   4  11 612.342 187.685  10
   1   4  11 1283.05 251.505   1
   1   4  12 4476.18 462.187   1
   1   4  12 4416.36 446.942  10
   1   4  13 54379.4 1570.09   1
   1   4  14 326570. 3850.58   1
  -1  -4 -15 30542.0 1112.80   8
   1   4  15 31303.4 1163.92   1
  -1  -4 -16 22222.3 845.961   8
   1   4  16 22563.5 921.246   1
   1   4  17 19726.5 777.839   1
  -1  -4 -17 18810.3 688.506   8
   1   4  18 28967.8 804.683   1
  -1  -4 -18 28397.3 632.094   8
   1   5 -14 28946.8 834.556   4
   1   5 -13 26727.6 981.390   4
   1   5 -12 7486.00 605.517   4
   1   5 -11 2760.99 418.167   4
  -1  -5  11 3059.97 356.483   5
   1   5 -10 2469.31 386.246   9
  -1  -5  10 2984.83 402.852   5
  -1  -5   9 27939.6 1264.44   5
   1   5  -9 29756.6 1296.21   9
  -1  -5   8 40765.0 1570.83   5
   1   5  -8 40497.6 1513.61   9
  -1  -5   7 4722.86 552.620   5
   1   5  -7 3070.69 423.795   9
   1   5  -6 49778.3 1609.63   9
  -1  -5   6 48892.5 1705.34   5
  -1  -5   5 17236.9 992.018   5
  -1  -5   5 15948.0 897.955  19
   1   5  -4 128098. 2438.96   4
  -1  -5   4 129316. 2542.05  19
  -1  -5   4 127120. 2632.41   5
  -1  -5   3 10586.9 727.602  19
   1   5  -3 10033.4 649.494   4
  -1  -5   3 10587.8 742.138   5
  -1  -5   2 2006.25 328.551  19
   1   5  -2 2024.72 284.851   4
  -1  -5   2 2139.96 334.413   5
  -1  -5   1 31766.9 1109.25  22
  -1  -5   1 31861.1 1240.92  19
  -1  -5   0 78288.6 1921.79  19
  -1  -5   0 81455.3 1725.94  22
   1   5   1 56998.4 1479.02  10
  -1  -5  -1 57346.1 1398.09  22
  -1  -5  -2 30254.1 989.210  22
   1   5   2 29163.0 1046.88  10
   1   5   3 9739.23 598.622  10
   1   5   4 100984. 1918.96  10
  -1  -5  -5 131979. 2471.08   7
   1   5   5 134200. 2230.35  10
  -1  -5  -6 176023. 2885.95   7
   1   5   6 177461. 2627.84  10
   1   5   7 15176.3 790.889  10
  -1  -5  -7 15693.0 875.677   7
  -1  -5  -8 472.240 178.062   7
   1   5   8 234.700 131.908  10
  -1  -5  -9 648.109 200.145   7
   1   5   9 522.499 177.156  10
   1   5   9 991.401 219.160   1
   1   5  10 12104.2 725.219  10
   1   5  10 12429.7 730.802   1
   1   5  11 8909.63 632.129   1
   1   5  12 74.3865 129.812   1
   1   5  13 24015.6 1001.52   1
   1   5  14 25772.1 994.873   1
   1   5  15 31878.2 1049.99   1
  -1  -5 -15 32379.8 1074.30   8
  -1  -5 -16 46364.4 1122.21   8
   1   5  16 49575.8 1180.32   1
   1   5  17 4313.67 302.899   1
  -1  -5 -17 4345.17 282.122   8
   1   6 -12 24208.2 783.558   4
   1   6 -11 4086.39 396.896   4
  -1  -6  10 80796.4 1620.80   5
   1   6 -10 82183.8 1887.61   4
  -1  -6   9 16768.8 861.935   5
   1   6  -9 18022.9 954.144   4
  -1  -6   8 269372. 3726.16   5
   1   6  -8 269232. 3792.87   4
  -1  -6   7 178861. 3201.76   5
   1   6  -7 186033. 3188.38   4
   1   6  -6 3076.43 434.179   4
  -1  -6   6 2657.28 419.216   5
  -1  -6   5 2364.21 404.406   5
   1   6  -5 1894.32 351.315   4
  -1  -6   4 96750.0 2488.00   5
   1   6  -4 94622.6 2210.39   4
  -1  -6   3 8515.34 744.220   5
   1   6  -3 7709.19 624.976   4
  -1  -6   2 41118.9 1604.92   5
   1   6  -2 39690.8 1342.71   4
   1   6  -1 33.5543 98.5913   4
   1   6  -1 297.349 163.056  10
  -1  -6   0 80316.3 2206.65  19
   1   6   0 79991.4 1717.81   4
   1   6   0 76013.9 1928.51  10
  -1  -6  -1 26382.2 1268.41  19
   1   6   1 28331.9 975.060   4
  -1  -6  -1 26146.9 1297.62   7
   1   6   1 25350.3 1092.46  10
  -1  -6  -2 190702. 3444.61   7
  -1  -6  -2 189335. 3387.10  19
   1   6   3 433061. 4360.25  10
  -1  -6  -3 433007. 5117.54   7
  -1  -6  -3 432135. 5129.72  19
  -1  -6  -4 57208.7 1822.29   7
   1   6   4 53864.5 1523.47  10
   1   6   5 100649. 2096.69  10
  -1  -6  -5 100639. 2417.89   7
  -1  -6  -6 200051. 3393.03   7
   1   6   6 201594. 2950.63  10
  -1  -6  -7 66286.1 1908.04   7
  -1  -6  -8 22596.5 1110.08   7
   1   6   9 16536.2 835.817   1
   1   6  10 11623.9 694.682   1
   1   6  11 3405.36 387.606   1
   1   6  12 72727.0 1640.64   1
   1   6  13 15998.3 731.212   1
   1   6  14 227.238 107.463   1
  -1  -6 -15 5222.33 332.095  15
  -1  -6 -15 5670.65 382.472   8
   1   6  15 5721.45 369.073   1
  -1  -6 -16 42716.2 821.709   8
   1   6  16 43507.4 840.940   1
  -1  -7  10 4244.50 320.638   7
   1   7 -10 4728.48 287.886   4
   1   7  -9 723.936 149.423   4
   1   7  -8 3920.60 358.439   4
   1   7  -7 68647.9 1570.63   4
   1   7  -6 37039.5 1201.71   4
   1   7  -5 47114.6 1390.09   4
   1   7  -4 28361.7 1080.19   4
   1   7  -3 75.3208 109.613   4
   1   7  -2 138638. 2307.49   4
  -1  -7   2 130659. 3001.12   7
  -1  -7   1 91878.1 2523.07   7
   1   7  -1 96499.2 1873.88   4
   1   7   0 1464.42 235.349   4
  -1  -7   0 296.693 202.047   7
  -1  -7  -1 18466.3 1104.52   7
  -1  -7  -2 10097.5 807.609   7
  -1  -7  -3 4597.08 545.295   7
  -1  -7  -4 16182.2 985.668   7
  -1  -7  -5 2786.45 434.076   7
  -1  -7  -6 81769.7 2132.70   7
  -1  -7  -7 2454.77 383.203   7
   1   7   8 45566.3 1311.58   1
  -1  -7  -8 46964.4 1518.83   7
   1   7   9 1346.63 237.852   1
   1   7  10 1798.21 257.991   1
   1   7  11 14425.6 653.028   1
   1   7  12 16517.9 642.637   1
   1   7  13 3807.79 281.895   1
  -1  -7 -13 3536.07 319.679  15
  -1  -7 -14 4498.31 289.326   8
   1   7  14 4422.82 263.739   1
  -1  -7 -14 4124.55 275.024  15
  -1  -8   6 56986.1 1149.26   7
  -1  -8   5 70339.0 1454.65   7
  -1  -8   4 390.737 152.692   7
  -1  -8   3 22752.4 967.972   7
  -1  -8   2 59413.7 1611.40   7
  -1  -8   1 11587.8 734.616   7
  -1  -8   0 20519.3 990.114   7
  -1  -8  -1 11328.5 740.071   7
  -1  -8  -2 2073.16 331.418   7
  -1  -8  -3 15487.2 855.505   7
  -1  -8  -4 100547. 2091.37   7
  -1  -8  -5 246130. 3154.46   7
  -1  -8  -5 244806. 2763.76  15
  -1  -8  -6 14449.1 704.944  15
  -1  -8  -6 19468.2 861.923   7
  -1  -8  -7 43403.9 1232.97  15
   1   8   7 42497.5 1061.07   1
  -1  -8  -8 21425.8 855.860  15
   1   8   8 21093.5 710.341   1
  -1  -8  -9 166.205 106.213  15
   1   8   9 205.719 93.0947   1
   1   8  10 55724.9 994.292   1
  -1  -8 -10 57366.7 1234.83  15
  -1  -8 -11 5905.47 353.783  15
   1   8  11 5998.38 290.455   1
  -1  -9  -2 190.672 72.0857   7
   1   9   3 964.643 116.328   1
   2  -7 -11 71464.9 1089.88  15
   2  -7 -10 24973.9 777.514  15
   2  -7  -9 8456.07 510.241  15
   2  -7  -8 1488.37 247.044  15
   2  -7  -7 5510.92 459.754  15
   2  -7  -6 43250.7 1266.41  15
   2  -7  -5 40539.6 1194.90  15
   2  -7  -5 34688.7 939.658   3
   2  -7  -4 1872.65 255.736  15
   2  -7  -4 2122.80 272.993   3
   2  -7  -3 6772.23 425.140  15
   2  -7  -3 6255.92 494.202   3
   2  -7  -2 41893.0 1335.70   3
   2  -7  -1 97781.4 2100.95   3
   2  -7   0 917.167 243.890   3
   2  -7   1 40690.5 1325.41   3
   2  -7   2 80307.8 1768.63   3
   2  -7   3 4529.73 398.569   3
   2  -7   4 39969.7 1004.15   3
   2  -7   5 54194.3 932.856   3
   2  -6 -13 2425.16 233.914  15
   2  -6 -13 2339.92 195.635   8
   2  -6 -12 42379.5 959.256   8
   2  -6 -12 44980.2 1199.47  15
   2  -6 -11 789.648 228.605  15
   2  -6 -11 3.16926 83.3609   8
   2  -6 -10 755.150 247.754  15
   2  -6 -10 982.875 194.710   8
   2  -6  -9 57435.1 1864.53  15
   2  -6  -8 3434.80 493.653  15
   2  -6  -7 854.672 293.727  15
   2  -6  -6 65355.6 2085.46  15
   2  -6  -6 52799.6 1425.44   3
   2  -6  -5 23028.0 1211.45  15
   2  -6  -5 22527.5 997.158   7
   2  -6  -4 400.027 214.166  15
   2  -6  -4 425.090 182.367   3
   2  -6  -4 915.086 235.471   7
   2  -6  -3 35290.0 1364.69  15
   2  -6  -3 35738.9 1323.95   7
   2  -6  -2 1344.85 251.886  15
   2  -6  -2 1394.73 288.597   7
   2  -6  -2 1119.66 294.177   3
   2  -6  -1 4201.99 475.647   7
   2  -6   0 62529.7 1784.82   7
   2  -6   1 186673. 3080.51   7
   2  -6   2 9307.03 694.678   7
   2  -6   2 9498.53 737.650   5
   2  -6   3 1552.05 314.967   5
   2  -6   3 1955.21 314.709   7
   2  -6   4 39064.4 1454.87   3
   2  -6   4 36635.1 1419.34   5
   2  -6   5 22749.3 1096.45   5
   2  -6   5 24941.1 1040.09   3
   2  -6   6 8751.11 663.444   5
   2  -6   6 8075.22 520.503   3
   2  -6   7 497.440 120.235   3
   2  -6   7 298.744 144.077   5
   2  -6   8 5664.47 452.594   5
   2  -6   9 1345.38 205.117   5
   2  -5 -15 620.889 149.471  13
   2  -5 -15 636.153 135.042   8
   2  -5 -14 246.892 98.4875  15
   2  -5 -14 135.644 104.408   8
   2  -5 -13 39507.7 1179.71   8
   2  -5 -13 38619.3 1199.86  15
   2  -5 -12 35668.9 1326.11  15
   2  -5 -12 35554.7 1232.83   8
   2  -5 -11 243.477 204.651  15
   2  -5 -10 57448.3 2026.69  15
   2  -5  -9 87586.5 2634.70  15
   2  -5  -8 11416.2 987.959  15
   2  -5  -7 155001. 3593.11  15
   2  -5  -6 121140. 3123.61  15
   2  -5  -6 119165. 2400.09   7
   2  -5  -5 5509.82 546.582   3
   2  -5  -5 4271.74 467.034   7
   2  -5  -4 64677.7 2120.18  15
   2  -5  -4 60962.6 1892.43   3
   2  -5  -3 33406.6 1435.39  15
   2  -5  -3 38284.6 1400.11   7
  -2   5   3 38163.5 1130.40  10
   2  -5  -3 34563.1 1419.08  18
   2  -5  -2 162.623 153.150  15
   2  -5  -2-76.3880 127.928   7
   2  -5  -2 189.093 164.648  18
  -2   5   1 46021.3 1314.50  10
   2  -5  -1 46633.7 1574.13   7
   2  -5  -1 46327.5 1519.20   5
   2  -5  -1 41027.1 1386.98  15
   2  -5  -1 43724.5 1542.71  18
   2  -5   0 19226.3 1019.09   5
  -2   5   0 19996.2 884.461  10
   2  -5   0 18870.5 868.862  15
   2  -5   0 18928.2 1020.50  18
   2  -5   0 22287.8 1114.09   7
   2  -5   1 69603.5 1902.23  16
   2  -5   1 66886.9 1915.22  18
   2  -5   1 73707.3 2072.99   7
   2  -5   1 69005.1 1958.12   5
   2  -5   2 24799.0 1217.93   5
   2  -5   2 23082.9 1119.07  18
   2  -5   3 104006. 2542.93   5
   2  -5   3 99646.7 2292.25  18
   2  -5   4 15469.2 1007.33   5
   2  -5   4 14070.0 848.211  18
   2  -5   5 1060.70 295.655   5
   2  -5   5 585.722 196.121  18
   2  -5   6 81884.9 2358.15   5
   2  -5   6 91100.7 1920.59  18
   2  -5   7 87599.8 2403.16   5
   2  -5   7 97088.6 1951.55   3
   2  -5   8 1745.24 369.949   5
   2  -5   9 45947.4 1574.21   5
   2  -5  10 66595.2 1732.52   5
  -2   5 -11 32532.8 864.131   4
   2  -5  11 37203.0 1139.57   5
   2  -5  12 24766.0 755.674   5
  -2   5 -12 21744.4 565.714   4
   2  -4 -17 23697.9 761.544  13
   2  -4 -17 24715.5 715.602   8
   2  -4 -16 1651.78 205.198   9
   2  -4 -16 2023.14 254.893   8
   2  -4 -15 5246.77 444.958   8
   2  -4 -14 4786.63 471.491   8
   2  -4 -13 8178.52 608.412  15
   2  -4 -13 7895.77 636.317   8
   2  -4 -12 552.633 221.581  15
   2  -4 -12 796.363 251.408   8
   2  -4 -11 74172.9 2254.96  15
   2  -4 -10 129978. 3127.31  15
   2  -4  -9 1534.85 408.666  15
   2  -4  -8 175.773 214.128  15
   2  -4  -7 162627. 3660.82  15
   2  -4  -6 93639.5 1945.78   3
   2  -4  -6 92177.8 2666.59  15
   2  -4  -6 104468. 2124.82   7
  -2   4   6 102328. 1733.02  10
  -2   4   5 28198.3 909.145  10
   2  -4  -5 25836.4 1080.75   3
   2  -4  -4 52928.4 1822.23  15
  -2   4   4 56535.0 1281.88  10
   2  -4  -4 57117.3 1592.09  18
   2  -4  -3 62763.4 1857.47  15
   2  -4  -3 65806.6 1713.89  18
  -2   4   3 66238.5 1379.33  10
  -2   4   2 13033.3 633.887  10
   2  -4  -2 12899.0 761.545  18
   2  -4  -2 12796.1 795.311  15
   2  -4  -2 13171.7 751.333  17
  -2   4   1 36768.2 1092.48  10
   2  -4  -1 41793.3 1349.21  16
   2  -4  -1 39389.9 1277.55  17
   2  -4  -1 39609.6 1328.99  18
   2  -4   0 93206.8 2065.97  18
   2  -4   0 99334.1 2000.30  17
   2  -4   1 45564.1 1445.08  18
   2  -4   1 44867.3 1330.00  17
   2  -4   2 58941.2 1829.92  16
   2  -4   2 76097.4 1963.21   5
   2  -4   2 87393.5 2109.77  19
   2  -4   2 69015.4 1836.29  18
   2  -4   2 77944.5 1704.42  17
   2  -4   3 6138.82 593.014   5
   2  -4   3 4365.49 514.970  16
   2  -4   3 5696.03 534.388  18
   2  -4   3 6412.09 572.588  19
   2  -4   4 1135.48 243.333  18
   2  -4   4 836.445 234.663   5
   2  -4   4 1553.76 307.188  19
   2  -4   4 798.304 237.762  16
   2  -4   4 1310.19 259.373   6
   2  -4   5 22656.2 1103.08   6
   2  -4   5 21494.9 1049.32  18
   2  -4   6 106346. 2497.56   6
   2  -4   6 107780. 2305.86  18
   2  -4   7 60380.1 1686.63  18
   2  -4   7 57477.0 1900.22   6
   2  -4   8 16958.8 1044.30   6
   2  -4   9 8568.49 747.326   6
   2  -4  10 3244.68 464.404   6
   2  -4  11 577.153 204.428   6
   2  -4  11 472.651 212.519   5
   2  -4  12 65999.6 1792.45   5
   2  -4  12 68057.4 1763.82   6
   2  -4  13 69038.9 1574.34   5
   2  -4  14 6030.46 372.673   5
   2  -3 -18 19813.4 679.884  13
   2  -3 -17 237.001 127.135   8
   2  -3 -17 269.338 123.006   9
   2  -3 -16 44521.4 1367.35   8
   2  -3 -16 43557.1 1304.88   9
   2  -3 -15 78548.8 1932.42   8
   2  -3 -14 93931.7 2213.30   8
   2  -3 -13 881.632 255.258   8
   2  -3 -12 2465.42 375.888  15
   2  -3 -12 2577.50 420.330   8
   2  -3 -11 13264.5 900.325  15
   2  -3 -10 2820.90 464.740  15
   2  -3 -10 3239.65 473.328  14
   2  -3  -9 217878. 3880.26  15
   2  -3  -9 209772. 3698.95  14
   2  -3  -8 97079.1 2605.22  15
   2  -3  -8 98062.0 2417.73  14
   2  -3  -7 91360.0 2204.16  14
  -2   3   7 106001. 1667.18  10
   2  -3  -6 4488.12 461.609  14
  -2   3   6 4182.69 327.654  10
   2  -3  -5 200001. 2848.71  14
  -2   3   5 200266. 2191.58  10
  -2   3   4 35356.5 892.390  10
   2  -3  -4 32985.4 1079.21  14
   2  -3  -3 148508. 2167.88  14
  -2   3   3 156205. 1858.94  10
  -2   3   2 188025. 2101.69  10
   2  -3  -2 196456. 2440.92  14
   2  -3  -1 73499.1 1640.90  16
   2  -3  -1 76972.7 1484.05  14
   2  -3   0 5217.96 405.150  14
   2  -3   0 4766.97 406.664  19
   2  -3   1 39804.5 1305.48  16
   2  -3   1 45925.0 1315.43  19
   2  -3   2 21691.3 938.861  19
   2  -3   2 16432.6 878.922  16
   2  -3   3 63836.4 1869.55  16
   2  -3   3 67225.3 1608.15  21
   2  -3   3 69479.9 1738.47  19
   2  -3   4 114138. 2245.37  19
   2  -3   4 108360. 2228.99  21
   2  -3   5 124722. 2546.18  21
   2  -3   5 131714. 2476.67  19
   2  -3   6 138633. 2597.28  19
   2  -3   6 139748. 2688.13   6
   2  -3   7 172600. 2904.17  18
   2  -3   7 168320. 3162.85   6
   2  -3   7 163598. 3157.08  21
   2  -3   8 252450. 3899.83  21
   2  -3   8 240932. 3416.36  18
   2  -3   9 61978.7 2059.09   6
   2  -3  10 131419. 3018.23   6
   2  -3  11 10638.1 858.339   6
   2  -3  12 23021.0 1205.66   6
   2  -3  13 20819.5 1076.61   6
   2  -3  14 67380.3 1707.81   6
   2  -3  15 50297.8 1252.73   6
   2  -3  15 48660.8 1190.51   5
   2  -2 -18 57940.3 1288.22  13
   2  -2 -18 59160.9 1292.70   9
   2  -2 -17 21583.8 933.337   9
   2  -2 -17 21141.7 946.887   8
   2  -2 -16 22924.6 1086.09   9
   2  -2 -16 22907.6 1093.26   8
   2  -2 -15 39187.1 1494.30   8
   2  -2 -14 23191.0 1161.04   8
   2  -2 -13 35685.9 1450.28   8
   2  -2 -12 46134.2 1643.95   8
   2  -2 -11 20792.7 1098.60   8
   2  -2 -11 22005.4 1282.76  20
   2  -2 -10 47835.2 1622.80   8
   2  -2 -10 44477.4 1778.52  20
  -2   2   9 104528. 1660.21  10
   2  -2  -9 98342.4 2525.64  20
   2  -2  -8 300284. 4212.24  20
  -2   2   8 315986. 2755.60  10
   2  -2  -7 465993. 4904.52  20
  -2   2   7 459924. 3169.75  10
  -2   2   6 538993. 3274.28  10
   2  -2  -6 539271. 4906.62  20
  -2   2   5 256479. 2139.93  10
   2  -2  -5 252094. 3108.96  14
   2  -2  -5 260483. 3161.51  20
  -2   2   4 17068.6 525.982  10
   2  -2  -4 18746.7 799.854  14
   2  -2  -3 163077. 2203.73  14
  -2   2   3 154227. 1522.38  10
   2  -2  -2 50666.7 1146.61  14
  -2   2   2 41935.5 820.239  10
   2  -2  -1 8216.82 500.878  16
   2  -2  -1 8987.81 466.533  14
   2  -2  -1 8368.46 395.582  19
   2  -2   0 111176. 1872.50  16
   2  -2   0 116855. 1662.66  14
   2  -2   0 106409. 1169.77  21
   2  -2   0 99983.0 1515.29  19
   2  -2   1 159673. 2299.35  16
   2  -2   1 158895. 1756.06  21
   2  -2   2 113924. 2099.55  16
   2  -2   2 114199. 1837.27  19
   2  -2   3 6100.91 468.894  21
   2  -2   3 8730.39 532.916  19
   2  -2   4 88760.8 1917.08  21
   2  -2   4 95357.9 1826.21  19
   2  -2   5 72741.8 1846.67  21
   2  -2   5 84487.8 1786.98  19
   2  -2   6 77967.5 2021.24  21
   2  -2   7 3150.96 435.545  21
   2  -2   8 1517.52 301.905   6
   2  -2   8 1290.01 297.708  21
   2  -2   8 1286.46 260.227  18
   2  -2   9 276919. 3699.87  18
   2  -2   9 276673. 4078.54  21
   2  -2   9 269650. 4022.42   6
   2  -2  10 63513.7 2037.53   6
   2  -2  10 63988.1 1951.33  21
   2  -2  10 65387.5 1822.06  18
   2  -2  11 1651.93 351.497   6
   2  -2  12 38002.4 1621.51   6
   2  -2  13 14605.2 985.822   6
   2  -2  14 136427. 2830.02   6
   2  -2  15 140932. 2572.03   6
   2  -2  16 11144.9 620.715   6
   2  -2  17 1981.57 179.424   5
   2  -2  17 2075.26 211.179   6
   2  -1 -19 2983.95 248.904   9
   2  -1 -18 31475.4 884.353  13
   2  -1 -18 31814.7 1061.21   9
   2  -1 -17 20639.2 999.524   9
   2  -1 -16 92032.7 2322.04   9
   2  -1 -16 89981.5 2250.44   8
   2  -1 -15 13651.6 941.548   8
   2  -1 -15 14334.1 977.435   9
   2  -1 -14 43668.9 1661.74   8
   2  -1 -13 153845. 3033.04   8
   2  -1 -12 73604.0 2033.93   8
   2  -1 -12 74091.8 2223.34  20
   2  -1 -11 27095.0 1305.12  20
   2  -1 -11 25337.3 1152.12   8
   2  -1 -10 11222.0 729.368   8
   2  -1 -10 10054.2 761.086  20
   2  -1  -9 11340.9 791.313  20
   2  -1  -8 11434.9 748.062  20
   2  -1  -7 644341. 5227.52  20
  -2   1   7 624562. 3450.13  10
  -2   1   6 48714.1 866.710  10
   2  -1  -6 51301.9 1377.16  20
   2  -1  -5 43522.1 1174.50  20
  -2   1   5 41670.2 746.727  10
   2  -1  -4 243.301 102.323  20
  -2   1   4 179.213 58.3010  10
  -2   1   3 9818.21 300.017  10
   2  -1  -3 10076.8 516.248  14
   2  -1  -3 9301.51 453.828  20
  -2   1   2 23401.5 431.533  10
   2  -1  -2 24205.2 669.002  20
   2  -1  -1 104467. 1453.82  14
   2  -1  -1 93916.5 904.112  21
   2  -1  -1 102062. 1552.52  16
   2  -1   0 509000. 3079.21  14
   2  -1   0 526415. 3448.63  16
   2  -1   1 213301. 1924.96  21
   2  -1   1 215870. 2002.99  14
   2  -1   2 48359.8 1187.95  16
   2  -1   2 46413.2 1036.69  21
   2  -1   3 370796. 3198.71  21
   2  -1   4 209315. 2661.87  21
   2  -1   5 160003. 2504.82  21
   2  -1   6 118448. 2294.44  21
   2  -1   7 203649. 3113.79  21
   2  -1   8 137855. 2665.54  21
   2  -1   9 230.624 164.488  21
   2  -1  10 29755.5 1300.82  21
   2  -1  10 29966.0 1257.12  18
   2  -1  11 182141. 3220.36  21
   2  -1  11 175224. 3299.91   6
   2  -1  12 8096.92 738.680   6
   2  -1  12 10463.7 739.283  18
   2  -1  13 46463.4 1741.54   6
   2  -1  14 1442.86 327.926   6
   2  -1  15 6148.23 601.458   6
   2  -1  16 41532.6 1358.75   6
   2  -1  17 47308.5 1231.76   6
   2  -1  18 8513.08 388.993   6
   2   0 -19 46013.1 975.279   9
   2   0 -18 2063.11 295.245   9
   2   0 -17 5717.05 565.900   9
   2   0 -16 36340.8 1513.83   9
   2   0 -15 45700.8 1791.77   9
   2   0 -14 9356.23 835.181   9
   2   0 -14 8328.90 771.448   8
   2   0 -13 24011.6 1302.75   9
   2   0 -13 21941.2 1207.75   8
   2   0 -12 4872.64 560.620  20
   2   0 -12 4392.98 527.186   8
   2   0 -11 79505.5 2176.70  20
   2   0 -11 75230.3 1989.21   8
   2   0 -10 113432. 2457.92  20
   2   0  -9 169000. 2834.22  20
   2   0  -8 45449.9 1393.61  20
   2   0  -7 224022. 2929.06  20
   2   0  -6 77341.2 1601.61  20
   2   0  -5 52769.5 1213.17  20
   2   0  -4 84672.1 1389.68  20
  -2   0   3 66989.5 750.288  22
   2   0  -3 65743.5 1110.44  20
   2   0  -2 154810. 1543.08  20
  -2   0   2 160430. 1092.98  22
   2   0  -1 253848. 2062.99  14
  -2   0   1 243969. 1365.32  22
   2   0   0 201653. 1605.10  21
   2   0   0 204178. 1750.28  14
  -2   0   0 204852. 1373.15  22
   2   0   0 207810. 1094.42  20
   2   0   1 1565.19 173.404  16
   2   0   1 1903.57 173.823  14
   2   0   2 292494. 2372.55  21
   2   0   2 295501. 2143.90  14
   2   0   3 106280. 1579.58  21
   2   0   4 973128. 5249.43  21
   2   0   5 3894.27 375.980  21
   2   0   6 127102. 2174.03  21
   2   0   7 340952. 3747.93  21
   2   0   8 311615. 3746.13  21
   2   0   9 25948.1 1120.56  21
   2   0  10 40563.8 1271.75  12
   2   0  10 39422.8 1384.15   1
   2   0  10 38461.9 1409.76  21
   2   0  11 385.604 149.169  12
   2   0  11 360.277 167.075  21
   2   0  12 15057.3 892.546  21
   2   0  12 15033.0 966.272   1
   2   0  13 74061.2 1987.04  18
   2   0  14 7644.76 691.774   6
   2   0  14 6954.31 585.946  18
   2   0  15 187.096 158.154   6
   2   0  16 98687.1 2174.88   6
   2   0  17 88045.2 1812.33   6
   2   0  18 23604.6 774.755   6
   2   1 -18 66538.4 1481.38   9
   2   1 -17 320.277 187.272   9
   2   1 -16 6079.52 633.975   9
   2   1 -15 73766.3 2304.47   9
   2   1 -14 161317. 3481.58   9
   2   1 -13 24619.4 1359.21   9
   2   1 -12 77955.4 2117.85  20
   2   1 -12 87225.8 2466.23   9
   2   1 -11 11927.6 867.035   9
   2   1 -11 10994.3 811.976   8
   2   1 -11 11900.4 827.046  20
   2   1 -10 15138.7 905.892   9
   2   1 -10 15983.0 899.865   8
   2   1 -10 15403.2 890.999  20
   2   1  -9 3739.80 426.758  20
   2   1  -8 284.756 145.794  20
  -2  -1   7 491.115 85.8113  19
   2   1  -7 1087.14 220.473  20
   2   1  -6 193769. 2463.43  20
  -2  -1   6 199721. 1525.15  19
  -2  -1   5 193876. 1385.30  19
   2   1  -5 195663. 2300.09  20
  -2  -1   4 26912.1 491.249  19
  -2  -1   4 29674.4 669.539  22
  -2  -1   3 54517.3 867.819  22
  -2  -1   3 54053.4 660.028  19
  -2  -1   2 211019. 1684.28  22
  -2  -1   1 355169. 2110.07  22
   2   1  -1 360189. 2206.03  14
  -2  -1   0 357380. 2198.60  22
   2   1   0 355801. 2034.92  14
   2   1   1 150036. 1288.08  14
   2   1   1 148372. 1507.07  21
   2   1   2 1596.85 142.050  14
   2   1   2 1473.21 120.833  10
   2   1   3 189375. 1582.41  10
   2   1   3 197109. 1567.41  16
   2   1   4 3790.32 255.613  10
   2   1   4 3566.23 302.396  21
   2   1   4 4144.73 245.920  16
   2   1   5 415366. 3408.11  21
   2   1   6 564601. 4237.23  21
   2   1   7 179444. 2510.80  21
   2   1   8 111591. 2086.82  21
   2   1   9 70822.4 1720.42  21
   2   1  10 437.876 179.781  21
   2   1  11 278.212 149.905  21
   2   1  11 294.821 147.563   1
   2   1  11 290.043 136.565  12
   2   1  12 83119.5 1933.09  12
   2   1  12 86239.2 2152.08   1
   2   1  13 36846.2 1296.71  12
   2   1  13 39992.8 1511.66   1
   2   1  14 10374.5 797.838   1
  -2  -1 -15 13469.1 741.082   9
   2   1  15 14855.5 941.135   1
   2   1  16 38940.7 1176.50  18
   2   1  16 37427.1 1333.65   6
   2   1  17 138.458 102.369   6
   2   1  18 85261.9 1507.30   6
   2   2 -18 22136.6 707.898   9
   2   2 -17 13112.4 721.071   9
   2   2 -16 369.235 212.745   9
   2   2 -15 28852.0 1388.85   9
   2   2 -14 42797.3 1775.41   9
   2   2 -13 1572.58 410.516   9
   2   2 -12 60257.6 2107.54   9
   2   2 -11 115.485 186.749   9
   2   2 -11 218.458 135.619  20
   2   2 -10 21714.8 1062.00  20
   2   2 -10 22812.2 1191.54   9
   2   2  -9 71553.7 1841.93  20
   2   2  -8 389008. 4083.40  20
  -2  -2   8 359040. 2811.08  19
   2   2  -7 520603. 4443.72  20
  -2  -2   7 494628. 3198.06  19
  -2  -2   6 68185.3 1142.54  19
  -2  -2   5 2949.96 275.779  22
  -2  -2   5 2425.02 214.654  19
  -2  -2   4 279101. 2444.05  22
  -2  -2   4 279351. 2203.44  19
  -2  -2   3 237844. 2178.49  22
  -2  -2   2 73383.9 1184.91  22
   2   2  -1 138978. 1149.43  14
  -2  -2   1 135586. 1594.72  22
   2   2   0 29132.4 552.775  10
   2   2   0 29239.8 472.127  14
   2   2   1 36903.7 527.416  14
  -2  -2  -1 38191.1 884.929  22
   2   2   2 115515. 1225.69  10
   2   2   2 111744. 1443.15  21
   2   2   3 59449.2 1077.84  21
   2   2   3 62340.8 985.126  10
   2   2   4 55191.6 1113.49  21
   2   2   4 57509.8 1030.94  10
   2   2   5 273290. 2422.97  10
   2   2   5 266211. 2620.77  21
   2   2   6 226483. 2586.45  21
   2   2   6 219344. 2342.33  10
   2   2   7 143842. 2164.88  21
   2   2   7 138758. 1984.31  10
   2   2   8 43162.6 1217.36  21
   2   2   8 41494.4 1156.24  10
   2   2   9 224500. 2877.68  21
   2   2  10 14539.8 764.169  21
   2   2  11 207691. 3070.35   1
   2   2  11 204313. 2916.06  21
   2   2  12 3983.54 459.537   1
   2   2  12 3752.35 410.347  12
   2   2  13 5607.15 505.751  12
   2   2  13 6456.58 596.043   1
   2   2  14 12357.5 732.562  12
   2   2  14 13576.0 874.805   1
   2   2  15 141754. 2752.42   1
   2   2  16 57083.8 1703.73   1
  -2  -2 -17 892.772 183.219   9
   2   2  17 1116.14 186.912  18
   2   2  17 632.617 171.946   6
   2   2  18 39765.6 992.881   6
   2   3 -17 17829.8 652.723   9
   2   3 -16 61641.1 1540.89   9
   2   3 -15 11371.7 791.049   9
   2   3 -14 5303.62 604.699   9
   2   3 -13 89899.6 2539.16   9
   2   3 -13 94735.0 2203.70   4
   2   3 -12 156505. 3410.42   9
  -2  -3  12 155190. 2837.67   6
  -2  -3  11 17161.3 974.152   6
   2   3 -11 18478.4 1162.78   9
   2   3 -10 17279.2 1089.56   9
   2   3 -10 18323.2 997.953  20
  -2  -3  10 17857.3 974.542   6
   2   3  -9 92373.3 2366.05   9
  -2  -3   9 94423.8 2183.72   6
   2   3  -9 91182.6 2195.99  20
  -2  -3   9 89406.1 1658.64  19
   2   3  -8 134194. 2675.26   9
   2   3  -8 129266. 2486.24  20
  -2  -3   8 126661. 1977.19  19
  -2  -3   7 11268.2 575.156  19
  -2  -3   6 87060.7 1570.45  19
  -2  -3   5 119585. 1986.73  22
  -2  -3   5 117130. 1788.30  19
  -2  -3   4 147560. 2067.04  22
  -2  -3   4 139806. 1924.17  19
  -2  -3   3 182479. 2213.48  22
  -2  -3   3 189082. 2192.93  19
  -2  -3   2 179136. 2154.51  22
  -2  -3   1 1541.10 224.069  22
  -2  -3   0 745.166 172.549  22
   2   3   1 189999. 1846.99  10
  -2  -3  -1 194411. 2202.55  22
   2   3   2 51655.2 973.191  10
  -2  -3  -2 50028.9 1178.18  22
   2   3   3 57879.3 1077.20  10
  -2  -3  -3 63392.5 1356.08  22
  -2  -3  -4 274379. 2959.05  22
   2   3   4 263482. 2417.17  10
  -2  -3  -5 188757. 2571.51  22
   2   3   5 182000. 2110.68  10
   2   3   6 82915.2 1441.60  21
   2   3   6 81099.6 1506.18  10
   2   3   7 240539. 2540.34  21
   2   3   7 237217. 2678.65  10
   2   3   8 60841.0 1443.06  10
   2   3   8 56910.2 1295.24  21
   2   3   9 96396.2 1745.87  21
   2   3   9 93921.1 1878.75  10
   2   3  10 228828. 2999.14   1
   2   3  10 226162. 2711.63  21
   2   3  10 223164. 2751.34  12
   2   3  11 361511. 3990.96   1
   2   3  11 357422. 3704.52  12
   2   3  12 7966.11 571.745  12
   2   3  12 7254.28 588.584   1
   2   3  13 20210.2 1019.08   1
   2   3  13 18261.2 865.055  12
   2   3  14 39332.3 1415.39   1
   2   3  14 35735.4 1173.72  12
   2   3  15 8153.54 645.971   1
   2   3  15 6865.57 485.112  12
   2   3  16 1950.94 324.886   1
   2   3  17 43206.3 1287.55   1
  -2  -3 -18 198.138 69.3875   9
   2   3  18 93.7881 63.1123   6
   2   4 -15 11682.3 638.828   9
   2   4 -15 11921.9 567.738  11
   2   4 -14 22268.0 1023.36   9
   2   4 -14 21129.9 848.777   4
   2   4 -13 33848.9 1267.63   4
   2   4 -13 34086.0 1387.48   9
   2   4 -12 18785.4 1101.62   9
   2   4 -12 18596.8 1044.35   4
   2   4 -11 304.805 243.678   9
   2   4 -11 708.619 240.479   4
   2   4 -10 28962.7 1410.31   9
   2   4  -9 12608.2 919.449   9
   2   4  -8 922.475 265.883   9
  -2  -4   8 823.687 190.686  19
   2   4  -7 27191.9 1217.64   9
  -2  -4   7 26280.7 1011.90  19
   2   4  -6 60858.5 1715.33   9
  -2  -4   6 60457.9 1525.40  19
  -2  -4   5 70930.0 1641.53  19
  -2  -4   4 39921.2 1248.65  22
  -2  -4   4 37164.6 1177.31  19
  -2  -4   3 13669.2 700.603  22
  -2  -4   3 13979.0 717.655  19
  -2  -4   2 87239.9 1714.60  22
  -2  -4   1 4067.39 380.722  22
  -2  -4   0 281526. 3066.66  22
  -2  -4  -1 22300.7 878.892  22
   2   4   1 28780.6 875.532  10
   2   4   2 155883. 2013.72  10
  -2  -4  -2 163574. 2324.86  22
   2   4   3 295569. 2818.94  10
  -2  -4  -3 292690. 3169.68  22
   2   4   4 162996. 2166.02  10
  -2  -4  -4 167456. 2469.58  22
  -2  -4  -5 14530.5 782.395  22
   2   4   5 13589.0 645.629  10
  -2  -4  -6 42359.0 1363.17  22
   2   4   6 43952.4 1193.83  10
  -2  -4  -7 35420.9 1291.45  22
   2   4   7 37623.3 1157.42  10
  -2  -4  -8 103050. 2265.57  22
   2   4   8 104921. 1902.63   1
   2   4   8 101781. 1959.34  10
   2   4   9 20165.9 902.948  10
   2   4   9 18851.7 849.554   1
   2   4   9 19898.4 793.118  12
  -2  -4  -9 19088.8 1009.63  22
  -2  -4 -10 6602.39 606.317  22
   2   4  10 5969.99 515.035   1
   2   4  10 6099.86 503.003  10
   2   4  10 6437.03 472.466  12
   2   4  11 13786.1 788.086   1
   2   4  11 11858.4 722.022  10
   2   4  11 12509.7 676.326  12
   2   4  12 3542.21 365.059  12
   2   4  12 4677.02 475.778   1
   2   4  13 325569. 3923.76   1
   2   4  13 309532. 3260.08  12
   2   4  14 356.034 182.198   1
  -2  -4 -14 317.461 147.602   8
   2   4  14 284.154 130.936  12
   2   4  15 26353.1 1068.17   1
  -2  -4 -15 27201.1 879.004   8
   2   4  16 1289.43 248.015   1
   2   4  17 60964.9 1355.97   1
  -2  -4 -18 27476.2 672.557   9
   2   4  18 28374.5 774.223   1
   2   5 -14 53493.5 1000.73   4
   2   5 -13 30481.6 1018.59   4
   2   5 -12 14350.5 843.328   9
   2   5 -12 14527.2 828.001   4
   2   5 -12 14771.3 707.663  11
   2   5 -11 70582.5 1989.12   4
   2   5 -11 70164.6 2002.67   9
   2   5 -11 72751.6 1753.19  11
   2   5 -10 238704. 3823.67   9
   2   5 -10 239558. 3417.70  11
   2   5  -9 15750.6 1037.02   4
   2   5  -9 13792.3 946.940   9
   2   5  -9 14861.3 884.445  11
   2   5  -8 25416.8 1315.52   4
   2   5  -8 23395.5 1105.65  11
   2   5  -8 23822.9 1236.77   9
   2   5  -7 4644.11 548.132   9
   2   5  -7 5256.71 522.423  11
   2   5  -7 4441.56 567.052   4
  -2  -5   6 37611.3 1373.68   5
   2   5  -6 36243.9 1504.08   4
   2   5  -6 34925.0 1426.41   9
   2   5  -6 37354.2 1341.07  11
  -2  -5   5 5504.35 537.313   5
   2   5  -5 4657.80 516.869   9
   2   5  -5 4813.95 531.105   4
  -2  -5   5 4682.40 483.184  19
   2   5  -5 5224.63 484.810  11
  -2  -5   4 8397.05 653.457   5
   2   5  -4 6741.63 607.158   4
  -2  -5   4 6378.31 564.687  19
   2   5  -4 6884.85 526.382  11
   2   5  -3 22208.7 1030.51   4
  -2  -5   3 24129.0 1057.79  22
  -2  -5   3 24883.8 1082.72   5
  -2  -5   3 22997.1 1071.38  19
   2   5  -3 26326.0 984.321  11
  -2  -5   2 1842.62 326.468   5
  -2  -5   2 1548.12 278.597  22
   2   5  -2 2165.03 318.064   4
  -2  -5   1 265899. 3331.06  22
   2   5  -1 272464. 3258.06   4
  -2  -5   1 263678. 3580.24  19
   2   5   0 369258. 3750.94  10
  -2  -5   0 356224. 3835.56  22
  -2  -5  -1 18083.2 866.769  22
   2   5   1 17627.1 809.263  10
   2   5   2 1083.95 216.473  10
  -2  -5  -2 1224.23 240.991  22
  -2  -5  -3 428506. 4315.26  22
   2   5   3 424946. 3897.99  10
   2   5   4 39787.5 1206.06  10
  -2  -5  -4 40071.7 1345.25  22
  -2  -5  -5 3003.13 364.504   7
  -2  -5  -5 2040.30 306.806  22
  -2  -5  -6 9698.54 654.393   7
  -2  -5  -6 8329.98 614.406  22
   2   5   6 9487.62 615.209  10
  -2  -5  -7 12253.9 755.910  22
  -2  -5  -7 11752.4 725.593   7
   2   5   7 12112.7 709.748  10
   2   5   7 13342.9 626.701  12
  -2  -5  -8 2164.10 332.284   7
   2   5   8 2707.36 352.907  10
   2   5   9 129588. 2311.44   1
   2   5   9 130635. 2019.48  12
   2   5   9 125896. 2325.99  10
   2   5  10 170402. 2305.08  12
   2   5  10 177717. 2806.21   1
   2   5  11 7685.11 493.943  12
   2   5  11 8487.82 627.709   1
   2   5  12 6904.54 458.695  12
   2   5  12 5447.94 507.892   1
   2   5  13 47879.6 1131.25  12
   2   5  13 51570.2 1484.09   1
   2   5  14 36034.2 1204.37   1
   2   5  14 36877.6 890.895  12
  -2  -5 -15 4293.16 348.037   8
   2   5  15 3896.61 390.254   1
   2   5  16 117127. 1822.83   1
  -2  -5 -16 123860. 1429.88   8
   2   5  17 12095.6 504.808   1
   2   6 -12 6540.29 416.411   4
   2   6 -11 34258.5 1129.14   4
   2   6 -10 24134.3 1070.33   4
   2   6  -9 4466.30 526.062   4
   2   6  -8 45909.5 1665.31   4
   2   6  -7 7476.33 692.356   4
   2   6  -6 1550.39 354.313   4
   2   6  -5 71610.0 2094.68   4
   2   6  -4 200092. 3399.73   4
   2   6  -3 13934.4 835.036  10
   2   6  -3 13048.4 847.657   4
   2   6  -2 245775. 3530.54   4
   2   6  -2 259596. 3573.49  10
   2   6  -1 106442. 2239.57   4
   2   6  -1 102311. 2204.30  10
  -2  -6   0 1173.58 247.515  22
   2   6   0 1217.26 267.319  10
   2   6   0 827.124 219.803   4
   2   6   1 24575.9 1045.91  10
   2   6   1 27430.1 1075.77   4
  -2  -6  -1 26552.8 1264.37   7
   2   6   1 28262.2 937.826  11
   2   6   2 319629. 3735.95  10
   2   6   2 314841. 3516.13   4
  -2  -6  -2 315732. 4233.58   7
   2   6   3 79760.1 1698.33   4
  -2  -6  -3 76905.6 2062.03   7
   2   6   4 11575.5 717.168  10
  -2  -6  -4 10823.6 772.084   7
   2   6   5 15331.0 704.447   2
  -2  -6  -5 13945.0 869.903   7
   2   6   5 15686.4 833.795  10
  -2  -6  -6 102692. 2320.88   7
   2   6   6 102599. 2120.84  10
   2   6   7 11316.0 567.167  12
  -2  -6  -7 9919.46 712.322   7
  -2  -6  -8 4342.19 479.788   7
   2   6   9 11960.8 714.258   1
   2   6  10 41004.5 1328.95   1
   2   6  11 6130.98 515.508   1
   2   6  12 19844.0 877.124   1
   2   6  13 7142.09 504.363   1
   2   6  14 542.362 167.535   1
  -2  -6 -15 303349. 2370.18   8
   2   6  15 312598. 2754.61   1
   2   6  16 5463.12 315.380   1
   2   7 -10 10293.3 469.269   4
   2   7  -9 2140.32 265.104   4
   2   7  -8 96754.9 1875.37   4
   2   7  -7 4211.05 434.856   4
   2   7  -6 20181.3 968.778   4
   2   7  -5 751.046 241.096   4
   2   7  -4 30685.4 1222.09   4
   2   7  -3 6308.56 560.847   4
   2   7  -2 50529.8 1532.22   4
  -2  -7   2 46913.5 1758.29   7
   2   7  -1 19198.4 936.372   4
  -2  -7   1 18684.4 1114.27   7
  -2  -7   0-43.7177 253.821   7
   2   7   0 117.581 109.287   4
  -2  -7  -1 119973. 2723.23   7
   2   7   1 122172. 2197.35   4
  -2  -7  -2 450861. 5174.35   7
   2   7   3 148415. 2206.43   2
  -2  -7  -3 140116. 2851.31   7
   2   7   4 42068.5 1129.85   2
  -2  -7  -4 40271.8 1508.42   7
  -2  -7  -5 37261.3 1414.86   7
  -2  -7  -6 231.524 160.593   7
  -2  -7  -7 15580.2 873.494   7
   2   7   8 11417.8 675.611   1
   2   7   9 55.6975 108.322   1
   2   7  10 3724.25 376.733   1
   2   7  11 31376.5 996.801   1
   2   7  12 47609.2 1138.39   1
   2   7  13 1907.75 217.854   1
   2   7  14 4533.09 284.539   1
  -2  -7 -14 4658.93 264.714   8
  -2  -8   6 47509.2 1074.43   7
   2   8  -6 52369.9 977.682   4
   2   8  -5 37646.7 920.831   4
  -2  -8   5 35199.6 1039.10   7
   2   8  -4 11454.3 541.338   4
  -2  -8   4 11223.1 632.983   7
   2   8  -3 1498.73 216.131   4
  -2  -8   3 1513.56 266.212   7
  -2  -8   2 25629.4 1047.52   7
  -2  -8   1 7560.34 586.092   7
   2   8   0 21042.8 725.245   2
  -2  -8   0 21812.9 998.860   7
   2   8   1 3071.07 273.114   2
  -2  -8  -1 3140.23 390.154   7
  -2  -8  -2 5421.47 503.677   7
  -2  -8  -3 6816.84 567.902   7
  -2  -8  -4 165463. 2631.06   7
  -2  -8  -5 33367.1 1142.47   7
  -2  -8  -6 1013.59 219.695   7
   2   8   7 44899.2 1135.94   1
   2   8   8 64453.8 1300.98   1
   2   8   9 682.792 152.402   1
   2   8  10 4641.16 311.857   1
  -2  -8 -11 371.732 100.179  15
   2   8  11 243.577 84.5906   1
  -2  -8 -12 142.454 60.6378  15
  -2  -9  -1 22830.8 615.685   7
  -2  -9  -2 7999.97 375.053   7
   2   9   3 12037.6 434.734   1
   2   9   4 10653.9 400.262   1
   2   9   5 1917.73 168.921   1
   3  -7  -4 276.183 69.3557   3
   3  -7  -3 9031.94 419.183   3
   3  -7  -2 79517.4 1327.41   3
   3  -7  -1 55657.1 1130.36   3
   3  -7   0 65163.0 1207.76   3
   3  -7   1 23720.5 684.299   3
   3  -6 -11 1235.53 185.789  15
   3  -6 -10 105336. 1862.45  15
   3  -6  -9 39400.9 1273.96  15
   3  -6  -8 23763.2 1058.23  15
   3  -6  -7 826.127 222.304  15
   3  -6  -6 2359.77 365.747  15
   3  -6  -6 1742.63 224.081   3
   3  -6  -5 3630.39 439.942  15
   3  -6  -5 3161.98 348.479   3
   3  -6  -4 1742.95 289.372   3
   3  -6  -4 2481.07 356.280  15
   3  -6  -3 8955.72 612.044  15
   3  -6  -3 7521.13 624.248   3
   3  -6  -2 6284.86 607.255   3
   3  -6  -2 5621.63 458.397  15
   3  -6  -1 122.238 168.169   3
   3  -6   0 117848. 2653.19   3
   3  -6   1 12931.3 870.202   3
   3  -6   2 9005.09 689.736   3
   3  -6   3 51651.5 1486.66   3
   3  -6   4 49187.3 1287.79   3
   3  -6   5 41683.5 978.854   3
   3  -6   6 481.907 83.1691   3
   3  -5 -13 38691.3 895.636  15
   3  -5 -12 65046.5 1481.88  15
   3  -5 -11 55878.7 1611.14  15
   3  -5 -10 89585.5 2286.09  15
   3  -5  -9 15032.6 1030.84  15
   3  -5  -8 9867.49 888.071  15
   3  -5  -7 4647.78 406.302   3
   3  -5  -7 6015.26 713.730  15
   3  -5  -6 9422.62 881.506  15
   3  -5  -6 5981.79 530.385   3
   3  -5  -5 21642.4 1275.41  15
   3  -5  -5 16726.2 953.969   3
   3  -5  -4 22682.3 1194.27   3
   3  -5  -4 27469.5 1379.29  15
   3  -5  -3 210879. 3613.87  15
   3  -5  -3 202781. 3816.24   3
   3  -5  -2 17718.9 984.445  15
   3  -5  -2 17052.6 1164.79   3
   3  -5  -2 18815.6 1049.92  18
   3  -5  -1 14230.5 830.536  15
   3  -5  -1 14271.1 918.774  18
   3  -5  -1 14231.0 1095.19   3
   3  -5   0 11968.4 1016.88   3
   3  -5   0 11197.8 677.432  15
   3  -5   0 11260.2 817.161  18
   3  -5   1 142005. 2603.49   5
   3  -5   1 153376. 3536.76   3
   3  -5   2 60934.9 1756.23   5
   3  -5   2 61983.1 1874.40  18
   3  -5   3 54398.8 1680.90   5
   3  -5   3 50436.3 1663.00  18
   3  -5   4 13132.8 849.026   5
   3  -5   4 14071.8 845.102  18
   3  -5   5 14871.7 902.350   5
   3  -5   5 16232.6 864.189  18
   3  -5   5 16731.4 902.506   3
   3  -5   6 46640.6 1344.15  18
   3  -5   6 44443.0 1268.48   3
   3  -5   7 2123.19 331.479   5
   3  -5   7 2827.16 292.318  18
   3  -5   7 2034.89 221.143   3
   3  -5   8 3085.78 369.720   5
   3  -5   9 9913.36 581.735   5
   3  -5  10 96931.9 1519.03   5
   3  -4 -15 2365.43 237.228   8
   3  -4 -15 2199.45 271.676  13
   3  -4 -14 13276.2 633.530   8
   3  -4 -14 12172.7 727.123  13
   3  -4 -13 19163.0 785.070  15
   3  -4 -13 18400.2 827.455   8
   3  -4 -13 18564.9 1006.03  13
   3  -4 -12 10094.6 692.581  15
   3  -4 -12 9862.79 643.071   8
   3  -4 -11 92801.0 2374.12  15
   3  -4 -11 90856.7 2075.68   8
   3  -4 -10 16090.1 1092.15  15
   3  -4 -10 19526.2 990.257   8
   3  -4  -9 27364.3 1511.65  15
   3  -4  -8 75586.3 2564.47  15
   3  -4  -7 45161.4 1989.09  15
   3  -4  -7 36601.4 1211.01   3
   3  -4  -6 3287.22 553.105  15
   3  -4  -6 2349.96 361.324   3
   3  -4  -5 985.671 263.105   3
   3  -4  -5 2151.47 443.577  15
   3  -4  -4 3322.67 525.878  15
   3  -4  -4 2956.34 419.253  18
   3  -4  -4 2416.45 420.735   3
   3  -4  -3 14329.0 985.492  15
   3  -4  -3 14101.5 1022.33   3
   3  -4  -3 15942.4 929.269  18
   3  -4  -2 7405.48 660.927  15
   3  -4  -2 8244.66 673.754  18
   3  -4  -2 7429.62 769.795   3
   3  -4  -2 8069.69 664.727  17
   3  -4  -1 29001.9 1213.98  17
   3  -4  -1 29867.4 1240.77  15
   3  -4  -1 29631.9 1274.72  18
   3  -4  -1 30391.9 1598.21   3
   3  -4   0 6604.00 596.775  17
   3  -4   0 6817.61 779.469   3
   3  -4   0 6258.85 536.141  15
   3  -4   0 6789.33 627.019  18
   3  -4   1-65.3281 122.860  17
   3  -4   1 53.5899 178.153   3
   3  -4   1 215.453 109.851  15
   3  -4   1 279.412 149.979  18
   3  -4   2 295902. 3772.85  17
   3  -4   2 313927. 5083.09   3
   3  -4   2 319389. 3988.58   5
   3  -4   2 297984. 4197.19  18
   3  -4   3 266722. 3897.89   5
   3  -4   3 263195. 4012.77  18
   3  -4   4 26673.6 1278.58   5
   3  -4   4 25969.0 1257.15  18
   3  -4   5 112910. 2697.87   5
   3  -4   5 113229. 2579.29  18
   3  -4   6 21842.9 1190.89   5
   3  -4   6 20592.2 1076.16  18
   3  -4   6 23753.3 1073.41   3
   3  -4   7 31994.0 1089.16   3
   3  -4   7 29727.1 1234.52  18
   3  -4   8 17311.7 876.797  18
   3  -4   8 15605.2 993.288   5
   3  -4   9 201.045 171.614   5
   3  -4   9 102.908 69.9040  18
   3  -4  10 4509.79 493.323   5
   3  -4  11 28598.4 1085.12   5
   3  -4  12 81349.9 1561.17   5
   3  -4  13 245.022 77.4300   5
   3  -3 -17 1514.65 194.529  13
   3  -3 -16 4934.42 444.626  13
   3  -3 -15 10871.0 657.940   8
   3  -3 -15 11577.6 791.963  13
   3  -3 -14 445.456 180.216   8
   3  -3 -13 17772.7 950.712   8
   3  -3 -12 10200.5 702.435  15
   3  -3 -12 9784.56 740.589   8
   3  -3 -11 208445. 3552.02  15
   3  -3 -11 210888. 3508.45   8
   3  -3 -10 495141. 5967.55  15
   3  -3 -10 516047. 5461.78   8
   3  -3  -9 27861.5 1475.34  15
   3  -3  -9 30252.2 1480.71  14
   3  -3  -9 31554.3 1376.25   8
   3  -3  -8 68839.6 2349.86  15
   3  -3  -8 67833.8 2131.64  14
   3  -3  -7 53360.5 2074.86  15
   3  -3  -7 53594.8 1808.66  14
   3  -3  -7 52647.3 1412.61   3
   3  -3  -6 594.605 265.940  15
   3  -3  -6 860.217 242.616  14
   3  -3  -5 174538. 2655.93  17
   3  -3  -5 175641. 2999.15  14
   3  -3  -5 172456. 2903.39   3
   3  -3  -4-42.3846 113.721   3
   3  -3  -4 510.193 181.978  17
   3  -3  -4 610.311 226.820  15
   3  -3  -4 159.320 135.570  14
   3  -3  -4 125.791 93.8493  18
   3  -3  -3 68.7566 120.311   3
   3  -3  -3 186.896 130.300  15
   3  -3  -3 551.480 177.284  14
   3  -3  -3 128.596 133.987  17
   3  -3  -2 58785.7 1572.11  17
   3  -3  -2 58222.8 1714.44  15
   3  -3  -2 64859.1 1666.17  14
   3  -3  -2 56611.8 1886.53   3
   3  -3  -2 68487.7 1716.22  18
   3  -3  -1 175595. 2737.97  17
   3  -3  -1 182477. 2867.22  15
   3  -3  -1 205232. 2982.27  14
   3  -3  -1 197325. 2968.36  18
   3  -3  -1 176221. 3417.11   3
   3  -3   0 777.281 186.896  17
   3  -3   0 362.955 187.882   3
   3  -3   0 418.475 128.698  15
   3  -3   0 541.062 181.942  18
   3  -3   1 5979.11 645.400   3
   3  -3   1 6769.21 539.345  17
   3  -3   1 6259.97 472.839  15
   3  -3   1 6850.05 585.304  18
   3  -3   1 6547.82 628.694  16
   3  -3   2 64249.3 2090.33   3
   3  -3   2 69951.4 1707.91  17
   3  -3   2 63214.4 1980.58  16
   3  -3   2 66895.4 1895.73  18
   3  -3   3 111372. 2130.39  17
   3  -3   3 104025. 2437.68  18
   3  -3   3 104413. 2610.81   3
   3  -3   4 198790. 2791.14  17
   3  -3   4 171175. 3626.93  16
   3  -3   4 177386. 3236.25  18
   3  -3   4 192344. 3392.54   3
   3  -3   5 29740.4 1347.06  18
   3  -3   5 32318.2 1319.65   3
   3  -3   6 162915. 3723.18  16
   3  -3   6 176721. 3290.22  18
   3  -3   7 82184.5 2139.62   6
   3  -3   7 75139.4 2161.17  18
   3  -3   8 85625.3 2253.97  18
   3  -3   8 87392.5 2278.92   6
   3  -3   9 37071.1 1489.38   6
   3  -3   9 38807.3 1455.02  18
   3  -3  10 28243.0 1283.39   6
   3  -3  10 28240.4 1150.71  18
   3  -3  11 22444.8 1089.61   6
   3  -3  11 25663.6 947.687  18
   3  -3  12 106776. 2177.39   6
   3  -3  13 7502.44 516.652   6
   3  -3  14 20020.2 749.087   5
   3  -2 -17 389.190 150.937  13
   3  -2 -16 1844.57 263.929   9
   3  -2 -16 1636.76 327.781  13
   3  -2 -15 21725.2 973.400   9
   3  -2 -15 23130.4 1088.12   8
   3  -2 -14 3728.86 451.970   9
   3  -2 -14 4298.85 513.627   8
   3  -2 -13 31268.4 1351.14   9
   3  -2 -13 29451.0 1329.25   8
   3  -2 -12 22835.4 1193.64   8
   3  -2 -11 31076.0 1381.05   8
   3  -2 -10 55065.0 1774.74  15
   3  -2 -10 55458.0 1799.13   8
   3  -2  -9 213970. 3643.93  15
   3  -2  -9 220313. 3870.43  20
   3  -2  -8 20409.3 1137.58  15
   3  -2  -8 20462.1 1257.12  14
   3  -2  -8 21678.9 1184.23  20
   3  -2  -7 161179. 3144.32  15
   3  -2  -7 153077. 3194.30  14
   3  -2  -6 20514.8 1094.69  14
   3  -2  -5 142622. 2730.60  14
   3  -2  -4 2183.22 323.968  14
   3  -2  -3 9072.33 611.894  14
   3  -2  -2 25520.9 985.737  14
   3  -2  -1 15730.3 765.772  14
   3  -2   0 191727. 3000.23  16
   3  -2   0 195985. 2656.70  14
   3  -2   1 124128. 2495.17  16
   3  -2   1 130856. 2221.54  14
   3  -2   2 3086.05 410.872  16
   3  -2   3 35896.3 1475.97  16
   3  -2   3 38593.2 1207.45  21
   3  -2   4 194262. 3586.38  16
   3  -2   4 196527. 3047.08  21
   3  -2   5 130970. 3003.52  16
   3  -2   5 132773. 2756.03  18
   3  -2   6 3533.64 475.589  18
   3  -2   6 2859.97 473.986  16
   3  -2   6 3364.43 481.401  21
   3  -2   7 18623.0 1141.87  21
   3  -2   7 22694.2 1089.80   6
   3  -2   7 20439.8 1303.16  16
   3  -2   7 20609.0 1159.68  18
   3  -2   8 50401.8 2045.72  16
   3  -2   8 52618.8 1867.82  18
   3  -2   8 56178.9 1977.96  21
   3  -2   8 57414.1 1826.26   6
   3  -2   9 10864.3 829.676   6
   3  -2   9 10018.7 808.540  18
   3  -2  10 13834.8 945.229   6
   3  -2  10 14584.5 941.508  18
   3  -2  11 47617.4 1732.18   6
   3  -2  11 40370.4 1486.22  18
   3  -2  12 423.984 199.339   6
   3  -2  12 357.790 161.595  18
   3  -2  13 316.023 181.336   6
   3  -2  14 88722.4 1938.81   6
   3  -2  15 64530.3 1392.82   6
   3  -2  16 50577.6 959.495   5
   3  -2  16 50582.0 929.977   6
   3  -1 -17 409.889 145.180   9
   3  -1 -17 958.009 207.310  13
   3  -1 -16 56786.0 1599.00   9
   3  -1 -16 59353.0 1742.83  13
   3  -1 -15 13915.5 885.447   9
   3  -1 -14 2056.86 382.105   9
   3  -1 -14 2065.50 405.523   8
   3  -1 -13 162067. 3322.31   9
   3  -1 -13 169910. 3424.32   8
   3  -1 -12 154789. 3223.49   9
   3  -1 -12 150715. 3134.53   8
   3  -1 -11 602.091 224.931   8
   3  -1 -10 9643.18 738.665   8
   3  -1 -10 9755.99 830.279  20
   3  -1  -9 96633.3 2186.80   8
   3  -1  -9 89899.3 2391.65  20
   3  -1  -8 137605. 2799.09  20
   3  -1  -7 82512.2 2039.39  20
   3  -1  -6 57083.4 1819.12  14
   3  -1  -6 59521.8 1655.01  20
   3  -1  -5 37998.7 1389.65  14
   3  -1  -5 42789.3 1301.66  20
   3  -1  -4 110777. 2175.53  14
   3  -1  -4 127679. 2051.65  20
   3  -1  -3 439803. 4125.38  14
   3  -1  -3 466531. 3439.59  20
   3  -1  -2 200460. 2615.56  14
   3  -1  -1 19895.0 793.698  14
   3  -1   0 123995. 1946.81  14
   3  -1   0 117591. 1444.37  21
   3  -1   1 449890. 4306.82  16
   3  -1   1 456651. 3290.35  21
   3  -1   2 69144.0 1698.54  16
   3  -1   2 71856.7 1525.71  14
   3  -1   3 1359.39 269.698  16
   3  -1   3 1498.22 246.136  21
   3  -1   4 166918. 2903.12  16
   3  -1   4 172623. 2747.11  21
   3  -1   5 262192. 3847.34  16
   3  -1   5 269098. 3736.64  21
   3  -1   6 33823.5 1415.05  21
   3  -1   6 36301.5 1522.71  16
   3  -1   7 126649. 2958.21  16
   3  -1   7 124343. 2836.86  21
   3  -1   7 132430. 2823.82  18
   3  -1   8 27698.1 1410.76  16
   3  -1   8 28504.4 1402.07  21
   3  -1   8 28980.0 1383.35  18
   3  -1   9 8534.38 780.607  16
   3  -1   9 9781.47 833.280  21
   3  -1   9 9792.24 821.531  18
   3  -1  10 89693.1 2429.15  16
   3  -1  10 84058.6 2355.48  18
   3  -1  10 85967.8 2306.61   6
   3  -1  11 45828.5 1700.94   6
   3  -1  11 40218.4 1588.39  18
   3  -1  12 26743.7 1305.01   6
   3  -1  12 23163.5 1150.68  18
   3  -1  13 2860.70 429.726   6
   3  -1  13 196.765 134.078  18
   3  -1  14 55062.8 1704.56   6
   3  -1  14 56191.0 1419.97  18
   3  -1  15 6009.77 518.720   6
   3  -1  16 52542.6 1294.29   6
   3  -1  17 3917.64 272.023   6
   3   0 -18 719.049 142.603   9
   3   0 -17 64579.3 1545.53   9
   3   0 -17 70538.3 1304.87  13
   3   0 -16 81587.2 2043.58   9
   3   0 -16 83874.6 1916.06  13
   3   0 -15 41606.4 1625.07   9
   3   0 -15 41363.1 1571.77  13
   3   0 -14 38950.9 1653.31   9
   3   0 -14 36766.8 1628.70  13
   3   0 -13 14232.3 1022.46   9
   3   0 -13 14585.4 1022.52   8
   3   0 -12 8535.96 795.737   9
   3   0 -12 9332.50 818.301   8
   3   0 -11 36502.2 1559.14   9
   3   0 -11 37870.6 1590.88   8
   3   0 -11 35917.3 1536.84  20
   3   0 -10 4827.03 545.821   9
   3   0 -10 4860.10 542.630   8
   3   0 -10 4624.79 554.626  20
   3   0  -9 2392.71 340.940   8
   3   0  -9 3116.93 447.967  20
   3   0  -8 4224.91 490.017  20
   3   0  -7 82797.9 1957.46  20
   3   0  -6 116829. 2185.90  20
   3   0  -5 35949.4 1124.59  20
   3   0  -4 104643. 2048.49  14
   3   0  -4 106723. 1799.78  20
   3   0  -3 108208. 1920.74  14
   3   0  -3 103691. 1615.61  20
  -3   0   2 73211.1 866.734  22
   3   0  -2 70701.2 1477.70  14
   3   0  -2 71900.2 1154.14  20
   3   0  -1 13371.8 604.105  14
   3   0  -1 14403.6 413.704  20
   3   0   0 3334.76 299.858  14
   3   0   0 3511.50 271.243  21
  -3   0   0 3938.25 237.485  22
  -3   0  -1 106126. 1318.21  22
   3   0   1 110165. 1598.92  21
   3   0   2 264858. 2982.11  16
   3   0   2 266612. 2751.60  21
   3   0   3 384605. 3576.18  16
   3   0   3 404317. 3764.70  21
   3   0   4 45756.3 1332.77  16
   3   0   4 44864.4 1328.89  21
   3   0   5 581.460 176.361  16
   3   0   5 495.947 169.581  21
   3   0   6 3970.81 427.246  16
   3   0   6 5112.52 523.710  21
   3   0   7 137390. 2638.22  16
   3   0   7 130968. 2716.06  21
   3   0   8 75874.0 2002.46  16
   3   0   8 72165.0 2090.60  21
   3   0   9 37191.1 1404.27  16
   3   0   9 37602.5 1239.28  12
   3   0   9 34147.4 1478.60  21
   3   0  10 2419.82 342.443  12
   3   0  10 2561.16 423.639  21
   3   0  10 2311.55 397.813  18
   3   0  11 2016.52 319.209  12
   3   0  11 1862.92 369.545  18
   3   0  12 2229.27 403.131  18
   3   0  13 43117.1 1633.46   6
   3   0  13 36329.9 1500.24  18
   3   0  14 20086.6 1070.78   6
   3   0  14 17347.5 935.734  18
   3   0  15 11705.0 764.330   6
   3   0  15 11465.1 651.769  18
   3   0  16 116539. 2139.26   6
   3   0  17 5138.94 386.965   6
   3   1 -18 22228.2 650.111   9
   3   1 -17 7264.83 524.366   9
   3   1 -16 16021.2 920.766   9
   3   1 -15 5162.86 466.125  13
   3   1 -15 4385.99 559.003   9
   3   1 -14 98189.5 2338.20  13
   3   1 -14 107411. 2795.30   9
   3   1 -13 19122.7 1230.37   9
   3   1 -13 19257.9 1122.45  13
   3   1 -12 24268.8 1376.56   9
   3   1 -12 22395.5 1243.29  13
   3   1 -11 316540. 4750.60   9
   3   1 -10 135314. 2932.71   9
   3   1 -10 137878. 2844.21  20
   3   1  -9 12280.5 828.971   9
   3   1  -9 12322.8 807.571   8
   3   1  -9 12933.6 853.787  20
   3   1  -8 4990.86 503.971  20
   3   1  -7 159109. 2663.07  20
   3   1  -6 71740.6 1681.19  20
  -3  -1   5 179926. 1876.48  22
   3   1  -5 181486. 2496.71  20
  -3  -1   4 146048. 1582.04  22
   3   1  -4 149308. 2110.84  20
   3   1  -3 18004.6 739.054  14
   3   1  -3 19081.5 707.248  20
  -3  -1   3 19088.0 566.201  22
   3   1  -2 2030.06 218.552  20
   3   1  -2 2375.16 260.048  14
  -3  -1   2 2294.35 208.667  22
   3   1  -1 470487. 3232.20  14
  -3  -1   1 467948. 2830.15  22
   3   1   0 6975.72 379.031  14
  -3  -1   0 7336.48 373.343  22
  -3  -1  -1 103344. 1471.30  22
   3   1   1 102839. 1571.17  21
   3   1   2 59219.6 1111.47  14
   3   1   2 59972.3 1283.19  21
   3   1   3 91136.1 1693.27  21
   3   1   4 14171.8 602.108  16
   3   1   4 11748.2 666.112  21
   3   1   5 98391.5 1607.06  16
   3   1   5 85962.1 1905.80  21
   3   1   6 107891. 1727.58  16
   3   1   6 103588. 2162.19  21
   3   1   7 32286.7 1267.23  21
   3   1   8 76719.1 2012.73  21
   3   1   9 246749. 3113.53  12
   3   1   9 223540. 3539.92  21
   3   1  10 4272.48 443.995  12
   3   1  10 4046.06 501.445  21
   3   1  10 3755.54 432.162   1
   3   1  11 21583.2 1006.69  12
   3   1  11 20938.2 1105.72  21
   3   1  11 18613.2 1000.14   1
   3   1  12 295213. 3734.98  12
   3   1  12 281895. 4059.34   1
   3   1  13 126401. 2361.10  12
   3   1  13 128067. 2725.93   1
   3   1  14 3617.60 451.204  18
   3   1  15 251.618 139.237  18
   3   1  15 473.461 198.870   6
   3   1  16 47847.4 1414.50   6
   3   1  16 46261.5 1260.74  18
   3   1  17 1859.30 258.458   6
   3   1  18 125619. 1577.02   6
   3   2 -17 38164.9 1056.43   9
   3   2 -16 8870.46 647.751   9
   3   2 -15 19635.9 1096.08   9
   3   2 -14 85407.1 2457.52   9
   3   2 -13 1119.78 336.069   9
   3   2 -12 292.530 235.496   9
   3   2 -11 24109.4 1355.86   9
   3   2 -10 1217.56 312.821   9
   3   2 -10 1117.27 277.838  20
   3   2  -9 75426.4 2157.29   9
   3   2  -9 76252.0 2040.91  20
   3   2  -8 86395.4 2140.33   9
   3   2  -8 82810.1 2041.56  20
   3   2  -7 1107.95 246.070  20
   3   2  -6 14856.0 788.084  20
  -3  -2   5 67257.8 1324.10  22
   3   2  -5 69045.0 1590.33  20
  -3  -2   4 78509.1 1101.71  19
  -3  -2   4 74904.6 1341.86  22
   3   2  -3 9365.37 491.626  14
  -3  -2   3 8688.36 457.077  22
  -3  -2   2 29523.7 840.664  22
   3   2  -2 27647.6 773.628  14
   3   2  -1 181748. 1768.80  14
  -3  -2   1 186902. 2101.39  22
   3   2   0 151961. 1568.77  14
  -3  -2   0 162127. 1982.99  22
   3   2   1 93441.3 1209.62  14
  -3  -2  -1 102574. 1673.43  22
  -3  -2  -2 12533.5 609.712  22
   3   2   2 13839.6 416.902  10
  -3  -2  -3 77037.4 1574.81  22
   3   2   3 84301.4 1185.18  10
   3   2   4 18906.2 785.396  21
   3   2   4 22820.8 684.340  10
   3   2   5 162018. 2437.48  21
   3   2   6 9289.85 620.685  21
   3   2   7 77862.3 1857.67  21
   3   2   8 179592. 2925.74  21
   3   2   9 113751. 2096.80  12
   3   2   9 121529. 2498.25  21
   3   2  10 3132.45 379.913   1
   3   2  10 3228.19 389.213  12
   3   2  10 2914.65 409.554  21
   3   2  11 59066.8 1697.86   1
   3   2  11 61859.5 1669.10  12
   3   2  12 28979.9 1166.68  12
   3   2  12 24667.2 1135.87   1
   3   2  13 2295.62 355.976  12
   3   2  13 2105.23 349.460   1
   3   2  14 50505.1 1472.40  12
   3   2  14 57036.5 1728.12   1
   3   2  15 49310.4 1548.07   1
   3   2  16 13902.7 738.624  18
   3   2  17 9173.59 492.116  18
   3   2  17 10331.3 570.015   6
   3   2  18 95138.2 1391.42   6
   3   3 -16 52411.1 1314.13   9
   3   3 -15 145.782 161.573   9
   3   3 -14 4080.50 522.553   9
   3   3 -13 6890.51 720.702   9
   3   3 -12 175095. 3618.59   9
   3   3 -11 7057.44 754.807   9
   3   3 -10 1128.73 324.709   9
   3   3  -9 85802.2 2430.56   9
   3   3  -9 88080.5 2227.97  20
   3   3  -8 50389.6 1759.31   9
   3   3  -8 52498.7 1730.75   4
   3   3  -8 51188.9 1676.59  20
   3   3  -7 6057.96 581.075   9
   3   3  -7 4898.26 504.816  20
  -3  -3   6 91348.9 1473.22  19
  -3  -3   5 97437.5 1850.10  22
  -3  -3   5 94734.7 1528.62  19
  -3  -3   4 8586.28 528.865  22
  -3  -3   4 8295.80 461.959  19
  -3  -3   3 142600. 2111.08  22
  -3  -3   2 267628. 2893.83  22
  -3  -3   1 179649. 2394.01  22
  -3  -3   0 50081.9 1252.59  22
  -3  -3  -1 418296. 3675.00  22
   3   3   1 409629. 2674.58  10
  -3  -3  -2 26250.1 958.354  22
   3   3   2 26852.9 727.093  10
  -3  -3  -3 77440.5 1734.54  22
   3   3   3 76015.7 1300.85  10
  -3  -3  -4 11532.8 697.320  22
   3   3   4 11552.4 531.191  10
  -3  -3  -5 119386. 2329.01  22
   3   3   5 122049. 1827.83  10
   3   3   6 2.13299 80.4268  21
  -3  -3  -6 54.7230 102.470  22
   3   3   7 346232. 3658.65  21
   3   3   7 327297. 3313.54  10
   3   3   8 57514.7 1426.52  12
   3   3   8 58872.0 1537.69  21
   3   3   9 2091.25 293.655  12
   3   3   9 2339.02 306.960   1
   3   3  10 189857. 2845.30  21
   3   3  10 185500. 2797.48   1
   3   3  10 184575. 2759.58  12
   3   3  11 267478. 3447.83  12
   3   3  11 265247. 3557.25   1
   3   3  12 4680.99 492.923   1
   3   3  12 4927.85 478.600  12
   3   3  13 10515.7 690.509  12
   3   3  13 11657.7 760.564   1
   3   3  14 141072. 2586.61   1
   3   3  14 132528. 2310.45  12
   3   3  15 72880.5 1577.80  12
   3   3  15 73878.1 1786.66   1
   3   3  16 4727.63 439.749   1
   3   3  17 15694.8 659.514  18
   3   3  18 1091.53 145.500   6
   3   4 -15 34287.0 1051.33   9
   3   4 -15 34649.4 993.999  11
   3   4 -14 42980.2 1391.37   9
   3   4 -13 36388.8 1425.28   9
   3   4 -12 50665.5 1801.40   9
   3   4 -12 54564.5 1608.24   4
   3   4 -11 17522.6 1109.58   9
   3   4 -11 18634.1 1061.02   4
   3   4 -10 26697.1 1377.48   9
   3   4 -10 28294.9 1388.90   4
   3   4  -9 21648.6 1217.55   9
   3   4  -9 21588.4 1249.05   4
   3   4  -8 9581.18 799.781   9
   3   4  -8 8597.08 785.976   4
   3   4  -7 12265.8 866.109   9
   3   4  -7 10477.2 836.791   4
   3   4  -6 155321. 2877.08   9
   3   4  -6 154393. 3049.66   4
   3   4  -5 17603.2 924.382   9
   3   4  -5 16196.9 945.060   4
  -3  -4   5 17774.3 896.090  22
  -3  -4   5 15681.0 745.331  19
  -3  -4   4 36400.3 1234.27  22
  -3  -4   4 35525.3 1139.98  19
  -3  -4   3 205163. 2867.08  22
  -3  -4   3 196098. 2665.72  19
  -3  -4   2 154995. 2481.15  22
  -3  -4   1 48185.2 1394.26  22
  -3  -4   0 1198.03 248.402  22
   3   4   0 651.049 137.662  10
   3   4   1 66977.6 1298.15  10
  -3  -4  -1 81786.1 1866.10  22
   3   4   2 12782.4 588.218  10
  -3  -4  -2 13595.3 754.819  22
  -3  -4  -3 16765.7 855.340  22
   3   4   3 13639.3 625.519  10
  -3  -4  -4 19970.6 963.942  22
   3   4   4 17937.8 735.595  10
   3   4   5 26391.7 934.505  10
  -3  -4  -5 30010.6 1256.60  22
  -3  -4  -6 71332.0 1983.38  22
   3   4   6 65382.5 1500.43  10
   3   4   7 298287. 3236.02  12
   3   4   7 320463. 3250.15   1
  -3  -4  -7 293353. 4126.41  22
   3   4   7 278860. 3218.49  10
   3   4   7 310553. 3253.69   2
   3   4   8 3756.16 386.660  12
  -3  -4  -8 4044.15 508.587  22
   3   4   8 4391.19 419.075   1
   3   4   8 4879.82 441.828  10
   3   4   9 69373.6 1680.72   1
  -3  -4  -9 73875.5 2162.20  22
   3   4   9 71332.4 1669.68  12
   3   4  10 12496.8 729.884  10
   3   4  10 12581.9 722.812  12
   3   4  10 12868.6 753.008   1
   3   4  11 180942. 2870.41   1
   3   4  11 183562. 2754.07  12
   3   4  12 34203.8 1266.52   1
   3   4  12 32547.9 1160.33  12
   3   4  13 2587.85 362.684   1
   3   4  13 2446.58 321.710  12
   3   4  14 2725.42 360.240   1
   3   4  14 2387.49 301.302  12
   3   4  15 10317.4 550.921  12
   3   4  15 10929.5 652.026   1
   3   4  16 7784.67 504.368   1
   3   4  17 66035.6 1240.61   1
   3   5 -13 3788.06 290.506   4
   3   5 -13 3192.85 315.415  11
   3   5 -12 194.039 123.678   4
   3   5 -12 466.597 174.213  11
   3   5 -11 2680.28 424.833   9
   3   5 -11 2682.65 392.520   4
   3   5 -11 2727.60 399.189  11
   3   5 -10 87410.7 2373.18   9
   3   5 -10 86292.3 2214.68  11
   3   5  -9 502.821 264.628   9
   3   5  -9 528.308 265.028   4
   3   5  -9 644.706 251.618  11
   3   5  -8 28251.1 1388.67   9
   3   5  -8 27204.0 1400.27   4
   3   5  -8 28172.5 1331.47  11
   3   5  -7 128677. 3053.23   4
   3   5  -7 129255. 2863.39  11
   3   5  -6 1276.69 314.341   9
   3   5  -6 1902.59 413.112   4
   3   5  -6 1550.37 338.830  11
   3   5  -5 161156. 3243.01   4
   3   5  -5 164891. 3033.35  11
   3   5  -4 426772. 5087.33   4
  -3  -5   4 431696. 4707.23  22
  -3  -5   4 420388. 4416.62  19
   3   5  -4 421499. 4718.75  11
   3   5  -3 26484.0 1226.21   4
  -3  -5   3 28106.6 1191.09  22
  -3  -5   3 27718.2 1164.14  19
   3   5  -3 25984.1 1126.74  11
   3   5  -2 1035.18 242.156   4
  -3  -5   2 634.275 191.155  22
  -3  -5   2 665.905 196.809  19
   3   5  -2 689.849 203.228  11
   3   5  -1 117909. 2369.90   4
  -3  -5   1 112324. 2320.92  22
   3   5  -1 116821. 2214.05  11
   3   5   0 54955.2 1562.74   4
  -3  -5   0 55226.2 1646.09  22
   3   5   0 53035.1 1458.38  11
  -3  -5  -1 23574.2 1082.40  22
   3   5   1 22691.3 980.592   4
   3   5   1 22610.5 928.518  11
   3   5   2 11397.0 631.911  10
   3   5   2 11249.1 674.931   4
   3   5   2 10640.2 625.706  11
  -3  -5  -3 213511. 3376.26  22
   3   5   3 204890. 2697.25  11
   3   5   3 206752. 2717.40  10
  -3  -5  -4 52281.4 1656.42  22
   3   5   4 51457.1 1396.46   2
   3   5   4 49614.2 1320.26  11
   3   5   4 52764.6 1399.35  10
   3   5   5 22433.8 927.884   2
  -3  -5  -5 20280.4 1040.27  22
   3   5   5 21237.1 892.251  10
   3   5   6 6708.98 506.403   2
  -3  -5  -6 7278.53 638.154  22
   3   5   6 8741.84 591.514  10
   3   5   7 31202.1 1073.37   2
  -3  -5  -7 30369.8 1313.87  22
   3   5   7 28194.3 1041.59  12
   3   5   7 28898.1 1072.02   1
   3   5   7 30948.7 1116.87  10
   3   5   8 21016.2 887.092   2
   3   5   8 19060.4 891.806   1
   3   5   8 20191.0 889.439  12
   3   5   8 21749.6 949.628  10
   3   5   9 259236. 3157.89  12
   3   5   9 256501. 3357.86   1
   3   5  10 13400.7 778.040   1
   3   5  10 13203.3 715.595  12
   3   5  11 48255.1 1336.21  12
   3   5  11 51851.1 1499.84   1
   3   5  12 172832. 2463.29  12
   3   5  12 189315. 2820.77   1
   3   5  13 189418. 2760.23   1
   3   5  13 184455. 2371.09  12
   3   5  14 1607.97 270.290   1
   3   5  14 1489.58 212.455  12
   3   5  15 14457.5 666.771   1
   3   5  15 12577.1 491.692  12
   3   5  16 4510.30 329.921   1
   3   5  17 2810.69 212.553   1
   3   6 -11 151.044 109.423   4
   3   6 -11 110.922 95.1331  11
   3   6 -10 13727.7 779.377   4
   3   6 -10 13180.0 628.674  11
   3   6  -9 390.901 197.478   4
   3   6  -9 104.375 138.920  11
   3   6  -8 14160.5 934.576   4
   3   6  -8 14302.7 804.249  11
   3   6  -7 21.7037 185.484   4
   3   6  -7 98.8766 125.933  11
   3   6  -6 1508.30 344.809   4
   3   6  -6 1509.38 298.114  11
   3   6  -5 2800.84 450.702   4
   3   6  -5 2868.46 393.024  11
   3   6  -4 76227.9 2229.40   4
   3   6  -4 74962.3 1927.12  11
   3   6  -3 22268.3 1182.68   4
   3   6  -3 22532.8 1042.39  11
   3   6  -2 70539.7 2032.30   4
   3   6  -2 73119.4 1833.75  11
   3   6  -1 376837. 4513.19   4
   3   6  -1 367167. 4029.94  11
   3   6   0 260954. 3675.56   4
  -3  -6   0 255660. 3713.48   7
   3   6   0 259434. 3350.41  11
   3   6   1 24583.5 1096.42   4
  -3  -6  -1 23629.7 1099.62   7
   3   6   1 22669.2 974.181  11
  -3  -6  -2 60794.0 1736.30   7
   3   6   2 62898.8 1584.39  11
  -3  -6  -3 1460.87 283.929   7
   3   6   3 97.8186 108.080  11
   3   6   4 11457.7 692.653   2
  -3  -6  -4 11110.7 717.348   7
   3   6   5 40253.9 1267.44   2
  -3  -6  -5 40387.0 1353.98   7
   3   6   6 101628. 1955.95   2
  -3  -6  -6 96545.5 2032.93   7
   3   6   7 4704.05 417.559   2
   3   6   7 4934.70 472.638   1
  -3  -6  -7 4859.60 462.669   7
   3   6   7 5161.36 442.994  12
   3   6   8 2116.10 284.184   2
   3   6   8 2171.29 317.561   1
   3   6   8 1931.71 273.943  12
   3   6   9 103188. 1849.07  12
   3   6   9 108733. 2131.84   1
   3   6  10 49748.8 1431.01   1
   3   6  10 48930.5 1228.67  12
   3   6  11 463.094 166.480   1
   3   6  11 134.108 101.859  12
   3   6  12 851.477 201.935   1
   3   6  12 1472.00 207.230  12
   3   6  13 61246.0 1392.70   1
   3   6  13 59914.4 1084.47  12
   3   6  14 2004.13 245.033   1
   3   6  14 2244.32 173.649  12
   3   6  15 13339.8 524.326   1
   3   7  -9 4576.42 363.286   4
  -3  -7   9 4135.88 299.059   7
   3   7  -8 55822.9 1423.64   4
   3   7  -7 692.207 222.113   4
   3   7  -6 15655.9 883.931   4
   3   7  -5 3559.41 455.956   4
   3   7  -4 4560.70 512.132   4
   3   7  -4 6047.09 451.097  11
  -3  -7   3 291.566 163.980   7
   3   7  -3 766.632 175.634  11
   3   7  -2 209354. 3291.06   4
   3   7  -2 205585. 2667.15  11
   3   7  -1 666.408 231.162   4
  -3  -7   1 753.764 229.759   7
   3   7  -1 939.596 200.377  11
   3   7   0 2438.74 364.527   4
  -3  -7   0 1735.42 331.608   7
   3   7   0 1848.69 265.405  11
  -3  -7  -1 32016.6 1295.52   7
  -3  -7  -2 57908.1 1725.46   7
   3   7   3 8225.54 581.088   2
  -3  -7  -3 7707.15 619.364   7
   3   7   4 7394.03 540.442   2
  -3  -7  -4 7565.69 601.130   7
   3   7   5 75475.2 1632.13   2
  -3  -7  -5 78963.5 1853.96   7
   3   7   6 18461.3 757.517   2
  -3  -7  -6 18328.0 863.348   7
   3   7   6 18624.0 750.591  12
   3   7   7 45684.5 1140.43  12
   3   7   7 49285.9 1163.68   2
   3   7   7 47554.0 1345.35   1
   3   7   8 36069.0 1154.13   1
   3   7   8 38427.6 991.576  12
   3   7   9 2641.86 316.662   1
   3   7   9 2502.74 236.602  12
   3   7  10 993.277 203.576   1
   3   7  11 135783. 1969.41   1
   3   7  12 2391.37 250.752   1
   3   7  13 4554.89 308.541   1
   3   7  14 17966.9 493.340   1
  -3  -8   5 45425.5 965.909   7
  -3  -8   4 10303.4 521.728   7
  -3  -8   3 18393.3 748.038   7
  -3  -8   2 124451. 2023.46   7
  -3  -8   1 21891.1 873.969   7
   3   8   0 9509.14 548.706   2
  -3  -8   0 9627.81 596.695   7
   3   8   1 816.034 164.865   2
  -3  -8  -1 626.070 180.123   7
   3   8   2 81144.4 1503.51   2
  -3  -8  -2 76876.6 1662.04   7
   3   8   3 29909.2 869.597   2
  -3  -8  -3 28825.1 991.405   7
   3   8   4 2589.91 244.240   2
  -3  -8  -4 2570.44 295.111   7
   3   8   5 183.956 113.055   1
  -3  -8  -5-30.0600 68.0395   7
   3   8   6 3829.06 336.197   1
   3   8   7 22878.8 782.708   1
   3   8   8 7799.43 442.213   1
   3   8   9 243.349 90.6958   1
   3   8  10 17112.7 554.336   1
   3   8  11 122281. 1269.91   1
   4  -6  -8 1496.21 180.749  15
   4  -6  -7 13072.6 563.744  15
   4  -6  -6 68152.5 1339.30  15
   4  -6  -5 24536.9 806.991  15
   4  -6  -4 32651.2 889.364  15
   4  -6  -4 27798.3 813.401   3
   4  -6  -3 6583.01 437.273   3
   4  -6  -3 7954.55 404.303  15
   4  -6  -2 17339.3 741.197   3
   4  -6  -1 126.839 111.218   3
   4  -6   0 2871.98 310.910   3
   4  -6   1 8547.01 486.289   3
   4  -6   2 796.504 150.065   3
   4  -5 -11 11012.3 494.719  15
   4  -5 -10 19640.4 807.432  15
   4  -5  -9 14568.0 807.419  15
   4  -5  -8 1419.55 311.763  15
   4  -5  -7 12446.2 862.071  15
   4  -5  -6 727.831 252.463  15
   4  -5  -6 324.657 104.589   3
   4  -5  -5 4845.59 551.912  15
   4  -5  -5 4266.77 432.882   3
   4  -5  -4 20046.9 1051.43  15
   4  -5  -4 17059.3 918.357   3
   4  -5  -3 17371.5 938.444  15
   4  -5  -3 16255.1 943.313   3
   4  -5  -2 9818.52 662.520  15
   4  -5  -2 9716.52 784.436   3
   4  -5  -1 53303.4 1439.58  15
   4  -5  -1 55640.7 1896.95   3
   4  -5  -1 52827.4 1650.81  18
   4  -5   0 362841. 3388.94  15
   4  -5   0 364370. 4290.17  18
   4  -5   1 33308.5 1424.36   3
   4  -5   1 32019.0 1254.54  18
   4  -5   2 27923.1 1228.70   3
   4  -5   2 26021.0 1104.55  18
   4  -5   3 24721.5 1045.16   3
   4  -5   3 24932.9 1035.09  18
   4  -5   4 9061.77 551.690   3
   4  -5   4 9503.03 603.326  18
   4  -5   5 356.072 112.386   3
   4  -5   5 464.842 149.794  18
   4  -5   6 70898.6 1307.66  18
   4  -4 -13 74282.0 1233.83  13
   4  -4 -12 569.905 139.053  15
   4  -4 -12 517.283 143.650  13
   4  -4 -11 2638.30 342.213  15
   4  -4 -11 1940.41 276.830  13
   4  -4 -10 42094.9 1522.89  15
   4  -4  -9 8928.48 798.911  15
   4  -4  -8 31379.0 1567.01  15
   4  -4  -7 49340.3 2024.68  15
   4  -4  -6 942.175 231.586   3
   4  -4  -6 1142.11 347.607  15
   4  -4  -5 390.960 191.869   3
   4  -4  -5 1415.00 389.092  15
   4  -4  -4 50439.5 1944.86  15
   4  -4  -4 47009.1 1571.74  18
   4  -4  -3 68984.6 2181.65  15
   4  -4  -3 64679.3 1860.59  18
   4  -4  -2 22654.1 1190.51  15
   4  -4  -2 21770.8 1350.89   3
   4  -4  -2 22436.7 1127.40  18
   4  -4  -1 8385.69 678.312  15
   4  -4  -1 8743.97 881.984   3
   4  -4  -1 8584.38 714.849  18
   4  -4  -1 8883.46 724.486  17
   4  -4   0 16210.2 873.931  15
   4  -4   0 18570.0 1290.03   3
   4  -4   0 16206.1 991.955  18
   4  -4   0 17643.5 993.955  17
   4  -4   1 1307.86 393.377   3
   4  -4   1 1647.35 283.249  15
   4  -4   1 1325.17 322.642  18
   4  -4   1 1880.11 362.661  17
   4  -4   2 11544.7 624.866  15
   4  -4   2 10177.1 801.729  18
   4  -4   2 13032.1 1024.82   3
   4  -4   2 11545.7 769.315  17
   4  -4   3 102664. 2489.28  18
   4  -4   3 107219. 2222.05  17
   4  -4   4 16514.7 963.187   3
   4  -4   4 14434.3 930.528  18
   4  -4   5 6056.65 527.678   5
   4  -4   5 6027.46 520.344   3
   4  -4   5 6573.28 616.624  18
   4  -4   6 161205. 2638.09   5
   4  -4   6 166483. 2241.79   3
   4  -4   7 11378.7 687.430   5
   4  -4   7 12575.6 727.789  18
   4  -4   8 2510.34 308.788   5
   4  -4   8 2479.69 299.832  18
   4  -4   9 34925.0 1015.25   5
   4  -4   9 40928.3 944.438  18
   4  -4  10 43028.7 929.915   5
   4  -3 -15 46969.4 1131.33  13
   4  -3 -14 50770.6 1442.47  13
   4  -3 -13 40715.6 1492.76  13
   4  -3 -12 18182.6 783.367  15
   4  -3 -12 15910.3 1036.92  13
   4  -3 -11 97130.0 2212.08  15
   4  -3 -11 90915.6 2587.00  13
   4  -3 -10 68169.3 2109.85  15
   4  -3 -10 66022.4 2236.89  13
   4  -3  -9 773.797 293.074  15
   4  -3  -9 704.582 280.238  13
   4  -3  -8 17181.6 1211.37  15
   4  -3  -8 17754.1 1118.91  13
   4  -3  -7 72389.8 2526.14  15
   4  -3  -7 76973.5 2169.94  13
   4  -3  -6 151.110 155.873   3
   4  -3  -6-3.31082 147.535  15
   4  -3  -5 89499.5 2729.29  15
   4  -3  -5 93103.1 2090.83  18
   4  -3  -5 91798.8 2086.64  17
   4  -3  -4 9609.40 696.608  17
   4  -3  -4 10321.9 907.691  15
   4  -3  -4 10403.0 768.051  14
   4  -3  -4 9657.74 791.485   3
   4  -3  -4 10160.9 703.304  18
   4  -3  -3 2130.67 353.659  17
   4  -3  -3 1414.06 356.919   3
   4  -3  -3 1502.91 341.646  15
   4  -3  -3 1443.67 295.754  14
   4  -3  -3 1461.48 288.650  18
   4  -3  -2 127900. 2609.39  17
   4  -3  -2 122224. 2798.23  15
   4  -3  -2 121668. 3109.71   3
   4  -3  -2 124528. 2542.21  18
   4  -3  -1 190131. 3210.22  17
   4  -3  -1 181160. 3225.80  15
   4  -3  -1 192755. 4044.96   3
   4  -3  -1 192471. 3245.95  18
   4  -3   0 4800.47 527.228  17
   4  -3   0 3879.05 459.034  15
   4  -3   0 4272.86 621.897   3
   4  -3   0 4646.03 541.378  18
   4  -3   1 2382.42 389.408  17
   4  -3   1 2063.85 317.238  15
   4  -3   1 2649.76 426.965  18
   4  -3   2 414001. 4745.61  17
   4  -3   2 398417. 4069.48  15
   4  -3   2 408908. 5657.30   3
   4  -3   3 784.774 278.758   3
   4  -3   3 676.530 218.739  17
   4  -3   3 1159.51 218.448  15
   4  -3   3 563.250 236.683  18
   4  -3   4 9069.50 689.025  17
   4  -3   4 10193.8 798.992   3
   4  -3   4 10060.8 833.933  18
   4  -3   5 12473.2 744.647  17
   4  -3   5 11161.8 777.058   5
   4  -3   5 11853.9 779.241   3
   4  -3   5 11448.7 890.880  18
   4  -3   6 7312.18 641.973   5
   4  -3   6 8743.54 592.155   3
   4  -3   6 8786.91 765.305  18
   4  -3   7 26561.9 1288.23  18
   4  -3   8 101331. 2363.99  18
   4  -3   9 2109.41 355.672   5
   4  -3   9 1763.59 297.315  18
   4  -3  10 8284.47 614.673   5
   4  -3  10 9252.42 584.571  18
   4  -3  11 87099.6 1794.05   5
   4  -3  11 94923.6 1503.08  18
   4  -3  12 190631. 2237.39   5
   4  -2 -16 25234.7 850.540  13
   4  -2 -15 42040.7 1371.18  13
   4  -2 -14 24977.3 1245.45  13
   4  -2 -13 2296.46 471.044  13
   4  -2 -12 4897.44 525.060   8
   4  -2 -12 5139.21 717.769  13
   4  -2 -11 86482.4 2877.42  13
   4  -2 -10 2676.20 422.379  15
   4  -2 -10 2966.86 587.545  13
   4  -2  -9 88567.4 2475.46  15
   4  -2  -9 91118.2 2888.74  13
   4  -2  -8 15603.4 1081.90  15
   4  -2  -8 15767.8 1179.76  13
   4  -2  -7 26376.5 1431.46  15
   4  -2  -7 25134.3 1363.76  14
   4  -2  -7 27535.2 1030.24  17
   4  -2  -6 38341.8 1259.56  17
   4  -2  -6 35942.4 1358.45   3
   4  -2  -6 38468.9 1722.47  15
   4  -2  -6 36326.7 1577.16  14
   4  -2  -5 21424.0 954.160  17
   4  -2  -5 21224.7 1245.51  15
   4  -2  -5 20795.9 1140.82  14
   4  -2  -5 24094.4 1159.19  13
   4  -2  -5 19675.1 1043.91   3
   4  -2  -4 20945.4 953.884  17
   4  -2  -4 19819.6 1156.93  15
   4  -2  -4 17998.8 1020.17  14
   4  -2  -4 25795.8 1088.42  13
   4  -2  -4 17997.4 1023.24   3
   4  -2  -4 23193.7 954.336  18
   4  -2  -3 484.762 197.239   3
   4  -2  -3 343.656 161.716  17
   4  -2  -3 448.804 202.023  15
   4  -2  -3 1095.31 271.851  14
   4  -2  -3 810.689 201.393  18
   4  -2  -2 176835. 2817.98  17
   4  -2  -2 176332. 3144.66  15
   4  -2  -2 177935. 3022.96  14
   4  -2  -1 127526. 2544.63  15
   4  -2  -1 133770. 2611.92  14
   4  -2  -1 127899. 2915.38   3
   4  -2   0 18421.7 945.025  17
   4  -2   0 17174.7 890.453  15
   4  -2   0 20095.1 1023.93  14
   4  -2   0 16086.6 1059.74   3
   4  -2   0 20344.2 1004.26  18
   4  -2   1 1501.57 292.195  17
   4  -2   1 1809.52 285.720  15
   4  -2   1 2073.89 383.647   3
   4  -2   1 1816.07 333.146  18
   4  -2   2 168657. 2925.40  17
   4  -2   2 156996. 2505.44  15
   4  -2   2 156985. 3165.38   3
   4  -2   2 173576. 3147.97  18
   4  -2   3 8110.37 649.353  17
   4  -2   3 7975.21 804.702  16
   4  -2   3 9010.77 570.643  15
   4  -2   3 8375.07 712.814   3
   4  -2   3 8037.39 725.818  18
   4  -2   4 334603. 4112.55  17
   4  -2   4 343105. 5386.07  16
   4  -2   4 355514. 3364.67  15
   4  -2   4 363932. 4398.02   3
   4  -2   4 352256. 4762.65  18
   4  -2   5 1009.20 230.551   3
   4  -2   5 586.410 240.152  18
   4  -2   6 1193.14 255.486  17
   4  -2   6 1677.02 360.907  18
   4  -2   7 20309.6 907.187  17
   4  -2   7 17943.4 1132.67  18
   4  -2   8 67861.8 2170.21  18
   4  -2   9 16712.5 1049.40  18
   4  -2  10 870.492 236.301   6
   4  -2  10 735.818 239.795  18
   4  -2  11 1661.87 281.845   6
   4  -2  11 2158.36 328.860  18
   4  -2  12 1786.18 264.882   6
   4  -2  12 2928.27 324.440  18
   4  -2  13 29395.8 864.661   6
   4  -2  13 33839.1 815.139  18
   4  -2  14 2733.53 257.835   5
   4  -1 -16 9143.46 564.709  13
   4  -1 -15 1847.76 348.325  13
   4  -1 -14 1114.18 346.443  13
   4  -1 -13 54598.2 2180.33  13
   4  -1 -12 27815.0 1654.70  13
   4  -1 -11 161.010 141.175   8
   4  -1 -11 157.360 285.892  13
   4  -1 -10 7926.41 704.811   8
   4  -1 -10 7674.58 903.598  13
   4  -1  -9 421988. 6302.86  14
   4  -1  -9 476945. 6741.21  13
   4  -1  -8 524.837 222.810  15
   4  -1  -8 91.7754 149.349  14
   4  -1  -8 349.825 245.358  13
   4  -1  -7 852.115 248.695  15
   4  -1  -7 620.768 262.613  14
   4  -1  -7 668.553 279.575  13
   4  -1  -6 5556.47 580.488  15
   4  -1  -6 4664.98 596.971  14
   4  -1  -6 6256.33 656.933  13
   4  -1  -5 71088.6 1524.69  17
   4  -1  -5 57449.5 1801.98  15
   4  -1  -5 55094.0 1852.81  14
   4  -1  -5 65170.0 1934.40  13
   4  -1  -4 16616.9 948.942  15
   4  -1  -4 18018.7 995.430  14
   4  -1  -4 17221.1 902.396   3
   4  -1  -3 85892.4 2067.13  14
   4  -1  -2 33752.1 1266.59  14
   4  -1  -1 43546.7 1397.10  14
   4  -1   0 322251. 3745.41  14
   4  -1   1 131466. 2432.22  14
   4  -1   2 25981.5 935.421  21
   4  -1   3 55079.7 1694.08  17
   4  -1   3 58624.7 1571.92  21
   4  -1   3 56424.8 1776.45  18
   4  -1   4 422101. 4740.34  17
   4  -1   4 446742. 5665.29  16
   4  -1   4 470758. 3725.33  15
   4  -1   4 463958. 4898.02  21
   4  -1   4 501288. 4343.60   3
   4  -1   4 448133. 5271.13  18
   4  -1   5 2981.11 424.330  17
   4  -1   5 3252.43 516.653  16
   4  -1   5 3390.64 308.356  15
   4  -1   5 2972.39 436.585  21
   4  -1   5 3257.29 477.960  18
   4  -1   6 18406.5 997.326  17
   4  -1   6 18259.1 1200.34  16
   4  -1   6 20116.3 1187.31  21
   4  -1   6 17165.8 1103.88  18
   4  -1   7 41964.6 1448.74  17
   4  -1   7 39818.1 1733.73  16
   4  -1   7 43874.6 1802.63  21
   4  -1   7 39856.8 1697.27  18
   4  -1   8 22692.3 1005.07  17
   4  -1   8 23326.0 1287.65  16
   4  -1   9 2748.86 399.378   6
   4  -1   9 2809.99 471.909  18
   4  -1  10 63337.3 1893.04   6
   4  -1  10 60352.3 2076.13  18
   4  -1  11 132090. 2695.81   6
   4  -1  11 131398. 2903.52  18
   4  -1  12 7032.15 603.845   6
   4  -1  12 7831.30 658.063  18
   4  -1  13 9112.78 633.167   6
   4  -1  13 8840.14 601.672  18
   4  -1  14 63284.6 1441.54   6
   4  -1  14 61870.3 1251.37  18
   4  -1  15 40048.5 918.296   6
   4   0 -16 25370.2 879.710  13
   4   0 -15 4237.30 468.894  13
   4   0 -14 34898.7 1514.36  13
   4   0 -13 77978.0 2517.78  13
   4   0 -12 10175.7 987.621  13
   4   0 -11 4469.87 693.944  13
   4   0 -10 367.392 297.543  13
   4   0  -9 26277.2 1638.05  14
   4   0  -9 26188.9 1546.45  13
   4   0  -8 23695.1 1489.26  14
   4   0  -8 24316.6 1423.80  13
   4   0  -7 353075. 5268.95  14
   4   0  -7 355264. 5090.32  13
   4   0  -6 10804.8 874.198  14
   4   0  -6 10435.7 815.532  13
   4   0  -5 7832.70 699.299  14
   4   0  -4 150251. 2805.21  14
   4   0  -3 69224.4 1781.68  14
   4   0  -2 726.545 205.048  14
   4   0  -1 6660.18 515.616  14
   4   0   0 28777.7 1050.99  14
   4   0   1 3358.13 369.483  14
   4   0   2 29690.9 1083.85  14
   4   0   2 27109.2 987.894  21
  -4   0  -3 904.238 167.884  22
   4   0   3 751.544 199.812  21
   4   0   4 4237.71 474.856  21
   4   0   5 32579.3 1374.62  16
   4   0   5 30055.8 1329.32  21
   4   0   5 31675.5 1401.25  18
   4   0   6 265674. 3989.77  16
   4   0   6 268040. 2654.44  15
   4   0   6 231895. 3971.12  21
   4   0   6 244363. 4104.98  18
   4   0   7 1762.50 326.229  16
   4   0   7 1944.93 391.109  21
   4   0   8 9221.09 600.540  12
   4   0   8 6647.41 724.682  21
   4   0   8 7142.85 762.111  18
   4   0   9 77507.6 1946.45  17
   4   0   9 79956.7 1800.03  12
   4   0  10 65092.6 1626.76  12
   4   0  10 66251.0 2296.92  18
   4   0  11 48744.8 1689.37   6
   4   0  11 45376.2 1833.24  18
   4   0  12 439.232 221.925  18
   4   0  12 811.552 224.954   6
   4   0  13 9919.28 709.378   6
   4   0  13 9594.59 721.156  18
   4   0  14 1191.96 254.119   6
   4   0  14 1037.97 222.071  18
   4   0  15 28125.0 963.496   6
   4   0  15 28168.4 872.648  18
   4   0  16 44027.6 981.113   6
   4   1 -16 25953.8 812.928   9
   4   1 -15 26307.6 1051.36   9
   4   1 -15 27236.5 968.925  13
   4   1 -14 16804.8 977.332   9
   4   1 -14 15185.0 882.701  13
   4   1 -13-46.6030 116.154   9
   4   1 -13 236.312 202.281  13
   4   1 -12 4671.44 587.314   9
   4   1 -12 5224.78 642.861  13
   4   1 -11 102604. 2689.47   9
   4   1 -11 103941. 2871.25  13
   4   1 -10 39330.4 1787.92  13
   4   1  -9 4047.11 631.862  14
   4   1  -9 4656.48 626.290  13
   4   1  -9 6247.46 644.585  20
   4   1  -8 18403.7 1263.90  14
   4   1  -8 19001.1 1182.51  13
   4   1  -8 21727.6 1145.73  20
   4   1  -7 242687. 4262.68  14
   4   1  -7 230288. 3877.57  13
   4   1  -6 15374.5 989.515  14
   4   1  -6 14461.2 913.881  13
   4   1  -6 16458.1 908.631  20
   4   1  -5 13429.5 856.773  14
   4   1  -5 15211.3 816.663  20
   4   1  -4 40670.9 1395.92  14
   4   1  -3 192645. 2797.50  14
  -4  -1   3 215329. 2006.52  22
  -4  -1   2 26350.8 725.299  22
   4   1  -2 24026.7 927.544  14
   4   1  -1 39683.8 1161.53  14
  -4  -1   1 44799.5 997.271  22
   4   1   0 58017.7 1359.42  14
  -4  -1   0 59907.0 1164.44  22
   4   1   1 1763.25 248.193  14
  -4  -1  -1 2896.28 278.103  22
  -4  -1  -2 58167.7 1331.81  22
   4   1   2 61050.8 1530.20  21
  -4  -1  -3 172722. 2491.46  22
   4   1   3 178594. 2706.38  21
  -4  -1  -4 75271.0 1765.07  22
   4   1   4 73977.3 1879.94  21
   4   1   5 7516.50 642.969  21
   4   1   6 157663. 3059.27  21
   4   1   7 1120.67 194.221  13
   4   1   7 540.600 224.050  21
   4   1   7 526.585 175.238  12
   4   1   8 37300.3 1242.59  12
   4   1   8 30657.1 1446.65  21
   4   1   9 83491.3 1913.70  12
   4   1   9 73531.6 2254.86  21
   4   1  10 5542.64 527.610  12
   4   1  10 5228.55 653.889  18
   4   1  11 21364.5 990.746  12
   4   1  11 19604.9 1223.33  18
   4   1  12 45377.0 1391.18  12
   4   1  12 41554.5 1721.79  18
   4   1  13 24987.7 1270.07  18
   4   1  14 26521.4 1107.37   6
   4   1  14 25170.6 1142.35  18
   4   1  15 5431.03 460.131   6
   4   1  15 5725.82 465.632  18
   4   1  16 152768. 2066.09   6
   4   1  16 146916. 1852.05  18
   4   1  17 9284.99 395.976   6
   4   2 -16 2372.81 246.881   9
   4   2 -15 68924.7 1646.86   9
   4   2 -14 14963.5 906.265   9
   4   2 -13 6118.15 649.374   9
   4   2 -13 8483.16 601.731  13
   4   2 -12 4222.62 572.286   9
   4   2 -12 4237.83 493.165  13
   4   2 -11 37052.8 1662.20   9
   4   2 -11 37791.1 1524.58  13
   4   2 -10 4929.94 619.131   9
   4   2 -10 4507.83 561.069  13
   4   2  -9 30890.6 1431.01   9
   4   2  -9 29833.1 1386.65  13
   4   2  -8 3982.02 501.779   9
   4   2  -8 4180.53 578.455  14
   4   2  -8 3631.03 492.057  13
   4   2  -8 5325.96 575.081  20
   4   2  -7 5197.74 576.216  14
   4   2  -7 5132.48 556.483  13
   4   2  -7 6027.97 586.445  20
   4   2  -6 21212.0 1084.62  14
   4   2  -6 22757.5 1091.37  20
   4   2  -6 21998.9 1069.08  13
  -4  -2   5 494102. 3760.33  22
   4   2  -5 484982. 4787.38  20
  -4  -2   4 102819. 1680.31  22
   4   2  -4 103303. 2043.48  14
   4   2  -3 32325.1 1058.06  14
  -4  -2   3 33998.4 978.441  22
   4   2  -2 74083.7 1510.37  14
  -4  -2   2 77373.5 1496.59  22
   4   2  -1 3036.08 301.207  14
  -4  -2   1 3243.92 319.092  22
   4   2   0 13109.4 589.392  14
  -4  -2   0 13353.1 638.399  22
   4   2   1 7944.44 466.124  14
  -4  -2  -1 7337.17 492.499  22
  -4  -2  -2 449.597 156.500  22
  -4  -2  -3 9650.33 634.355  22
  -4  -2  -4 81542.1 1922.93  22
   4   2   4 83102.4 1942.98  21
  -4  -2  -5 46943.5 1560.02  22
   4   2   5 46522.9 1492.14  21
  -4  -2  -6 35401.7 1423.55  22
   4   2   6 29867.0 1251.65  21
   4   2   7 55607.1 1340.90  13
   4   2   7 56964.0 1477.19  12
   4   2   8 274352. 3120.99  13
   4   2   8 281893. 3440.12  12
   4   2   9 58774.7 1617.16  12
   4   2   9 51853.2 1768.86  21
   4   2  10 10789.3 708.929  12
   4   2  11 38153.5 1330.05  12
   4   2  12 75892.3 1864.49  12
   4   2  12 70865.2 1860.66   1
   4   2  13 9966.95 662.526  12
   4   2  14 54145.4 1378.92  12
   4   2  14 60805.1 1833.23  18
   4   2  15 62602.2 1663.12  18
   4   2  16 996.314 197.228   6
   4   2  16 1214.14 203.944  18
   4   2  17 38930.9 877.448   6
   4   3 -15 1662.79 250.427   9
   4   3 -15 2143.49 295.734  11
   4   3 -14 6443.92 551.167   9
   4   3 -13 50672.9 1685.99   9
   4   3 -12 552.456 239.744   9
   4   3 -11 24472.7 1318.75   9
   4   3 -10 5279.78 631.539   9
   4   3  -9 160207. 3319.15   9
   4   3  -8 61398.3 1997.31   9
   4   3  -8 67766.5 1795.64  13
   4   3  -7 3064.18 414.965   9
   4   3  -7 3486.96 451.621  20
   4   3  -6 1211.07 277.213   9
   4   3  -6 1286.64 253.297  13
   4   3  -6 421.723 179.465  20
   4   3  -5 395322. 4085.78  13
  -4  -3   5 382480. 3796.44  22
  -4  -3   4 24791.9 945.208  22
   4   3  -4 23924.5 1073.78  20
  -4  -3   3 47002.5 1295.95  22
  -4  -3   2 10613.8 627.081  22
  -4  -3   1 213745. 2830.71  22
  -4  -3   0 31239.1 1122.07  22
  -4  -3  -1 86047.3 1831.26  22
  -4  -3  -2 175129. 2730.68  22
  -4  -3  -3 27401.4 1128.09  22
  -4  -3  -4 27951.9 1205.53  22
   4   3   5 15380.9 767.761   2
   4   3   5 16979.2 730.360  13
  -4  -3  -5 14999.7 913.678  22
   4   3   6 59004.8 1560.26   2
   4   3   6 59334.8 1410.91  13
  -4  -3  -6 61142.8 1922.88  22
   4   3   6 61074.1 1523.36  12
   4   3   7 16780.3 779.659  13
  -4  -3  -7 18091.8 1096.87  22
   4   3   7 20095.1 911.404  12
   4   3   7 18205.0 982.146  21
  -4  -3  -8 201314. 3755.77  22
   4   3   8 205344. 2952.82  12
   4   3   8 193968. 3190.60  21
   4   3   9 115877. 2268.11  12
   4   3  10 24134.8 1059.23  12
   4   3  11 66926.4 1731.81   1
   4   3  11 73906.8 1852.76  12
   4   3  12 98224.2 2099.49  12
   4   3  12 89174.8 2007.14   1
   4   3  13 4265.68 443.140  12
   4   3  13 4472.04 437.355   1
   4   3  14 89357.5 1801.86  12
   4   3  14 96384.3 1925.07   1
   4   3  15 91531.7 1592.02  12
   4   3  15 105416. 2116.99  18
   4   3  16 4316.67 378.316  18
   4   3  17 164.558 71.5005   6
   4   3  17 426.513 100.370  18
   4   4 -14 6847.41 504.518  11
   4   4 -13 51268.5 1539.82   9
   4   4 -13 54586.6 1645.14  11
   4   4 -12 65914.0 1920.03   9
   4   4 -12 67260.5 2046.70  11
   4   4 -11 3759.38 511.706   9
   4   4 -10 2580.97 444.860   9
   4   4  -9 1683.31 366.975   9
   4   4  -8 150894. 3174.03   9
   4   4  -8 150605. 3219.61   4
   4   4  -7 245438. 3937.39   9
   4   4  -7 231016. 4029.60   4
   4   4  -6 26994.1 1269.96   9
   4   4  -6 25486.9 1322.69   4
   4   4  -6 28819.3 1407.67  11
   4   4  -5 1082.78 276.127   4
  -4  -4   5 1264.25 266.070  22
   4   4  -4 17385.7 933.674   9
   4   4  -4 14408.5 931.901   4
  -4  -4   4 15598.4 850.712  22
   4   4  -4 16747.3 993.088  11
  -4  -4   3 149174. 2564.15  22
   4   4  -3 154878. 2867.58  11
   4   4  -2 5225.14 519.377   4
   4   4  -2 6738.99 482.594  13
  -4  -4   2 5337.32 496.401  22
   4   4  -2 5278.73 526.067  11
   4   4  -1 47585.2 1499.71   4
   4   4  -1 49068.0 1300.77  13
  -4  -4   1 44964.1 1442.90  22
   4   4  -1 46982.7 1469.02  11
   4   4   0 71218.5 1547.33  13
  -4  -4   0 68501.0 1811.84  22
   4   4   0 73000.6 1762.81  11
   4   4   1 66253.7 1507.69  13
  -4  -4  -1 68704.8 1874.45  22
   4   4   2 10200.2 585.783  13
   4   4   2 9568.42 631.206   2
  -4  -4  -2 8528.38 661.480  22
   4   4   2 10121.4 628.508  11
   4   4   3 20029.0 820.296  13
   4   4   3 21237.9 942.798   2
  -4  -4  -3 21262.9 1052.13  22
   4   4   3 21867.8 919.720  11
   4   4   4 2435.60 327.763   2
   4   4   4 2479.14 292.823  13
  -4  -4  -4 2657.68 394.603  22
   4   4   4 2951.53 341.449  11
   4   4   5 5592.05 489.205   2
   4   4   5 5537.01 442.596  13
  -4  -4  -5 5239.85 573.083  22
   4   4   6 98729.9 2056.35   2
   4   4   6 94052.4 1875.84  13
   4   4   7 194007. 2942.15   2
   4   4   7 187850. 2732.87  13
  -4  -4  -7 209860. 3804.22  22
   4   4   7 206095. 2944.75  12
   4   4   8 170965. 2738.77  12
   4   4   9 134759. 2448.73  12
   4   4  10 183690. 2798.59   1
   4   4  10 178064. 2803.73  12
   4   4  11 42386.4 1357.02   1
   4   4  11 44389.2 1399.02  12
   4   4  12 78827.8 1799.00   1
   4   4  12 78566.6 1809.56  12
   4   4  13 26556.8 1003.34  12
   4   4  13 24544.3 969.482   1
   4   4  14 314.615 108.924   1
   4   4  14 379.457 157.798  12
   4   4  15 357.866 114.343   1
   4   4  15 201.210 109.117  12
   4   4  16 28658.6 884.910  18
   4   4  17 32021.0 674.923   6
   4   5 -13 87.2528 93.5088  11
   4   5 -12 45889.2 1311.92  11
   4   5 -11 68493.4 1818.38  11
   4   5 -10 33723.8 1263.91   4
   4   5 -10 31922.9 1373.26  11
   4   5  -9 9303.80 751.022   4
   4   5  -9 7750.24 718.071  11
   4   5  -8 2279.78 418.234   4
   4   5  -8 2397.00 443.487  11
   4   5  -7 54131.8 1987.55   4
   4   5  -7 53398.2 1911.21  11
   4   5  -6 112042. 2874.79   4
   4   5  -6 116294. 2794.06  11
   4   5  -5 42888.6 1764.32   4
   4   5  -5 44042.8 1691.18  11
   4   5  -4 107901. 2741.10   4
   4   5  -4 109621. 2604.78  11
   4   5  -3 192670. 3568.43   4
   4   5  -3 191578. 3357.25  11
   4   5  -2 4788.89 558.060   4
  -4  -5   2 5545.21 497.552  19
   4   5  -2 4834.95 531.506  11
   4   5  -1 143763. 2859.31   4
  -4  -5   1 136721. 2705.60  22
   4   5  -1 143662. 2746.35  11
   4   5   0 57923.9 1767.54   4
  -4  -5   0 58107.2 1784.76  22
   4   5   0 59736.8 1714.62  11
  -4  -5  -1 117110. 2563.75  22
   4   5   1 121224. 2390.52  11
   4   5   2 83003.4 1715.72  13
   4   5   2 80788.3 1972.62   2
  -4  -5  -2 81041.6 2206.71  22
   4   5   2 78893.2 1872.72  11
   4   5   3 151100. 2328.12  13
   4   5   3 138593. 2586.46   2
  -4  -5  -3 151139. 3046.31  22
   4   5   3 139007. 2472.81  11
   4   5   4 35348.5 1292.30   2
   4   5   4 36523.7 1171.62  13
  -4  -5  -4 36406.2 1500.75  22
   4   5   4 36107.2 1238.73  11
   4   5   5 15573.4 850.611   2
   4   5   5 13789.4 738.114  13
   4   5   6 5502.34 506.661   2
   4   5   7 211392. 3066.04   2
   4   5   7 206162. 3007.72  12
   4   5   8 3329.54 370.139   1
   4   5   8 5999.63 523.900  12
   4   5   9 17847.2 875.328  12
   4   5   9 18765.5 871.641   1
   4   5  10 2955.89 346.456   1
   4   5  10 3154.79 372.858  12
   4   5  11 59331.5 1536.85   1
   4   5  11 57009.4 1483.34  12
   4   5  12 3108.07 344.023   1
   4   5  12 3280.99 357.771  12
   4   5  13 45911.9 1210.26   1
   4   5  13 48087.1 1200.14  12
   4   5  14 513.061 136.379  12
   4   5  14 1046.56 178.576   1
   4   5  15 29268.1 696.488  12
   4   5  15 34757.8 796.452   1
   4   5  16 43341.2 908.741  18
   4   6 -11 15901.1 559.344  11
   4   6 -10 13868.6 634.775   4
   4   6 -10 14105.9 665.821  11
   4   6  -9 22085.9 975.966   4
   4   6  -9 21875.1 937.899  11
   4   6  -8 4644.80 514.591   4
   4   6  -8 4718.31 487.884  11
   4   6  -7 703.665 245.868   4
   4   6  -7 956.510 272.678  11
   4   6  -6 15347.5 1019.05   4
   4   6  -6 14890.7 915.498  11
   4   6  -5 140651. 3089.65   4
   4   6  -5 136937. 2776.96  11
   4   6  -4 50173.1 1851.70   4
   4   6  -4 45951.5 1600.92  11
   4   6  -3 75.9437 170.611   4
   4   6  -3-30.3770 137.261  11
   4   6  -2 5370.15 600.740   4
   4   6  -2 5336.30 544.881  11
   4   6  -1 48724.0 1711.77   4
   4   6  -1 45641.4 1540.44  11
   4   6   0 43959.9 1472.75  11
   4   6   1 3267.20 408.501  11
   4   6   2 11138.8 769.186   2
   4   6   2 10990.7 712.417  11
   4   6   3 19092.7 986.202   2
   4   6   3 19152.4 911.083  11
   4   6   4 23007.6 1053.07   2
   4   6   5 105476. 2179.88   2
   4   6   6 95669.1 2025.48   2
   4   6   6 95003.1 1904.13   1
   4   6   7 574.616 194.862   2
   4   6   7 299.992 147.292   1
   4   6   7 753.791 209.015  12
   4   6   8 44762.1 1303.42   1
   4   6   8 44759.8 1315.53  12
   4   6   9 61660.9 1495.38  12
   4   6   9 60195.4 1486.04   1
   4   6  10 8793.78 548.229  12
   4   6  10 7688.94 514.540   1
   4   6  11 1301.06 219.849   1
   4   6  11 1430.01 228.676  12
   4   6  12 18569.1 721.990   1
   4   6  12 18609.1 685.637  12
   4   6  13 22833.8 710.077   1
   4   6  13 21340.6 653.930  12
   4   6  14 4046.14 234.609  12
   4   6  14 4706.44 266.279   1
   4   7  -7 14489.4 588.742  11
   4   7  -6 24844.8 1041.75   4
   4   7  -6 24763.3 860.187  11
   4   7  -5 40098.4 1400.04   4
   4   7  -5 40965.3 1189.25  11
   4   7  -4 53248.1 1662.77   4
   4   7  -4 51973.6 1406.10  11
   4   7  -3 38436.1 1237.84  11
   4   7  -2 4461.15 434.903  11
   4   7  -1 19241.8 886.696  11
   4   7   0 953.330 230.034  11
   4   7   1 44814.6 1479.19   2
   4   7   2 96958.0 2124.14   2
   4   7   3 27596.9 1110.62   2
   4   7   4 2432.39 333.956   2
   4   7   4 2027.14 276.762   1
   4   7   5 41832.4 1247.88   2
   4   7   5 40376.6 1159.54   1
   4   7   6 40048.4 1173.52   2
   4   7   6 41381.6 1182.92  12
   4   7   6 38455.9 1131.90   1
   4   7   7 7613.61 502.258   1
   4   7   7 7631.15 493.609  12
   4   7   8 10531.0 564.826   1
   4   7   8 11251.6 566.687  12
   4   7   9 136341. 1829.27  12
   4   7   9 130851. 1878.58   1
   4   7  10 17535.4 639.671   1
   4   7  10 17946.1 612.208  12
   4   7  11 13474.3 515.191   1
   4   7  11 12275.8 450.064  12
   4   7  12 196.446 56.2152  12
   4   7  12 187.679 72.3780   1
   4   8  -5 2568.80 244.376   2
   4   8  -4 1369.75 199.571   2
   4   8  -3 16511.6 698.920   2
   4   8  -2 34487.6 1040.12   2
   4   8  -1 1775.90 252.948   2
   4   8   0 10398.3 579.926   2
   4   8   1 56794.7 1317.66   2
   4   8   2 27871.3 895.204   2
   4   8   3 3962.62 333.631   2
   4   8   3 3923.86 320.116  12
   4   8   4 768.929 150.998   2
   4   8   4 861.480 158.027  12
   4   8   5 6827.07 389.215   2
   4   8   5 6989.57 379.447  12
   4   8   6 9781.54 427.886   1
   4   8   6 9185.84 404.936  12
   4   8   7 60605.4 925.260  12
   4   8   7 59093.5 985.802   1
   5  -5  -7 4730.01 336.154  15
   5  -5  -6 43886.6 1096.01  15
   5  -5  -5 15237.3 661.437  15
   5  -5  -4 32125.5 945.577  15
   5  -5  -3 3707.59 313.044  15
   5  -5  -2 905.875 150.234  15
   5  -5  -1 5822.34 301.901  15
   5  -4 -10 54524.9 1123.18  15
   5  -4  -9 16232.6 771.444  15
   5  -4  -8 73613.3 1867.52  15
   5  -4  -7 20793.8 1081.66  15
   5  -4  -6 901.280 289.680  15
   5  -4  -5 28552.3 1319.14  15
   5  -4  -4 225601. 3630.11  15
   5  -4  -3 2055.95 369.928  15
   5  -4  -3 2020.88 376.885   3
   5  -4  -2 6940.60 587.222  15
   5  -4  -2 6678.23 664.062   3
   5  -4  -2 6497.71 549.515  18
   5  -4  -1 30868.0 1141.57  15
   5  -4  -1 32271.6 1450.36   3
   5  -4  -1 29304.0 1165.03  18
   5  -4   0 84580.8 1709.16  15
   5  -4   0 81678.3 1963.97  18
   5  -4   1 965.790 280.486   3
   5  -4   1 981.390 176.639  15
   5  -4   1 846.972 227.241  18
   5  -4   2 44061.3 1469.38   3
   5  -4   2 39674.1 1364.18  18
   5  -4   3 21698.7 932.034   3
   5  -4   3 20479.1 966.660  18
   5  -4   4 111.453 136.772  18
   5  -4   5 34066.2 1100.07  18
   5  -4   6 45301.6 1133.73  18
   5  -4   7 309.537 99.0517  18
   5  -3 -12 20968.2 734.968  13
   5  -3 -11 16726.8 622.220  15
   5  -3 -11 12843.4 672.081  13
   5  -3 -10 2908.74 356.934  15
   5  -3 -10 1827.19 278.549  13
   5  -3  -9 6359.47 607.112  15
   5  -3  -9 4829.97 465.346  13
   5  -3  -8 8494.01 770.660  15
   5  -3  -7 549.525 275.810  15
   5  -3  -6 131.926 211.348  15
   5  -3  -5 1443.57 389.336  15
   5  -3  -4 64825.2 1712.89  18
   5  -3  -4 66158.8 1815.32  17
   5  -3  -3 9236.34 713.036  17
   5  -3  -3 9610.98 847.644  15
   5  -3  -3 9584.88 874.525   3
   5  -3  -3 9669.17 679.926  18
   5  -3  -2 11584.2 816.980  17
   5  -3  -2 11107.8 965.264   3
   5  -3  -2 10920.7 749.940  18
   5  -3  -1 6389.12 618.010  17
   5  -3  -1 7805.60 687.526  15
   5  -3  -1 7045.43 781.474   3
   5  -3  -1 6820.51 615.019  18
   5  -3   0 1840.92 353.726  17
   5  -3   0 1657.49 411.830   3
   5  -3   0 1810.02 319.208  15
   5  -3   0 1487.76 309.800  18
   5  -3   1 53430.1 1745.25  17
   5  -3   1 52491.2 1521.93  15
   5  -3   1 55489.0 2048.40   3
   5  -3   1 50610.7 1721.56  18
   5  -3   2 40641.3 1486.54  17
   5  -3   2 37085.2 1179.86  15
   5  -3   2 40515.5 1649.65   3
   5  -3   2 38021.3 1514.32  18
   5  -3   3 38207.2 1379.41  17
   5  -3   3 34315.3 1034.75  15
   5  -3   3 38718.6 1483.93   3
   5  -3   3 36242.7 1498.45  18
   5  -3   4 12455.3 761.510   3
   5  -3   4 11309.1 840.499  18
   5  -3   5 10658.1 638.250  17
   5  -3   5 9674.43 755.200  18
   5  -3   6 89530.0 2152.48  18
   5  -3   6 104315. 1651.02  17
   5  -3   7 4769.28 472.205  18
   5  -3   8 70728.0 1613.02  18
   5  -3   9 50.2255 81.4317  18
   5  -2 -14 6248.83 421.786  13
   5  -2 -13 6885.83 553.967  13
   5  -2 -12 52603.0 1711.99  13
   5  -2 -11 27966.6 1365.72  13
   5  -2 -10 16463.5 858.397  15
   5  -2 -10 13516.9 998.165  13
   5  -2  -9 334.591 230.835  15
   5  -2  -9-103.636 225.331  13
   5  -2  -8 11432.2 918.595  15
   5  -2  -8 12011.0 945.645  13
   5  -2  -7 605.231 291.327  15
   5  -2  -7 295.619 205.037  13
   5  -2  -6 87740.8 2351.90  13
   5  -2  -6 84310.1 1875.08  17
   5  -2  -5 141946. 2549.86  17
   5  -2  -5 147564. 3478.46  15
   5  -2  -5 139888. 2787.00  13
   5  -2  -4 24763.8 1108.48  17
   5  -2  -4 25345.5 1420.42  15
   5  -2  -4 27248.1 1058.63  18
   5  -2  -3 11394.3 778.201  17
   5  -2  -3 11651.4 945.646  15
   5  -2  -3 12351.4 984.645   3
   5  -2  -3 11919.7 736.662  18
   5  -2  -2 187087. 3183.04  17
   5  -2  -2 194681. 3676.19  15
   5  -2  -2 188615. 3875.46   3
   5  -2  -2 190328. 3040.47  18
   5  -2  -1 698.272 272.390   3
   5  -2  -1 544.124 236.722  17
   5  -2  -1 531.147 241.295  15
   5  -2  -1 633.158 215.711  18
   5  -2   0 23642.2 1191.40  17
   5  -2   0 25590.8 1209.48  15
   5  -2   0 25743.4 1441.34   3
   5  -2   0 26123.0 1210.53  18
   5  -2   1 10618.5 813.240  17
   5  -2   1 11461.1 773.175  15
   5  -2   1 10243.3 892.448   3
   5  -2   1 11076.4 829.067  18
   5  -2   2 64578.5 1978.36  17
   5  -2   2 66005.3 1717.66  15
   5  -2   2 71571.6 2223.57   3
   5  -2   2 69405.2 2110.21  18
   5  -2   3 61062.9 1889.71  17
   5  -2   3 60787.2 1566.01  15
   5  -2   3 64040.4 1972.70   3
   5  -2   3 62383.6 2052.42  18
   5  -2   4 49309.3 1658.70  17
   5  -2   4 50202.8 1331.30  15
   5  -2   4 53785.9 1659.70   3
   5  -2   4 50709.8 1900.22  18
   5  -2   5 2143.50 339.332  17
   5  -2   5 1846.60 244.127  15
   5  -2   5 2064.88 406.593  18
   5  -2   6 33351.6 1215.44  17
   5  -2   6 34919.3 1563.88  18
   5  -2   7 125665. 2102.05  17
   5  -2   7 113084. 2722.85  18
   5  -2   8 187563. 3285.75  18
   5  -2   9 291.747 164.183  18
   5  -2  10 8583.79 575.427  18
   5  -2  11 142977. 1962.52  18
   5  -1 -15 31745.0 875.720  13
   5  -1 -14 292.620 158.911  13
   5  -1 -13 29816.0 1315.81  13
   5  -1 -12 9200.26 839.802  13
   5  -1 -11 627.458 318.052  13
   5  -1 -10 104531. 3082.45  13
   5  -1  -9 34139.1 1333.38  15
   5  -1  -9 28771.0 1634.46  13
   5  -1  -8 17086.2 1047.14  15
   5  -1  -8 16258.9 1211.80  13
   5  -1  -7 2028.91 407.492  15
   5  -1  -7 1862.22 439.643  13
   5  -1  -6 25080.4 983.853  17
   5  -1  -6 25200.2 1380.22  15
   5  -1  -6 25512.1 1379.97  13
   5  -1  -5 44713.5 1368.95  17
   5  -1  -5 46239.3 1835.95  15
   5  -1  -5 43802.0 1711.67  13
   5  -1  -4 10851.5 698.473  17
   5  -1  -4 11794.7 928.771  15
   5  -1  -4 10877.7 860.668  14
   5  -1  -4 10975.8 812.361  13
   5  -1  -3 29789.0 1186.46  17
   5  -1  -3 29526.0 1440.79  15
   5  -1  -3 27304.0 1318.70  14
   5  -1  -3 30611.9 1260.37  13
   5  -1  -2 21393.3 1044.71  17
   5  -1  -2 20451.6 1162.65  15
   5  -1  -2 18367.0 1062.89  14
   5  -1  -2 20583.8 976.468  13
   5  -1  -1 6034.96 580.546  17
   5  -1  -1 5272.36 573.695  15
   5  -1  -1 5375.73 563.871  14
   5  -1  -1 5852.03 530.988  18
   5  -1   0 86365.6 2199.21  17
   5  -1   0 81993.0 2141.45  15
   5  -1   0 80594.1 2191.24  14
   5  -1   0 83246.6 2395.13   3
   5  -1   0 87912.3 2114.77  18
   5  -1   1 63591.2 1933.44  17
   5  -1   1 60819.3 1748.52  15
   5  -1   1 58672.6 1969.17   3
   5  -1   2 28834.2 1341.94  17
   5  -1   2 29279.2 1150.16  15
   5  -1   2 29583.4 1355.82   3
   5  -1   2 31451.7 1398.51  18
   5  -1   3 143765. 2998.61  17
   5  -1   3 140818. 2437.57  15
   5  -1   3 147772. 2849.53   3
   5  -1   3 146064. 3121.51  18
   5  -1   4 26381.4 1280.90  17
   5  -1   4 25024.7 994.980  15
   5  -1   4 27277.3 1404.10  18
   5  -1   5 50152.7 1733.24  17
   5  -1   5 50532.7 1366.15  15
   5  -1   5 51924.2 1989.86  18
   5  -1   6 95.8786 112.664  17
   5  -1   6 224.798 203.319  18
   5  -1   7 22753.2 1069.30  17
   5  -1   7 22216.2 1319.52  18
   5  -1   8 80832.5 1826.35  17
   5  -1   8 73355.0 2334.58  18
   5  -1   9 8147.09 760.511  18
   5  -1  10 65477.6 1941.77  18
   5  -1  11 3503.26 420.689  18
   5  -1  12 3533.14 349.282  18
   5  -1  13 52857.7 1032.88  18
   5   0 -15 404.034 126.472  13
   5   0 -14 6151.42 527.900  13
   5   0 -13 138081. 2896.86  13
   5   0 -12 276.407 249.018  13
   5   0 -11 18297.1 1295.42  13
   5   0 -10 3045.61 596.902  13
   5   0  -9 55088.2 2289.29  13
   5   0  -8 32853.2 1750.41  13
   5   0  -7 6634.93 604.345  15
   5   0  -7 6090.55 755.006  13
   5   0  -6 8608.57 708.445  15
   5   0  -6 7619.99 762.296  14
   5   0  -6 8097.42 806.212  13
   5   0  -5 1136.05 216.377  17
   5   0  -5 777.310 249.145  15
   5   0  -5 1055.35 273.490  14
   5   0  -5 1121.52 293.061  13
   5   0  -4 96113.6 2409.11  15
   5   0  -4 89494.7 2398.87  14
   5   0  -4 97489.8 2487.95  13
   5   0  -3 53335.8 1778.02  15
   5   0  -3 52121.3 1776.84  14
   5   0  -3 55134.3 1773.05  13
   5   0  -2 5948.51 531.557  17
   5   0  -2 4676.03 513.318  15
   5   0  -2 5100.04 542.362  14
   5   0  -2 5946.74 558.168  13
   5   0  -1 9276.52 700.421  17
   5   0  -1 8098.80 649.917  15
   5   0  -1 7466.13 642.173  14
   5   0  -1 8866.95 641.067  13
   5   0   0 277171. 4066.80  17
   5   0   0 267535. 3779.98  14
   5   0   0 275483. 3364.22  13
   5   0   1 17950.7 1063.12  17
   5   0   1 15969.7 864.267  15
   5   0   1 18560.1 848.153  13
   5   0   2 43823.6 1682.18  17
   5   0   2 49751.6 1346.21  13
   5   0   2 46676.6 1637.38  18
   5   0   3 8108.68 756.463  17
   5   0   3 8758.85 610.524  15
   5   0   3 8732.34 770.663  18
   5   0   4 70375.4 2191.75  17
   5   0   4 74488.4 1735.84  15
   5   0   4 76037.9 2322.00  18
   5   0   5 189653. 3597.78  17
   5   0   5 187608. 2663.15  15
   5   0   5 186232. 3732.24  18
   5   0   6 45687.2 1759.60  17
   5   0   6 45091.7 1892.82  18
   5   0   7 33457.3 1458.93  17
   5   0   7 30981.7 1587.31  18
   5   0   8 2272.79 375.112  17
   5   0   8 1618.96 384.794  18
   5   0   9 29497.9 1185.36  17
   5   0   9 28154.8 1476.30  18
   5   0  10 31749.1 1057.46  17
   5   0  10 27073.6 1398.68  18
   5   0  11 606.861 246.706  18
   5   0  12 1041.31 267.936  18
   5   0  13 70135.9 1591.06  18
   5   0  14 7619.44 409.880  18
   5   1 -14 4153.96 395.614  13
   5   1 -13 5268.58 530.114  13
   5   1 -13 4784.48 452.183  11
   5   1 -12 4356.66 552.025  13
   5   1 -11 43198.4 1836.61  13
   5   1 -10 37605.0 1790.67  13
   5   1  -9 12338.6 1053.86  13
   5   1  -8 294997. 5001.92  13
   5   1  -7 137236. 3310.29  13
   5   1  -6 16045.9 1063.87  14
   5   1  -6 16631.5 1139.67  13
   5   1  -5 6786.71 564.741  15
   5   1  -5 5602.55 595.322  14
   5   1  -5 6149.91 665.712  13
   5   1  -4 253.737 130.690  15
   5   1  -4 513.207 201.970  14
   5   1  -4 325.492 184.756  13
   5   1  -3 14521.1 828.122  15
   5   1  -3 14658.2 895.130  14
   5   1  -3 15480.4 942.044  13
   5   1  -2 9755.66 684.240  15
   5   1  -2 9785.41 702.213  14
   5   1  -2 10541.2 739.934  13
   5   1  -1 38652.5 1324.44  15
   5   1  -1 38745.3 1375.49  14
   5   1  -1 42650.3 1421.21  13
   5   1   0 3688.95 469.914  17
   5   1   0 2947.57 363.234  15
   5   1   0 2928.97 378.648  14
   5   1   0 3436.79 398.070  13
   5   1   1 14470.4 794.000  15
   5   1   1 15932.4 819.360  13
   5   1   2 122928. 2272.76  15
   5   1   2 131791. 2288.45  13
   5   1   3 182751. 2756.65  15
   5   1   3 193484. 2706.63  13
   5   1   4 8472.53 585.881  15
   5   1   4 9985.67 610.758  13
   5   1   4 9505.26 804.823  18
   5   1   5 257694. 3033.73  13
   5   1   5 248734. 3976.55  21
   5   1   6 20324.7 847.747  13
   5   1   6 20785.2 1320.08  18
   5   1   7 20440.6 838.809  13
   5   1   7 17287.9 1234.00  18
   5   1   8 604.693 259.347  18
   5   1   9 4565.89 527.995  17
   5   1   9 5378.02 468.909  12
   5   1   9 5914.63 726.598  18
   5   1  10 14944.1 875.089  17
   5   1  10 16976.2 793.684  12
   5   1  10 16885.7 1169.98  18
   5   1  11 24593.1 974.281  17
   5   1  11 23636.2 1043.08   6
   5   1  11 22447.4 1264.16  18
   5   1  12 161513. 2538.39   6
   5   1  12 158536. 3057.92  18
   5   1  13 41832.0 1180.59   6
   5   1  13 40351.7 1371.02  18
   5   1  14-5.60240 67.3456   6
   5   1  14 274.932 131.819  18
   5   1  15 17605.2 582.004  18
   5   2 -14 438.732 164.862  11
   5   2 -13 2025.12 278.915  13
   5   2 -13 1801.65 333.663  11
   5   2 -12 29497.1 1194.94  13
   5   2 -12 28764.6 1377.95  11
   5   2 -11 89332.1 2308.00  13
   5   2 -10 6100.34 653.603  13
   5   2  -9 1712.51 398.542  13
   5   2  -8 32689.7 1554.27  13
   5   2  -7 124282. 2971.08  13
   5   2  -7 122069. 2920.65  11
   5   2  -6 163326. 3335.97  13
   5   2  -6 161020. 3221.70  11
   5   2  -5 2749.35 374.801  14
   5   2  -5 2807.41 446.657  13
   5   2  -5 2443.04 384.339  11
   5   2  -4 30507.1 1109.25  15
   5   2  -4 28503.5 1177.79  14
   5   2  -4 27099.4 1267.58  13
   5   2  -4 30819.4 1250.93  11
   5   2  -3 2414.50 330.224  15
   5   2  -3 2906.66 373.810  14
   5   2  -3 2371.65 374.390  13
   5   2  -2 161838. 2647.25  15
   5   2  -2 168309. 2615.60  14
   5   2  -2 161543. 2868.29  13
   5   2  -1 199620. 2824.68  14
   5   2  -1 197935. 3081.55  13
   5   2   0 6138.91 515.504  15
   5   2   0 6093.43 492.629  14
   5   2   0 5734.50 517.219  13
  -5  -2   0 5701.97 461.816  22
   5   2   1 18558.1 907.001  13
  -5  -2  -1 19454.6 847.693  22
   5   2   2 718.276 186.840  13
  -5  -2  -2 930.041 192.451  22
   5   2   3 6176.98 507.682  13
  -5  -2  -3 6482.39 542.546  22
   5   2   4 15898.4 801.044  13
  -5  -2  -4 16559.0 933.906  22
   5   2   5 20225.1 895.281  13
  -5  -2  -5 21634.1 1116.59  22
   5   2   5 24706.6 981.087  12
   5   2   5 23013.4 1288.32  18
   5   2   6 144565. 2377.45  13
   5   2   6 150635. 2498.92  12
   5   2   6 149974. 3441.69  18
   5   2   7 121357. 2159.39  13
   5   2   7 123018. 2295.63  12
   5   2   8 10226.7 684.124  12
   5   2   8 8471.87 855.889  18
   5   2   9 1519.24 275.254  12
   5   2   9 1566.60 392.076  18
   5   2  10 1551.29 281.107  12
   5   2  10 1382.48 377.888  18
   5   2  11 64063.9 1596.65  12
   5   2  11 59949.3 2122.77  18
   5   2  12 120510. 2064.51  17
   5   2  12 120921. 2039.56  12
   5   2  12 114878. 2760.16  18
   5   2  13 1272.63 287.747  18
   5   2  14 37469.5 1042.57   6
   5   2  14 36192.1 1181.79  18
   5   2  15 27755.4 745.480   6
   5   2  15 26071.3 815.803  18
   5   3 -14 12010.9 600.690  11
   5   3 -13 12398.8 768.526  11
   5   3 -12 70411.7 2080.16  11
   5   3 -11 53292.6 1642.95   9
   5   3 -11 54207.3 1987.23  11
   5   3 -10 92786.9 2079.59  13
   5   3 -10 85987.1 2613.65  11
   5   3  -9 60114.9 1799.14  13
   5   3  -9 61319.7 2250.79  11
   5   3  -8 78656.2 2146.27  13
   5   3  -8 75263.9 2489.86  11
   5   3  -7 54998.7 1825.22  13
   5   3  -7 58576.8 2149.77  11
   5   3  -6 127157. 2742.79  13
   5   3  -6 124100. 2998.31  11
   5   3  -5 49281.9 1675.83  13
   5   3  -5 45911.3 1756.04  11
   5   3  -4 4200.26 494.212  13
  -5  -3   4 4862.97 417.394  22
   5   3  -4 3844.93 507.225  11
   5   3  -3 18781.1 988.681  13
  -5  -3   3 21379.1 887.260  22
   5   3  -3 18866.8 1032.43  11
   5   3  -2 15419.6 888.713  13
  -5  -3   2 17252.6 820.471  22
   5   3  -2 16741.3 926.801  11
   5   3  -1 12379.3 765.848   2
   5   3  -1 9720.00 696.876  13
  -5  -3   1 10672.2 663.218  22
   5   3  -1 11034.0 718.053  11
   5   3   0 26636.5 1120.11   2
   5   3   0 23861.5 1058.07  13
  -5  -3   0 23875.4 1022.45  22
   5   3   0 24913.9 1043.83  11
   5   3   1 101176. 2170.19   2
  -5  -3  -1 100105. 2197.31  22
   5   3   1 102624. 2025.72  11
   5   3   2 2131.65 321.615   2
   5   3   2 2163.77 324.373  13
  -5  -3  -2 2145.48 341.080  22
   5   3   2 2710.61 337.280  11
   5   3   3 4365.09 467.643   2
   5   3   3 4238.66 433.443  13
  -5  -3  -3 4071.01 471.712  22
   5   3   3 5376.72 455.250  11
   5   3   4 214586. 2962.37  13
  -5  -3  -4 205861. 3420.65  22
   5   3   4 208691. 2957.42  12
   5   3   5 617499. 5038.69  13
   5   3   5 607696. 5148.09  12
   5   3   6 15346.8 797.546  13
   5   3   6 13418.0 781.281  12
   5   3   7 118750. 2223.61  13
   5   3   7 113937. 2299.12  12
   5   3   8 4488.49 459.841  12
   5   3   9 10739.7 703.829  12
   5   3  10 115842. 2261.36  12
   5   3  11 10132.1 647.985  12
   5   3  11 8727.87 805.523  18
   5   3  12 607.433 177.335  12
   5   3  12 586.994 244.290  18
   5   3  13 9009.50 530.829  12
   5   3  13 8500.61 680.386  18
   5   3  14 152096. 2490.01  18
   5   3  15 36226.1 870.890   6
   5   3  15 36885.6 993.910  18
   5   4 -13 35985.4 1060.84  11
   5   4 -12 283.117 158.370  11
   5   4 -11 18279.2 1043.58  11
   5   4 -10 8910.39 794.785  11
   5   4  -9 118759. 2999.22  11
   5   4  -8 88518.0 2622.70  11
   5   4  -7 5039.90 474.563  13
   5   4  -7 5289.02 669.977  11
   5   4  -6 1220.59 274.259  13
   5   4  -6 820.271 323.309  11
   5   4  -5 63711.7 1759.40  13
   5   4  -5 69497.0 2210.59  11
   5   4  -4 201216. 3129.04  13
   5   4  -4 212776. 3758.41  11
   5   4  -3 59862.4 1707.45  13
   5   4  -3 64193.8 1979.86  11
   5   4  -2 9409.86 671.920  13
   5   4  -2 9228.50 748.677   2
   5   4  -2 10445.9 781.900  11
   5   4  -1 1321.26 261.153  13
   5   4  -1 1202.70 283.719   2
   5   4  -1 891.338 245.945  11
   5   4   0 129837. 2450.93  13
  -5  -4   0 127886. 2554.04  22
   5   4   0 135266. 2599.16  11
   5   4   1 49099.4 1642.38   2
   5   4   1 51387.0 1514.05  13
  -5  -4  -1 53137.7 1696.50  22
   5   4   1 54049.9 1603.29  11
   5   4   2 5045.38 516.506   2
   5   4   2 4747.29 462.183  13
  -5  -4  -2 4763.66 538.948  22
   5   4   2 4767.56 479.914  11
   5   4   3 5968.19 559.529   2
   5   4   3 6108.61 530.684  11
   5   4   4 49494.3 1578.28   2
   5   4   4 49031.3 1465.16  13
   5   4   5 5034.29 522.033   2
   5   4   5 5759.66 505.812  13
   5   4   5 4964.55 490.386  12
   5   4   6 58427.2 1585.81  13
   5   4   6 58736.3 1655.58  12
   5   4   7 21787.8 982.507  13
   5   4   7 21794.9 1009.87  12
   5   4   8 157992. 2682.12  12
   5   4   9 2253.22 341.608  12
   5   4  10 53966.4 1515.04  12
   5   4  11 29655.7 1073.61  12
   5   4  12 10915.6 622.021  12
   5   4  13 10759.5 559.936  12
   5   4  13 10838.7 712.078  18
   5   4  14 16290.2 593.701  12
   5   4  14 17927.1 796.962  18
   5   4  15 312.343 106.725  18
   5   5 -12 661.079 142.670  11
   5   5 -11 32995.2 1113.39  11
   5   5 -10 38821.6 1372.05  11
   5   5  -9 7090.27 657.190  11
   5   5  -8 50283.0 1786.80  11
   5   5  -7 65550.4 2103.48  11
   5   5  -6 79760.4 2331.75  11
   5   5  -5 78986.7 2315.83  11
   5   5  -4 55525.6 1922.60  11
   5   5  -3 101881. 2563.80  11
   5   5  -2 432.706 151.414  13
   5   5  -2 119.135 179.381  11
   5   5  -1 51272.1 1463.08  13
   5   5  -1 49495.7 1772.14   2
   5   5  -1 54201.5 1767.69  11
   5   5   0 11001.5 688.349  13
   5   5   0 8621.44 732.379   2
   5   5   0 9661.46 743.522  11
   5   5   1 8198.43 705.129   2
   5   5   1 9107.25 630.190  13
   5   5   1 8786.76 688.503  11
   5   5   2 117393. 2576.72   2
   5   5   2 120956. 2267.51  13
   5   5   2 121250. 2445.74  11
   5   5   3 226197. 3093.84  13
   5   5   3 227316. 3267.33  11
   5   5   4 28475.8 1220.68   2
   5   5   4 27565.3 1097.36  13
   5   5   5 429.897 178.849  13
   5   5   5 104.173 129.794   2
   5   5   6 41010.0 1439.78   2
   5   5   6 39324.4 1362.90  12
   5   5   7 151483. 2619.34  12
   5   5   8 7616.43 586.776  12
   5   5   9 951.945 237.367  12
   5   5  10 8632.81 581.207  12
   5   5  11 4743.81 415.624  12
   5   5  12 67993.4 1390.48  12
   5   5  13 5816.66 373.613  12
   5   5  13 5642.36 446.424  18
   5   5  14 4087.83 265.174  12
   5   5  14 4524.34 343.423  18
   5   6 -10 54659.4 1081.98  11
   5   6  -9 1383.63 234.476  11
   5   6  -8 5697.46 421.114   2
   5   6  -8 6539.46 524.015  11
   5   6  -7 9228.09 635.082   2
   5   6  -7 9542.36 672.482  11
   5   6  -6 3323.83 442.483  11
   5   6  -5 14275.9 883.381  11
   5   6  -4 4046.87 506.732  11
   5   6  -3 19694.3 1058.44  11
   5   6  -2 130382. 2863.63   2
   5   6  -2 130265. 2666.89  11
   5   6  -1 93292.9 2391.21   2
   5   6  -1 87490.5 2179.25  11
   5   6   0 24946.3 1241.16   2
   5   6   0 23241.3 1104.91  11
   5   6   1 10978.5 640.990  13
   5   6   1 9897.69 768.556   2
   5   6   1 8835.88 669.817  11
   5   6   2 66173.4 1923.73   2
   5   6   2 65744.0 1768.76  11
   5   6   3 62745.1 1824.61   2
   5   6   4 10055.2 714.476   2
   5   6   5 797.945 234.444   2
   5   6   5 1079.09 251.454  12
   5   6   6 17141.6 885.648   2
   5   6   6 17744.2 873.018  12
   5   6   7 3433.41 385.036  12
   5   6   8 15219.7 760.969  12
   5   6   9 67308.2 1494.68  12
   5   6  10 2053.79 266.219  12
   5   6  11 24850.4 788.893  12
   5   6  12 57243.1 1065.31  12
   5   6  12 57166.1 1201.67  18
   5   6  13 1512.01 151.699  12
   5   7  -7 754.183 134.068  11
   5   7  -6 1731.62 244.201   2
   5   7  -6 1960.34 238.109  11
   5   7  -5 20853.7 884.086   2
   5   7  -5 19955.5 779.772  11
   5   7  -4 51363.5 1483.92   2
   5   7  -4 52878.3 1335.02  11
   5   7  -3 851.832 240.314   2
   5   7  -3 794.465 209.938  11
   5   7  -2 27116.9 1144.10   2
   5   7  -2 25156.1 985.065  11
   5   7  -1 23787.4 1080.67   2
   5   7  -1 23217.0 953.292  11
   5   7   0-16.7882 153.878   2
   5   7   1 63468.6 1719.62   2
   5   7   2 5221.78 496.381   2
   5   7   3 9591.87 640.993   2
   5   7   4 51803.4 1412.73   2
   5   7   4 51493.6 1370.51  12
   5   7   5 97301.7 1877.57   2
   5   7   5 95507.1 1808.10  12
   5   7   6 23382.5 866.076  12
   5   7   7 1490.98 224.781  12
   5   7   8 28894.1 851.857  12
   5   7   9 35462.8 871.553  12
   5   7  10 4301.04 277.676  12
   5   7  11 7289.64 300.406  12
   5   8  -3 31674.3 788.546   2
   5   8  -2 60569.3 1185.41   2
   5   8  -1 8025.03 455.297   2
   5   8   0 25520.2 819.199   2
   5   8   1 60754.1 1249.18   2
   5   8   2 3783.44 315.434   2
   5   8   2 3732.06 302.312  12
   5   8   3 321.286 108.246   2
   5   8   3 231.598 92.2744  12
   5   8   4 18320.9 603.400  12
   5   8   5 760.357 130.073  12
   5   8   6 7695.17 340.572  12
   6  -4  -5 44182.8 982.456  15
   6  -4  -4 27944.5 805.087  15
   6  -4  -3 567.215 125.495  15
   6  -4  -2 366.492 97.4225  15
   6  -3  -8 96499.1 1637.38  15
   6  -3  -7 28990.3 1047.97  15
   6  -3  -6 677.161 225.421  15
   6  -3  -5 58875.8 1700.07  15
   6  -3  -4 14804.2 864.768  15
   6  -3  -3 5945.99 547.476  15
   6  -3  -2 3976.04 444.927  15
   6  -3  -1 1897.11 292.896  15
   6  -3  -1 2146.87 286.641  18
   6  -3   0 318.405 147.341  15
   6  -3   0 273.423 117.528  18
   6  -3   0 475.044 215.545  17
   6  -3   1 32121.7 964.027  15
   6  -3   1 30437.6 1078.36  18
   6  -3   2 13575.6 718.590  18
   6  -3   2 14423.1 720.416  17
   6  -3   3 6419.64 493.949  18
   6  -3   4 13460.8 675.567  18
   6  -3   5 40598.7 1087.99  18
   6  -3   6 29833.7 827.795  18
   6  -2 -10 14657.0 643.669  13
   6  -2  -9 19920.6 742.819  15
   6  -2  -9 15412.0 721.853  13
   6  -2  -8 3214.28 388.420  15
   6  -2  -8 2732.38 334.140  13
   6  -2  -7 5712.51 565.182  15
   6  -2  -7 4654.05 428.518  13
   6  -2  -6 37614.9 1537.40  15
   6  -2  -5 4567.33 578.571  15
   6  -2  -4 29686.5 1432.23  15
   6  -2  -4 24290.3 999.671  17
   6  -2  -3 65049.3 1743.61  17
   6  -2  -3 76163.1 2246.54  15
   6  -2  -2 42852.8 1460.12  17
   6  -2  -2 44439.7 1650.30  15
   6  -2  -2 40951.1 1236.31  18
   6  -2  -1 14841.1 894.146  17
   6  -2  -1 15525.3 941.288  15
   6  -2  -1 14720.9 794.036  18
   6  -2   0 3116.43 435.146  17
   6  -2   0 3394.87 431.145  15
   6  -2   1 27560.4 1223.46  17
   6  -2   1 26242.3 1090.50  15
   6  -2   1 23611.2 1074.85  18
   6  -2   2 122492. 2524.98  17
   6  -2   2 117118. 2451.85  18
   6  -2   3 922.108 248.827  17
   6  -2   3 1054.44 200.110  15
   6  -2   3 632.565 227.819  18
   6  -2   4 4465.28 449.632  17
   6  -2   4 3984.30 463.813  18
   6  -2   5 8067.87 545.145  17
   6  -2   5 7311.19 608.443  18
   6  -2   6 9315.62 505.072  17
   6  -2   6 8083.13 606.862  18
   6  -2   7 80643.5 1727.21  18
   6  -2   7 95660.0 1186.43  17
   6  -2   8 99150.3 1701.98  18
   6  -2   9 10855.5 460.463  18
   6  -1 -12 3503.43 349.935  13
   6  -1 -11 11380.6 729.838  13
   6  -1 -10 13768.8 875.935  13
   6  -1  -9 4421.79 546.635  13
   6  -1  -8 1019.16 248.392  15
   6  -1  -8 502.397 223.061  13
   6  -1  -7 17298.6 997.079  15
   6  -1  -7 14764.0 987.226  13
   6  -1  -6 16169.6 1009.03  13
   6  -1  -6 14831.0 695.720  17
   6  -1  -5 22339.0 924.485  17
   6  -1  -5 22198.2 1133.28  13
   6  -1  -4 408.986 175.074  17
   6  -1  -4 252.207 224.810  15
   6  -1  -4 596.429 222.500  13
   6  -1  -3 30714.0 1223.05  17
   6  -1  -3 33653.2 1544.06  15
   6  -1  -3 30024.3 1199.16  13
   6  -1  -2 25052.0 1144.67  17
   6  -1  -2 26307.2 1339.87  15
   6  -1  -2 24422.8 1012.08  13
   6  -1  -1 5426.50 574.736  17
   6  -1  -1 6188.97 646.174  15
   6  -1   0 13387.5 908.219  17
   6  -1   0 15240.8 953.615  15
   6  -1   0 14373.0 826.172  18
   6  -1   1 1937.11 357.716  17
   6  -1   1 2133.10 358.026  15
   6  -1   1 1933.18 341.048  18
   6  -1   2 6784.08 659.290  17
   6  -1   2 7980.96 636.154  15
   6  -1   2 8159.52 692.908  18
   6  -1   3 83306.3 1879.30  15
   6  -1   3 82645.9 2234.31  18
   6  -1   4 104380. 2408.79  17
   6  -1   4 106332. 2579.49  18
   6  -1   5 132.467 158.443  17
   6  -1   5 208.113 160.842  18
   6  -1   6 13502.1 767.947  17
   6  -1   6 13010.9 895.871  18
   6  -1   7 27487.9 984.231  17
   6  -1   7 26546.7 1221.11  18
   6  -1   8 27778.8 815.432  17
   6  -1   8 28072.7 1172.96  18
   6  -1   9 12371.8 697.316  18
   6  -1  10 727.258 162.489  18
   6  -1  11 7049.86 350.482  18
   6   0 -13 26681.2 838.451  13
   6   0 -12 9665.75 649.700  13
   6   0 -11 29533.4 1291.80  13
   6   0 -10 105051. 2668.21  13
   6   0  -9 41426.0 1773.16  13
   6   0  -8 33255.5 1625.70  13
   6   0  -7 8518.98 668.186  15
   6   0  -7 6699.63 746.925  13
   6   0  -6 7280.31 674.116  15
   6   0  -6 6399.48 719.736  13
   6   0  -5 116.284 110.112  17
   6   0  -5 421.175 223.791  15
   6   0  -5 41.4904 188.387  13
   6   0  -4 75616.2 2245.48  15
   6   0  -4 70301.7 2138.05  13
   6   0  -3 76394.1 1880.67  17
   6   0  -3 82579.8 2355.71  15
   6   0  -3 77141.4 2145.11  13
   6   0  -2 5459.84 544.251  17
   6   0  -2 6051.91 650.716  15
   6   0  -2 4718.15 527.754  13
   6   0  -1 135054. 2757.08  17
   6   0  -1 130676. 2547.52  13
   6   0   0 133594. 2877.06  17
   6   0   0 133292. 2844.48  15
   6   0   0 131035. 2446.58  13
   6   0   1 23504.9 1260.60  17
   6   0   1 26220.0 1221.83  15
   6   0   1 23617.8 983.047  13
   6   0   1 27198.5 1168.21  18
   6   0   2 748.242 243.088  15
   6   0   2 934.942 251.183  18
   6   0   3 58020.5 1677.77  15
   6   0   3 61362.2 1956.36  18
   6   0   4 42942.5 1713.56  17
   6   0   4 48271.7 1792.41  18
   6   0   5 5243.19 600.815  17
   6   0   5 5921.97 652.469  18
   6   0   6 29225.9 1299.29  17
   6   0   6 30501.9 1480.85  18
   6   0   7 13887.4 844.182  17
   6   0   7 13652.9 972.879  18
   6   0   8 3022.76 365.680  17
   6   0   8 3651.87 488.211  18
   6   0   9 198433. 2376.31  17
   6   0   9 203026. 3310.49  18
   6   0  10 138987. 2451.24  18
   6   0  11 28378.8 962.781  18
   6   0  12 14483.2 548.212  18
   6   1 -13 26216.2 785.570  13
   6   1 -12 5695.04 495.227  13
   6   1 -11 182.743 184.700  13
   6   1 -10 4252.04 561.217  13
   6   1  -9 2077.25 435.118  13
   6   1  -8 13639.9 1063.17  13
   6   1  -7 1933.07 447.056  13
   6   1  -6 44.0279 101.846  15
   6   1  -6 1434.63 394.145  13
   6   1  -5 48806.9 1648.71  15
   6   1  -5 42151.6 1794.45  13
   6   1  -4 133627. 2844.11  15
   6   1  -4 115941. 2871.55  13
   6   1  -3 14298.2 793.435  17
   6   1  -3 15079.5 982.168  15
   6   1  -3 15050.5 1002.31  13
   6   1  -2 94135.2 2145.52  17
   6   1  -2 99806.5 2476.39  15
   6   1  -2 92803.6 2357.76  13
   6   1  -1 37367.4 1447.34  17
   6   1  -1 38821.1 1530.30  15
   6   1  -1 34344.3 1399.15  13
   6   1   0 9044.12 775.502  17
   6   1   0 8299.99 710.970  15
   6   1   0 7193.79 623.117  13
   6   1   1 183.270 196.907  17
   6   1   1 93.5284 135.893  15
   6   1   2 17600.2 1167.25  17
   6   1   2 16210.2 860.968  13
   6   1   3 13432.1 1034.75  17
   6   1   3 13486.6 749.009  13
   6   1   3 15967.9 968.715  18
   6   1   4 8754.18 849.915  17
   6   1   4 9134.22 602.107  13
   6   1   4 9905.00 819.948  18
   6   1   5 2878.59 498.964  17
   6   1   5 2747.16 319.561  13
   6   1   5 3923.17 544.539  18
   6   1   6 18851.2 1176.04  17
   6   1   6 19140.1 1205.44  18
   6   1   7 2574.83 432.365  17
   6   1   7 2525.28 462.533  18
   6   1   8 527.726 213.144  17
   6   1   8 920.597 284.694  18
   6   1   9 55240.0 1563.15  17
   6   1   9 55240.6 1892.66  18
   6   1  10 5368.71 417.091  17
   6   1  10 5426.33 563.989  18
   6   1  11 27646.0 700.855  17
   6   1  11 25261.6 1056.48  18
   6   1  12 900.412 184.879  18
   6   1  13 9341.33 421.708  18
   6   2 -12 113986. 1767.80  13
   6   2 -11 33720.4 1200.82  13
   6   2 -10 292.219 197.266  13
   6   2  -9-21.8464 180.891  13
   6   2  -8 67999.4 2196.53  13
   6   2  -7 703.739 285.803  13
   6   2  -6 31557.4 1538.21  13
   6   2  -5 13378.3 994.747  13
   6   2  -4 11006.1 878.499  13
   6   2  -3 2749.59 454.783  13
   6   2  -2 117972. 2337.21  17
   6   2  -2 105867. 2563.35  13
   6   2  -1 59535.4 1844.08  17
   6   2  -1 55645.2 1810.63  13
   6   2   0 9994.58 814.918  17
   6   2   0 11762.2 819.527  13
   6   2   1 219506. 3916.82  17
   6   2   1 208600. 3308.78  13
   6   2   2 473176. 6018.55  17
   6   2   2 490475. 4910.36  13
   6   2   3 105423. 2228.29  13
   6   2   4 19978.6 936.021  13
   6   2   5 10386.2 660.665  13
   6   2   5 12468.7 921.006  18
   6   2   6 22452.3 938.669  13
   6   2   6 24371.6 1330.31  18
   6   2   7 28768.4 1032.63  13
   6   2   7 28666.4 1461.53  18
   6   2   8 94785.9 2468.13  17
   6   2   8 100461. 2691.69  18
   6   2   9 574.491 211.218  17
   6   2   9 148.778 138.344  18
   6   2  10 3843.46 418.516  17
   6   2  10 3691.85 466.555  18
   6   2  11 126262. 1960.41  17
   6   2  11 126938. 2493.88  18
   6   2  12 117036. 1337.92  17
   6   2  12 109827. 2046.08  18
   6   2  13 12712.5 571.358  18
   6   3 -11 91480.9 1378.96  13
   6   3 -11 78523.0 1654.07  11
   6   3 -10 626.555 197.160  13
   6   3 -10 593.589 190.902  11
   6   3  -9 26183.1 1116.85  13
   6   3  -9 23658.5 1167.57  11
   6   3  -8 7068.15 635.073  13
   6   3  -8 7345.75 690.303  11
   6   3  -7 19619.4 1095.90  13
   6   3  -7 18496.2 1098.94  11
   6   3  -6 46829.3 1732.76  13
   6   3  -6 46230.8 1725.43  11
   6   3  -5 18267.0 1085.57  13
   6   3  -5 19532.1 1102.19  11
   6   3  -4 1007.14 305.397  13
   6   3  -4 326.845 183.946  11
   6   3  -3 306.356 191.898  13
   6   3  -3 322.518 152.461  11
   6   3  -2 45054.3 1651.83  13
   6   3  -2 46007.7 1505.51  11
   6   3  -1 17208.2 1003.08  13
   6   3  -1 18834.4 927.655  11
   6   3   0 35216.5 1458.51  17
   6   3   0 32359.1 1350.50  13
   6   3   1 27055.0 1202.12  13
   6   3   2 1803.23 319.773  13
   6   3   3 783.708 228.493  13
   6   3   4 84306.7 1973.74  13
   6   3   4 83112.2 1873.80  12
   6   3   5 59853.8 1638.12  13
   6   3   5 57806.5 1548.77  12
   6   3   6 1025.85 238.567  13
   6   3   6 1687.18 278.665  12
   6   3   6 970.425 283.601  18
   6   3   7 10608.2 668.978  13
   6   3   7 9481.16 630.484  12
   6   3   7 11465.0 901.363  18
   6   3   8 70556.4 1615.37  12
   6   3   8 70325.6 2229.35  18
   6   3   9 23837.2 895.735  12
   6   3   9 22417.8 1208.02  18
   6   3  10 11186.7 580.349  12
   6   3  10 10075.1 768.784  18
   6   3  11 659.942 172.754  17
   6   3  11 681.890 150.183  12
   6   3  11 626.371 195.801  18
   6   3  12 1475.04 196.864  17
   6   3  12 1383.21 234.926  18
   6   3  13 29717.5 870.417  18
   6   4 -11 2052.43 255.906  11
   6   4 -10 54387.1 1495.39  11
   6   4  -9 39789.1 1444.69  11
   6   4  -8 883.040 200.769  13
   6   4  -8 1067.50 294.155  11
   6   4  -7 22070.8 959.840  13
   6   4  -7 19996.1 1141.44  11
   6   4  -6 124515. 2452.08  13
   6   4  -6 118964. 2806.59  11
   6   4  -5 1209.79 281.119  13
   6   4  -5 1159.19 325.416  11
   6   4  -4 31020.2 1284.11  13
   6   4  -4 32673.2 1430.24  11
   6   4  -3 62350.8 1842.52  13
   6   4  -3 63036.0 1941.47  11
   6   4  -2 1868.50 343.419  13
   6   4  -2 1576.33 327.518  11
   6   4  -1 34966.0 1410.55   2
   6   4  -1 34752.2 1379.44  13
   6   4  -1 34245.6 1342.22  11
   6   4   0 246815. 3617.27  13
   6   4   0 245179. 3504.88  11
   6   4   1 125781. 2695.79   2
   6   4   1 130473. 2573.07  13
   6   4   1 127828. 2411.96  11
   6   4   2 25077.9 1126.23  13
   6   4   2 24722.3 1099.52  12
   6   4   3 6855.17 585.525  13
   6   4   3 6753.65 570.573  12
   6   4   4 142028. 2577.22  13
   6   4   4 143025. 2561.39  12
   6   4   5 16536.9 867.469  13
   6   4   5 15715.8 843.252  12
   6   4   6 94264.3 2036.83  13
   6   4   6 93090.7 1991.52  12
   6   4   7 25083.4 1008.19  12
   6   4   8 8608.41 576.434  12
   6   4   8 8488.06 709.348  18
   6   4   9 11973.6 644.621  12
   6   4   9 10787.8 785.285  18
   6   4  10 74614.9 1489.07  12
   6   4  10 69873.0 1838.20  18
   6   4  11 2875.78 275.792  12
   6   4  11 2738.51 344.924  18
   6   4  12 47.7183 65.0564  17
   6   4  12 88.2985 66.4509  12
   6   4  12 103.828 93.4172  18
   6   4  13 80911.2 1227.77  18
   6   5 -10 9098.56 465.475  11
   6   5  -9 3920.70 383.124  11
   6   5  -8 3113.83 397.934  11
   6   5  -7 117044. 2430.02  11
   6   5  -6 234.960 205.173  11
   6   5  -5 18051.9 1029.47  11
   6   5  -4 37985.6 1177.56  13
   6   5  -4 33705.6 1406.95  11
   6   5  -3 720.266 195.790  13
   6   5  -3 919.530 262.326   2
   6   5  -3 730.661 238.526  11
   6   5  -2 8166.29 703.661   2
   6   5  -2 9899.43 656.712  13
   6   5  -2 9665.71 744.226  11
   6   5  -1 994.849 275.610   2
   6   5  -1 33.8965 155.182  11
   6   5   0 70638.1 1775.76  13
   6   5   0 73562.3 1931.83  11
   6   5   1 29100.1 1290.72   2
   6   5   1 30104.5 1161.63  13
   6   5   1 29504.5 1186.90  11
   6   5   2 24362.4 1176.77   2
   6   5   2 26110.9 1089.35  13
   6   5   3 11623.8 802.512   2
   6   5   3 11784.9 728.317  13
   6   5   3 11874.0 760.814  12
   6   5   4 14447.8 800.192  13
   6   5   4 13811.4 803.527  12
   6   5   5 2436.59 342.049  13
   6   5   5 2954.52 381.554  12
   6   5   6 276064. 3353.67  12
   6   5   7 8045.97 565.051  12
   6   5   8 16167.2 749.736  12
   6   5   9 3805.26 352.797  12
   6   5  10 11384.3 549.066  12
   6   5  11 4804.00 323.290  12
   6   5  11 5341.52 346.766  18
   6   5  12 2870.63 212.718  12
   6   6  -8 3673.16 291.739  11
   6   6  -7 73957.2 1509.48  11
   6   6  -6 20035.5 864.190  11
   6   6  -5 54265.2 1497.24  11
   6   6  -4 59419.6 1529.99   2
   6   6  -4 59534.0 1628.48  11
   6   6  -3 1966.97 317.260   2
   6   6  -3 2458.30 360.102  11
   6   6  -2 37691.4 1369.52   2
   6   6  -2 40732.9 1362.97  11
   6   6  -1 25658.8 1153.73   2
   6   6  -1 25459.9 1076.81  11
   6   6   0 729.363 181.535  13
   6   6   0 639.309 226.532   2
   6   6   0 460.029 180.814  11
   6   6   1 38485.4 1390.43   2
   6   6   2 140951. 2616.96   2
   6   6   3 42359.8 1411.08   2
   6   6   3 41892.3 1328.23  12
   6   6   4 19716.2 889.618  12
   6   6   5 2036.70 291.964  12
   6   6   6 60263.6 1444.31  12
   6   6   7 3700.07 354.452  12
   6   6   8 149912. 2015.86  12
   6   6   9 2444.78 252.553  12
   6   6  10 5851.84 339.660  12
   6   6  11 11512.6 395.810  12
   6   7  -3 1717.78 222.529   2
   6   7  -2 48805.9 1221.11   2
   6   7  -1 26435.3 942.761   2
   6   7   0 1649.76 255.285   2
   6   7   1 361.986 153.513   2
   6   7   1 393.584 144.837  12
   6   7   2 297.095 140.473   2
   6   7   2 203.741 125.105  12
   6   7   3 3516.47 332.420  12
   6   7   4 32913.2 955.494  12
   6   7   5 22306.8 753.908  12
   6   7   6 3903.23 301.885  12
   6   7   7 869.451 146.639  12
   6   7   8 97797.3 1251.15  12
   7  -2  -4 2480.92 308.220  15
   7  -2  -3 49025.3 1320.34  15
   7  -1  -5 16416.8 853.209  15
   7  -1  -4 34639.1 1319.74  15
   7  -1  -3 92819.9 2196.08  15
   7  -1  -3 67051.1 1439.53  17
   7  -1  -2 26717.4 995.120  17
   7  -1  -2 35613.3 1358.30  15
   7  -1  -1 525.405 174.696  17
   7  -1  -1 157.160 160.857  15
   7  -1   0 133.987 141.529  17
   7  -1   1 33365.3 1198.10  17
   7  -1   2 1927.58 309.983  17
   7  -1   3 21437.1 897.637  17
   7  -1   3 21487.0 786.053  18
   7  -1   4 8777.11 534.878  17
   7  -1   4 9183.68 514.499  18
   7  -1   5 15987.9 645.746  17
   7  -1   5 16582.5 659.672  18
   7   0  -9 277.712 128.909  13
   7   0  -8 14277.7 779.950  13
   7   0  -7 13241.8 791.002  13
   7   0  -6 2791.59 396.184  13
   7   0  -5 33150.7 1254.07  13
   7   0  -4 113488. 1761.01  17
   7   0  -4 112105. 2252.34  13
   7   0  -3 1191.53 217.029  17
   7   0  -3 1378.44 270.798  13
   7   0  -2 1467.58 260.488  17
   7   0  -2 1593.33 261.524  13
   7   0  -1 6882.78 560.490  17
   7   0  -1 6377.39 469.778  13
   7   0   0 33022.0 1278.98  17
   7   0   1 404.809 187.138  17
   7   0   2 18604.3 989.513  17
   7   0   3 73896.0 1907.43  17
   7   0   4 6395.71 552.934  17
   7   0   4 6669.14 500.951  18
   7   0   5 239.064 142.106  17
   7   0   5 478.153 147.206  18
   7   0   6 12159.3 625.948  17
   7   0   6 12511.6 655.904  18
   7   0   7 14551.7 580.339  17
   7   0   7 16221.4 694.021  18
   7   0   8 4147.22 303.452  18
   7   1 -10 22966.0 825.917  13
   7   1  -9 20170.8 923.658  13
   7   1  -8 60019.5 1743.75  13
   7   1  -7 368.090 203.810  13
   7   1  -6 1536.42 336.165  13
   7   1  -5 16850.4 1011.54  13
   7   1  -4 63268.2 1911.39  13
   7   1  -3 12507.1 634.473  17
   7   1  -3 11971.2 822.954  13
   7   1  -2 73437.2 1692.35  17
   7   1  -2 74798.1 1977.56  13
   7   1  -1 264956. 3469.83  17
   7   1  -1 255582. 3463.13  13
   7   1   0 76412.7 1965.93  17
   7   1   0 74280.3 1805.57  13
   7   1   1 4475.44 516.688  17
   7   1   1 4255.67 410.010  13
   7   1   2 53455.0 1757.79  17
   7   1   2 52881.7 1346.12  13
   7   1   3 506.522 218.228  17
   7   1   3 428.695 138.428  13
   7   1   4 10994.8 803.763  17
   7   1   5 90475.6 2160.47  17
   7   1   5 88166.7 1868.18  18
   7   1   6 38403.7 1301.05  17
   7   1   6 41085.0 1264.59  18
   7   1   7 6407.66 488.397  17
   7   1   7 6588.11 495.891  18
   7   1   8 24561.0 795.463  17
   7   1   8 26436.2 900.762  18
   7   1   9 98071.4 1204.12  17
   7   1   9 95256.1 1477.17  18
   7   2  -9 1965.45 295.274  13
   7   2  -8 102097. 2194.19  13
   7   2  -7 3390.41 468.472  13
   7   2  -6 8036.30 710.037  13
   7   2  -5 3905.44 513.594  13
   7   2  -4 21725.4 1169.46  13
   7   2  -3 7222.14 680.288  13
   7   2  -2 197578. 2623.84  17
   7   2  -2 199533. 3384.89  13
   7   2  -1 1406.17 250.721  17
   7   2  -1 705.587 241.441  13
   7   2   0 402.954 185.231  17
   7   2   0 717.548 230.724  13
   7   2   1 1611.40 320.984  17
   7   2   1 1373.84 274.887  13
   7   2   2 21757.9 1173.63  17
   7   2   2 18400.9 888.973  13
   7   2   3 171.372 162.330  17
   7   2   3 401.389 143.913  13
   7   2   4 6297.24 656.525  17
   7   2   4 6277.73 472.316  13
   7   2   5 71601.6 2115.30  17
   7   2   5 72098.6 1492.50  13
   7   2   6 23713.7 1163.89  17
   7   2   7 19586.2 950.234  17
   7   2   7 17576.1 785.448  18
   7   2   8 37313.1 1144.29  17
   7   2   8 40136.8 1123.54  18
   7   2   9 339.210 108.986  17
   7   2   9 762.428 150.219  18
   7   3  -8 13828.0 702.346  13
   7   3  -7 23340.6 1020.85  13
   7   3  -6 98958.1 2231.46  13
   7   3  -5 21353.7 1084.88  13
   7   3  -4 28309.7 1281.96  13
   7   3  -3 80364.4 2140.69  13
   7   3  -2 131938. 2715.15  13
   7   3  -1 1142.13 298.557  13
   7   3   0 9277.62 652.286  17
   7   3   0 8486.42 670.320  13
   7   3   1 39481.4 1470.55  17
   7   3   1 36596.9 1333.32  13
   7   3   2 26049.3 1288.10  17
   7   3   2 24433.1 1053.23  13
   7   3   3 9484.74 806.012  17
   7   3   3 8396.94 602.275  13
   7   3   4 40622.7 1673.66  17
   7   3   4 41030.2 1257.27  13
   7   3   5 16276.9 1038.35  17
   7   3   5 17139.5 786.127  13
   7   3   6 1428.90 319.750  17
   7   3   7 26272.9 1166.53  17
   7   3   8 30896.3 1135.82  17
   7   3   9 3093.73 316.797  17
   7   3  10 31623.7 763.831  17
   7   4  -7 3784.74 310.870  13
   7   4  -6 7136.43 494.495  13
   7   4  -5 1228.96 255.608  13
   7   4  -4 6631.33 548.963  13
   7   4  -3 539.790 201.517  13
   7   4  -2 18366.7 942.672  13
   7   4  -1 923.570 253.387  13
   7   4   0 121680. 2385.31  13
   7   4   1 4091.47 430.239  17
   7   4   1 3576.68 434.174  13
   7   4   2 668.963 209.959  17
   7   4   2 653.363 229.029  13
   7   4   3 69407.5 1986.94  17
   7   4   3 69523.6 1678.55  13
   7   4   4 163480. 3112.94  17
   7   4   4 169405. 2559.54  13
   7   4   5 377.528 207.482  17
   7   4   5 140.676 140.450  13
   7   4   6 12002.9 814.697  17
   7   4   7 2560.70 364.110  17
   7   4   8 37435.9 1215.80  17
   7   4   9 19188.4 759.391  17
   7   4  10 78198.0 1194.17  17
   7   5  -5 1548.66 215.190  11
   7   5  -4 40816.3 986.856  13
   7   5  -3 59516.7 1347.75  13
   7   5  -2 28536.0 985.124  13
   7   5  -1 25019.2 945.925  13
   7   5   0 52202.7 1385.38  13
   7   5   1 345.595 164.513  13
   7   5   2 21306.8 883.596  13
   7   5   2 13422.9 645.602  12
   7   5   3 9469.51 606.655  17
   7   5   3 10626.3 621.352  13
   7   5   3 9260.34 529.024  12
   7   5   4 9975.20 650.175  17
   7   5   4 9759.28 522.269  12
   7   5   5 95274.7 2026.89  17
   7   5   5 98713.3 1579.73  12
   7   5   6 37474.5 1241.81  17
   7   5   6 42083.0 968.054  12
   7   5   7 5818.58 464.634  17
   7   5   7 6437.29 345.819  12
   7   5   8 397.375 132.874  17
   7   5   9 24375.3 715.492  17
   7   6   0 406.628 106.441  12
   7   6   1 5380.74 374.098  12
   7   6   2 158638. 1957.82  12
   7   6   3 2300.75 242.199  12
   7   6   4 7290.60 394.948  12
   7   6   5 18702.1 592.567  12
   8   1   2 10270.2 503.010  17
   8   2  -4 32023.4 1003.47  13
   8   2  -3 12131.4 634.820  13
   8   2  -2 3294.06 336.576  13
   8   2  -1 31768.3 983.230  13
   8   2   0 183.300 110.575  13
   8   2   1 92491.8 1441.71  17
   8   2   1 90835.7 1465.26  13
   8   2   2 90878.7 1525.72  17
   8   2   3 8921.13 489.454  17
   8   2   4 8881.99 463.528  17
   8   3  -4 1407.45 223.793  13
   8   3  -3 47621.1 1253.54  13
   8   3  -2 23716.9 902.540  13
   8   3  -1 312.788 135.097  13
   8   3   0 20548.3 810.654  13
   8   3   1 86920.8 1594.44  13
   8   3   2 12841.3 587.750  13
   8   4  -1 16724.4 686.198  13
   8   4   0 10354.6 546.515  13
   8   4   1 9120.91 504.556  13
   0   0   0    0.00    0.00   0
;
_shelx_hkl_checksum              75004
_shelx_res_file
;
TITL shelxt_a.res in P-1
    shelx.res
    created by SHELXL-2016/6 at 09:38:34 on 05-Mar-2017
CELL  1.54184   6.5400   7.2557  15.7696   81.617   89.511   74.154
ZERR     2.00   0.0003   0.0004   0.0009    0.005    0.004    0.005
LATT   1
SFAC  C    H    O    S    CL   N
UNIT  22   30   8    2    2    8
MERG   2
OMIT    -1   0   2
OMIT     1   0   3
OMIT     2   0   4
OMIT     0  -2   2
OMIT    -1   0   4
OMIT     0   1   3
DFIX  0.82 O1W H2W O1W H1W
DFIX  1.297 H2W H1W
ACTA   135.00
BOND   $H
CONF
L.S.  10
TEMP  -153.00
SIZE 0.15 0.27 0.53
WGHT    0.065800    0.325100
EXTI    0.016119
FVAR      14.50364   0.43381
S1    4    0.593048    0.474169    0.761101    11.00000    0.01134    0.00897 =
         0.00933    0.00029   -0.00184   -0.00425
PART    1
O1    3    0.431440    0.635106    0.786592    21.00000    0.01654    0.01476 =
         0.01514   -0.00125   -0.00389    0.00110
O2A   3    0.730119    0.539525    0.693418    21.00000    0.01569    0.02426 =
         0.00954    0.00057    0.00065   -0.00737
O3    3    0.510299    0.323852    0.737763    21.00000    0.02291    0.01322 =
         0.02145    0.00133   -0.00837   -0.01129
PART    2
SAME  O1 > O3
O1A   3    0.377956    0.551713    0.793333   -21.00000    0.01670    0.02308 =
         0.01649    0.00164   -0.00035   -0.00060
O2    3    0.671315    0.623166    0.713017   -21.00000    0.01692    0.01582 =
         0.01446    0.00564   -0.00222   -0.00926
O3A   3    0.600195    0.313586    0.713504   -21.00000    0.02517    0.01270 =
         0.01409   -0.00517   -0.00359   -0.00553
PART    0
C7    1    0.763500    0.377673    0.852496    11.00000    0.01345    0.00745 =
         0.00969   -0.00011   -0.00215   -0.00317
C8    1    0.678595    0.358606    0.933362    11.00000    0.01470    0.01519 =
         0.01325   -0.00250    0.00193   -0.00344
AFIX  43
H8    2    0.528911    0.394213    0.939629    11.00000   -1.20000
AFIX   0
C9    1    0.814746    0.286969    1.004942    11.00000    0.02496    0.01704 =
         0.00953   -0.00130    0.00118   -0.00448
AFIX  43
H9    2    0.757134    0.274354    1.060306    11.00000   -1.20000
AFIX   0
C10   1    1.035218    0.233214    0.996654    11.00000    0.02456    0.01025 =
         0.01396   -0.00166   -0.00701   -0.00421
C11   1    1.116370    0.250468    0.915060    11.00000    0.01290    0.01845 =
         0.01956   -0.00209   -0.00329   -0.00291
AFIX  43
H11   2    1.265880    0.211412    0.908523    11.00000   -1.20000
AFIX   0
C12   1    0.982608    0.323874    0.842841    11.00000    0.01485    0.01749 =
         0.01170   -0.00174    0.00007   -0.00462
AFIX  43
H12   2    1.040115    0.337184    0.787483    11.00000   -1.20000
AFIX   0
C13   1    1.181437    0.159964    1.074977    11.00000    0.03299    0.01972 =
         0.01863   -0.00062   -0.01272   -0.00571
AFIX 137
H13C  2    1.329168    0.121782    1.057226    11.00000   -1.50000
H13A  2    1.146670    0.047751    1.107934    11.00000   -1.50000
H13B  2    1.163505    0.262751    1.110675    11.00000   -1.50000
AFIX   0
CL1   5   -0.422194    1.265135    0.456243    11.00000    0.01336    0.01786 =
         0.01399    0.00123   -0.00413   -0.00576
N1    6    0.089028    1.079054    0.652485    11.00000    0.01268    0.01255 =
         0.01002    0.00006   -0.00040   -0.00238
C2    1    0.055334    1.248798    0.597427    11.00000    0.01211    0.01222 =
         0.00914   -0.00276    0.00073   -0.00195
N3    6   -0.100285    1.304252    0.537249    11.00000    0.01445    0.01188 =
         0.00937   -0.00051   -0.00110   -0.00306
N2    6    0.181947    1.360691    0.604128    11.00000    0.02113    0.01570 =
         0.01609    0.00269   -0.00781   -0.00845
N4    6    0.007010    0.794058    0.703612    11.00000    0.01607    0.01738 =
         0.01921    0.00710   -0.00251   -0.00629
C4    1   -0.225193    1.186783    0.536137    11.00000    0.00921    0.01432 =
         0.00975   -0.00267    0.00153   -0.00135
C5    1   -0.207260    1.015900    0.589181    11.00000    0.01309    0.01656 =
         0.01432    0.00037    0.00126   -0.00647
AFIX  43
H5    2   -0.304024    0.940563    0.585270    11.00000   -1.20000
AFIX   0
C6    1   -0.037058    0.958420    0.649838    11.00000    0.00977    0.01436 =
         0.01187   -0.00092    0.00467   -0.00210
O1W   3    0.419421    0.997129    0.763611    11.00000    0.01914    0.03508 =
         0.02952    0.00482   -0.01074   -0.00378
H1    2    0.201080    1.048674    0.689233    11.00000    0.04160
H2B   2    0.161344    1.465917    0.562905    11.00000    0.03369
H2A   2    0.289253    1.328719    0.638513    11.00000    0.02734
H4B   2   -0.074150    0.722606    0.701265    11.00000    0.02881
H4A   2    0.120317    0.758858    0.730882    11.00000    0.02712
H2W   2    0.501343    1.066037    0.760834    11.00000    0.03481
H1W   2    0.493324    0.888979    0.762261    11.00000    0.08760
HKLF 4
REM  shelxt_a.res in P-1
REM R1 =  0.0360 for    2769 Fo > 4sig(Fo)  and  0.0368 for all    2852 data
REM    248 parameters refined using      6 restraints
END
WGHT      0.0668      0.3144
REM Highest difference peak  0.581,  deepest hole -0.507,  1-sigma level  0.068
Q1    1   0.4709  0.5322  0.7689  11.00000  0.05    0.58
Q2    1  -0.5472  1.3182  0.4710  11.00000  0.05    0.47
Q3    1  -0.3017  1.2193  0.4472  11.00000  0.05    0.45
Q4    1   0.9221  0.2445  0.9975  11.00000  0.05    0.43
Q5    1   0.8730  0.3581  0.8474  11.00000  0.05    0.39
Q6    1   0.7257  0.4412  0.7394  11.00000  0.05    0.34
Q7    1   0.0273  1.0235  0.6479  11.00000  0.05    0.31
Q8    1  -0.1428  0.9900  0.6336  11.00000  0.05    0.29
Q9    1   1.2737  0.2367  1.0799  11.00000  0.05    0.29
Q10   1  -0.0362  1.2754  0.5704  11.00000  0.05    0.28
Q11   1  -0.3718  1.3684  0.4518  11.00000  0.05    0.27
Q12   1  -0.1496  1.2337  0.5395  11.00000  0.05    0.27
Q13   1  -0.5153  1.2002  0.4598  11.00000  0.05    0.26
Q14   1   0.3197  0.9949  0.7642  11.00000  0.05    0.26
Q15   1   0.6991  0.4196  0.8134  11.00000  0.05    0.24
Q16   1   0.6866  0.5433  0.7476  11.00000  0.05    0.24
Q17   1  -0.3787  1.4854  0.5312  11.00000  0.05    0.22
Q18   1   1.0732  0.2197  0.9572  11.00000  0.05    0.22
Q19   1   1.2899  0.0626  1.0736  11.00000  0.05    0.21
Q20   1   1.1022  0.2091  1.0402  11.00000  0.05    0.21
;
_shelx_res_checksum              76991
loop_
_space_group_symop_operation_xyz
'x, y, z'
'-x, -y, -z'
loop_
_atom_site_type_symbol
_atom_site_label
_atom_site_fract_x
_atom_site_fract_y
_atom_site_fract_z
_atom_site_U_iso_or_equiv
_atom_site_adp_type
_atom_site_calc_flag
_atom_site_occupancy
_atom_site_disorder_assembly
_atom_site_disorder_group
S S1 0.59305(6) 0.47417(5) 0.76110(2) 0.00975(15) Uani d 1 . .
O O1 0.4314(7) 0.6351(8) 0.7866(2) 0.0166(12) Uani d 0.434(10) A 1
O O2A 0.7301(7) 0.5395(9) 0.6934(2) 0.0164(11) Uani d 0.434(10) A 1
O O3 0.5103(10) 0.3239(5) 0.7378(4) 0.0183(11) Uani d 0.434(10) A 1
O O1A 0.3780(5) 0.5517(7) 0.79333(15) 0.0202(10) Uani d 0.566(10) A 2
O O2 0.6713(6) 0.6232(6) 0.7130(2) 0.0156(9) Uani d 0.566(10) A 2
O O3A 0.6002(8) 0.3136(4) 0.7135(2) 0.0169(8) Uani d 0.566(10) A 2
C C7 0.7635(3) 0.3777(2) 0.85250(10) 0.0102(3) Uani d 1 . .
C C8 0.6786(3) 0.3586(2) 0.93336(11) 0.0145(3) Uani d 1 . .
H H8 0.528911 0.394213 0.939629 0.017 Uiso calc 1 . .
C C9 0.8147(3) 0.2870(2) 1.00494(11) 0.0175(4) Uani d 1 . .
H H9 0.757134 0.274354 1.060306 0.021 Uiso calc 1 . .
C C10 1.0352(3) 0.2332(2) 0.99665(11) 0.0163(3) Uani d 1 . .
C C11 1.1164(3) 0.2505(2) 0.91506(11) 0.0173(3) Uani d 1 . .
H H11 1.265880 0.211412 0.908523 0.021 Uiso calc 1 . .
C C12 0.9826(3) 0.3239(2) 0.84284(11) 0.0147(3) Uani d 1 . .
H H12 1.040115 0.337184 0.787483 0.018 Uiso calc 1 . .
C C13 1.1814(3) 0.1600(3) 1.07498(12) 0.0242(4) Uani d 1 . .
H H13C 1.329168 0.121782 1.057226 0.036 Uiso calc 1 . .
H H13A 1.146670 0.047751 1.107934 0.036 Uiso calc 1 . .
H H13B 1.163505 0.262751 1.110675 0.036 Uiso calc 1 . .
Cl Cl1 -0.42219(6) 1.26513(5) 0.45624(2) 0.01512(15) Uani d 1 . .
N N1 0.0890(2) 1.07905(19) 0.65249(9) 0.0121(3) Uani d 1 . .
C C2 0.0553(2) 1.2488(2) 0.59743(10) 0.0113(3) Uani d 1 . .
N N3 -0.1003(2) 1.30425(19) 0.53725(8) 0.0121(3) Uani d 1 . .
N N2 0.1819(2) 1.3607(2) 0.60413(10) 0.0174(3) Uani d 1 . .
N N4 0.0070(3) 0.7941(2) 0.70361(10) 0.0182(3) Uani d 1 . .
C C4 -0.2252(2) 1.1868(2) 0.53614(10) 0.0114(3) Uani d 1 . .
C C5 -0.2073(3) 1.0159(2) 0.58918(10) 0.0145(3) Uani d 1 . .
H H5 -0.304024 0.940563 0.585270 0.017 Uiso calc 1 . .
C C6 -0.0371(2) 0.9584(2) 0.64984(10) 0.0124(3) Uani d 1 . .
O O1W 0.4194(2) 0.9971(2) 0.76361(10) 0.0296(3) Uani d 1 . .
H H1 0.201(5) 1.049(4) 0.6892(19) 0.042(7) Uiso d 1 . .
H H2B 0.161(4) 1.466(4) 0.5629(18) 0.034(7) Uiso d 1 . .
H H2A 0.289(4) 1.329(4) 0.6385(17) 0.027(6) Uiso d 1 . .
H H4B -0.074(4) 0.723(4) 0.7013(16) 0.029(6) Uiso d 1 . .
H H4A 0.120(4) 0.759(4) 0.7309(17) 0.027(6) Uiso d 1 . .
H H2W 0.501(4) 1.066(3) 0.7608(18) 0.035(7) Uiso d 1 . .
H H1W 0.493(5) 0.889(3) 0.762(3) 0.088(14) Uiso d 1 . .
loop_
_atom_site_aniso_label
_atom_site_aniso_U_11
_atom_site_aniso_U_22
_atom_site_aniso_U_33
_atom_site_aniso_U_12
_atom_site_aniso_U_13
_atom_site_aniso_U_23
S1 0.0113(2) 0.0090(2) 0.0093(2) -0.00425(15) -0.00184(14) 0.00029(14)
O1 0.0165(17) 0.015(2) 0.0151(14) 0.0011(15) -0.0039(11) -0.0012(12)
O2A 0.0157(17) 0.024(2) 0.0095(15) -0.0074(17) 0.0006(12) 0.0006(15)
O3 0.023(2) 0.0132(15) 0.021(2) -0.0113(15) -0.0084(18) 0.0013(13)
O1A 0.0167(13) 0.0231(19) 0.0165(11) -0.0006(12) -0.0004(9) 0.0016(10)
O2 0.0169(14) 0.0158(17) 0.0145(13) -0.0093(13) -0.0022(11) 0.0056(12)
O3A 0.0252(19) 0.0127(11) 0.0141(13) -0.0055(11) -0.0036(13) -0.0052(9)
C7 0.0135(7) 0.0075(7) 0.0097(7) -0.0032(6) -0.0022(6) -0.0001(5)
C8 0.0147(8) 0.0152(8) 0.0132(8) -0.0034(6) 0.0019(6) -0.0025(6)
C9 0.0250(9) 0.0170(8) 0.0095(8) -0.0045(7) 0.0012(6) -0.0013(6)
C10 0.0246(9) 0.0103(7) 0.0140(8) -0.0042(6) -0.0070(7) -0.0017(6)
C11 0.0129(8) 0.0185(8) 0.0196(8) -0.0029(6) -0.0033(6) -0.0021(6)
C12 0.0149(8) 0.0175(8) 0.0117(7) -0.0046(6) 0.0001(6) -0.0017(6)
C13 0.0330(10) 0.0197(9) 0.0186(9) -0.0057(8) -0.0127(8) -0.0006(7)
Cl1 0.0134(2) 0.0179(2) 0.0140(2) -0.00576(15) -0.00413(15) 0.00123(14)
N1 0.0127(7) 0.0126(6) 0.0100(6) -0.0024(5) -0.0004(5) 0.0001(5)
C2 0.0121(7) 0.0122(7) 0.0091(7) -0.0020(6) 0.0007(6) -0.0028(5)
N3 0.0144(7) 0.0119(6) 0.0094(6) -0.0031(5) -0.0011(5) -0.0005(5)
N2 0.0211(8) 0.0157(7) 0.0161(7) -0.0084(6) -0.0078(6) 0.0027(6)
N4 0.0161(8) 0.0174(7) 0.0192(7) -0.0063(6) -0.0025(6) 0.0071(6)
C4 0.0092(7) 0.0143(7) 0.0098(7) -0.0013(6) 0.0015(6) -0.0027(6)
C5 0.0131(8) 0.0166(8) 0.0143(8) -0.0065(6) 0.0013(6) 0.0004(6)
C6 0.0098(7) 0.0144(7) 0.0119(7) -0.0021(6) 0.0047(6) -0.0009(6)
O1W 0.0191(7) 0.0351(8) 0.0295(8) -0.0038(6) -0.0107(6) 0.0048(6)
loop_
_atom_type_symbol
_atom_type_description
_atom_type_scat_dispersion_real
_atom_type_scat_dispersion_imag
_atom_type_scat_source
C C 0.0181 0.0091 'International Tables Vol C Tables 4.2.6.8 and 6.1.1.4'
H H 0.0000 0.0000 'International Tables Vol C Tables 4.2.6.8 and 6.1.1.4'
O O 0.0492 0.0322 'International Tables Vol C Tables 4.2.6.8 and 6.1.1.4'
S S 0.3331 0.5567 'International Tables Vol C Tables 4.2.6.8 and 6.1.1.4'
Cl Cl 0.3639 0.7018 'International Tables Vol C Tables 4.2.6.8 and 6.1.1.4'
N N 0.0311 0.0180 'International Tables Vol C Tables 4.2.6.8 and 6.1.1.4'
loop_
_geom_angle_atom_site_label_1
_geom_angle_atom_site_label_2
_geom_angle_atom_site_label_3
_geom_angle
O3 S1 O1 113.6(2)
O2 S1 O3A 112.60(17)
O2 S1 O1A 112.23(17)
O3A S1 O1A 111.26(18)
O3 S1 O2A 111.9(2)
O1 S1 O2A 112.1(2)
O3 S1 C7 108.41(15)
O2 S1 C7 107.07(10)
O1 S1 C7 105.04(13)
O3A S1 C7 106.90(12)
O1A S1 C7 106.34(11)
O2A S1 C7 105.12(13)
C8 C7 C12 120.57(15)
C8 C7 S1 119.97(12)
C12 C7 S1 119.45(12)
C9 C8 C7 119.36(15)
C9 C8 H8 120.3
C7 C8 H8 120.3
C8 C9 C10 120.94(15)
C8 C9 H9 119.5
C10 C9 H9 119.5
C11 C10 C9 118.68(16)
C11 C10 C13 120.88(17)
C9 C10 C13 120.44(16)
C10 C11 C12 121.15(16)
C10 C11 H11 119.4
C12 C11 H11 119.4
C11 C12 C7 119.29(15)
C11 C12 H12 120.4
C7 C12 H12 120.4
C10 C13 H13C 109.5
C10 C13 H13A 109.5
H13C C13 H13A 109.5
C10 C13 H13B 109.5
H13C C13 H13B 109.5
H13A C13 H13B 109.5
C6 N1 C2 121.66(14)
C6 N1 H1 121.5(18)
C2 N1 H1 116.8(19)
N2 C2 N3 119.34(15)
N2 C2 N1 118.64(15)
N3 C2 N1 122.02(15)
C4 N3 C2 115.85(14)
C2 N2 H2B 115.3(17)
C2 N2 H2A 123.4(17)
H2B N2 H2A 121(2)
C6 N4 H4B 117.0(18)
C6 N4 H4A 118.8(18)
H4B N4 H4A 123(2)
N3 C4 C5 126.65(15)
N3 C4 Cl1 113.71(12)
C5 C4 Cl1 119.62(13)
C4 C5 C6 116.00(15)
C4 C5 H5 122.0
C6 C5 H5 122.0
N4 C6 N1 118.68(15)
N4 C6 C5 123.55(16)
N1 C6 C5 117.77(14)
H2W O1W H1W 106(2)
loop_
_geom_bond_atom_site_label_1
_geom_bond_atom_site_label_2
_geom_bond_distance
S1 O3 1.435(3)
S1 O2 1.436(2)
S1 O1 1.448(3)
S1 O3A 1.466(3)
S1 O1A 1.481(3)
S1 O2A 1.495(3)
S1 C7 1.7655(16)
C7 C8 1.390(2)
C7 C12 1.392(2)
C8 C9 1.389(2)
C8 H8 0.9500
C9 C10 1.397(3)
C9 H9 0.9500
C10 C11 1.389(3)
C10 C13 1.508(2)
C11 C12 1.390(2)
C11 H11 0.9500
C12 H12 0.9500
C13 H13C 0.9800
C13 H13A 0.9800
C13 H13B 0.9800
Cl1 C4 1.7290(16)
N1 C6 1.361(2)
N1 C2 1.365(2)
N1 H1 0.90(3)
C2 N2 1.323(2)
C2 N3 1.334(2)
N3 C4 1.334(2)
N2 H2B 0.91(3)
N2 H2A 0.85(3)
N4 C6 1.321(2)
N4 H4B 0.84(3)
N4 H4A 0.82(3)
C4 C5 1.368(2)
C5 C6 1.406(2)
C5 H5 0.9500
O1W H2W 0.824(17)
O1W H1W 0.805(18)
loop_
_geom_hbond_atom_site_label_D
_geom_hbond_atom_site_label_H
_geom_hbond_atom_site_label_A
_geom_hbond_site_symmetry_A
_geom_hbond_distance_DH
_geom_hbond_distance_HA
_geom_hbond_distance_DA
_geom_hbond_angle_DHA
_geom_hbond_publ_flag
N1 H1 O1W 1_555 0.90(3) 1.78(3) 2.674(2) 178(3) yes
O1W H1W O2 1_555 0.80(2) 2.21(3) 2.980(4) 162(4) yes
N2 H2A O3A 1_565 0.85(3) 2.33(3) 3.158(5) 165(2) yes
N2 H2B N3 2_586 0.91(3) 2.08(3) 2.983(2) 175(3) yes
O1W H2W O3A 1_565 0.82(3) 2.11(2) 2.870(4) 154(3) yes
N4 H4A O1A 1_555 0.82(3) 2.07(3) 2.826(4) 154(3) yes
N4 H4B O2 1_455 0.84(3) 1.99(3) 2.794(5) 161(3) yes
C5 H5 Cl1 2_476 0.95 2.76 3.7008(19) 170 yes
loop_
_geom_torsion_atom_site_label_1
_geom_torsion_atom_site_label_2
_geom_torsion_atom_site_label_3
_geom_torsion_atom_site_label_4
_geom_torsion
O3 S1 C7 C8 -80.1(4)
O2 S1 C7 C8 130.1(3)
O1 S1 C7 C8 41.7(3)
O3A S1 C7 C8 -109.0(3)
O1A S1 C7 C8 10.0(3)
O2A S1 C7 C8 160.1(3)
O3 S1 C7 C12 100.9(4)
O2 S1 C7 C12 -48.9(3)
O1 S1 C7 C12 -137.4(3)
O3A S1 C7 C12 72.0(3)
O1A S1 C7 C12 -169.1(3)
O2A S1 C7 C12 -18.9(3)
C12 C7 C8 C9 0.7(2)
S1 C7 C8 C9 -178.40(12)
C7 C8 C9 C10 -0.3(2)
C8 C9 C10 C11 -0.8(3)
C8 C9 C10 C13 178.60(15)
C9 C10 C11 C12 1.5(3)
C13 C10 C11 C12 -177.86(15)
C10 C11 C12 C7 -1.2(3)
C8 C7 C12 C11 0.0(2)
S1 C7 C12 C11 179.12(12)
C6 N1 C2 N2 179.12(14)
C6 N1 C2 N3 -1.1(2)
N2 C2 N3 C4 -178.06(14)
N1 C2 N3 C4 2.2(2)
C2 N3 C4 C5 -1.1(2)
C2 N3 C4 Cl1 -179.46(11)
N3 C4 C5 C6 -1.1(2)
Cl1 C4 C5 C6 177.21(12)
C2 N1 C6 N4 178.46(15)
C2 N1 C6 C5 -1.2(2)
C4 C5 C6 N4 -177.45(15)
C4 C5 C6 N1 2.1(2)

_cod_database_fobs_code 2020766
