#------------------------------------------------------------------------------
#$Date: 2015-10-15 03:46:44 +0300 (Thu, 15 Oct 2015) $
#$Revision: 169160 $
#$URL: svn://www.crystallography.net/cod/cif/2/02/02/2020256.cif $
#------------------------------------------------------------------------------
#
# This file is available in the Crystallography Open Database (COD),
# http://www.crystallography.net/. The original data for this entry
# were provided by IUCr Journals, http://journals.iucr.org/.
#
# The file may be used within the scientific community so long as
# proper attribution is given to the journal article from which the
# data were obtained.
#
data_2020256
loop_
_publ_author_name
'Sharmila, N.'
'Sundar, T. V.'
'Satish, G.'
'Ilangovan, A.'
'Venkatesan, P.'
_publ_section_title
;
 Two new isatin derivatives: 1-benzyl-4,5,6-trimethoxyindoline-2,3-dione
 and 1-benzyl-5-fluoroindoline-2,3-dione
;
_journal_coeditor_code           EG3190
_journal_issue                   11
_journal_name_full               'Acta Crystallographica Section C'
_journal_page_first
;
;
_journal_paper_doi               10.1107/S2053229615018422
_journal_volume                  71
_journal_year                    2015
_chemical_formula_iupac          'C15 H10 F N O2'
_chemical_formula_moiety         'C15 H10 F N O2'
_chemical_formula_sum            'C15 H10 F N O2'
_chemical_formula_weight         255.24
_chemical_melting_point          410
_chemical_name_systematic
;
1-Benzyl-5-fluoroindoline-2,3-dione
;
_space_group_crystal_system      monoclinic
_space_group_IT_number           7
_space_group_name_Hall           'P -2yc'
_space_group_name_H-M_alt        'P 1 c 1'
_symmetry_space_group_name_Hall  'P -2yc'
_symmetry_space_group_name_H-M   'P 1 c 1'
_atom_sites_solution_hydrogens   geom
_atom_sites_solution_primary     direct
_audit_creation_method           SHELXL2013
_cell_angle_alpha                90
_cell_angle_beta                 99.821(6)
_cell_angle_gamma                90
_cell_formula_units_Z            2
_cell_length_a                   6.6616(12)
_cell_length_b                   4.8577(10)
_cell_length_c                   19.099(4)
_cell_measurement_reflns_used    2807
_cell_measurement_temperature    296(2)
_cell_measurement_theta_max      30.6
_cell_measurement_theta_min      2.10
_cell_volume                     609.0(2)
_computing_cell_refinement
;
SAINT (Bruker, 2004)
;
_computing_data_collection
;
SMART (Bruker, 2004)
;
_computing_data_reduction
;
SAINT (Bruker, 2004)
;
_computing_molecular_graphics
;
QMOL (Gans & Shalloway, 2001), Mercury (Macrae <i>et al.</i>,
2008)
;
_computing_publication_material
;
WinGX publication routines (Farrugia, 2012) and PLATON (Spek,
2009)
;
_computing_structure_refinement
;
SHELXL2013 (Sheldrick, 2015)
;
_computing_structure_solution
;
SHELXS97 (Sheldrick, 2008)
;
_diffrn_ambient_temperature      296(2)
_diffrn_measured_fraction_theta_full 0.977
_diffrn_measured_fraction_theta_max 0.977
_diffrn_measurement_device_type  'Bruker Kappa APEXII CCD area-detector'
_diffrn_measurement_method       '\w and \f'
_diffrn_radiation_monochromator  graphite
_diffrn_radiation_type           MoK\a
_diffrn_radiation_wavelength     0.71073
_diffrn_reflns_av_R_equivalents  0.0524
_diffrn_reflns_limit_h_max       7
_diffrn_reflns_limit_h_min       -7
_diffrn_reflns_limit_k_max       5
_diffrn_reflns_limit_k_min       -5
_diffrn_reflns_limit_l_max       22
_diffrn_reflns_limit_l_min       -20
_diffrn_reflns_number            7057
_diffrn_reflns_theta_full        24.981
_diffrn_reflns_theta_max         24.981
_diffrn_reflns_theta_min         3.103
_exptl_absorpt_coefficient_mu    0.103
_exptl_absorpt_correction_T_max  0.979
_exptl_absorpt_correction_T_min  0.963
_exptl_absorpt_correction_type   multi-scan
_exptl_absorpt_process_details
;
(SADABS; Bruker, 2004)
;
_exptl_crystal_colour            red
_exptl_crystal_density_diffrn    1.392
_exptl_crystal_description       block
_exptl_crystal_F_000             264
_exptl_crystal_size_max          0.350
_exptl_crystal_size_mid          0.300
_exptl_crystal_size_min          0.250
_refine_diff_density_max         0.208
_refine_diff_density_min         -0.171
_refine_ls_abs_structure_details
;
Flack x parameter determined using 484 quotients [(I^+^) - (I^-^)]/[(I^+^) +
(I^-^)] (Parsons <i>et al.</i>,  2013)
;
_refine_ls_abs_structure_Flack   0.2(7)
_refine_ls_extinction_method     none
_refine_ls_goodness_of_fit_ref   1.162
_refine_ls_hydrogen_treatment    constr
_refine_ls_matrix_type           full
_refine_ls_number_parameters     172
_refine_ls_number_reflns         1859
_refine_ls_number_restraints     2
_refine_ls_restrained_S_all      1.162
_refine_ls_R_factor_all          0.0877
_refine_ls_R_factor_gt           0.0547
_refine_ls_shift/su_max          0.000
_refine_ls_shift/su_mean         0.000
_refine_ls_structure_factor_coef Fsqd
_refine_ls_weighting_details
'w = 1/[\s^2^(Fo^2^)+0.2695P] where P=(Fo^2^+2Fc^2^)/3'
_refine_ls_weighting_scheme      calc
_refine_ls_wR_factor_gt          0.0734
_refine_ls_wR_factor_ref         0.0800
_reflns_number_gt                1318
_reflns_number_total             1859
_reflns_threshold_expression     I>2\s(I)
_cod_data_source_file            eg3190sup1.cif
_cod_data_source_block           II
_cod_database_code               2020256
_shelx_space_group_comment
;
The symmetry employed for this shelxl refinement is uniquely defined
by the following loop, which should always be used as a source of
symmetry information in preference to the above space-group names.
They are only intended as comments.
;
_shelx_estimated_absorpt_t_min   0.965
_shelx_estimated_absorpt_t_max   0.975
_shelx_hkl_file
;
  -1   0   0 2826.42   58.09
   1   0   0 2950.10   60.59
   1   0   0 2903.21   56.79
  -1   0   0 3003.80   58.29
  -1   0   0 2961.60   60.59
  -2   0   0  197.38    5.60
  -2   0   0  194.28    9.80
  -2   0   0  172.68   17.90
   2   0   0  195.78   10.30
  -3   0   0 3704.53  140.19
  -3   0   0 3426.46   69.39
  -4   0   0  192.78   26.80
  -4   0   0  185.78    7.20
  -5   0   0   10.00    3.00
  -5   0   0   -7.50    8.80
  -5   0   0    7.40    7.10
  -6   0   0  142.09   27.10
  -7   0   0  107.59   20.90
  -9   0   0  637.34   58.09
   0  -1   0  432.36   13.20
   0  -1   0  434.26   17.10
   0  -1   0  450.65   24.10
   0  -1   0  439.96   23.10
   0   1   0  451.85   23.30
   0   1   0  416.76   13.20
   0   1   0  500.95   25.50
   0   1   0  411.26   20.80
   0   1   0  426.96   17.00
  -1  -1   0 2078.89   44.60
   1  -1   0 2136.19   65.69
   1  -1   0 2085.19   76.29
   1  -1   0 2117.19   44.60
   1  -1   0 2074.69   63.39
  -1  -1   0 1979.90   74.99
  -1  -1   0 2291.67   77.99
   1  -1   0 2087.59   44.50
  -1   1   0 2101.29   76.99
  -1   1   0 2077.89   66.19
  -1   1   0 2152.68   63.09
   1   1   0 2009.00   44.30
   1   1   0 2126.39   76.39
  -1   1   0 2040.30   44.70
  -2  -1   0  960.00   45.60
   2  -1   0  975.00   23.00
   2  -1   0  920.91   22.40
  -2  -1   0  892.31   22.70
  -2  -1   0  928.31   38.80
   2  -1   0  883.21   40.70
  -2   1   0  937.91   32.70
  -2   1   0  961.70   42.60
  -2   1   0  944.81   49.30
  -2   1   0  901.91   23.00
   2   1   0  922.91   44.50
   2   1   0  929.31   22.70
  -2   1   0  899.81   23.30
   3  -1   0  299.37   10.10
  -3  -1   0  285.97   26.30
  -3  -1   0  259.77   22.10
  -3  -1   0  279.27   10.30
  -3   1   0  259.77   28.60
  -3   1   0  264.27   15.40
   3   1   0  267.37   14.70
  -3   1   0  279.67   11.50
  -3   1   0  271.77   22.60
  -3   1   0  258.67   10.30
   4  -1   0  133.09    5.70
  -4  -1   0  162.88   25.40
  -4  -1   0  131.49    7.50
   4  -1   0  121.09    5.10
  -4   1   0  124.69    8.80
  -4   1   0  120.59   26.40
   4   1   0  125.79    5.20
   4   1   0  135.29   13.10
   4   1   0  123.39    5.70
  -4   1   0  116.49    7.30
  -4   1   0  131.69   19.90
  -5  -1   0   63.49    5.90
  -5  -1   0   68.49   18.20
  -5   1   0   77.59    8.60
   5   1   0   85.79   15.50
  -5   1   0   44.60   16.40
  -5   1   0   70.59    6.30
  -5   1   0   53.99   15.50
  -6  -1   0  206.68   39.30
  -6   1   0  145.69   34.80
   6   1   0  127.69   17.10
  -6   1   0  125.49   26.10
  -7  -1   0   77.59   23.80
  -8  -1   0  200.28   40.20
   0  -2   0   18.00    7.80
   0  -2   0   17.40    6.10
   0  -2   0   17.40    9.70
   0  -2   0   14.90    7.70
   0  -2   0   16.70    5.00
   0   2   0   11.20    6.20
   0   2   0   24.00   11.90
   0   2   0   11.50    4.30
   0   2   0   14.70    5.70
  -1  -2   0  139.99   22.50
  -1  -2   0  162.48   15.20
   1  -2   0  165.18   16.40
   1  -2   0  149.09   20.10
   1  -2   0  179.38   22.20
   1  -2   0  181.88   13.30
   1  -2   0  162.78   10.50
   1  -2   0  167.18   10.50
  -1  -2   0  177.18   21.40
  -1  -2   0  162.08   10.50
   1   2   0  156.78   10.70
  -1   2   0  174.58   21.50
  -1   2   0  205.88   26.80
  -1   2   0  165.18   11.20
  -1   2   0  141.19   20.40
  -1   2   0  167.38   11.40
   1   2   0  191.48   20.30
  -2  -2   0  277.87   27.60
  -2  -2   0  247.28   12.50
  -2  -2   0  243.68   26.20
   2  -2   0  268.07   12.90
   2  -2   0  241.88   13.70
  -2   2   0  268.67   28.40
  -2   2   0  248.48   28.10
  -2   2   0  260.27   17.50
   2   2   0  262.67   13.20
  -2   2   0  261.77   13.80
  -2   2   0  254.97   15.80
  -3  -2   0  478.65   36.00
  -3  -2   0  599.74   43.30
   3  -2   0  523.15   18.30
  -3  -2   0  524.55   18.70
  -3   2   0  501.65   24.20
  -3   2   0  523.65   39.80
  -3   2   0  503.15   28.00
  -3   2   0  553.24   44.10
  -3   2   0  534.95   20.20
   3   2   0  554.64   19.30
  -4  -2   0   20.10    6.00
  -4  -2   0   19.10   12.00
   4  -2   0   14.30    4.30
  -4   2   0   20.80    7.30
  -4   2   0    5.10   10.00
  -4   2   0   18.30   13.40
  -4   2   0    2.30    8.40
   4   2   0   17.50    5.70
  -4   2   0   12.70    5.40
  -5  -2   0   30.20   16.80
   5  -2   0   26.50    4.80
   5   2   0   23.60   10.70
   5   2   0   33.10    5.90
  -5   2   0   19.80   18.60
  -5   2   0   22.20    8.10
  -5   2   0   21.90   16.60
  -5   2   0   29.70    8.90
  -6  -2   0   71.99   26.10
  -6   2   0   41.50   28.00
  -6   2   0   59.09   27.30
   6   2   0   58.79   15.30
  -6   2   0   58.49   11.10
  -7  -2   0   41.80   25.00
  -7   2   0   28.30    9.30
   7   2   0   18.00   12.70
  -8  -2   0   88.79   26.70
   8   2   0   -2.10   13.50
   0  -3   0  156.58   28.30
   0  -3   0   97.79   17.80
   0  -3   0  159.48   15.90
   0   3   0  231.48   43.00
   0   3   0  144.99   13.40
  -1  -3   0   16.70    7.50
  -1  -3   0   19.50   10.90
   1  -3   0   12.60   10.50
   1  -3   0   26.10   12.40
   1  -3   0   27.50    8.00
   1  -3   0   30.10    8.40
  -1   3   0    8.90    8.30
   1   3   0   71.09   23.40
  -1   3   0   27.30    6.30
  -1   3   0   34.70   17.80
   1   3   0   42.40   10.10
  -1   3   0   28.60    9.20
   2  -3   0   49.50   11.20
  -2  -3   0   47.10   12.60
   2  -3   0   27.10    7.20
   2  -3   0   44.90    9.60
  -2  -3   0   21.90   10.70
   2   3   0   50.19   10.60
  -2   3   0   45.70   10.00
  -2   3   0   38.90    7.70
  -2   3   0   62.59   23.10
  -3  -3   0   74.59   19.60
   3  -3   0   97.79    8.80
  -3  -3   0  122.09   22.10
  -3  -3   0   95.89   10.80
   3  -3   0  102.19   10.90
  -3   3   0  113.69   30.10
   3   3   0  109.19   12.60
  -3   3   0  106.19   13.00
  -3   3   0   78.39   12.30
  -4  -3   0   74.69   21.40
  -4  -3   0   46.30    9.50
   4  -3   0   48.40    9.70
  -4  -3   0   38.30   18.90
  -4   3   0   47.10   11.90
  -4   3   0   32.00   19.90
  -4   3   0   45.00   30.70
   4   3   0   51.79   10.60
  -5  -3   0   -4.80   17.60
  -5   3   0  -48.90   30.00
  -5   3   0    5.10   19.20
  -5   3   0   -5.80    8.00
  -6  -3   0   15.20   25.80
   6   3   0    8.80   10.90
  -6   3   0    3.40    9.30
  -6   3   0   24.10   27.00
  -7  -3   0   21.90   29.90
  -7   3   0    9.80   10.40
   7   3   0   16.30   12.10
  -8  -3   0   56.09   38.60
   8   3   0    1.50   14.10
   9   3   0  -11.10   17.70
   0  -4   0  111.19   25.40
   0  -4   0  163.18   15.90
   0  -4   0  166.28   21.00
   0   4   0  162.28   17.60
  -1  -4   0    3.90    8.50
   1  -4   0    1.90    8.40
  -1  -4   0    8.90   17.30
   1  -4   0   21.10   18.60
   1  -4   0   15.60    9.20
  -1   4   0   52.49   37.00
  -1   4   0   11.80    9.50
  -1   4   0   -5.50   10.70
   1   4   0    4.40   10.00
   1   4   0   71.19   36.80
   2  -4   0  127.39   15.10
   2  -4   0  104.09   17.60
   2  -4   0   96.49   19.30
  -2  -4   0  126.09   28.80
  -2  -4   0  144.69   26.30
  -2   4   0  132.29   16.60
  -2   4   0  176.38   49.30
  -2   4   0  122.39   25.80
   2   4   0  168.08   18.60
   2   4   0  169.08   39.40
  -3  -4   0   80.29   27.50
   3  -4   0  119.69   17.10
  -3  -4   0  136.69   29.00
  -3   4   0   83.69   27.60
  -3   4   0  109.19   18.00
   3   4   0  106.79   16.50
  -3   4   0   91.19   55.49
  -4  -4   0  158.68   32.80
   4  -4   0   88.69   14.40
  -4  -4   0   79.29   29.30
  -4   4   0   89.69   16.50
   4   4   0  109.39   16.90
  -4   4   0  122.79   34.60
  -5  -4   0   12.50   29.50
  -5  -4   0   99.59   28.40
  -5   4   0   18.60   12.70
  -5   4   0  120.59   35.70
  -6  -4   0  -21.20   30.20
  -6   4   0   19.00   13.10
  -7  -4   0  -43.60   32.20
   7   4   0    5.50   12.70
  -7   4   0   -2.90   11.80
   8   4   0    4.10   13.40
   0  -5   0   51.89   13.70
   0  -5   0   20.00   13.90
   0  -5   0   22.20   30.70
   0   5   0   59.19   15.50
  -1  -5   0   72.29   16.60
  -1  -5   0   63.79   20.60
   1  -5   0   85.89   17.90
  -1   5   0   66.59   17.70
   1   5   0   80.19   18.10
   2  -5   0   24.70   11.70
  -2  -5   0  -11.90   25.70
  -2  -5   0   21.70   19.00
   2   5   0   27.30   14.40
  -2   5   0   23.30   13.60
  -2   5   0   31.90   20.70
  -3  -5   0   30.90   32.10
   3  -5   0   75.49   16.40
  -3  -5   0  102.29   31.80
   3   5   0   72.09   18.10
  -3   5   0   56.79   16.10
  -4  -5   0  -20.90   30.80
  -4  -5   0   34.50   25.80
  -4   5   0   18.40   14.40
  -5  -5   0  102.19   28.70
  -5   5   0    1.00   13.20
   7   5   0   31.60   15.80
   0  -6   0    4.60   43.30
   0  -6   0   58.69   17.60
   0   6   0   55.49   18.20
   1  -6   0   67.29   18.40
  -1  -6   0   67.99   19.90
  -1   6   0   31.80   16.80
   1   6   0   55.39   19.00
  -2  -6   0  -12.10   22.00
   2  -6   0    3.80   10.30
  -2  -6   0    8.80   13.20
  -2   6   0    9.80   15.90
   2   6   0   -3.10   13.10
  -3  -6   0   51.49   29.30
  -3  -6   0    7.60   14.40
  -3   6   0    3.90   14.60
   1   7   0  -10.30   17.30
  -9   0   1  521.85   50.69
  -8   0   1  307.87   35.60
  -7   0   1   28.80   16.00
  -6   0   1    9.70    9.00
  -6   0   1    6.50   12.70
  -5   0   1    8.30    2.40
  -5   0   1   -4.00    7.40
  -4   0   1    6.90    1.90
  -4   0   1   -3.70    4.70
   3   0  -1    8.10    6.10
   2   0  -1    2.20    4.20
  -2   0   1    2.00    4.20
  -1   0   1    4.30    2.50
   1   0  -1   -1.40    2.50
   0   0  -1   -1.20    0.20
   0   0   1   -1.60    0.10
   0   0  -1   -1.30    0.20
   0   0   1   -1.40    0.10
   1   0   1    5.80    2.50
  -1   0  -1    0.90    1.30
  -1   0  -1    3.20    2.50
   1   0   1    3.20    1.30
   1   0   1    2.40    1.80
   2   0   1   -0.40    4.30
  -2   0  -1   -4.50    3.60
  -2   0  -1   -1.00    1.70
  -2   0  -1   -4.30    3.40
   2   0   1   -1.20    0.50
   2   0   1    0.30    2.30
  -3   0  -1   -3.00    4.40
  -4   0  -1    4.60    4.80
  -4   0  -1    3.90    2.50
  -4   0  -1   -5.50    5.60
  -5   0  -1   -6.10    8.50
  -5   0  -1    3.90    7.10
  -5   0  -1    0.70    2.40
  -6   0  -1   -7.20   13.40
  -6   0  -1    6.60    7.70
  -7   0  -1   15.10    7.60
  -9  -1   1  476.95   59.19
  -8  -1   1  262.97   43.80
  -7  -1   1   86.19   26.00
  -7  -1   1   45.40   15.50
  -7   1   1   89.89   26.70
  -7   1   1   56.69   21.10
  -6  -1   1  182.28   38.60
  -6  -1   1  284.07   43.00
  -6   1   1  257.87   24.60
  -6   1   1  192.98   35.90
  -6   1   1  275.87   57.19
   6   1  -1  189.88   19.50
  -5  -1   1  233.98   35.00
  -5  -1   1  233.78    9.70
  -5  -1   1  281.07   35.60
  -5   1   1  243.98   41.80
  -5   1   1  255.07   12.10
  -5   1   1  249.68   29.80
  -5   1   1  268.67   22.70
   5   1  -1  241.98   18.80
  -4  -1   1  437.26   36.90
  -4  -1   1  425.16   13.30
  -4  -1   1  411.36   32.20
  -4   1   1  416.86   31.00
  -4   1   1  407.56   14.30
  -4   1   1  444.16   39.20
   4   1  -1  416.86   21.00
  -4   1   1  433.36   24.80
  -3  -1   1   66.69    5.40
  -3  -1   1   44.80   10.00
   3  -1  -1   76.19    4.90
  -3   1   1   77.79   14.80
   3   1  -1   69.79    4.70
  -3   1   1   72.69    9.20
  -3   1   1   72.59    6.30
   2  -1  -1  365.16   22.60
   2  -1  -1  352.26   11.50
   2  -1  -1  350.66   11.10
  -2  -1   1  320.87   11.50
  -2   1   1  337.87   11.90
  -2   1   1  360.86   23.80
   2   1  -1  332.97   11.40
   2   1  -1  415.96   25.70
  -2   1   1  380.76   17.60
   1  -1  -1 1978.10   63.29
  -1  -1   1 1869.11   63.19
  -1  -1   1 1869.21   71.29
   1  -1  -1 1943.21   71.69
  -1  -1   1 1936.41   41.80
   1  -1  -1 1903.61   41.60
  -1  -1   1 2028.70   71.99
  -1   1   1 2029.70   71.49
  -1   1   1 1959.20   72.19
   1   1  -1 1941.41   41.80
  -1   1   1 1965.60   63.89
  -1   1   1 1993.20   57.09
  -1   1   1 1853.41   41.60
   1   1  -1 2002.70   71.49
   0  -1   1  932.71   39.10
   0  -1  -1  963.30   31.20
   0  -1  -1 1008.40   40.30
   0  -1   1  971.30   32.80
   0  -1   1  948.01   23.30
   0  -1   1  941.31   40.60
   0  -1  -1  945.31   39.20
   0  -1  -1  917.51   37.20
   0  -1   1  939.91   23.30
   0  -1  -1 1003.00   23.50
   0  -1   1  951.00   39.00
   0   1   1  977.60   40.10
   0   1  -1  956.90   32.70
   0   1  -1  954.00   39.50
   0   1  -1  950.60   41.40
   0   1   1 1014.40   40.00
   0   1   1  958.70   37.80
   0   1  -1  965.20   23.60
   0   1   1  960.20   23.40
   0   1  -1  966.30   39.40
   1  -1   1 2622.54   81.99
   1  -1   1 2688.13   56.29
   1  -1   1 2755.32  103.99
  -1  -1  -1 2507.95   92.99
  -1  -1  -1 2714.73   56.19
   1  -1   1 2649.63   56.39
   1  -1   1 2718.53   82.59
  -1  -1  -1 2859.41   97.19
   1  -1   1 2750.72   96.09
   1   1   1 2666.63   95.49
  -1   1  -1 2770.12   96.69
  -1   1  -1 2720.23  104.69
  -1   1  -1 2750.72   56.99
   1   1   1 2688.13   93.79
  -1   1  -1 2727.13   56.49
  -1   1  -1 2761.22   81.89
   1   1   1 2761.62   56.49
   2  -1   1  142.99    7.20
  -2  -1  -1  129.79    7.30
   2  -1   1  143.89    7.70
   2  -1   1  143.59   14.60
  -2  -1  -1  163.88   18.80
  -2  -1  -1  142.09   13.70
  -2   1  -1  145.19   14.30
  -2   1  -1  176.38   17.20
   2   1   1  143.39    7.70
  -2   1  -1  119.49   19.50
  -2   1  -1  131.69    8.50
  -2   1  -1  134.99    7.80
  -2   1  -1  134.69    7.30
   3  -1   1  692.53   18.40
   3  -1   1  651.23   17.60
  -3  -1  -1  687.33   37.00
  -3  -1  -1  667.73   41.90
  -3  -1  -1  661.03   18.60
  -3   1  -1  667.23   45.40
   3   1   1  598.34   17.50
  -3   1  -1  677.43   36.30
  -3   1  -1  686.33   20.10
   3   1   1  671.23   23.60
  -3   1  -1  636.14   18.70
  -4  -1  -1  451.45   14.80
   4  -1   1  450.15   13.20
  -4  -1  -1  419.66   35.10
  -4  -1  -1  404.06   37.80
   4  -1   1  432.16   12.60
  -4   1  -1  450.85   16.80
  -4   1  -1  423.96   14.80
   4   1   1  426.96   13.30
   4   1   1  416.96   20.50
   4   1   1  452.45   12.80
  -4   1  -1  443.76   31.90
  -4   1  -1  439.56   43.00
  -5  -1  -1   18.30   10.40
  -5  -1  -1   32.90    5.70
  -5   1  -1   34.90    7.80
   5   1   1   29.00   11.80
  -5   1  -1    6.30   12.50
  -5   1  -1   27.30    5.40
  -5   1  -1   24.70   12.20
  -6  -1  -1  195.78   39.30
  -6   1  -1  114.49   23.10
   6   1   1  154.38   18.20
  -6   1  -1  175.48   39.80
  -7  -1  -1   44.80   17.60
  -7  -1  -1    7.40   12.20
  -7   1  -1   -3.20   11.70
  -7   1  -1   19.30   25.50
  -8  -1  -1  185.98   38.80
  -8  -2   1   73.29   27.50
   8   2  -1   -5.90   13.00
  -7  -2   1   53.89   25.30
  -7   2   1   84.79   29.00
  -6  -2   1  103.69   29.20
  -6   2   1  127.39   31.00
  -6   2   1  101.39   12.70
  -6   2   1  134.19   18.80
  -6   2   1  108.69   35.80
   6   2  -1  151.18   22.10
  -5  -2   1   68.49   20.70
   5  -2  -1   81.29    6.00
  -5  -2   1   92.59    8.70
  -5   2   1   51.79   18.10
   5   2  -1   80.79    6.40
   5   2  -1   87.89   15.60
  -5   2   1  106.19   12.80
  -5   2   1   82.39   13.30
  -5   2   1   88.59   25.60
  -4  -2   1   36.70   14.20
  -4  -2   1   30.70    6.30
   4  -2  -1   37.50    6.00
   4   2  -1   34.60    6.40
  -4   2   1   38.50    8.20
  -4   2   1   32.10    7.60
  -4   2   1   13.40    9.90
  -4   2   1   15.40   10.30
  -4   2   1   40.40   16.70
  -3  -2   1  341.97   14.90
  -3  -2   1  352.36   34.20
  -3  -2   1  328.07   30.30
   3  -2  -1  353.36   14.20
  -3   2   1  325.77   21.40
  -3   2   1  326.67   15.50
  -3   2   1  327.47   20.30
   3   2  -1  345.07   14.90
  -3   2   1  382.76   36.60
  -3   2   1  334.87   32.70
  -2  -2   1  249.68   26.70
  -2  -2   1  264.67   12.80
  -2  -2   1  254.07   21.00
  -2  -2   1  273.67   27.20
   2  -2  -1  255.07   15.40
   2  -2  -1  266.67   12.60
   2   2  -1  275.17   13.60
  -2   2   1  268.97   19.60
  -2   2   1  250.47   13.30
  -2   2   1  261.77   14.40
  -2   2   1  255.27   27.70
   1  -2  -1  393.56   15.90
   1  -2  -1  369.96   27.70
  -1  -2   1  325.87   30.30
   1  -2  -1  376.56   29.90
  -1  -2   1  379.56   22.70
   1  -2  -1  390.36   17.90
  -1  -2   1  384.16   15.70
   1  -2  -1  389.66   23.70
  -1  -2   1  402.16   30.10
  -1   2   1  381.56   16.90
   1   2  -1  358.16   27.00
   1   2  -1  407.86   34.90
   1   2  -1  379.76   16.10
  -1   2   1  419.16   32.50
   1   2  -1  391.26   20.20
  -1   2   1  388.96   29.10
  -1   2   1  373.56   24.50
  -1   2   1  364.86   15.80
   0  -2  -1  132.19    9.60
   0  -2   1  152.88   21.80
   0  -2  -1  122.09   19.10
   0  -2   1  125.59    9.50
   0  -2  -1  141.29   20.40
   0  -2  -1  131.29   19.00
   0  -2   1  126.79   22.50
   0  -2   1  138.69   12.40
   0  -2  -1  129.59   10.80
   0   2  -1  120.89   10.10
   0   2  -1  128.99   11.10
   0   2   1  180.68   25.50
   0   2   1  126.09    9.70
   0   2  -1  176.58   27.90
   0   2  -1  127.99   15.90
   0   2   1  122.89   17.80
   0   2  -1  126.39   18.30
   1  -2   1  709.13   41.10
  -1  -2  -1  731.13   23.20
  -1  -2  -1  642.84   39.30
  -1  -2  -1  704.53   39.40
   1  -2   1  721.73   32.00
   1  -2   1  762.52   23.50
   1  -2   1  723.53   30.70
   1  -2   1  732.43   23.40
  -1  -2  -1  752.52   42.80
  -1  -2  -1  732.43   33.00
   1   2   1  714.73   40.90
  -1   2  -1  715.93   23.90
  -1   2  -1  742.63   43.20
  -1   2  -1  741.13   41.50
   1   2   1  727.03   23.20
   1   2   1  778.32   44.30
  -1   2  -1  727.63   44.30
  -1   2  -1  746.13   29.60
   2  -2   1  640.04   21.20
  -2  -2  -1  633.14   21.00
  -2  -2  -1  574.74   37.40
  -2  -2  -1  679.63   42.80
   2  -2   1  615.34   23.10
  -2   2  -1  609.64   41.70
  -2   2  -1  618.44   28.30
  -2   2  -1  652.23   22.50
  -2   2  -1  639.24   44.10
   2   2   1  654.53   21.60
   3  -2   1  108.39    8.80
  -3  -2  -1  128.99   24.80
  -3  -2  -1   82.59   16.10
  -3  -2  -1  112.59    9.20
   3   2   1  107.99    9.50
  -3   2  -1  111.19    9.90
  -3   2  -1  117.59   11.00
  -3   2  -1  144.59   26.90
  -3   2  -1   90.59   16.80
   4  -2   1  155.58    9.60
  -4  -2  -1  128.59   21.40
  -4  -2  -1  137.29   25.20
  -4  -2  -1  153.28   31.10
  -4  -2  -1  151.18   10.40
  -4   2  -1  165.68   12.80
  -4   2  -1  174.08   32.20
  -4   2  -1  148.09   11.90
   4   2   1  171.08   10.80
  -5  -2  -1  100.59   26.20
  -5  -2  -1   45.40   11.30
  -5   2  -1   94.89   25.70
  -5   2  -1   68.29   22.10
  -5   2  -1   69.99   12.50
   5   2   1   96.99   15.90
   5   2   1   56.79    6.40
  -5   2  -1  100.69   12.30
  -6  -2  -1  125.29   32.70
  -6   2  -1  126.59   14.20
   6   2   1  141.39   21.90
  -6   2  -1  107.19   33.40
  -6   2  -1  156.68   39.70
  -7  -2  -1   48.50   23.60
  -7   2  -1   15.50    8.70
   7   2   1    2.90   11.40
  -7   2  -1   34.90   31.70
  -8  -2  -1  101.59   29.00
   9   3  -1   -1.50   16.70
  -8  -3   1   52.39   35.10
   8   3  -1   -7.60   13.40
  -7  -3   1   50.99   33.40
   7   3  -1   23.80   13.20
  -7   3   1   47.90   13.20
  -6  -3   1    5.40   24.10
  -6  -3   1   51.49   20.40
  -6   3   1   51.89   25.70
  -6   3   1    4.90    8.90
   6   3  -1    5.80    9.80
  -5  -3   1   22.70   16.50
  -5  -3   1    4.80   19.50
  -5   3   1   14.20   17.40
  -5   3   1  -18.60   31.70
  -5   3   1   18.60    9.80
  -4  -3   1   80.09   10.40
   4  -3  -1   73.19    9.50
  -4  -3   1   86.79   21.00
  -4  -3   1   78.99   23.40
   4   3  -1  118.29   14.20
  -4   3   1   86.69   13.70
  -4   3   1   59.79   22.00
  -4   3   1  102.39   33.80
  -4   3   1   54.19   11.70
  -4   3   1   49.70   10.90
  -3  -3   1   30.50   14.90
  -3  -3   1   37.30    8.60
  -3  -3   1   27.50   12.30
   3  -3  -1   36.40    8.50
   3  -3  -1   36.90    7.20
   3   3  -1   40.40    9.80
  -3   3   1   37.80   10.90
  -3   3   1   39.90   10.00
  -3   3   1   35.70   21.80
  -2  -3   1   20.40    9.50
   2  -3  -1   46.60    9.60
  -2  -3   1   20.50   10.00
   2  -3  -1   23.20    7.60
   2  -3  -1   33.80    9.30
   2   3  -1   57.69   11.10
  -2   3   1   42.60   19.80
  -2   3   1   14.10   10.00
  -2   3   1   30.30    6.10
  -2   3   1   27.70    8.90
   1  -3  -1   61.99   14.80
   1  -3  -1   68.99   14.90
  -1  -3   1  106.59   15.20
   1  -3  -1   93.59   12.40
   1   3  -1  101.39   12.10
  -1   3   1   93.89   24.30
   1   3  -1   85.89   17.20
  -1   3   1  105.99   10.00
  -1   3   1  104.89   13.80
   1   3  -1  146.19   29.50
   0  -3   1  283.97   35.20
   0  -3   1  238.28   28.20
   0  -3   1  251.67   20.00
   0  -3  -1  293.47   36.00
   0  -3  -1  266.67   19.30
   0  -3   1  257.37   15.90
   0   3   1  208.78   27.20
   0   3  -1  287.67   17.30
   0   3   1  270.57   16.50
   0   3  -1  258.27   18.40
   0   3   1  369.56   52.29
   0   3  -1  210.08   26.70
   0   3  -1  367.46   49.40
   1  -3   1    1.20    6.30
  -1  -3  -1    1.50    8.30
   1  -3   1    2.50    9.30
   1  -3   1    3.30    8.90
  -1  -3  -1   -0.90    4.90
  -1   3  -1   -6.60    6.30
   1   3   1   24.20   19.60
   1   3   1    1.80    6.80
  -1   3  -1   38.70   20.60
  -1   3  -1    1.90    3.50
  -1   3  -1    1.20    6.70
   2  -3   1  324.87   17.60
   2  -3   1  379.86   28.50
  -2  -3  -1  342.97   39.60
   2  -3   1  314.97   20.20
  -2  -3  -1  353.36   27.40
  -2   3  -1  441.16   56.59
  -2   3  -1  305.37   20.30
  -2   3  -1  313.57   42.70
   2   3   1  365.26   41.60
   2   3   1  353.36   19.10
  -2   3  -1  352.66   19.90
   3  -3   1  102.99   10.70
  -3  -3  -1   74.09   19.50
  -3   3  -1   73.59   13.40
   3   3   1  122.19   13.10
  -3   3  -1  137.99   34.10
  -3   3  -1   65.69   18.80
  -3   3  -1  113.69   13.80
  -4  -3  -1   11.40    7.50
  -4  -3  -1   12.30   14.50
   4  -3   1    3.10    6.10
  -4   3  -1   10.80    8.90
   4   3   1    2.50    7.10
  -4   3  -1  -10.30   15.00
  -4   3  -1   17.90   29.20
  -5  -3  -1   17.50   22.10
  -5   3  -1  -10.30   20.00
  -5   3  -1   13.10   10.10
  -6  -3  -1  -11.00   22.30
  -6   3  -1    1.00    9.00
   6   3   1   -2.10    9.50
  -6   3  -1   -1.60   29.10
  -7  -3  -1   30.90   29.80
  -7   3  -1   10.00   11.00
   7   3   1   14.50   12.40
   8   3   1    9.40   15.90
   8   4  -1    2.60   13.90
  -7  -4   1  -24.90   32.60
   7   4  -1   15.20   14.20
  -7   4   1  -14.00   10.40
  -6  -4   1   72.89   24.80
  -6  -4   1  -15.90   30.00
  -6   4   1    9.60   12.20
  -5  -4   1  -11.00   28.20
  -5  -4   1   51.89   23.40
  -5   4   1   22.30   12.60
  -4  -4   1   52.99   22.80
  -4  -4   1   16.80   21.70
   4  -4  -1   36.10   10.60
   4   4  -1   37.10   11.90
  -4   4   1   32.00   12.60
  -3  -4   1  177.38   33.10
  -3  -4   1  106.89   29.40
   3  -4  -1  130.99   14.20
   3   4  -1  142.39   17.60
  -3   4   1  115.59   54.79
  -3   4   1  131.79   18.90
  -3   4   1  130.99   30.00
  -2  -4   1  192.88   28.70
   2  -4  -1  139.89   22.40
  -2  -4   1  125.49   28.00
   2  -4  -1  175.58   16.70
   2   4  -1  164.88   18.00
  -2   4   1  132.19   26.00
  -2   4   1  178.58   17.80
  -2   4   1  170.68   50.09
   1  -4  -1   47.10   19.30
   1  -4  -1   72.59   14.20
  -1  -4   1   29.70   17.70
  -1  -4   1   73.99   14.40
   1  -4  -1   52.39   11.60
  -1  -4   1   92.79   19.20
  -1   4   1   45.70   16.20
   1   4  -1  130.39   41.40
   1   4  -1   61.39   13.90
  -1   4   1   66.99   13.90
  -1   4   1  136.19   44.60
   0  -4   1   80.69   14.00
   0  -4   1   68.39   15.10
   0  -4  -1   64.09   12.80
   0  -4   1   52.59   20.60
   0  -4  -1   64.89   22.20
   0   4   1  117.49   38.10
   0   4   1   83.49   14.90
   0   4  -1  132.69   40.90
   0   4  -1  114.79   18.00
   1  -4   1   17.50   10.60
  -1  -4  -1   33.20   12.20
   1  -4   1   33.90   17.70
  -1  -4  -1   23.40   19.20
   1  -4   1   36.50   11.30
  -1   4  -1   42.90   11.90
  -1   4  -1  106.99   42.00
   1   4   1   92.59   37.50
   1   4   1   33.80   12.50
   2  -4   1    4.90    7.20
  -2  -4  -1   10.30   17.30
  -2  -4  -1   26.70   13.70
   2  -4   1    5.50   12.60
  -2   4  -1   17.60   11.00
  -2   4  -1   23.30   41.40
  -2   4  -1   -7.40   14.60
   2   4   1   16.20   11.00
   2   4   1   19.30   26.80
   3  -4   1   11.70    8.20
  -3  -4  -1   21.70   16.50
  -3  -4  -1   -5.70   16.70
  -3   4  -1    9.00   10.60
   3   4   1   24.70   10.90
  -3   4  -1   -5.50   19.00
  -4  -4  -1   21.80   23.50
  -4  -4  -1   71.09   23.80
   4  -4   1   36.30   10.60
   4   4   1   53.49   13.70
  -4   4  -1   32.80   28.50
  -4   4  -1   44.50   13.40
  -5  -4  -1  101.79   28.00
  -5  -4  -1   36.30   29.80
  -5   4  -1   27.40   12.90
  -6  -4  -1  -12.30   28.10
  -6   4  -1    4.50   11.50
  -7  -4  -1  -26.80   34.50
  -7   4  -1    2.60   12.40
   7   4   1   17.80   14.00
   8   4   1   10.20   14.20
   7   5  -1   10.30   14.90
  -5  -5   1  -38.00   35.10
  -5  -5   1   14.80   12.70
  -5  -5   1   77.19   29.10
  -5   5   1    7.40   13.60
  -4  -5   1   68.39   31.20
  -4  -5   1   18.90   13.70
  -4   5   1   21.90   14.80
   3  -5  -1   35.90   12.20
  -3  -5   1   57.69   15.80
  -3  -5   1   87.59   30.70
  -3  -5   1    1.50   31.20
  -3   5   1   43.30   15.80
   3   5  -1   35.40   14.50
  -2  -5   1   -6.40   29.70
   2  -5  -1   65.39   15.50
  -2  -5   1   39.70   22.70
  -2  -5   1   81.19   18.30
   2   5  -1   48.60   16.30
  -2   5   1   40.20   14.50
  -1  -5   1   36.70   29.50
   1  -5  -1  134.69   20.40
   1  -5  -1   90.09   35.70
  -1  -5   1  118.69   26.30
  -1  -5   1  107.69   19.60
  -1   5   1  125.39   20.40
  -1   5   1   73.89   20.20
   1   5  -1  110.59   20.90
   0  -5   1   45.20   17.40
   0  -5   1   53.39   33.90
   0  -5  -1   50.29   32.90
   0  -5  -1   51.39   16.50
   0  -5  -1   94.59   18.60
   0  -5   1   71.69   16.70
   0   5  -1   80.69   18.30
   0   5   1   74.89   18.00
  -1  -5  -1    7.40   13.30
   1  -5   1   17.70   11.00
  -1  -5  -1  -23.30   24.90
  -1   5  -1   12.80   12.70
   1   5   1   13.40   13.00
   1   5   1    5.80   52.99
  -2  -5  -1  -12.10   26.00
  -2  -5  -1   -4.30   15.60
   2  -5   1    1.30    8.80
  -2   5  -1  -10.10   10.50
   2   5   1    6.30   12.00
  -2   5  -1    4.50   18.50
  -3  -5  -1  -21.00   28.90
  -3  -5  -1   48.90   24.70
   3  -5   1   27.90   12.10
   3   5   1   15.20   12.70
  -3   5  -1    8.60   12.90
  -4  -5  -1  -48.50   29.10
  -4  -5  -1   47.30   25.60
  -4   5  -1   -6.00   10.90
  -5  -5  -1  -37.40   33.80
  -5   5  -1   17.10   16.00
   7   5   1   19.20   14.40
  -4  -6   1  139.19   37.40
  -3  -6   1   -8.10   12.30
  -3  -6   1   37.50   31.30
  -3   6   1    7.70   15.40
  -2  -6   1    9.00   13.70
  -2  -6   1  -24.10   25.30
   2  -6  -1    6.40   11.70
  -2   6   1   -2.30   14.70
  -1  -6   1   16.50   14.60
  -1  -6   1  -63.59   39.50
  -1   6   1   20.00   15.70
   1   6  -1   27.20   16.20
   0  -6   1  -57.39   39.30
   0  -6  -1   21.30   13.80
   0  -6   1   13.70   12.70
   0   6  -1   32.70   15.90
   0   6   1   27.50   15.00
  -1  -6  -1   33.90   16.20
   1  -6   1   20.20   13.00
  -1   6  -1   24.30   16.00
   1   6   1   31.30   16.60
   2  -6   1   -1.80   10.70
  -2  -6  -1    1.00   12.50
  -2   6  -1    0.70   15.40
  -3  -6  -1  122.99   33.80
  -3   6  -1   15.30   16.40
  -4  -6  -1  209.88   40.00
   1   7   1    0.10   16.40
  -9   0   2  508.15   45.50
  -8   0   2  318.17   38.60
  -7   0   2  307.27   32.40
  -7   0   2  244.08   51.09
  -6   0   2  120.19   24.00
  -5   0   2  412.06   42.40
   4   0  -2  419.36   21.00
   3   0  -2  202.88   12.60
   2   0  -2  636.74   20.10
  -2   0   2  653.53   19.90
  -1   0   2 9984.70  207.38
   1   0  -2 9999.00  188.18
   1   0  -2 9880.51  207.68
  -1   0   2 9229.28  283.57
  -1   0   2 9936.61  189.28
  -1   0  -2 5205.18  102.99
   1   0   2 5027.20   98.79
   1   0   2 5155.78  176.88
  -1   0  -2 4987.20  163.68
   1   0   2 4982.00  100.79
  -1   0  -2 4785.72  161.38
  -1   0  -2 4920.51  101.19
  -1   0  -2 4878.61  176.78
   2   0   2  209.18    8.40
  -2   0  -2  214.38   10.20
  -2   0  -2  206.78    7.70
   2   0   2  195.28    7.30
  -2   0  -2  193.68   11.90
  -2   0  -2  235.08   21.30
   2   0   2  205.58   18.60
  -3   0  -2  272.27   17.30
   3   0   2  286.57   10.00
  -3   0  -2  271.67   27.20
  -3   0  -2  272.87    9.90
  -4   0  -2 1093.29   27.60
  -4   0  -2 1135.79   48.70
  -4   0  -2 1192.38   66.59
   4   0   2 1127.99   25.30
   4   0   2 1096.19   24.70
  -5   0  -2   93.19   16.10
  -5   0  -2   57.59   15.90
  -5   0  -2   94.39    6.90
  -6   0  -2  199.88   23.00
  -8   0  -2  297.27   36.90
  -9  -1   2  396.96   47.20
  -8  -1   2  185.18   38.70
  -7  -1   2   28.00   11.80
  -7  -1   2   30.70   16.80
  -7   1   2   19.00   16.40
  -7   1   2   61.59   20.80
   7   1  -2   -5.30   10.90
  -6  -1   2   34.10   15.70
  -6  -1   2   12.10   10.30
  -6   1   2   22.30    9.30
   6   1  -2   17.40   11.40
  -6   1   2    2.70   12.90
  -6   1   2   18.70    5.70
  -6   1   2   19.20   14.20
  -5  -1   2  351.66   37.90
  -5  -1   2  328.47   11.10
  -5  -1   2  306.67   36.40
   5   1  -2  311.57   20.90
  -5   1   2  335.97   42.80
  -5   1   2  306.17   34.10
  -5   1   2  310.17   12.60
  -5   1   2  341.97   25.70
  -4  -1   2  233.38    9.10
  -4  -1   2  268.57   29.50
  -4   1   2  257.37   10.60
   4   1  -2  250.47   16.80
  -4   1   2  221.18   24.00
  -4   1   2  253.17   20.00
   3  -1  -2    2.40    2.20
  -3  -1   2    5.70    5.10
   3  -1  -2    4.70    2.10
  -3  -1   2    3.10    3.00
  -3   1   2    2.20    3.70
   3   1  -2   -0.80    2.20
  -3   1   2   -2.00    5.20
  -3   1   2    2.90    3.30
   2  -1  -2 2477.05   49.60
  -2  -1   2 2469.35   89.59
  -2  -1   2 2310.67   49.80
   2  -1  -2 2370.06   49.50
   2  -1  -2 2290.87   78.09
   2   1  -2 2317.77   88.39
   2   1  -2 2388.86   49.60
  -2   1   2 2430.46   89.89
  -2   1   2 2493.75   79.89
  -2   1   2 2373.36   50.19
   1  -1  -2 3033.50  108.19
  -1  -1   2 3138.19  109.99
  -1  -1   2 3018.90   63.69
  -1  -1   2 3081.09  109.19
   1  -1  -2 3140.09   63.49
   1  -1  -2 3194.48   99.49
  -1  -1   2 3116.29   63.89
  -1  -1   2 3208.68  106.89
  -1  -1   2 3055.99   96.19
   1   1  -2 3104.29   95.99
   1   1  -2 3073.89   63.79
  -1   1   2 3130.79  106.09
   1   1  -2 3178.58  106.59
  -1   1   2 3122.09   63.79
  -1   1   2 3170.28  100.19
  -1   1   2 3124.89  109.19
   0  -1  -2  793.12   20.20
   0  -1  -2  808.02   34.90
   0  -1   2  762.22   34.70
   0  -1   2  771.82   20.40
   0  -1   2  717.33   33.70
   0  -1  -2  801.62   34.40
   0  -1   2  782.82   36.80
   0  -1  -2  765.32   32.90
   0  -1   2  739.43   20.00
   0  -1   2  764.62   28.80
   0   1   2  846.72   35.20
   0   1  -2  769.72   28.70
   0   1   2  754.02   20.00
   0   1  -2  772.62   20.70
   0   1  -2  781.62   20.20
   0   1  -2  771.62   35.60
   0   1   2  784.02   33.80
   0   1   2  778.02   34.00
   0   1  -2  837.92   37.70
   0   1  -2  763.32   33.60
  -1  -1  -2 1075.59   42.40
   1  -1   2 1077.59   49.99
  -1  -1  -2 1066.59   26.30
   1  -1   2 1105.89   46.20
   1  -1   2 1081.59   26.90
   1  -1   2 1080.39   26.50
  -1  -1  -2 1078.49   42.80
  -1  -1  -2 1116.39   47.50
  -1  -1  -2  995.90   44.70
   1  -1   2 1097.79   40.10
   1   1   2 1128.99   43.10
  -1   1  -2 1119.59   51.69
  -1   1  -2 1103.59   26.70
  -1   1  -2 1111.29   39.00
   1   1   2 1049.70   46.10
  -1   1  -2 1159.98   47.30
  -1   1  -2 1092.69   27.40
   1   1   2 1049.20   26.20
   1   1   2 1098.19   43.60
  -2  -1  -2  425.36   24.70
   2  -1   2  396.06   28.70
   2  -1   2  391.76   13.60
  -2  -1  -2  384.36   13.20
   2  -1   2  389.56   23.50
  -2  -1  -2  411.36   29.00
   2  -1   2  383.46   13.00
  -2  -1  -2  376.06   21.50
  -2   1  -2  387.46   22.70
   2   1   2  381.76   13.20
  -2   1  -2  420.26   25.90
   2   1   2  401.46   22.40
  -2   1  -2  391.26   13.40
  -2   1  -2  402.26   31.30
  -2   1  -2  395.26   14.50
   3  -1   2  653.73   18.80
  -3  -1  -2  627.34   18.70
  -3  -1  -2  635.74   36.80
   3  -1   2  631.94   32.90
  -3  -1  -2  643.84   41.70
   3  -1   2  609.54   17.90
  -3   1  -2  665.93   46.50
  -3   1  -2  602.44   18.80
   3   1   2  661.73   18.50
  -3   1  -2  637.94   35.30
   3   1   2  634.44   22.60
  -3   1  -2  645.74   20.60
  -4  -1  -2   17.30    4.40
  -4  -1  -2    9.10    7.50
   4   1   2   16.80    8.20
  -4   1  -2   14.60    4.40
  -4   1  -2   15.90    6.20
   4   1   2   25.50    5.20
  -4   1  -2    3.60    8.40
  -4   1  -2   12.70    9.00
  -5  -1  -2  195.08   33.70
   5  -1   2  184.68    7.00
  -5  -1  -2  195.08   10.40
  -5  -1  -2  139.69   30.70
   5   1   2  172.28   16.60
  -5   1  -2  191.58   13.10
  -5   1  -2  145.79   27.60
   5   1   2  180.88    7.00
  -5   1  -2  179.68   10.30
  -5   1  -2  183.08   26.00
  -6  -1  -2   19.00   17.00
  -6  -1  -2  -14.90    9.40
   6   1   2   14.30   11.40
  -6   1  -2   -1.40   11.10
  -7   1  -2   10.80   14.90
  -7   1  -2   31.00   31.20
  -8  -1  -2  195.68   38.70
  -8  -2   2   68.29   26.20
   8   2  -2   -2.00   13.00
  -7  -2   2   27.00   23.30
   7   2  -2    3.90   11.10
  -7   2   2    3.20    7.10
  -6  -2   2   15.30    8.00
  -6  -2   2   25.50   19.80
  -6   2   2   52.49   21.70
  -6   2   2   22.60    8.40
   6   2  -2   13.90   11.50
  -6   2   2    4.00   25.10
  -6   2   2   23.60   10.00
  -5  -2   2   29.00   16.40
  -5  -2   2   41.90    7.20
   5  -2  -2   43.70    4.60
  -5   2   2   50.99   23.00
   5   2  -2   43.60    5.20
  -5   2   2   53.59    9.90
   5   2  -2   52.19   14.20
  -5   2   2   37.90   11.30
  -5   2   2   29.60   15.40
   4  -2  -2  198.08   10.00
  -4  -2   2  219.18   11.60
  -4  -2   2  215.48   32.50
  -4  -2   2  182.58   18.80
   4   2  -2  202.48   10.40
  -4   2   2  207.08   32.10
  -4   2   2  212.48   12.90
  -4   2   2  216.48   19.20
  -4   2   2  194.78   36.20
  -4   2   2  176.38   20.50
  -3  -2   2   15.80    8.30
   3  -2  -2   24.40    5.30
  -3  -2   2   17.90    5.60
  -3  -2   2   15.10    8.90
  -3   2   2   17.20   10.50
   3   2  -2   24.10    6.30
  -3   2   2   14.20    6.40
  -3   2   2   24.70    6.80
  -3   2   2   17.80    7.00
   2  -2  -2  372.36   15.20
   2  -2  -2  381.16   20.70
  -2  -2   2  390.56   31.10
  -2  -2   2  368.86   15.20
  -2  -2   2  366.06   25.10
  -2  -2   2  352.96   31.00
  -2   2   2  340.07   30.10
  -2   2   2  375.46   24.20
   2   2  -2  341.07   27.40
   2   2  -2  363.96   15.70
  -2   2   2  348.47   15.60
  -2   2   2  351.56   15.40
   1  -2  -2   47.30   11.40
   1  -2  -2   32.60    9.30
   1  -2  -2   59.99    6.90
  -1  -2   2   43.90    7.90
   1  -2  -2   66.29   13.60
   1  -2  -2   65.09    9.10
  -1  -2   2   43.50   13.30
  -1  -2   2   45.00    9.00
  -1  -2   2   59.69    8.40
   1   2  -2   50.29    8.80
  -1   2   2   58.49    8.10
   1   2  -2   42.70   12.80
   1   2  -2   48.90    8.60
  -1   2   2   45.30   11.80
  -1   2   2   44.90   10.40
   0  -2   2   88.29    8.30
   0  -2  -2   88.89    9.20
   0  -2  -2   85.89    8.30
   0  -2  -2   92.19   18.70
   0  -2   2  105.29   20.70
   0  -2  -2  116.19   19.70
   0  -2   2   96.29   11.60
   0  -2   2   68.69   14.70
   0  -2   2   80.09    8.30
   0  -2  -2   88.79   16.60
   0  -2   2   89.79   12.30
   0   2  -2   92.59   17.20
   0   2  -2  109.49   16.70
   0   2   2   86.09    8.60
   0   2  -2   90.59    9.50
   0   2   2   95.09   15.20
   0   2  -2   88.59   10.00
  -1  -2  -2  390.66   30.40
  -1  -2  -2  451.25   33.20
   1  -2   2  423.26   16.90
   1  -2   2  411.46   21.80
   1  -2   2  402.96   32.00
  -1  -2  -2  423.26   16.60
   1  -2   2  423.46   17.20
  -1  -2  -2  377.76   28.40
   1  -2   2  395.46   23.00
  -1   2  -2  393.56   30.90
   1   2   2  461.95   34.40
  -1   2  -2  405.76   17.60
   1   2   2  401.96   16.60
  -1   2  -2  434.06   33.10
  -1   2  -2  413.66   21.30
  -1   2  -2  474.05   38.20
   1   2   2  402.26   29.40
  -2  -2  -2   63.19    8.70
  -2  -2  -2   39.60   11.80
   2  -2   2   64.79    7.20
   2  -2   2   58.69   11.60
  -2   2  -2   50.49    9.40
  -2   2  -2   53.19   15.00
  -2   2  -2   57.69    6.80
  -2   2  -2   61.19    9.70
   2   2   2   60.39    7.60
   3  -2   2  184.18   10.90
  -3  -2  -2  181.58   26.50
  -3  -2  -2  143.49   23.50
  -3  -2  -2  180.08   16.20
  -3  -2  -2  179.78   11.20
   3   2   2  176.38   11.60
  -3   2  -2  170.98   12.70
  -3   2  -2  151.88   19.70
  -3   2  -2  199.18   32.90
  -3   2  -2  186.18   11.40
  -3   2  -2  196.38   30.50
   4  -2   2   54.29    7.00
  -4  -2  -2   36.10   13.70
  -4  -2  -2   25.40   13.20
  -4  -2  -2   54.89    8.50
  -4   2  -2   53.29    8.50
  -4   2  -2   52.89    9.90
   4   2   2   64.19    9.00
  -4   2  -2   44.60   17.50
  -4   2  -2   24.90   13.60
   5  -2   2  139.59    9.00
  -5  -2  -2  190.68   39.00
  -5   2  -2  156.68   14.80
  -5   2  -2  119.39   12.10
  -5   2  -2  104.99   26.60
   5   2   2  144.19   16.10
  -5   2  -2  126.89   28.30
  -6  -2  -2  -10.80   10.00
  -6  -2  -2   38.40   23.30
  -6   2  -2   -0.50   25.50
   6   2   2   14.40   11.50
  -6   2  -2   27.40    9.80
  -6   2  -2    6.90   23.20
  -7  -2  -2   29.10   24.20
  -7   2  -2   -2.70    7.50
   7   2   2    0.40   11.60
  -8  -2  -2   90.19   29.30
   9   3  -2   -2.60   15.80
  -8  -3   2   37.30   35.50
   8   3  -2   -8.40   12.00
  -7  -3   2   17.60   28.10
  -7  -3   2   48.80   20.30
   7   3  -2    7.60   12.40
  -7   3   2    5.70    9.30
  -6  -3   2   38.00   17.80
  -6  -3   2    2.60   22.70
  -6   3   2   13.40    9.70
   6   3  -2    9.10   10.80
  -6   3   2   78.89   26.50
  -5  -3   2   39.70   19.00
  -5  -3   2   22.60   21.20
  -5   3   2   31.80   10.90
  -5   3   2   43.10   19.80
  -5   3   2  -13.90   33.50
  -4  -3   2   24.00   16.10
  -4  -3   2   35.10    9.00
  -4  -3   2   22.20   16.10
   4  -3  -2   43.70    8.90
  -4   3   2   18.20   11.10
   4   3  -2   30.90    8.80
  -4   3   2   38.40   10.70
  -4   3   2   28.00   26.40
  -4   3   2   11.80    6.90
  -4   3   2   17.50   15.50
   3  -3  -2   19.60    7.30
   3  -3  -2   11.20    4.40
  -3  -3   2   20.00    7.40
  -3  -3   2   13.90   10.50
  -3  -3   2   14.60   12.20
  -3   3   2   24.60    8.60
  -3   3   2   12.00    4.50
  -3   3   2   26.20   19.90
  -3   3   2   21.80   11.20
  -3   3   2    2.90   10.10
   3   3  -2   18.10    7.90
   2  -3  -2   26.80    8.40
  -2  -3   2   26.50   12.10
   2  -3  -2   35.20    8.80
  -2  -3   2   43.10   12.70
  -2   3   2   38.80    6.20
   2   3  -2   43.90    9.90
  -2   3   2   50.49   20.40
  -2   3   2   41.80    9.60
  -2   3   2   32.60   12.80
  -1  -3   2   24.70   11.40
   1  -3  -2   25.70   12.60
  -1  -3   2   30.70    9.00
   1  -3  -2   31.90    6.80
   1  -3  -2   19.70   11.30
  -1  -3   2   24.80    7.20
   1   3  -2   50.19   22.00
  -1   3   2   49.10   10.60
  -1   3   2   47.90   19.30
   1   3  -2   56.19   11.20
   1   3  -2   22.30    6.80
   0  -3   2  389.56   19.50
   0  -3  -2  391.36   39.60
   0  -3  -2  389.96   22.70
   0  -3   2  344.57   30.60
   0  -3   2  387.06   25.70
   0  -3   2  430.86   41.00
   0   3  -2  407.86   20.50
   0   3  -2  352.36   31.70
   0   3   2  365.76   19.30
   0   3   2  472.95   52.19
   0   3  -2  367.86   23.90
   1  -3   2   89.39   12.60
   1  -3   2   45.00   11.90
   1  -3   2   70.49   12.90
  -1  -3  -2   81.89   14.00
  -1  -3  -2   50.69   13.70
  -1   3  -2   68.89   10.80
   1   3   2   84.89   12.50
  -1   3  -2   87.79   24.50
  -1   3  -2   95.29   12.20
  -2  -3  -2   49.50   14.70
   2  -3   2  127.39   23.30
   2  -3   2   81.89   10.70
   2  -3   2   70.49   10.70
   2   3   2   69.89   19.30
   2   3   2   95.19   12.00
  -2   3  -2   78.19   12.00
  -3  -3  -2   46.80   16.60
   3  -3   2   61.79   10.40
  -3   3  -2   31.40   15.40
  -3   3  -2   79.59   13.60
  -3   3  -2  105.79   32.50
   3   3   2   85.89   13.20
   4  -3   2   94.69   11.00
  -4  -3  -2   69.89   21.90
   4   3   2  102.69   13.00
  -4   3  -2  101.89   40.10
  -4   3  -2  112.29   16.20
  -4   3  -2   80.29   26.50
  -5  -3  -2   42.20   24.50
  -5   3  -2   38.20   12.30
  -5   3  -2   29.00   27.60
  -5   3  -2  -20.30   37.70
  -6  -3  -2   36.60   28.80
  -6   3  -2   43.10   13.60
  -6   3  -2   17.70   36.60
   6   3   2   43.40   14.60
  -7  -3  -2   39.30   32.10
   7   3   2   17.30   12.70
  -7   3  -2   18.50   12.20
   8   3   2   -8.30   13.70
   8   4  -2    4.20   13.90
  -7  -4   2   70.89   27.30
  -7  -4   2  -32.80   32.70
  -7   4   2    8.00   12.50
   7   4  -2    1.30   11.70
  -6  -4   2    7.40   10.10
  -6  -4   2  -31.60   28.70
  -6  -4   2   60.69   25.00
  -6   4   2   12.60   13.10
  -5  -4   2   26.60   21.70
  -5  -4   2  -13.50   24.50
  -5   4   2    6.50   10.80
   4  -4  -2   19.50    9.00
  -4  -4   2    2.40   22.20
  -4  -4   2   30.10   21.40
   4   4  -2   22.60   11.10
  -4   4   2   27.60   12.00
  -4   4   2   61.19   22.60
  -3  -4   2   44.30   21.00
   3  -4  -2   95.19   15.10
  -3  -4   2  104.19   26.10
  -3   4   2   96.89   25.10
   3   4  -2  130.79   18.60
  -3   4   2   73.09   50.29
  -3   4   2   71.89   15.00
  -2  -4   2    6.10   16.90
   2  -4  -2    7.20    7.90
   2  -4  -2   -4.60    8.90
  -2  -4   2   14.80   12.90
  -2  -4   2   16.40    9.60
  -2   4   2   13.80   14.90
  -2   4   2   49.30   38.40
   2   4  -2    7.40   10.40
  -2   4   2   26.00   11.10
   1  -4  -2   67.89   21.60
  -1  -4   2  103.79   15.70
  -1  -4   2   72.29   23.30
   1  -4  -2   84.39   15.40
  -1  -4   2   87.89   18.60
  -1   4   2  109.79   17.00
  -1   4   2   61.99   16.30
   1   4  -2  109.29   17.20
   1   4  -2  119.59   36.30
  -1   4   2  133.99   43.70
   0  -4   2   70.89   23.50
   0  -4   2   92.29   18.10
   0  -4   2  107.49   16.20
   0  -4  -2   88.89   15.80
   0  -4  -2   60.19   21.30
   0   4   2  112.39   16.60
   0   4   2  159.88   41.40
   0   4  -2  120.59   18.30
   0   4  -2  130.19   40.80
   1  -4   2   57.99   14.70
   1  -4   2   81.89   14.90
  -1  -4  -2   81.69   17.00
  -1  -4  -2   49.20   20.70
   1   4   2  117.39   40.30
   1   4   2   39.20    8.80
  -1   4  -2   40.10   15.40
  -1   4  -2  144.19   45.80
  -1   4  -2   75.99   14.60
   2  -4   2   98.29   20.00
  -2  -4  -2  129.09   23.60
   2  -4   2  110.59   14.50
  -2  -4  -2   89.49   25.80
  -2   4  -2  133.69   20.10
   2   4   2  130.49   18.50
  -2   4  -2  162.88   50.99
   2   4   2  113.79   34.10
   3  -4   2   13.40    9.30
  -3  -4  -2   37.70   17.70
  -3  -4  -2    5.50   18.70
  -3   4  -2   31.10   12.50
   3   4   2   13.20   10.30
  -4  -4  -2   -3.10   22.10
  -4  -4  -2   39.90   18.80
   4  -4   2    8.60    8.30
  -4   4  -2    1.20   27.30
  -4   4  -2    2.80   10.20
   4   4   2   17.20   10.50
  -5  -4  -2   -8.70   26.40
  -5   4  -2   24.50   12.30
  -6  -4  -2    5.40   30.10
   6   4   2    6.40   11.30
  -6   4  -2   36.20   14.70
   7   4   2    2.10   12.30
  -7   4  -2   -5.00   12.20
   8   4   2    6.90   14.90
   7   5  -2   11.70   13.70
  -6  -5   2   15.40   13.60
  -6  -5   2  -72.29   41.20
  -6   5   2   18.10   16.40
  -5  -5   2  -39.60   37.10
  -5  -5   2   84.19   32.70
  -5  -5   2   14.90   13.40
  -5   5   2   22.00   15.90
  -4  -5   2   45.50   29.40
  -4  -5   2   20.00   12.30
  -4   5   2   19.10   13.80
  -3  -5   2   16.40   10.70
   3  -5  -2   10.90    9.00
  -3  -5   2  -34.50   29.90
  -3  -5   2   19.20   25.30
   3   5  -2    7.70   11.70
  -3   5   2   11.70   12.90
   2  -5  -2   41.60   13.10
  -2  -5   2  -18.50   30.40
  -2  -5   2   49.30   14.20
  -2  -5   2   20.70   21.60
  -2   5   2   38.80   15.10
   2   5  -2   47.80   16.00
   1  -5  -2   92.59   16.90
  -1  -5   2   81.69   16.40
   1  -5  -2   60.89   33.60
  -1  -5   2   72.19   23.00
  -1  -5   2   57.29   35.30
  -1   5   2   74.29   18.50
  -1   5   2  110.69   20.40
   1   5  -2   77.69   18.30
   0  -5   2   78.59   16.10
   0  -5  -2   66.89   35.10
   0  -5   2   12.30   29.20
   0  -5  -2   89.29   17.50
   0  -5   2   63.99   20.20
   0  -5  -2   51.99   15.00
   0   5   2   84.79   18.30
   0   5  -2   76.89   17.10
   1  -5   2  -23.70   12.90
   1  -5   2   15.10   10.50
  -1  -5  -2   -6.40   10.00
  -1  -5  -2  -10.80   24.30
  -1   5  -2   13.80   12.70
   1   5   2   -0.40   10.40
  -2  -5  -2   18.40   17.30
   2  -5   2   19.90   11.20
  -2  -5  -2   -5.00   28.90
  -2   5  -2   27.90   15.10
  -3  -5  -2    9.70   35.20
   3  -5   2   62.49   15.30
  -3  -5  -2  114.99   31.90
  -3   5  -2   67.89   17.90
   3   5   2   72.39   16.90
  -4  -5  -2  -46.40   30.90
  -4   5  -2   -2.90   13.30
   7   5   2   21.00   14.50
  -4  -6   2  100.79   38.70
  -3  -6   2   33.20   33.40
  -3   6   2    0.30   14.90
   2  -6  -2    5.20   10.80
  -2  -6   2   18.50   13.90
  -2   6   2   -1.60   14.40
   2   6  -2  -16.90   15.30
  -1  -6   2   16.20   13.90
   1  -6  -2    2.40   12.00
   1   6  -2   25.70   16.00
  -1   6   2   16.50   14.60
   0  -6  -2  -34.10   43.10
   0  -6  -2   52.19   16.60
   0  -6   2  -29.90   41.90
   0  -6   2   46.50   15.30
   0   6  -2   37.80   17.00
   0   6   2   52.09   17.80
  -1  -6  -2   23.70   14.70
   1   6   2   23.70   15.90
  -1   6  -2   10.90   13.70
   2  -6   2    0.50   11.70
  -2   6  -2    3.20   15.10
  -3  -6  -2  106.59   29.20
  -3   6  -2   19.70   16.20
  -4  -6  -2  291.77   43.20
  -9   0   3  631.34   49.50
  -8   0   3  283.37   34.80
  -6   0   3   33.60   13.80
   4   0  -3    4.60    7.20
   3   0  -3    0.70    5.50
  -2   0   3    0.90    4.20
   2   0  -3   -0.70    4.50
  -2   0   3    0.30    1.20
   1   0  -3   -2.60    1.70
  -1   0   3   -0.90    1.40
  -1   0   3   -3.50    2.00
   1   0  -3   -0.70    1.40
  -1   0   3   -0.80    2.00
   1   0  -3   -0.50    3.10
   0   0   3    2.00    2.30
   0   0  -3    0.00    1.60
   0   0  -3    1.50    1.90
   0   0   3    4.40    3.30
   0   0   3    2.40    2.80
   0   0   3   -0.90    1.50
   0   0  -3    3.20    2.70
   0   0  -3    2.10    3.00
   1   0   3   -0.30    2.20
   1   0   3    4.10    3.70
  -1   0  -3    3.20    2.80
   1   0   3   -1.50    2.70
  -1   0  -3   -2.00    1.80
  -1   0  -3   16.40    5.70
   2   0   3   -2.10    3.10
  -2   0  -3    4.30    6.30
  -2   0  -3   -2.30    3.60
   2   0   3    2.30    3.20
  -2   0  -3   -0.10    2.40
   2   0   3    0.00    2.40
  -3   0  -3   -1.90    3.30
  -3   0  -3    1.80    2.60
   3   0   3    2.90    3.40
  -3   0  -3    0.30    4.90
   3   0   3    0.00    3.30
   3   0   3    0.90    2.60
  -4   0  -3    1.90    2.70
   4   0   3    1.10    1.30
  -4   0  -3   -0.80    6.30
   4   0   3    1.30    3.40
  -4   0  -3    0.10    4.80
   5   0   3    3.50    2.60
  -5   0  -3   -4.20    5.80
  -5   0  -3   -7.20    9.10
  -5   0  -3    1.90    3.10
  -6   0  -3    4.60    6.90
  -6   0  -3  -17.70   14.50
  -8   0  -3  312.27   37.50
  -9  -1   3  490.45   50.99
  -8  -1   3  217.48   42.40
  -7   1   3  216.48   46.50
  -6  -1   3  347.57   42.30
  -6  -1   3  249.08    8.80
  -6  -1   3  304.47   42.20
  -6   1   3  270.87   40.90
   6   1  -3  234.08   21.20
  -6   1   3  298.77   29.30
  -6   1   3  245.18   11.00
  -5  -1   3   35.20   13.50
  -5  -1   3   24.90    4.10
  -5   1   3   17.70    8.70
   5   1  -3   12.80   10.00
  -5   1   3   14.80   11.50
  -5   1   3   23.80    5.40
  -4  -1   3   35.10   10.90
  -4  -1   3   39.20    4.90
   4   1  -3   41.60   10.80
  -4   1   3   35.80    5.40
  -4   1   3   35.30   11.20
  -4   1   3   38.00    9.30
  -3  -1   3   26.10    7.80
   3  -1  -3   24.70    3.10
  -3  -1   3   30.70    4.70
   3  -1  -3   32.70    3.30
  -3   1   3   21.70    6.00
  -3   1   3   27.00    4.70
  -3   1   3   25.10    8.70
   2  -1  -3 1552.94   55.79
  -2  -1   3 1519.25   57.49
  -2  -1   3 1594.14   63.09
  -2  -1   3 1549.34   34.90
  -2  -1   3 1534.55   35.00
   2  -1  -3 1572.14   34.10
   2   1  -3 1568.54   62.29
  -2   1   3 1564.74   35.00
  -2   1   3 1568.54   63.89
   2   1  -3 1530.15   34.30
  -2   1   3 1628.04   57.29
  -1  -1   3 7899.91  229.48
  -1  -1   3 7897.61  272.97
  -1  -1   3 8397.46  252.37
   1  -1  -3 8166.28  153.18
   1  -1  -3 7930.21  249.18
  -1  -1   3 7756.32  153.58
   1  -1  -3 7848.71  250.87
   1  -1  -3 7832.62  259.17
  -1  -1   3 7849.31  153.58
   1   1  -3 8075.39  229.38
   1   1  -3 7825.72  153.58
   1   1  -3 7969.70  251.47
  -1   1   3 7884.41  242.68
   1   1  -3 7848.11  282.37
  -1   1   3 7929.41  157.48
  -1   1   3 7658.13  250.67
  -1   1   3 7880.21  259.87
   0  -1   3 5549.24  158.18
   0  -1   3 5541.65  107.79
   0  -1  -3 5674.23  175.98
   0  -1  -3 5432.96  170.68
   0  -1   3 5297.27  106.99
   0  -1  -3 5583.84  106.99
   0  -1  -3 5443.56  177.58
   0  -1   3 5188.58  179.98
   0  -1   3 5563.44  192.48
   0  -1   3 5135.59  173.58
   0   1  -3 5260.07  179.58
   0   1   3 5447.56  106.89
   0   1  -3 5322.47  106.89
   0   1   3 5334.97  177.58
   0   1  -3 5452.95  192.58
   0   1   3 5283.27  170.18
   0   1  -3 5349.56  157.38
   0   1  -3 5242.88  173.58
   0   1   3 5397.36  174.98
   0   1  -3 5332.37  107.59
   1  -1   3 2155.58   67.09
   1  -1   3 2227.18   82.29
   1  -1   3 2204.08   72.89
  -1  -1  -3 2191.98   48.30
   1  -1   3 2265.87   48.70
  -1  -1  -3 2208.28   76.69
   1  -1   3 2359.66   90.89
  -1  -1  -3 2244.68   83.29
  -1  -1  -3 2239.48   83.39
  -1  -1  -3 2052.69   79.09
   1  -1   3 2232.18   49.30
  -1   1  -3 2318.77   91.49
  -1   1  -3 2235.28   48.70
   1   1   3 2242.08   48.50
  -1   1  -3 2201.88   71.69
   1   1   3 2274.77   83.79
  -1   1  -3 2185.68   82.09
   1   1   3 2203.48   82.49
  -1   1  -3 2145.19   49.30
   1   1   3 2253.97   77.69
   2  -1   3  161.18   19.00
   2  -1   3  163.18    9.30
  -2  -1  -3  176.38   19.10
  -2  -1  -3  151.68   19.90
  -2  -1  -3  165.98   13.90
  -2  -1  -3  145.49    8.40
  -2  -1  -3  163.48   19.70
   2  -1   3  153.68   15.80
   2  -1   3  144.39    8.10
   2   1   3  148.89   15.50
  -2   1  -3  152.98   10.00
  -2   1  -3  157.78    8.60
   2   1   3  156.28    8.60
  -2   1  -3  169.98   22.50
  -2   1  -3  195.38   19.90
  -2   1  -3  158.28    7.90
  -2   1  -3  158.18   16.80
   3  -1   3   18.90    6.10
  -3  -1  -3   17.10    6.30
  -3  -1  -3   20.40    4.80
  -3  -1  -3   12.30    7.30
   3  -1   3   21.90    5.20
  -3  -1  -3    8.20    5.70
   3  -1   3   24.70    5.00
   3   1   3   23.30    5.10
  -3   1  -3   20.60    6.30
  -3   1  -3    6.50    7.40
   3   1   3   13.70    4.50
  -3   1  -3   19.40    4.70
  -3   1  -3   19.60    8.90
   3   1   3   23.40    7.20
  -3   1  -3   17.00    5.90
  -4  -1  -3  153.18   27.50
  -4  -1  -3  162.28   26.10
   4  -1   3  169.68    8.70
  -4  -1  -3  164.38    9.60
  -4   1  -3  169.28   12.20
  -4   1  -3  172.18   35.10
  -4   1  -3  180.68   23.00
  -4   1  -3  160.28    9.70
   4   1   3  174.48    9.20
   4   1   3  155.68   13.40
   5  -1   3   15.20    3.90
  -5  -1  -3   11.00   10.00
  -5  -1  -3    8.50   10.40
  -5  -1  -3   22.00    5.50
  -5   1  -3   23.30    8.40
  -5   1  -3   18.70    5.50
   5   1   3   22.40   10.50
  -5   1  -3   13.70   11.20
  -5   1  -3   -1.60   13.60
   5   1   3   17.20    4.50
  -6  -1  -3   22.30   17.50
  -6   1  -3   -7.50   21.80
  -7  -1  -3   69.89   22.70
  -8  -1  -3  245.78   42.00
  -8  -2   3   83.59   28.90
  -7  -2   3   69.29   21.60
  -7  -2   3   47.00   24.60
   7   2  -3   27.70   14.70
  -6  -2   3    4.40   18.10
  -6  -2   3    9.60    6.10
  -6   2   3   37.50   17.10
  -6   2   3    4.40    9.10
   6   2  -3    4.80    9.70
  -6   2   3    1.80    6.70
  -6   2   3  -16.10   23.00
  -5  -2   3   36.00    7.00
  -5  -2   3   23.70   15.30
   5  -2  -3   34.60    4.40
  -5  -2   3   35.30   16.80
   5   2  -3   16.70   11.30
  -5   2   3   29.40    8.10
  -5   2   3   18.00   14.10
  -5   2   3   18.00   10.40
   5   2  -3   32.20    4.20
  -5   2   3   36.70   21.50
   4  -2  -3   70.29    6.30
  -4  -2   3   76.79    7.90
  -4  -2   3   55.69   14.10
  -4  -2   3   71.69   17.10
  -4   2   3   83.89   20.20
  -4   2   3   88.99   16.20
  -4   2   3   56.39   11.30
   4   2  -3   50.39    6.00
  -4   2   3   70.99    9.00
  -3  -2   3  504.05   39.40
   3  -2  -3  445.06   24.00
  -3  -2   3  506.85   18.20
  -3  -2   3  491.65   32.90
  -3  -2   3  432.36   25.10
   3  -2  -3  489.25   17.30
  -3   2   3  468.55   22.10
  -3   2   3  491.05   37.60
  -3   2   3  461.55   28.10
   3   2  -3  508.25   17.90
  -3   2   3  471.75   18.20
  -2  -2   3  101.09   20.00
  -2  -2   3   83.39   14.00
  -2  -2   3   78.59    7.80
   2  -2  -3   70.19   10.50
  -2  -2   3   83.59   11.80
  -2  -2   3   68.69   16.00
   2   2  -3   81.79    8.60
  -2   2   3  100.99   16.70
  -2   2   3   88.79   19.40
  -2   2   3   72.89    8.30
   2   2  -3   80.79   14.90
  -1  -2   3  250.77   28.90
   1  -2  -3  242.48   22.40
   1  -2  -3  249.38   12.80
  -1  -2   3  260.87   13.30
  -1  -2   3  258.47   18.20
  -1  -2   3  266.27   13.10
   1  -2  -3  252.07   20.50
   1  -2  -3  267.37   11.40
  -1  -2   3  260.37   19.60
  -1  -2   3  283.87   26.50
   1  -2  -3  299.87   27.70
  -1   2   3  252.87   13.10
   1   2  -3  244.48   22.40
  -1   2   3  274.97   25.80
  -1   2   3  251.47   24.50
   1   2  -3  253.77   18.20
   1   2  -3  292.57   22.20
  -1   2   3  260.07   25.00
   1   2  -3  276.57   14.20
   0  -2   3 1465.25   64.59
   0  -2  -3 1382.46   60.89
   0  -2  -3 1498.35   37.90
   0  -2  -3 1429.66   61.69
   0  -2   3 1292.97   64.39
   0  -2  -3 1548.25   66.09
   0  -2   3 1473.05   63.19
   0  -2   3 1403.66   37.60
   0  -2  -3 1486.25   48.90
   0  -2   3 1487.25   38.40
   0  -2   3 1461.45   53.79
   0   2   3 1428.36   61.39
   0   2  -3 1438.56   66.99
   0   2   3 1483.85   38.00
   0   2  -3 1455.95   53.19
   0   2  -3 1445.06   63.39
   0   2  -3 1440.06   38.70
   0   2  -3 1421.06   64.39
   0   2   3 1410.96   62.99
   0   2   3 1387.26   63.59
  -1  -2  -3  620.34   35.40
   1  -2   3  651.53   22.40
   1  -2   3  594.34   40.30
  -1  -2  -3  599.84   38.90
   1  -2   3  657.63   22.40
   1  -2   3  641.24   38.90
   1  -2   3  669.93   32.40
  -1  -2  -3  647.84   21.90
  -1  -2  -3  703.93   41.60
   1   2   3  645.04   22.10
  -1   2  -3  683.63   44.60
   1   2   3  647.54   31.00
  -1   2  -3  654.13   22.10
  -1   2  -3  656.13   23.40
  -1   2  -3  603.94   38.30
   1   2   3  684.83   40.60
  -1   2  -3  694.43   42.10
  -1   2  -3  649.54   29.80
   1   2   3  637.74   38.90
  -2  -2  -3   18.70    8.50
   2  -2   3   25.50   10.50
  -2  -2  -3   29.70    6.80
   2  -2   3   28.10    6.10
  -2  -2  -3   17.30    9.60
  -2   2  -3   24.80    5.90
  -2   2  -3   21.70    8.00
  -2   2  -3   23.30    7.20
  -2   2  -3   43.70   14.60
   2   2   3   13.40    3.60
   2   2   3   20.20   10.10
   2   2   3   37.40    7.30
  -2   2  -3   15.40    8.00
  -3  -2  -3   64.19   13.90
   3  -2   3   96.19    8.90
  -3  -2  -3   91.19   16.70
  -3  -2  -3   68.59   15.90
  -3  -2  -3  101.79    9.20
   3   2   3  107.29    9.80
  -3   2  -3   95.39    9.00
  -3   2  -3   82.99   19.20
  -3   2  -3  104.39   11.50
  -4  -2  -3   74.59   19.70
  -4  -2  -3   56.29   15.00
   4  -2   3   88.59    8.50
  -4  -2  -3   84.29    9.00
  -4   2  -3   58.49   17.10
  -4   2  -3   78.59   21.20
  -4   2  -3   83.59    8.90
   4   2   3   86.19    9.50
  -4   2  -3   98.49   13.30
  -5  -2  -3  262.47   35.70
   5  -2   3  286.37   13.70
  -5  -2  -3  354.36   47.70
   5   2   3  313.47   15.10
  -5   2  -3  323.27   19.30
  -5   2  -3  341.07   65.79
  -5   2  -3  304.87   47.30
   5   2   3  311.27   21.30
  -6  -2  -3    7.10   17.10
   6   2   3    1.60   10.10
  -6   2  -3  -35.70   26.50
  -6   2  -3  -27.40   17.30
  -6   2  -3    2.60    8.10
  -7  -2  -3   44.00   24.30
   7   2   3    7.50   13.20
  -8  -2  -3  107.69   30.00
   9   3  -3  -15.00   14.80
  -8  -3   3   57.19   35.90
   8   3  -3   -1.60   12.40
  -7  -3   3   21.40   29.90
  -7  -3   3   63.29   21.90
  -6  -3   3    7.30   23.20
  -6  -3   3   36.00   19.00
  -6  -3   3   15.00    8.10
  -6   3   3    9.60    9.60
   6   3  -3    8.10   11.60
  -6   3   3   86.09   24.80
  -5  -3   3   38.50   20.20
  -5  -3   3   30.30   22.60
  -5   3   3   -6.90   33.70
  -5   3   3   31.70   18.40
  -5   3   3   29.00   10.10
   4  -3  -3   73.09   10.60
  -4  -3   3   67.59   19.80
  -4  -3   3   73.59   11.40
  -4  -3   3   64.49   20.90
   4   3  -3   87.29   12.20
  -4   3   3   47.10   20.20
  -4   3   3   51.09   14.60
  -4   3   3   73.49   31.70
  -4   3   3   38.80    8.20
  -4   3   3   86.79   13.50
  -3  -3   3   83.19   10.60
   3  -3  -3   78.69   11.00
  -3  -3   3   79.19   18.20
  -3  -3   3   52.29   16.20
   3  -3  -3   87.99   10.20
  -3   3   3   85.79   11.20
  -3   3   3   70.79    7.30
  -3   3   3   73.09   15.70
   3   3  -3  111.09   14.70
  -3   3   3   90.09   26.20
  -2  -3   3   56.19   15.20
  -2  -3   3   68.79   10.80
   2  -3  -3   56.39   11.70
  -2  -3   3   70.49   15.40
  -2   3   3   71.49   11.40
   2   3  -3  108.39   14.00
  -2   3   3   69.39   20.60
  -2   3   3   70.19   16.30
   1  -3  -3  187.28   13.30
  -1  -3   3  193.98   20.90
   1  -3  -3  225.18   36.00
  -1  -3   3  205.88   34.20
  -1  -3   3  182.08   14.00
   1   3  -3  208.48   25.40
   1   3  -3  210.98   15.90
  -1   3   3  225.48   40.10
  -1   3   3  196.48   14.50
   1   3  -3  226.28   35.60
  -1   3   3  248.18   33.10
   0  -3   3  361.76   40.80
   0  -3   3  343.97   25.90
   0  -3  -3  368.86   39.30
   0  -3  -3  319.57   20.10
   0  -3   3  317.37   18.00
   0   3   3  362.46   45.30
   0   3  -3  308.17   18.30
   0   3  -3  322.47   31.60
   0   3   3  330.37   18.20
   0   3  -3  460.15   54.89
   1  -3   3  636.14   25.50
  -1  -3  -3  626.74   47.80
   1  -3   3  578.34   34.70
  -1  -3  -3  669.73   34.20
   1  -3   3  619.84   35.80
   1   3   3  711.03   57.59
   1   3   3  632.34   25.30
  -1   3  -3  682.53   48.50
  -1   3  -3  602.74   26.20
  -1   3  -3  761.12   64.19
  -1   3  -3  516.75   33.40
   2  -3   3  588.74   26.00
   2  -3   3  667.63   41.40
  -2  -3  -3  650.33   53.39
   2  -3   3  649.93   26.00
  -2   3  -3  682.23   57.79
   2   3   3  741.13   62.29
   2   3   3  660.13   26.10
  -2   3  -3  605.74   26.80
  -2   3  -3  780.12   70.19
   3  -3   3   -1.70    5.50
  -3  -3  -3    6.40   11.40
   3   3   3    5.90    7.00
  -3   3  -3   25.80   26.30
  -3   3  -3    5.60    8.80
  -3   3  -3    1.90   12.80
  -4  -3  -3  245.28   45.80
   4  -3   3  202.58   14.90
  -4   3  -3  177.88   35.60
  -4   3  -3  214.08   18.80
   4   3   3  227.18   16.20
  -5  -3  -3   43.40   25.70
  -5   3  -3    2.00   27.90
  -5   3  -3   41.00   12.80
  -6  -3  -3   -9.00   22.60
  -6   3  -3    9.70   10.30
   6   3   3    6.40   10.50
  -7  -3  -3   49.60   34.10
  -7   3  -3   20.70   13.10
   7   3   3   22.30   13.40
  -8   3  -3   44.20   13.30
   8   3   3   -4.60   14.80
   8   4  -3    8.10   13.10
  -7  -4   3  -27.40   37.60
   7   4  -3  -13.50   10.80
  -7   4   3   -7.50   10.20
  -6  -4   3   42.80   23.10
  -6  -4   3  -30.50   30.70
  -6  -4   3   19.20   11.10
  -6   4   3   12.10   12.10
  -5  -4   3   20.20   19.70
  -5  -4   3    1.30    8.40
  -5   4   3  -11.60    8.40
  -4  -4   3   29.10   27.10
   4  -4  -3   62.89   12.20
  -4  -4   3   67.49   26.40
  -4  -4   3   53.09   13.60
   4   4  -3   55.59   13.70
  -4   4   3   57.49   14.30
  -4   4   3   86.99   25.30
   3  -4  -3  230.68   18.40
  -3  -4   3  254.47   20.60
  -3  -4   3  300.57   38.90
  -3  -4   3  174.68   36.80
  -3   4   3  262.47   59.89
  -3   4   3  237.68   19.80
   3   4  -3  238.18   20.60
  -2  -4   3    8.00    9.10
  -2  -4   3   -3.10   17.30
   2  -4  -3   10.10    8.90
   2  -4  -3   -6.10    7.70
  -2  -4   3    8.60   13.50
  -2   4   3   19.00   36.00
  -2   4   3   13.80   13.90
   2   4  -3   14.60   11.10
  -2   4   3    1.20    8.80
   1  -4  -3   23.80    8.10
  -1  -4   3   22.80    9.90
   1  -4  -3   24.70   18.40
  -1  -4   3   39.10   15.30
  -1  -4   3   14.20   17.50
  -1   4   3   23.90   14.90
  -1   4   3   73.29   37.60
   1   4  -3   45.40   28.20
   1   4  -3   34.30   13.30
  -1   4   3   39.70   11.90
   1   4  -3   12.00    9.90
   0  -4  -3   17.30   16.90
   0  -4   3   17.70   19.50
   0  -4  -3   16.70    8.10
   0  -4   3   23.10   10.20
   0  -4   3   15.20   12.30
   0   4   3   -0.60   10.50
   0   4   3    8.00   10.00
   0   4  -3   20.60   11.80
   0   4   3   54.39   35.40
   0   4  -3    8.10   10.10
   0   4  -3   60.09   37.20
  -1  -4  -3    1.30   15.40
   1  -4   3    6.60   11.60
   1  -4   3    0.00    7.20
  -1  -4  -3   -5.70    6.00
   1   4   3   32.00   33.10
  -1   4  -3    8.30   10.40
   1   4   3    6.40    9.40
  -1   4  -3   -4.10   11.20
  -1   4  -3   52.49   39.30
   2  -4   3   12.30    8.20
  -2  -4  -3   21.30   12.20
  -2  -4  -3   12.80   17.10
   2  -4   3    1.20   14.90
   2   4   3   14.90   10.70
  -2   4  -3   -6.30   15.70
  -2   4  -3   25.80   12.00
  -2   4  -3   36.80   42.90
   2   4   3   25.50   27.50
  -3  -4  -3  169.88   28.80
   3  -4   3  111.49   14.60
  -3  -4  -3   78.99   27.20
  -3   4  -3   93.39   31.40
  -3   4  -3  134.79   17.60
   3   4   3  145.59   18.90
   4  -4   3   90.69   14.90
  -4  -4  -3  156.38   29.70
  -4  -4  -3   47.30   29.40
  -4   4  -3   74.29   16.10
   4   4   3   82.29   15.50
  -4   4  -3   23.10   33.80
  -5   4  -3   33.00   14.10
  -6  -4  -3  -14.00   27.00
   6   4   3    5.30   11.20
  -6   4  -3    7.50   12.60
   7   4   3   18.20   13.50
  -7   4  -3   12.60   14.40
   8   4   3    1.30   14.30
   7   5  -3   17.20   15.20
  -6  -5   3   97.49   33.50
  -5  -5   3   57.49   30.40
  -5  -5   3    8.20   11.80
  -5   5   3   10.90   13.80
  -4  -5   3  -12.50   33.80
  -4  -5   3   79.59   33.70
  -4  -5   3   36.20   14.70
  -4   5   3   23.40   15.20
   3  -5  -3   71.79   16.40
  -3  -5   3   26.70   38.30
  -3  -5   3   62.59   16.80
  -3  -5   3   73.99   34.20
   3   5  -3   58.19   17.80
  -3   5   3   61.29   17.10
  -2  -5   3   76.69   38.30
  -2  -5   3  134.99   21.60
   2  -5  -3  107.39   18.70
  -2  -5   3  140.09   35.50
   2   5  -3  109.19   20.60
  -2   5   3  117.69   19.60
  -1  -5   3  -13.70   30.70
  -1  -5   3   36.30   13.20
   1  -5  -3   47.20   13.60
  -1  -5   3   -0.30   18.70
   1  -5  -3  -10.30   27.60
   1   5  -3   44.00   15.80
  -1   5   3   31.20   12.40
   0  -5  -3    5.60   28.60
   0  -5  -3   12.80   10.40
   0  -5   3   26.30   12.30
   0  -5   3   20.30   17.70
   0  -5   3  -16.80   25.80
   0   5  -3   36.10   15.50
   0   5   3   41.00   14.30
  -1  -5  -3   25.10   27.50
  -1  -5  -3   60.29   17.30
   1  -5   3   75.19   15.70
   1  -5   3   22.10   19.60
  -1   5  -3   58.79   16.80
   1   5   3   41.90   55.49
   1   5   3   73.59   17.80
  -2  -5  -3  -30.90   27.60
   2  -5   3   15.80   10.40
  -2  -5  -3   19.70   16.30
   2   5   3    7.60   11.40
  -2   5  -3    5.20   11.80
   3  -5   3   22.10   11.20
  -3  -5  -3   73.99   26.00
  -3  -5  -3  -10.70   31.50
   3   5   3   21.50   13.00
  -3   5  -3   30.80   15.50
  -4  -5  -3   79.49   24.00
  -4   5  -3   -7.10   11.70
   7   5   3    9.20   13.30
  -4  -6   3   14.20   35.70
  -3  -6   3   -6.70   33.40
  -3   6   3    5.40   15.60
   2  -6  -3   16.20   12.90
  -2   6   3    3.50   14.20
   2   6  -3  -11.40   13.10
  -1  -6   3   17.70   14.60
   1  -6  -3   13.70   14.80
  -1  -6   3  -16.80   29.20
   1   6  -3   31.50   15.60
  -1   6   3   35.10   16.30
   0   6   3   18.00   14.30
   0   6  -3   12.10   16.70
  -1  -6  -3   20.20   14.30
   1   6   3   -8.90   12.10
   2  -6   3    4.10   11.30
  -2   6  -3    6.30   15.00
  -4  -6  -3  339.47   42.80
  -9   0   4  684.33   51.59
  -8   0   4  378.36   41.40
  -7   0   4  492.25   54.69
  -7   0   4  404.06   38.50
   4   0  -4  127.59   13.00
  -3   0   4   38.60    2.60
   3   0  -4   48.40    9.50
   2   0  -4 2190.78   50.49
  -2   0   4 2117.99   42.80
   2   0  -4 2185.68   41.90
  -2   0   4 2045.40   68.89
   1   0  -4 2747.53   58.59
  -1   0   4 2790.22   90.89
   1   0  -4 2612.34   89.59
   1   0  -4 2801.22   55.39
  -1   0   4 2947.80   55.79
   1   0  -4 2754.72   83.09
  -1   0   4 2694.83   82.89
   0   0   4 1452.05   32.30
   0   0  -4 1478.65   47.80
   0   0   4 1449.76   60.09
   0   0   4 1444.16   50.99
   0   0   4 1468.75   48.50
   0   0  -4 1567.14   61.99
   0   0  -4 1421.56   50.49
  -1   0  -4 4150.98  149.99
   1   0   4 4036.20   80.99
  -1   0  -4 4010.90   80.89
   1   0   4 3962.60  127.89
   1   0   4 3975.50   82.19
  -1   0  -4 4021.70  127.39
   1   0   4 4003.90  149.39
   2   0   4 4378.06   91.39
   2   0   4 4682.03  171.68
  -2   0  -4 4801.52   95.69
  -2   0  -4 4424.86  145.89
  -2   0  -4 4507.75   92.09
   2   0   4 4506.15   93.29
  -2   0  -4 4623.34  172.68
  -3   0  -4  939.51   44.30
   3   0   4  914.81   24.20
   3   0   4  933.71   51.29
   3   0   4  900.21   25.50
  -3   0  -4  930.01   37.00
  -3   0  -4  916.51   25.00
  -3   0  -4 1004.10   55.99
  -4   0  -4  108.49   13.60
  -4   0  -4  114.59    7.90
  -4   0  -4   69.19   15.40
   4   0   4  107.89    7.20
  -4   0  -4   82.19   15.90
  -5   0  -4  135.59    9.30
  -5   0  -4  107.59   23.60
  -5   0  -4  128.69   17.90
   5   0   4  136.99    7.70
  -6   0  -4   39.00   25.60
  -6   0  -4   56.09   12.90
  -8   0  -4  325.67   39.30
  -9  -1   4  361.16   42.80
  -8  -1   4  176.58   36.30
  -7  -1   4  261.87   35.50
  -7   1   4  274.17   45.10
  -7   1   4  198.08   22.90
  -6  -1   4  220.08   38.90
  -6   1   4  197.38   27.00
  -6   1   4  149.79    8.30
   6   1  -4  145.69   18.00
  -6   1   4  192.98   38.20
  -5  -1   4   37.30   13.90
  -5  -1   4   34.30    4.40
  -5  -1   4   40.80    5.10
  -5   1   4   54.09   14.00
   5   1  -4   47.60   12.50
  -5   1   4   45.60    6.10
  -5   1   4   51.09   18.80
  -4  -1   4  231.28    9.20
  -4  -1   4  233.38    8.90
  -4  -1   4  231.18   27.70
  -4   1   4  234.48    9.60
  -4   1   4  257.47   22.30
   4   1  -4  236.88   16.20
  -4   1   4  224.28   25.70
  -3  -1   4 1319.87   30.80
  -3  -1   4 1302.67   30.90
   3  -1  -4 1370.96   28.70
  -3  -1   4 1342.57   60.29
   3  -1  -4 1293.67   28.80
  -3  -1   4 1301.47   54.99
  -3   1   4 1343.87   61.09
  -3   1   4 1416.26   54.69
   3   1  -4 1346.07   29.20
  -3   1   4 1368.96   31.10
   2  -1  -4  331.67   11.00
  -2  -1   4  333.37   11.70
  -2  -1   4  326.97   11.80
   2  -1  -4  312.37   19.00
  -2  -1   4  309.97   21.00
  -2  -1   4  334.97   22.70
   2   1  -4  320.27   11.60
  -2   1   4  326.57   20.40
   2   1  -4  331.87   21.40
  -2   1   4  328.27   24.00
  -2   1   4  312.37   11.50
  -2   1   4  304.77   13.60
  -1  -1   4 5795.32  200.78
  -1  -1   4 6116.69  220.78
   1  -1  -4 6400.56  123.29
   1  -1  -4 6440.16  196.18
  -1  -1   4 6383.66  123.99
   1  -1  -4 6322.57  201.58
  -1  -1   4 6364.26  124.29
   1   1  -4 6222.58  184.88
  -1   1   4 6376.86  196.98
   1   1  -4 6377.56  123.69
   1   1  -4 6318.67  201.28
   1   1  -4 6377.36  124.49
   1   1  -4 6269.07  221.08
  -1   1   4 6129.79  201.08
  -1   1   4 6260.47  123.49
  -1   1   4 6332.17  209.38
   0  -1   4 7670.93  148.69
   0  -1  -4 7826.72  147.79
   0  -1  -4 7495.25  244.98
   0  -1   4 7578.84  218.98
   0  -1  -4 7731.93  241.48
   0  -1   4 7861.81  148.39
   0  -1   4 7312.27  248.08
   0  -1   4 7890.01  267.67
   0  -1  -4 7103.09  234.28
   0   1  -4 7641.94  149.09
   0   1   4 7515.65  147.69
   0   1  -4 7711.33  267.27
   0   1  -4 7371.96  147.69
   0   1   4 7434.56  245.38
   0   1   4 6953.50  234.38
   0   1   4 7639.24  241.28
   0   1  -4 7647.93  218.58
   0   1  -4 7501.55  239.48
  -1  -1  -4  531.05   30.90
   1  -1   4  525.05   17.10
   1  -1   4  551.94   18.00
  -1  -1  -4  558.24   31.20
   1  -1   4  569.54   29.30
   1  -1   4  552.14   31.60
   1  -1   4  528.95   20.20
  -1  -1  -4  513.45   23.30
  -1  -1  -4  504.75   31.20
   1  -1   4  553.44   34.20
  -1  -1  -4  557.24   17.30
   1   1   4  610.64   26.60
  -1   1  -4  540.35   17.20
  -1   1  -4  564.04   27.00
   1   1   4  563.44   31.00
  -1   1  -4  556.44   35.80
  -1   1  -4  529.25   18.60
   1   1   4  513.15   16.90
   1   1   4  545.15   32.90
   1   1   4  520.25   30.00
  -1   1  -4  552.24   31.60
  -2  -1  -4 1567.44   37.60
   2  -1   4 1564.94   37.70
   2  -1   4 1611.74   38.90
   2  -1   4 1630.74   74.59
   2  -1   4 1558.54   61.89
  -2  -1  -4 1666.23   68.99
  -2  -1  -4 1475.25   54.59
  -2  -1  -4 1557.34   65.59
  -2  -1  -4 1622.94   70.19
  -2   1  -4 1519.55   58.59
  -2   1  -4 1651.03   76.79
  -2   1  -4 1505.45   62.89
  -2   1  -4 1480.75   49.50
   2   1   4 1592.34   37.70
   2   1   4 1582.74   66.79
  -2   1  -4 1555.54   39.70
  -2   1  -4 1592.74   38.20
  -3  -1  -4  347.97   19.70
   3  -1   4  370.96   14.40
  -3  -1  -4  378.46   14.50
  -3  -1  -4  377.76   33.40
  -3  -1  -4  416.26   33.40
   3  -1   4  388.26   23.80
  -3   1  -4  344.17   19.70
  -3   1  -4  391.06   38.10
  -3   1  -4  362.66   14.70
   3   1   4  399.26   16.80
   3   1   4  382.46   14.50
   3   1   4  406.56   28.90
  -3   1  -4  394.66   28.70
  -3   1  -4  378.86   17.10
  -4  -1  -4    8.50    7.80
   4  -1   4    6.90    3.70
  -4  -1  -4   -3.90    6.40
  -4  -1  -4    3.20    3.70
  -4   1  -4    3.70    6.60
  -4   1  -4    8.20    9.30
  -4   1  -4    3.00    9.60
  -4   1  -4    2.50    8.10
  -4   1  -4    3.40    3.70
   4   1   4    3.30    4.10
   4   1   4   11.70    8.00
  -5  -1  -4  214.58   12.00
  -5  -1  -4  236.48   41.50
  -5  -1  -4  226.78   38.00
   5   1   4  212.88   17.70
  -5   1  -4  196.08   28.60
  -5   1  -4  216.38   12.60
  -6  -1  -4  -16.80   11.80
  -6  -1  -4   15.70   16.50
  -6   1  -4  -32.50   21.30
  -6   1  -4  -17.40   10.60
  -7  -1  -4   50.29   20.80
  -7   1  -4  -32.50   32.20
  -8  -1  -4  237.48   43.80
  -8  -2   4   91.79   28.60
  -8  -2   4   89.49   23.80
  -7  -2   4   68.69   22.00
  -7  -2   4   21.00   23.00
  -6  -2   4   16.90   13.80
  -6  -2   4    3.80   16.60
  -6  -2   4    4.20    4.70
  -6   2   4  -22.40   22.90
   6   2  -4   -8.60    9.40
  -6   2   4    0.90    6.20
  -6   2   4   -2.30    9.10
   5  -2  -4   28.50    3.50
  -5  -2   4   42.90   16.50
  -5  -2   4   32.10    7.00
  -5  -2   4   30.50   16.70
  -5  -2   4   42.00    7.80
  -5   2   4   31.30   21.70
   5   2  -4   29.30   12.10
  -5   2   4   29.20    7.80
  -5   2   4   23.10   11.30
  -4  -2   4   72.49   16.00
   4  -2  -4   79.19    6.50
  -4  -2   4   86.49    8.30
  -4  -2   4   56.39   14.60
  -4  -2   4   88.69    8.60
  -4   2   4   89.29   18.30
  -4   2   4   95.19   21.70
  -4   2   4   83.79    9.00
  -3  -2   4  238.88   12.40
   3  -2  -4  223.88   11.50
   3  -2  -4  222.78   17.00
  -3  -2   4  248.38   29.30
  -3  -2   4  221.68   12.60
  -3  -2   4  234.68   24.00
  -3  -2   4  198.18   19.50
  -3   2   4  231.78   28.10
  -3   2   4  238.78   22.30
  -3   2   4  221.98   12.40
  -3   2   4  208.78   13.50
   3   2  -4  230.28   12.20
  -2  -2   4  142.19   16.90
   2  -2  -4  133.29   14.10
  -2  -2   4  142.99   21.40
  -2  -2   4  136.29    9.90
  -2  -2   4  133.49   16.40
  -2  -2   4  119.79    9.40
  -2   2   4  122.39   21.40
   2   2  -4  125.69   17.50
   2   2  -4  129.79   10.00
  -2   2   4  131.69    9.80
  -2   2   4  144.09   19.50
  -2   2   4  142.99   21.60
   1  -2  -4  178.48   18.70
   1  -2  -4  170.08   19.10
  -1  -2   4  180.48   17.80
  -1  -2   4  190.38   17.70
  -1  -2   4  205.68   23.80
   1  -2  -4  208.08   24.30
  -1  -2   4  194.58   12.10
  -1  -2   4  184.18   11.50
  -1  -2   4  172.78   25.30
   1  -2  -4  185.78   11.20
   1   2  -4  177.78   20.00
   1   2  -4  188.78   12.40
  -1   2   4  209.88   24.20
   1   2  -4  219.18   22.90
   1   2  -4  178.08   15.80
  -1   2   4  178.88   21.70
  -1   2   4  173.98   11.30
  -1   2   4  192.88   22.80
   0  -2   4   45.00   10.20
   0  -2  -4   71.89   14.20
   0  -2   4   55.69   14.80
   0  -2  -4   84.29    8.50
   0  -2   4   71.69    8.20
   0  -2   4   69.19   14.40
   0  -2  -4   45.00   10.00
   0  -2   4   72.29    8.60
   0  -2  -4   62.79   13.80
   0  -2   4   99.19   14.30
   0   2   4   49.60    9.90
   0   2  -4   98.69   20.20
   0   2  -4   74.09    7.80
   0   2  -4   49.90   10.30
   0   2   4   82.29    8.90
   0   2  -4   82.19   11.10
   0   2  -4   76.89    9.70
   0   2   4   63.09   14.80
   1  -2   4 1296.17   51.89
  -1  -2  -4 1298.87   61.99
   1  -2   4 1287.77   35.20
  -1  -2  -4 1216.68   54.19
  -1  -2  -4 1309.67   35.00
   1  -2   4 1216.68   61.79
   1  -2   4 1291.97   63.09
  -1   2  -4 1270.27   62.99
  -1   2  -4 1289.07   35.30
  -1   2  -4 1244.08   35.90
   1   2   4 1221.18   34.60
  -1   2  -4 1323.97   65.99
   1   2   4 1214.78   53.19
  -1   2  -4 1178.68   58.39
  -1   2  -4 1294.67   49.30
   1   2   4 1253.27   58.39
   1   2   4 1189.38   59.19
  -2  -2  -4   52.99    8.60
  -2  -2  -4   22.10    8.80
   2  -2   4   36.10    7.30
   2  -2   4   28.20   11.20
  -2  -2  -4   21.50    9.40
  -2   2  -4   45.80   16.00
  -2   2  -4   47.00    9.30
  -2   2  -4   51.19    8.50
   2   2   4   37.50   11.70
   2   2   4   46.60    8.50
  -2   2  -4   36.90    9.90
   3  -2   4  206.68   12.50
  -3  -2  -4  224.08   23.30
  -3  -2  -4  222.58   13.00
  -3  -2  -4  170.08   22.10
  -3  -2  -4  210.38   31.60
   3   2   4  239.68   19.00
  -3   2  -4  213.98   13.10
  -3   2  -4  200.78   14.70
  -3   2  -4  237.98   36.90
  -3   2  -4  236.68   37.90
   3   2   4  216.68   13.30
   4  -2   4   94.49    9.20
  -4  -2  -4   81.39   20.70
  -4  -2  -4   78.79    9.00
   4   2   4   81.49    9.80
  -4   2  -4   57.89   19.50
  -4   2  -4   76.19   21.70
  -4   2  -4   87.89    9.50
  -4   2  -4   83.59   13.30
   4   2   4   97.59   14.50
  -5  -2  -4  114.89   28.90
   5  -2   4   99.39    9.20
  -5   2  -4   60.19   25.40
   5   2   4  118.89   17.60
  -5   2  -4   83.49   26.60
   5   2   4   96.09   10.50
  -5   2  -4  125.79   16.90
  -6  -2  -4   20.90   20.10
  -6   2  -4  -18.40   31.00
   6   2   4   12.50   11.40
  -6   2  -4   22.90   10.70
  -7  -2  -4   56.69   27.10
   7   2   4    9.60   13.50
  -8  -2  -4  113.99   31.60
   9   3  -4   -9.50   14.40
  -8  -3   4   27.40   34.40
  -7  -3   4   -6.00   26.90
  -7  -3   4   53.29   22.10
  -6  -3   4   -6.00   21.70
  -6  -3   4   17.20   17.20
  -6  -3   4    5.40    6.50
   6   3  -4   15.30   11.20
  -6   3   4   -7.30    8.20
  -5  -3   4   39.40   10.00
  -5  -3   4   86.09   26.40
  -5  -3   4   41.40   24.40
  -5   3   4   44.90   38.70
  -5   3   4   86.39   23.80
  -5   3   4   58.79   12.60
  -4  -3   4   44.10   10.00
   4  -3  -4   41.90    8.60
  -4  -3   4   41.60    9.80
  -4  -3   4   38.90   16.90
  -4  -3   4   52.39   20.10
   4   3  -4   50.89    9.70
  -4   3   4   45.30   28.40
  -4   3   4   20.10   13.60
  -4   3   4   34.60    9.90
   3  -3  -4   15.70    5.90
  -3  -3   4   23.20    7.90
  -3  -3   4   20.20   13.50
   3  -3  -4   23.10    7.40
  -3  -3   4   11.20   11.00
  -3  -3   4   22.00    7.80
  -3   3   4   18.30    8.40
  -3   3   4   30.30   20.20
  -3   3   4   21.80   13.60
   3   3  -4   18.70    8.50
  -2  -3   4   18.40    7.50
  -2  -3   4   15.80    8.60
  -2  -3   4   12.00    3.40
  -2  -3   4   15.70   11.40
  -2   3   4   29.20   14.60
   2   3  -4   19.10    9.20
  -2   3   4   27.00   15.70
  -2   3   4   18.30    8.20
   1  -3  -4  190.98   35.70
  -1  -3   4  146.09   15.60
   1  -3  -4  133.39   10.60
  -1  -3   4  142.59   19.70
  -1  -3   4  143.99   12.90
  -1  -3   4  171.28   32.90
  -1   3   4  185.18   35.60
   1   3  -4  130.39   13.80
   1   3  -4  150.78   26.60
   1   3  -4  106.39   23.40
  -1   3   4  134.09   12.40
  -1   3   4  120.99   25.00
   0  -3   4   43.40    9.80
   0  -3   4   64.59   12.70
   0  -3   4   36.00   13.90
   0  -3  -4   24.80   11.50
   0  -3  -4   48.90    9.40
   0  -3   4   41.50   11.80
   0   3   4   51.39   10.00
   0   3  -4   27.00    9.20
   0   3  -4   66.09   23.80
   0   3  -4   49.00   11.40
   0   3   4   57.09   20.40
   1  -3   4   24.90   11.60
  -1  -3  -4   12.60    8.90
   1  -3   4   16.20    6.80
   1  -3   4   16.60    9.60
  -1   3  -4   30.90    9.20
   1   3   4   29.30    9.10
  -1   3  -4   15.90    9.40
   1   3   4   51.09   20.60
  -1   3  -4   57.09   23.70
  -2  -3  -4   14.70   11.70
   2  -3   4    7.00    6.40
   2  -3   4   21.00   14.00
   2   3   4   28.60   20.20
  -2   3  -4   47.40   24.50
   2   3   4   17.20    8.30
  -2   3  -4    2.60    7.50
  -2   3  -4    8.10   11.00
  -3  -3  -4   70.59   19.50
   3  -3   4  110.29   12.50
  -3   3  -4  132.69   36.60
  -3   3  -4   74.89   20.50
   3   3   4  119.19   13.80
  -3   3  -4  119.79   16.70
   4  -3   4   91.69   13.80
  -4  -3  -4   63.39   24.10
  -4   3  -4   74.79   37.70
  -4   3  -4   77.79   15.00
  -4   3  -4   64.89   25.90
   4   3   4   78.29   12.90
  -5  -3  -4   71.39   28.90
   5   3   4   36.80   12.00
  -5   3  -4   50.99   13.90
  -5   3  -4   27.00   33.70
  -6  -3  -4   -0.40   24.60
   6   3   4   12.30   11.00
  -6   3  -4    7.30   10.70
  -7  -3  -4   48.10   33.80
   7   3   4   23.50   15.20
  -7   3  -4    8.80   11.70
   8   3   4  -20.70   13.00
   8   4  -4    0.40   14.30
  -7  -4   4   63.49   26.00
  -7  -4   4  -46.00   35.70
   7   4  -4   18.90   12.90
  -7   4   4  -10.10   10.80
  -6  -4   4  -29.10   31.50
  -6  -4   4   42.60   23.90
  -6  -4   4    7.50    9.50
  -6   4   4    7.00   11.80
  -5  -4   4   17.70   19.30
  -4  -4   4   12.90   20.50
  -4  -4   4    0.30   22.20
  -4  -4   4    9.20    9.20
   4  -4  -4   17.80    8.50
   4   4  -4   13.50   10.60
  -4   4   4  -47.60   49.40
  -4   4   4   24.00   12.10
  -3  -4   4    2.10   18.40
  -3  -4   4   14.20    9.60
   3  -4  -4   10.80    8.90
  -3  -4   4   15.10   17.20
  -3   4   4    3.20   14.60
   3   4  -4   12.50   10.60
  -3   4   4   21.80   10.40
  -3   4   4   -8.90   39.10
  -2  -4   4  128.69   27.00
  -2  -4   4  110.89   17.70
  -2  -4   4   67.69   25.90
  -2   4   4  119.09   17.40
   2   4  -4  110.39   18.00
  -2   4   4  127.79   47.00
   1  -4  -4   29.40   19.20
  -1  -4   4   55.19   13.00
  -1  -4   4   32.90   15.20
  -1  -4   4   31.20   19.40
   1  -4  -4   35.70    8.30
   1   4  -4   65.69   32.60
   1   4  -4   60.99   15.30
   1   4  -4   22.50   11.30
  -1   4   4   52.59   12.70
  -1   4   4   74.69   37.30
   0  -4  -4   23.20   17.60
   0  -4  -4   19.30    8.40
   0  -4   4   19.30   18.20
   0  -4   4   29.80   14.80
   0  -4   4   33.60   11.80
   0   4  -4   41.90   13.10
   0   4   4   56.89   37.00
   0   4   4   28.40   11.90
   0   4  -4   98.99   41.80
   0   4  -4   13.20   11.20
   1  -4   4   51.19   12.80
   1  -4   4   37.70   16.80
  -1  -4  -4   37.60   11.80
  -1  -4  -4   27.40   19.70
  -1   4  -4   21.90   14.40
   1   4   4   51.29   34.70
  -1   4  -4   44.00   14.10
  -1   4  -4   94.69   44.80
   1   4   4   60.39   13.70
   2  -4   4   62.19   14.00
  -2  -4  -4   38.20   21.80
  -2  -4  -4   75.19   17.70
   2  -4   4   45.80   19.50
  -2   4  -4   68.19   15.60
   2   4   4   67.69   33.70
  -2   4  -4   29.90   20.80
   2   4   4   65.49   14.50
   3  -4   4   56.99   13.40
  -3  -4  -4   37.30   25.00
  -3  -4  -4   85.09   21.20
  -3   4  -4   20.00   26.00
   3   4   4   65.49   14.80
  -3   4  -4   33.90   13.00
  -4  -4  -4   14.50   26.10
   4  -4   4   38.60   11.50
  -4   4  -4  -11.20   31.60
  -4   4  -4   35.20   13.70
   4   4   4   37.10   12.20
  -5  -4  -4   -9.70   26.30
  -5   4  -4    9.50   12.40
  -6  -4  -4  -10.60   27.20
   6   4   4    4.90   10.80
  -6   4  -4   17.90   14.20
  -7   4  -4   10.40   14.60
   7   4   4    8.10   12.30
   7   5  -4   17.80   14.30
  -6  -5   4  -64.69   41.80
  -5  -5   4    8.80   12.20
  -5  -5   4   46.80   28.50
  -5   5   4   18.40   15.10
  -4  -5   4   45.00   15.60
  -4  -5   4   83.29   35.70
  -4  -5   4   -9.10   36.50
  -4   5   4   41.90   16.10
   3  -5  -4    4.50    9.50
  -3  -5   4   18.60   12.60
  -3  -5   4  -40.80   30.40
  -3  -5   4   -8.20   24.20
  -3   5   4    4.60   12.40
   3   5  -4   10.60   11.90
  -2  -5   4   50.69   29.60
  -2  -5   4   86.89   17.80
   2  -5  -4   57.39   14.70
  -2  -5   4    0.10   30.10
  -2   5   4   58.69   16.40
   2   5  -4   63.79   17.60
   1  -5  -4   66.29   33.10
  -1  -5   4  129.99   20.60
  -1  -5   4   44.00   32.70
  -1  -5   4   97.59   31.30
   1   5  -4  108.59   19.40
  -1   5   4  109.29   19.90
   0  -5  -4   27.80   30.90
   0  -5   4   25.10   32.90
   0  -5  -4   51.59   13.50
   0  -5   4   85.59   16.90
   0  -5   4   48.80   24.10
   0   5   4   93.59   19.20
   0   5  -4   77.29   19.00
   1  -5   4    1.90    9.10
  -1  -5  -4    6.30   11.00
  -1  -5  -4  -17.70   27.50
  -1   5  -4    9.80   13.40
   1   5   4  -30.20   49.70
   1   5   4   14.40   12.90
  -2  -5  -4  110.49   25.60
  -2  -5  -4   55.99   35.50
   2  -5   4   99.79   19.40
  -2   5  -4  105.49   21.80
   2   5   4  104.89   19.10
  -3  -5  -4   10.90   31.30
   3  -5   4   26.60   12.10
   3   5   4   33.30   14.60
  -3   5  -4    7.50   12.60
  -4  -5  -4  110.79   26.70
  -5  -5  -4  268.57   38.20
  -4  -6   4  -19.80   37.40
  -3  -6   4  -30.50   34.40
  -3   6   4   -9.80   12.90
  -2  -6   4  -47.90   33.10
   2  -6  -4    7.80   12.10
  -2   6   4   -4.70   13.30
   2   6  -4    6.10   15.00
  -1  -6   4   50.79   16.90
  -1  -6   4  -26.80   32.50
   1  -6  -4   43.60   18.10
   1  -6  -4  -59.79   34.30
  -1  -6   4  -60.99   43.00
   1   6  -4   51.39   21.20
  -1   6   4   42.30   16.50
   0  -6  -4   10.40   13.20
   0   6   4   -0.20   11.50
   0   6  -4   -1.40   14.40
  -1   6  -4    3.50   15.00
   1   6   4    1.80   13.40
   2  -6   4   17.20   13.30
  -2   6  -4   10.20   14.90
   2   6   4   17.20   16.20
  -9   0   5  606.44   48.50
  -8   0   5  426.06   26.90
  -8   0   5  356.26   38.00
   5   0  -5   14.90    9.60
   4   0  -5    1.40    7.20
  -3   0   5   -1.40    1.70
   3   0  -5    0.40    5.30
  -3   0   5   -1.30    3.90
   2   0  -5   -0.70    1.70
  -2   0   5   -0.30    2.00
   2   0  -5    0.70    4.50
  -2   0   5   -3.30    2.80
  -2   0   5   -1.80    3.20
  -1   0   5   -0.90    2.60
   1   0  -5   -3.10    1.90
   1   0  -5   -3.60    3.20
   1   0  -5    1.30    2.50
  -1   0   5   -1.90    2.20
   1   0  -5   -1.10    2.40
  -1   0   5    4.70    3.60
   0   0   5    6.70    5.10
   0   0   5   -3.60    2.40
   0   0   5   13.60    5.20
   0   0  -5   -0.90    2.50
   0   0  -5    2.50    5.70
   0   0  -5   -2.70    2.20
   0   0  -5   10.40    4.80
  -1   0  -5    8.30    6.40
   1   0   5   -2.90    3.90
   1   0   5   15.90    7.70
   1   0   5   -0.50    3.20
   1   0   5   12.30    4.90
  -1   0  -5    1.40    4.30
  -1   0  -5    6.40    5.90
   1   0   5    3.60    4.90
  -1   0  -5   -2.20    2.70
   2   0   5    2.10    3.90
  -2   0  -5    1.20    2.90
   2   0   5    2.90    3.30
  -2   0  -5    1.80    6.40
  -2   0  -5    0.30    3.70
   2   0   5   -2.40    3.90
  -2   0  -5    3.40    5.70
  -3   0  -5   -5.40    7.50
  -3   0  -5    1.60    2.90
  -3   0  -5    0.90    5.70
   3   0   5    0.70    3.20
   4   0   5   -0.90    3.30
  -4   0  -5    3.40    5.90
  -4   0  -5   -0.80    7.10
  -4   0  -5   -0.90    3.00
  -4   0  -5   -9.80   10.70
   5   0   5    1.90    1.70
  -5   0  -5   -0.40    7.30
  -5   0  -5    5.70    3.90
  -5   0  -5    3.50   14.10
  -9  -1   5  468.55   49.40
  -8  -1   5  249.68   42.40
  -8  -1   5  162.18   31.10
  -7  -1   5  221.48   34.00
  -7  -1   5  187.78   38.90
  -7   1   5  237.78   44.00
  -7   1   5  234.48   25.80
  -6  -1   5   61.09   18.60
  -6  -1   5   42.70   18.00
  -6   1   5   50.09   24.40
  -6   1   5   43.90   15.90
   6   1  -5   36.60   13.60
  -5  -1   5   38.50    4.50
  -5  -1   5   36.40   13.00
  -5  -1   5   37.70    4.60
  -5  -1   5   44.10   15.00
  -5   1   5   46.00    5.90
  -5   1   5   52.39   18.90
  -5   1   5   37.30   13.20
   5   1  -5   46.70   13.10
  -4  -1   5   51.89   12.20
  -4  -1   5   71.59    5.50
  -4  -1   5   77.19   15.50
  -4  -1   5   73.29    5.70
  -4   1   5   65.09    6.10
  -4   1   5   56.99   14.10
   4   1  -5   90.99   14.80
  -4   1   5   56.29   11.60
  -3  -1   5  367.36   13.00
  -3  -1   5  372.56   26.10
  -3  -1   5  401.36   28.10
   3  -1  -5  399.36   11.40
  -3  -1   5  383.46   12.90
  -3   1   5  409.06   26.10
  -3   1   5  387.76   13.00
  -3   1   5  379.76   28.90
  -2  -1   5  509.35   16.50
  -2  -1   5  539.05   16.40
   2  -1  -5  538.25   27.70
  -2  -1   5  549.85   29.20
  -2  -1   5  549.65   28.60
   2  -1  -5  545.65   15.50
   2   1  -5  538.45   28.00
   2   1  -5  551.44   27.80
  -2   1   5  553.44   29.10
  -2   1   5  530.25   20.00
  -2   1   5  536.45   29.40
  -2   1   5  551.14   16.50
   2   1  -5  551.44   17.00
  -2   1   5  561.54   32.30
  -1  -1   5 2818.52   91.09
  -1  -1   5 2764.02   60.79
  -1  -1   5 2797.72   60.29
   1  -1  -5 2850.71   96.39
   1  -1  -5 2810.92   81.39
  -1  -1   5 2786.12   95.99
   1  -1  -5 2893.51   59.79
  -1  -1   5 2701.73  107.69
   1  -1  -5 2855.01   96.89
   1   1  -5 2859.71   61.39
  -1   1   5 2821.12  101.89
   1   1  -5 2852.01   60.19
   1   1  -5 2838.32   90.79
   1   1  -5 2870.51  108.99
   1   1  -5 2872.11   96.29
  -1   1   5 2835.52   97.59
  -1   1   5 2791.62   96.79
  -1   1   5 2764.02   59.89
   0  -1  -5 3423.96  113.59
   0  -1   5 3360.56   70.29
   0  -1   5 3223.48  116.69
   0  -1   5 3316.97   70.99
   0  -1   5 3371.66  128.09
   0  -1   5 3220.08  103.79
   0  -1  -5 3435.96   69.89
   0  -1  -5 3103.29  111.19
   0  -1   5 3113.99  105.19
   0   1   5 3208.68  113.29
   0   1   5 3306.97  113.69
   0   1   5 3243.88  124.39
   0   1  -5 3303.37  111.69
   0   1   5 3275.47   69.69
   0   1   5 3359.66  113.29
   0   1  -5 3431.46  128.69
   0   1  -5 3292.07  103.29
   0   1  -5 3445.66   71.89
   0   1  -5 3444.26   70.29
  -1  -1  -5  274.07   11.80
  -1  -1  -5  253.37   21.40
  -1  -1  -5  251.27   22.80
   1  -1   5  286.87   22.80
   1  -1   5  260.07   24.50
  -1  -1  -5  263.67   24.50
   1  -1   5  263.07   13.90
  -1  -1  -5  245.58   14.20
   1  -1   5  273.07   24.00
   1  -1   5  253.57   12.50
   1  -1   5  264.87   11.80
  -1   1  -5  279.37   27.20
  -1   1  -5  273.07   13.60
  -1   1  -5  283.97   23.50
   1   1   5  269.57   11.90
  -1   1  -5  276.07   19.40
   1   1   5  302.47   28.60
   1   1   5  255.17   20.60
  -1   1  -5  256.67   11.60
   1   1   5  281.97   23.90
   1   1   5  301.87   17.50
   2  -1   5  448.66   16.50
  -2  -1  -5  448.16   32.90
  -2  -1  -5  451.55   16.30
  -2  -1  -5  466.05   33.10
   2  -1   5  436.76   36.20
   2  -1   5  465.35   17.70
  -2  -1  -5  488.95   34.00
   2  -1   5  464.35   27.50
   2   1   5  467.65   16.60
  -2   1  -5  460.25   29.80
   2   1   5  453.45   15.30
  -2   1  -5  412.86   17.90
  -2   1  -5  421.56   28.10
  -2   1  -5  443.36   18.60
   2   1   5  438.66   30.70
  -2   1  -5  454.15   36.80
  -2   1  -5  432.86   16.40
   3  -1   5  628.64   20.70
  -3  -1  -5  676.73   44.60
  -3  -1  -5  688.43   21.60
   3  -1   5  640.34   32.70
  -3  -1  -5  653.33   44.90
  -3   1  -5  707.93   52.59
  -3   1  -5  635.24   23.90
   3   1   5  649.14   21.00
  -3   1  -5  635.64   37.20
  -3   1  -5  623.94   21.30
   3   1   5  618.54   21.90
  -3   1  -5  592.84   27.30
   3   1   5  658.03   40.10
  -4  -1  -5   23.90    5.90
  -4  -1  -5    5.80    8.10
   4  -1   5   21.70    5.60
  -4  -1  -5   10.40    8.80
  -4   1  -5   13.40    5.10
  -4   1  -5    7.00    8.00
  -4   1  -5   18.80   12.90
  -4   1  -5   19.20   11.50
   4   1   5   17.80    5.80
   4   1   5   14.10    8.20
  -4   1  -5   15.00    8.20
   5  -1   5    9.10    4.20
  -5  -1  -5    2.00   11.30
  -5  -1  -5   17.90   13.10
  -5   1  -5    7.40   12.80
  -5   1  -5   -0.70   17.30
   5   1   5   14.00    5.70
  -6  -1  -5    9.20   13.90
  -6   1  -5  -19.70   25.50
  -7  -1  -5   60.29   20.90
  -8  -1  -5  272.07   44.70
  -9  -2   5  319.17   56.49
  -8  -2   5  169.28   32.70
  -8  -2   5   93.49   30.60
   8   2  -5   29.50   17.20
  -7  -2   5   72.29   23.10
  -7  -2   5   29.90    6.20
  -7  -2   5   31.30   23.20
  -7   2   5   34.30    8.40
   7   2  -5   46.50   16.20
  -6  -2   5   -5.30   14.70
  -6  -2   5    5.50   13.30
  -6  -2   5    1.50    4.30
   6   2  -5    3.00    9.50
  -6   2   5  -10.50    5.20
  -6   2   5  -18.80   23.80
  -6   2   5  -10.20   10.20
   5  -2  -5   98.99    5.20
  -5  -2   5   98.69   24.10
  -5  -2   5  107.89    9.60
  -5  -2   5  105.29   23.00
  -5  -2   5  111.59    9.60
  -5   2   5   98.29   18.70
   5   2  -5   72.89   15.10
  -5   2   5   93.79   10.40
  -5   2   5  141.49   35.00
   4  -2  -5   41.80    6.40
  -4  -2   5   47.90    7.70
  -4  -2   5   26.50   11.70
  -4  -2   5   45.20    7.90
  -4  -2   5   33.00   13.00
  -4   2   5   36.70   11.60
  -4   2   5   24.90   14.00
  -4   2   5   54.99    8.70
   4   2  -5   21.50    4.90
  -3  -2   5   65.39   14.60
  -3  -2   5   72.69    7.90
  -3  -2   5   81.19    8.60
   3  -2  -5   71.19   11.00
  -3   2   5   65.89   16.10
   3   2  -5   71.69    8.40
  -3   2   5   72.39   13.70
  -3   2   5   67.49    8.40
  -2  -2   5  177.38   20.50
  -2  -2   5  182.88   19.00
  -2  -2   5  174.98   11.50
  -2  -2   5  181.88   11.50
  -2  -2   5  188.68   22.70
   2  -2  -5  177.08   17.20
  -2   2   5  197.48   24.50
  -2   2   5  177.28   11.20
  -2   2   5  161.28   23.20
   2   2  -5  181.08   12.10
   2   2  -5  182.78   20.20
  -2   2   5  199.08   22.80
   1  -2  -5  549.05   32.40
  -1  -2   5  543.65   20.30
  -1  -2   5  555.94   20.70
  -1  -2   5  544.35   30.60
   1  -2  -5  521.75   32.70
   1  -2  -5  571.14   37.30
  -1  -2   5  541.45   33.60
  -1  -2   5  532.95   35.20
  -1   2   5  517.85   34.40
  -1   2   5  536.55   35.40
   1   2  -5  522.15   33.00
   1   2  -5  551.44   20.90
   1   2  -5  526.95   31.20
   1   2  -5  571.24   36.10
  -1   2   5  543.95   20.10
  -1   2   5  544.45   36.90
   0  -2   5  318.57   26.90
   0  -2   5  341.27   23.70
   0  -2  -5  299.17   23.40
   0  -2  -5  332.37   28.90
   0  -2   5  288.57   14.80
   0  -2   5  338.87   28.50
   0  -2  -5  301.07   27.80
   0  -2  -5  325.47   15.00
   0  -2   5  307.47   15.10
   0  -2   5  290.17   32.60
   0   2   5  280.77   24.80
   0   2   5  312.27   27.40
   0   2  -5  284.47   15.20
   0   2  -5  330.07   27.10
   0   2  -5  320.07   31.20
   0   2  -5  334.77   30.90
   0   2  -5  312.87   14.90
   0   2   5  319.07   15.30
   0   2  -5  304.97   20.90
   0   2   5  326.27   32.70
  -1  -2  -5 1035.80   29.90
  -1  -2  -5  962.30   52.39
   1  -2   5  901.51   54.99
   1  -2   5 1004.60   30.10
   1  -2   5 1038.90   46.50
  -1  -2  -5  952.70   44.60
   1  -2   5  983.00   54.39
   1   2   5  996.60   49.00
   1   2   5  990.90   29.70
  -1   2  -5  985.20   54.79
  -1   2  -5  947.11   56.19
   1   2   5  939.91   45.80
  -1   2  -5  979.60   31.10
  -1   2  -5  831.12   52.19
  -1   2  -5  973.50   29.80
   1   2   5  978.10   53.69
  -1   2  -5  929.11   41.40
   2  -2   5   75.09    8.50
  -2  -2  -5   80.39    8.50
  -2  -2  -5   60.59   11.20
   2  -2   5   79.09   16.10
  -2  -2  -5   42.80   11.50
   2   2   5  113.59   24.50
   2   2   5   97.39   11.90
  -2   2  -5   78.39    8.40
  -2   2  -5   73.39   11.10
  -3  -2  -5   37.80   10.50
   3  -2   5   58.29    9.10
  -3  -2  -5   34.00    8.60
  -3  -2  -5   71.99   10.50
  -3  -2  -5   42.10   14.10
  -3   2  -5   64.39    9.60
   3   2   5   33.70    7.30
  -3   2  -5   45.80   14.90
  -3   2  -5   66.89   12.00
  -3   2  -5   63.49   19.40
  -4  -2  -5   88.39    9.70
  -4  -2  -5   84.59   20.90
  -4  -2  -5   52.89   12.80
   4  -2   5   86.69    9.50
  -4   2  -5   81.99    9.60
   4   2   5   90.79   10.70
   4   2   5  115.59   15.70
  -4   2  -5   83.99   23.70
  -4   2  -5  112.69   15.60
  -4   2  -5   60.29   20.90
   5  -2   5  134.79   11.30
  -5  -2  -5  158.18   34.70
   5   2   5  143.99   15.70
  -5   2  -5   91.09   30.40
  -5   2  -5  146.39   16.00
  -5   2  -5  103.79   27.90
  -6  -2  -5   27.00   22.10
  -6   2  -5  -12.40   34.80
  -6   2  -5   19.80   11.30
   6   2   5   14.30   11.30
  -7  -2  -5   54.39   26.70
   9   3  -5    0.10   16.40
  -8  -3   5   12.50   33.00
   8   3  -5   17.50   15.20
  -7  -3   5   32.00   19.60
  -6  -3   5   25.50   19.20
  -6  -3   5   -2.40   24.10
  -6  -3   5    9.20    6.90
  -6   3   5   11.80    9.20
   6   3  -5   -1.80    9.80
  -5  -3   5   31.00   17.70
  -5  -3   5   26.20    8.90
  -5  -3   5    2.60   18.40
  -5   3   5    8.30   33.10
  -5   3   5   27.80   10.10
  -5   3   5   -6.80   12.50
   4  -3  -5  250.57   14.90
  -4  -3   5  254.47   17.20
  -4  -3   5  284.27   33.70
  -4  -3   5  260.87   44.60
  -4   3   5  249.48   54.79
   4   3  -5  255.97   16.10
  -4   3   5  223.78   35.00
  -4   3   5  243.28   17.10
  -3  -3   5   20.10    8.20
  -3  -3   5   16.30   12.30
  -3  -3   5   31.00    8.90
  -3  -3   5   15.10   12.70
  -3   3   5   26.20   20.00
  -3   3   5   23.60    8.90
   3   3  -5   25.30    9.10
  -3   3   5   20.60   15.00
  -2  -3   5   17.30    9.00
  -2  -3   5   18.50   11.90
  -2  -3   5   12.90    7.90
  -2   3   5   22.20    8.80
   2   3  -5   32.60   10.40
  -2   3   5   41.20   16.20
  -2   3   5   28.10   15.70
  -1  -3   5    4.10    6.50
   1  -3  -5    8.20   11.10
  -1  -3   5    5.70   10.30
   1  -3  -5   -0.70    2.80
  -1  -3   5    6.60    8.10
  -1  -3   5    0.10    3.70
   1   3  -5    1.40    7.50
  -1   3   5   12.60   14.80
  -1   3   5   18.20   16.30
  -1   3   5    3.40    6.60
   1   3  -5    5.10    8.00
   0  -3   5  171.68   14.00
   0  -3   5  179.08   22.10
   0  -3  -5  211.48   33.40
   0  -3   5  192.28   22.10
   0  -3   5  215.98   34.80
   0  -3  -5  167.28   14.40
   0   3  -5  175.18   31.10
   0   3   5  224.18   41.90
   0   3   5  241.98   40.40
   0   3   5  177.98   14.40
   0   3  -5  175.68   33.10
   0   3  -5  176.58   15.70
  -1  -3  -5  192.28   31.40
   1  -3   5  198.08   14.90
   1  -3   5  229.38   27.70
   1   3   5  186.08   15.20
  -1   3  -5  203.48   16.60
  -1   3  -5  199.38   34.90
   1   3   5  295.97   47.70
   1   3   5  183.88   22.60
  -2  -3  -5    2.80    9.70
   2  -3   5   15.10   15.40
   2  -3   5    6.80    7.00
  -2   3  -5   41.60   24.30
  -2   3  -5    4.80   12.40
  -2   3  -5   -0.90    7.60
   2   3   5   -1.60    5.00
   2   3   5   33.40   21.20
   2   3   5    7.70    8.00
  -3  -3  -5   87.69   23.00
   3  -3   5  102.79   12.50
  -3   3  -5  113.69   16.40
  -3   3  -5   71.49   21.10
   3   3   5  125.09   14.30
  -3   3  -5  145.99   37.40
   4  -3   5  355.26   19.90
  -4  -3  -5  382.86   55.09
  -4   3  -5  358.06   23.60
  -4   3  -5  420.66   75.09
  -4   3  -5  339.87   59.09
   4   3   5  349.17   20.20
  -5  -3  -5   49.30   27.10
  -5   3  -5   29.20   36.20
  -5   3  -5   71.89   15.80
   5   3   5   69.19   14.70
  -6  -3  -5    0.40   26.00
  -6   3  -5    8.90   11.30
   6   3   5    7.60   10.90
  -7  -3  -5    3.80   28.10
   7   3   5   -2.80   12.30
  -7   3  -5    9.60   12.40
   8   4  -5   27.40   17.80
  -7  -4   5   45.30   24.60
  -7  -4   5  -31.20   36.90
  -7   4   5    4.30   12.30
   7   4  -5   -1.20   11.40
  -6  -4   5    6.40    8.70
  -6  -4   5   35.40   24.50
  -6  -4   5  -27.20   30.00
  -6   4   5   13.10   11.80
  -5  -4   5   35.70   24.70
  -4  -4   5    4.50   24.00
  -4  -4   5    8.40   18.80
  -4   4   5   17.80   10.90
  -3  -4   5   11.30    9.30
  -3  -4   5   19.70   17.30
   3  -4  -5   10.30    8.30
  -3  -4   5    9.00   22.10
  -3   4   5  -36.50   38.60
  -3   4   5  -11.30   15.80
  -3   4   5    6.50    9.00
   3   4  -5   13.00   10.90
  -2  -4   5   55.29   13.20
  -2  -4   5   33.40   22.80
  -2  -4   5   72.69   23.50
  -2   4   5   46.50   38.00
  -2   4   5   68.89   14.80
  -2   4   5   50.99   20.90
   2   4  -5   83.49   17.30
  -1  -4   5  176.68   30.90
   1  -4  -5  107.89   25.00
  -1  -4   5  174.18   17.30
   1  -4  -5  126.79   13.30
  -1  -4   5   99.79   26.60
  -1   4   5  164.88   17.30
   1   4  -5   80.99   16.50
  -1   4   5  167.28   46.90
   1   4  -5  177.98   18.80
   0  -4  -5   73.69   13.60
   0  -4   5   91.49   16.70
   0  -4   5   78.09   20.20
   0  -4  -5   68.79   23.20
   0  -4   5   56.09   20.80
   0   4   5   78.39   37.20
   0   4   5   95.89   15.80
   0   4  -5   85.79   16.30
   0   4  -5  107.79   42.80
   1  -4   5   59.69   14.60
   1  -4   5   27.70   17.70
  -1  -4  -5   28.40   20.20
  -1  -4  -5   35.60   10.80
   1   4   5   44.20   13.10
  -1   4  -5   38.80   13.90
   1   4   5   14.60   31.10
  -1   4  -5   49.10   41.30
  -1   4  -5   19.80   16.20
   2  -4   5  -12.90   18.00
   2  -4   5    7.10    8.30
  -2  -4  -5   28.30   11.70
  -2  -4  -5    0.30   15.50
  -2   4  -5   -3.00   16.90
  -2   4  -5   22.30   13.00
   2   4   5   31.20   29.00
   2   4   5   16.20   10.80
  -3  -4  -5   40.00   25.20
   3  -4   5   60.89   13.70
  -3   4  -5   50.19   15.10
   3   4   5   70.99   14.60
  -3   4  -5    7.10   28.30
  -4  -4  -5  -18.20   21.30
   4  -4   5   15.60    8.90
   4   4   5    7.40   10.10
  -4   4  -5    7.40   11.30
  -4   4  -5  -44.00   33.20
  -5  -4  -5   -5.70   23.90
  -5   4  -5  -10.00   10.50
  -6  -4  -5   -2.60   29.20
  -6   4  -5   20.70   14.50
   6   4   5   -1.20   10.70
   7   4   5   14.60   13.30
  -6  -5   5   10.70   13.30
  -6   5   5   14.90   15.80
  -5  -5   5   36.60   28.90
  -5   5   5   -5.50   12.60
  -4  -5   5   18.70   29.00
  -4  -5   5   19.60   13.20
  -4   5   5   11.50   12.50
  -3  -5   5   29.30   29.80
  -3  -5   5   31.60   13.40
  -3   5   5   20.90   14.20
  -2  -5   5   53.39   15.10
  -2  -5   5  -13.00   32.50
   2  -5  -5   59.79   15.50
  -2  -5   5   30.40   27.30
   2   5  -5   48.60   16.10
  -2   5   5   53.99   15.80
  -1  -5   5  -15.50   31.70
  -1  -5   5   24.50   26.00
   1  -5  -5    5.30   27.50
  -1  -5   5   39.40   14.30
   1   5  -5   46.30   16.30
  -1   5   5   40.90   15.10
   0  -5  -5   -2.20   27.80
   0  -5   5    0.00   27.30
   0  -5   5   10.50   24.40
   0  -5   5   50.29   15.40
   0   5   5   62.69   16.80
   0   5  -5   37.40   15.10
  -1  -5  -5  -22.80   26.50
   1  -5   5  -39.60   21.50
  -1  -5  -5   15.80   10.60
   1  -5   5   15.00   11.10
   1   5   5   30.20   14.10
   1   5   5  -48.30   48.90
  -1   5  -5    1.20   11.80
  -2  -5  -5  -20.00   27.70
   2  -5   5   27.50   11.30
  -2  -5  -5   34.20   15.80
  -2   5  -5   25.30   14.30
   2   5   5   22.40   13.00
  -3  -5  -5  -35.10   30.30
   3  -5   5    9.20    9.70
   3   5   5   13.10   12.60
  -3   5  -5    2.30   13.30
  -4   5  -5    4.50   13.00
   6   5   5   20.10   12.30
  -4  -6   5  -17.70   40.40
  -3  -6   5  -28.80   36.40
  -3  -6   5    3.80   14.60
  -2  -6   5   12.40   15.10
   2  -6  -5    4.50   11.30
   2   6  -5   -7.10   12.80
  -2   6   5    2.40   14.30
   1  -6  -5   10.60   13.70
  -1  -6   5    8.60   12.20
   1   6  -5   -5.80   15.10
   0  -6   5   -3.90   10.70
   0   6  -5    2.60   15.20
   0   6   5    1.90   15.50
   1  -6   5    1.60   12.10
   1   6   5   -9.90   12.20
  -1   6  -5   11.80   16.30
   2  -6   5   34.50   15.00
   2   6   5   36.40   17.20
  -9   0   6  566.54   46.30
  -8   0   6  406.36   27.30
  -8   0   6  268.27   31.70
  -7   0   6  354.66   35.10
  -7   0   6  377.46   35.20
  -5   0   6  266.47   25.40
   5   0  -6  226.98   19.40
  -4   0   6   78.99    5.10
   4   0  -6   85.29   13.40
  -4   0   6   83.89   14.00
  -4   0   6   82.39    4.50
  -3   0   6 1252.57   54.59
   3   0  -6 1284.57   37.60
  -3   0   6 1269.77   28.30
  -3   0   6 1291.67   49.90
   2   0  -6  979.80   27.90
   2   0  -6 1008.80   23.20
  -2   0   6  948.01   37.70
   2   0  -6  972.60   37.50
  -2   0   6  976.30   23.60
  -2   0   6  946.71   42.60
   1   0  -6 1489.85   57.49
   1   0  -6 1589.34   35.50
  -1   0   6 1530.65   52.59
  -1   0   6 1561.44   69.19
   1   0  -6 1596.54   52.69
  -1   0   6 1601.54   58.99
  -1   0   6 1540.35   35.40
   1   0  -6 1561.84   36.00
   0   0   6   91.09    6.80
   0   0  -6   79.79   10.00
   0   0   6  100.79   12.70
   0   0  -6  117.19   23.80
   0   0  -6   95.59    6.80
   0   0   6  123.69   20.80
   0   0  -6  104.49   11.80
   1   0   6  439.26   32.50
   1   0   6  465.35   27.20
  -1   0  -6  453.85   15.50
  -1   0  -6  421.06   23.40
  -1   0  -6  420.46   25.10
   1   0   6  424.56   16.50
  -1   0  -6  470.95   35.10
   1   0   6  433.06   15.40
   2   0   6  648.64   36.20
  -2   0  -6  633.34   43.70
  -2   0  -6  599.44   19.50
   2   0   6  598.94   19.30
   2   0   6  601.34   39.90
  -2   0  -6  626.34   18.20
  -2   0  -6  547.15   31.30
   2   0   6  561.94   20.20
  -3   0  -6   47.30    6.20
   3   0   6   48.70    7.10
  -3   0  -6   37.30   11.60
  -4   0  -6   38.90    6.90
  -4   0  -6   25.40   13.90
   4   0   6   48.90    7.70
  -4   0  -6   27.20   12.40
   5   0   6  111.99    8.80
  -5   0  -6   66.89   22.40
  -8   0  -6  396.16   44.60
  -9  -1   6  431.46   47.10
  -8  -1   6  227.38   41.20
  -7   1   6  203.48   27.00
  -7   1   6  254.37   42.10
  -6  -1   6   77.99   22.50
  -6  -1   6   62.69   20.30
  -6   1   6   69.09   20.40
   6   1  -6   54.29   15.30
  -6   1   6   94.49   31.20
  -5  -1   6  117.69    6.60
  -5  -1   6  151.78   23.60
  -5  -1   6  104.79   20.90
  -5  -1   6  119.19    6.80
  -5   1   6  120.49    7.60
  -5   1   6  143.99   31.30
  -5   1   6  114.29   20.90
   5   1  -6  110.69   14.00
  -4  -1   6   21.90    4.80
  -4  -1   6   17.10    8.10
  -4  -1   6   24.50    4.60
  -4  -1   6   17.30    9.80
  -4   1   6   26.50    5.20
   4   1  -6   16.40    8.80
  -4   1   6   27.90    7.30
  -4   1   6   20.90   10.30
  -4   1   6   14.00    8.20
  -3  -1   6  129.29   17.60
  -3  -1   6  131.79    8.20
   3  -1  -6  140.59    6.60
  -3  -1   6  129.89   16.20
  -3  -1   6  129.99    7.70
  -3   1   6  122.49   10.70
  -3   1   6  137.09    8.00
  -3   1   6  139.99   17.50
  -3   1   6  123.69   18.20
  -2  -1   6  252.67   11.50
   2  -1  -6  263.57   19.20
  -2  -1   6  271.37   19.50
  -2  -1   6  269.37   19.90
  -2  -1   6  270.57   11.30
   2  -1  -6  261.77   10.50
  -2  -1   6  244.38   24.50
   2   1  -6  273.27   19.10
  -2   1   6  266.37   22.40
  -2   1   6  273.47   21.30
  -2   1   6  262.77   20.00
  -2   1   6  246.68   12.40
  -2   1   6  258.77   11.10
   2   1  -6  255.77   17.60
   2   1  -6  274.67   10.90
   2   1  -6  267.37   12.10
   1  -1  -6 1650.53   60.59
   1  -1  -6 1640.44   62.59
  -1  -1   6 1629.14   39.50
   1  -1  -6 1650.83   38.10
   1  -1  -6 1654.33   50.59
  -1  -1   6 1562.94   70.29
  -1  -1   6 1581.84   59.19
  -1  -1   6 1624.64   38.80
  -1  -1   6 1588.64   58.79
  -1   1   6 1595.44   38.50
  -1   1   6 1523.15   50.59
  -1   1   6 1703.73   65.89
  -1   1   6 1650.43   64.39
   1   1  -6 1630.64   71.69
   1   1  -6 1681.43   38.80
   1   1  -6 1687.23   40.50
  -1   1   6 1615.74   60.39
   1   1  -6 1654.13   59.19
   1   1  -6 1641.64   59.59
   0  -1  -6  486.65   16.40
   0  -1   6  473.05   23.30
   0  -1   6  452.65   16.40
   0  -1  -6  478.95   26.50
   0  -1  -6  455.05   22.10
   0  -1   6  464.05   29.40
   0  -1   6  487.85   34.30
   0  -1   6  476.05   17.60
   0  -1   6  482.25   26.70
   0  -1  -6  509.95   28.90
   0   1   6  462.65   25.60
   0   1   6  448.96   31.50
   0   1   6  467.85   25.10
   0   1  -6  467.55   25.70
   0   1   6  498.75   31.70
   0   1  -6  529.05   36.20
   0   1  -6  498.65   18.70
   0   1   6  454.95   16.50
   0   1  -6  485.25   25.00
   0   1  -6  486.85   16.70
  -1  -1  -6   63.99   13.20
   1  -1   6   80.19    8.10
   1  -1   6   66.19   13.00
   1  -1   6  107.49   19.10
   1  -1   6   76.99    7.30
   1  -1   6   79.59    9.80
  -1  -1  -6   73.59    6.90
  -1   1  -6   69.59    7.00
  -1   1  -6   70.39    9.20
   1   1   6   97.59   11.10
  -1   1  -6   83.49   13.80
   1   1   6   75.29   12.40
  -1   1  -6   74.19   16.20
  -1   1  -6   68.59    7.20
   1   1   6   65.59    7.10
   1   1   6   70.09   15.10
   2  -1   6  170.28   19.40
   2  -1   6  165.78   10.20
  -2  -1  -6  184.48   26.70
  -2  -1  -6  168.38   21.70
  -2  -1  -6  167.78   25.10
  -2  -1  -6  181.08   10.50
  -2   1  -6  193.38   22.50
  -2   1  -6  167.68   12.40
   2   1   6  165.88    8.80
  -2   1  -6  174.78   27.50
   2   1   6  166.58   22.90
   2   1   6  169.68   10.60
  -2   1  -6  164.58   10.20
  -2   1  -6  153.78   10.60
  -3  -1  -6   10.10    4.80
   3  -1   6    5.30    5.60
   3  -1   6   14.20    5.00
  -3  -1  -6    8.40    7.80
  -3  -1  -6   14.40    9.00
   3   1   6   16.00    5.70
  -3   1  -6   12.30    4.70
  -3   1  -6    6.80    4.50
  -3   1  -6   15.80   10.30
  -3   1  -6   10.30    8.70
   3   1   6    4.10    5.50
   3   1   6   15.00    6.30
  -3   1  -6   13.50    7.40
  -4  -1  -6   80.29   18.80
  -4  -1  -6  110.29    9.40
  -4  -1  -6   65.09   15.40
   4  -1   6   99.19    9.00
  -4   1  -6   81.09   16.60
  -4   1  -6  132.49   25.70
  -4   1  -6   89.79   22.00
   4   1   6  113.19   12.40
   4   1   6  106.49    9.50
  -4   1  -6  115.79   12.90
  -4   1  -6  102.79    9.30
  -5  -1  -6   71.89   20.20
  -5  -1  -6   94.79   25.30
   5  -1   6  109.29    8.90
   5   1   6  128.49   10.20
  -5   1  -6   88.29   19.30
  -5   1  -6  110.39   31.90
  -6  -1  -6   82.49   25.50
  -6  -1  -6    8.90   19.10
  -6   1  -6    6.00   33.50
  -7  -1  -6   82.39   23.20
  -8  -1  -6  347.87   51.19
  -8  -2   6   92.89   27.20
  -8  -2   6   35.40   25.80
   8   2  -6    3.90   12.10
  -7  -2   6   32.90   20.40
  -7  -2   6   -6.80   19.60
   7   2  -6    5.50   10.50
  -7   2   6   39.80   13.40
  -6  -2   6   -0.20   14.50
  -6  -2   6  -12.90   15.40
  -6  -2   6   -1.80    4.00
   6   2  -6   -2.80    9.90
  -6   2   6  -11.20   25.60
  -6   2   6   -7.20   11.90
  -6   2   6   -3.40    5.60
  -5  -2   6    6.00   11.20
  -5  -2   6   17.70   14.20
  -5  -2   6   22.10    6.10
   5  -2  -6   21.90    3.50
  -5   2   6    8.70   12.00
  -5   2   6    5.10   20.10
  -5   2   6   25.40    7.20
   5   2  -6   15.60   11.20
   4  -2  -6   66.49    6.60
  -4  -2   6   69.79    8.20
  -4  -2   6   68.19   17.90
  -4  -2   6   76.89    8.30
  -4  -2   6   53.39   14.10
  -4   2   6   73.39   16.40
  -4   2   6   73.89    9.10
  -4   2   6   77.19    8.40
   4   2  -6   57.09    6.90
  -4   2   6   73.89   21.80
  -3  -2   6    7.90    8.70
  -3  -2   6   14.00    8.60
  -3  -2   6   14.10    5.70
  -3  -2   6   23.10    6.20
  -3  -2   6    5.60    5.90
  -3   2   6   17.80   10.90
  -3   2   6   16.70    6.30
  -3   2   6   15.80    9.90
   3   2  -6   19.70    6.70
  -2  -2   6  580.24   37.50
  -2  -2   6  615.54   22.20
  -2  -2   6  665.33   36.90
   2  -2  -6  620.74   34.70
  -2  -2   6  625.64   22.50
  -2  -2   6  654.23   40.50
   2   2  -6  603.04   36.90
  -2   2   6  638.94   41.50
  -2   2   6  587.64   38.40
  -2   2   6  612.24   38.80
  -2   2   6  648.64   22.40
   2   2  -6  658.53   22.90
  -1  -2   6  703.93   36.60
   1  -2  -6  702.13   39.20
  -1  -2   6  686.43   24.30
  -1  -2   6  713.73   42.10
  -1  -2   6  713.13   24.40
   1  -2  -6  719.33   41.60
  -1  -2   6  731.13   41.50
   1   2  -6  747.63   44.60
  -1   2   6  700.53   23.80
  -1   2   6  705.93   43.20
  -1   2   6  715.63   41.70
   1   2  -6  675.43   39.00
  -1   2   6  688.93   39.90
   1   2  -6  711.93   24.90
   0  -2   6  865.71   28.20
   0  -2   6  825.02   40.30
   0  -2  -6  819.22   41.30
   0  -2   6  835.72   47.80
   0  -2   6  834.42   27.30
   0  -2  -6  836.42   46.20
   0   2   6  878.81   50.09
   0   2   6  828.72   44.90
   0   2  -6  851.51   51.69
   0   2   6  831.02   44.00
   0   2  -6  816.62   47.40
   0   2   6  833.82   26.70
   0   2  -6  841.62   28.30
   0   2  -6  804.12   43.80
   1  -2   6   53.69    8.30
  -1  -2  -6   63.59   12.60
   1  -2   6   78.19   15.80
   1  -2   6   73.59    9.00
  -1  -2  -6   51.69   11.60
  -1   2  -6   60.79   16.60
  -1   2  -6   37.00   10.70
   1   2   6   67.79   18.40
   1   2   6   70.69    9.60
  -1   2  -6   79.29   11.90
  -2  -2  -6  469.25   19.90
  -2  -2  -6  428.26   26.30
   2  -2   6  492.15   20.40
   2  -2   6  478.55   36.20
  -2  -2  -6  505.75   40.50
  -2   2  -6  507.15   23.00
   2   2   6  463.25   33.40
  -2   2  -6  443.36   42.80
  -2   2  -6  506.55   44.20
  -2   2  -6  462.25   19.90
   2   2   6  517.65   35.00
   2   2   6  496.95   20.40
  -3  -2  -6  129.29   15.50
  -3  -2  -6  167.68   12.30
  -3  -2  -6  183.98   32.00
   3  -2   6  156.68   12.00
  -3  -2  -6  167.58   27.60
  -3   2  -6  147.29   11.80
  -3   2  -6  244.48   50.69
  -3   2  -6  227.78   38.00
   3   2   6  136.19   21.10
   3   2   6  158.88   12.70
  -3   2  -6  162.18   15.30
   4  -2   6   59.59   10.10
  -4  -2  -6   33.20   11.00
  -4  -2  -6   45.10   17.60
  -4  -2  -6   59.49    9.80
   4   2   6   66.99   12.40
  -4   2  -6   71.79   13.80
  -4   2  -6   45.80    9.50
  -4   2  -6   50.09   20.70
  -4   2  -6   48.00   21.10
   4   2   6   70.39   11.10
  -5  -2  -6    7.70   17.00
  -5  -2  -6  -12.70    8.90
  -5   2  -6   -2.70   25.80
   5   2   6   -3.40    8.50
  -5   2  -6  -21.50   17.30
  -5   2  -6    3.40    9.60
  -6  -2  -6   23.80   20.80
  -6   2  -6   15.10   10.50
   6   2   6    4.30   10.70
  -6   2  -6  -19.60   34.40
  -7  -2  -6   76.19   28.80
   9   3  -6    1.40   15.00
  -8  -3   6    6.40   32.70
   8   3  -6    6.00   13.30
  -7  -3   6   30.50   20.90
  -5  -3   6   29.10   21.40
  -5  -3   6   55.79   11.10
  -5  -3   6   56.39   22.20
  -5   3   6   32.50   37.90
  -5   3   6   44.90   10.90
  -4  -3   6   35.20   16.40
  -4  -3   6   29.20    8.80
   4  -3  -6   28.90    8.00
  -4  -3   6   35.90   17.70
  -4   3   6   32.60    9.70
  -4   3   6   15.80   15.50
   4   3  -6   35.70    9.00
  -4   3   6   16.40   24.60
  -3  -3   6    6.90   11.50
  -3  -3   6    8.90    7.10
  -3  -3   6    3.50    6.50
  -3  -3   6    5.80    9.80
  -3   3   6   19.60   16.50
  -3   3   6    5.30    7.50
   3   3  -6    6.20    7.60
  -3   3   6    9.10   18.10
  -2  -3   6   91.49   13.80
  -2  -3   6   72.39   16.80
  -2  -3   6   64.89   17.30
   2   3  -6  107.29   14.90
  -2   3   6   73.89   21.60
  -2   3   6   95.39   13.10
  -2   3   6   75.59   20.60
  -1  -3   6  156.88   21.20
  -1  -3   6  177.58   14.40
  -1  -3   6  199.18   24.70
   1  -3  -6  166.08   10.10
   1  -3  -6  192.98   36.50
  -1  -3   6  206.38   37.10
  -1   3   6  254.67   43.50
  -1   3   6  163.98   14.30
   1   3  -6  193.68   16.10
  -1   3   6  202.38   36.20
   1   3  -6  207.88   35.50
   0  -3   6   22.80   11.30
   0  -3   6   16.60    7.30
   0  -3   6   16.90   11.60
   0  -3  -6   13.50    5.30
   0  -3  -6    9.50   10.30
   0   3  -6   21.10   15.50
   0   3  -6   11.80   10.00
   0   3   6   44.50   20.30
   0   3   6   16.40    7.90
   0   3   6   27.50   18.60
   0   3  -6   17.70    8.60
   1  -3   6  241.48   32.00
   1  -3   6  182.38   14.70
  -1  -3  -6  213.08   33.60
   1   3   6  302.77   49.70
   1   3   6  196.08   15.70
  -1   3  -6  216.38   38.30
   1   3   6  179.88   24.90
  -1   3  -6  322.87   59.19
  -1   3  -6  223.18   17.90
   2  -3   6   43.70   18.40
  -2  -3  -6   11.20   12.40
   2  -3   6   23.70    9.10
   2   3   6   19.20    9.30
  -2   3  -6    6.20    8.20
  -2   3  -6    8.40   11.40
   2   3   6   38.20   22.60
  -2   3  -6   44.30   27.60
   3  -3   6  118.69   13.60
  -3  -3  -6   75.69   21.00
   3   3   6  112.99   14.30
  -3   3  -6  133.39   38.90
  -3   3  -6  102.89   26.10
  -3   3  -6  132.29   16.70
   3   3   6  139.59   14.90
   4  -3   6   81.19   13.60
  -4  -3  -6   51.19   22.80
   4   3   6   52.69   11.60
  -4   3  -6   71.39   15.80
  -4   3  -6   69.49   29.40
  -5  -3  -6   24.10   26.00
   5   3   6   34.50   12.20
  -5   3  -6   36.80   13.40
  -6  -3  -6   15.00   30.00
  -6   3  -6   32.20   14.20
   6   3   6   16.80   11.50
  -7  -3  -6   11.40   29.00
   7   3   6    2.90   13.00
  -7   3  -6   22.80   13.50
   8   4  -6   -1.90   13.10
  -7  -4   6  -23.20   33.30
  -7  -4   6   57.09   29.10
  -7   4   6    5.30   12.50
   7   4  -6   33.00   15.80
  -6  -4   6   12.70    9.10
  -6  -4   6  -42.70   26.50
  -6  -4   6   22.50   22.50
  -6   4   6   -4.10   10.40
  -5  -4   6   35.90   23.10
  -4  -4   6   31.40   11.50
  -4  -4   6    0.60   24.30
  -4  -4   6   25.50   20.70
  -4   4   6   20.40   11.10
  -4   4   6  -26.70   48.40
  -3  -4   6  134.09   34.40
  -3  -4   6  168.88   17.40
  -3  -4   6  173.38   32.40
   3  -4  -6  167.88   16.90
   3   4  -6  145.99   18.00
  -3   4   6  167.38   18.20
  -3   4   6  204.78   57.69
  -2  -4   6   51.29   24.00
  -2  -4   6   58.29   13.10
  -2  -4   6   91.89   24.00
  -2   4   6   67.89   41.00
  -2   4   6   73.39   13.90
   2   4  -6   88.19   17.00
  -2   4   6   36.40   21.70
   1  -4  -6   67.99   24.60
   1  -4  -6   68.99   10.60
  -1  -4   6  112.19   25.30
  -1  -4   6  124.99   18.40
  -1  -4   6   68.29   23.70
   1   4  -6  120.29   18.50
   1   4  -6   55.99   15.80
  -1   4   6  119.49   17.80
  -1   4   6   93.59   40.00
   0  -4  -6   97.69   26.60
   0  -4  -6   98.29   14.10
   0  -4   6  152.58   20.10
   0  -4   6   68.09   21.70
   0  -4   6  122.19   25.40
   0   4  -6  124.39   35.60
   0   4   6  153.78   20.00
   0   4  -6  138.99   20.30
   0   4   6  116.99   38.70
   0   4  -6   61.39   18.70
   1  -4   6   15.30    9.70
  -1  -4  -6   18.90   17.80
   1  -4   6    5.70   17.30
  -1  -4  -6   26.70    9.80
   1   4   6   21.00   11.20
   1   4   6    5.80   30.20
  -1   4  -6   49.99   41.60
  -1   4  -6   24.70   12.70
  -1   4  -6   -0.40   15.60
  -2  -4  -6   29.10   11.00
  -2  -4  -6   -5.40   17.50
   2  -4   6   16.60    9.20
   2  -4   6   -0.50   21.40
  -2   4  -6   -5.30   19.50
  -2   4  -6   48.40   46.40
   2   4   6   12.20    9.90
   2   4   6   30.60   29.90
  -2   4  -6    7.30   11.60
  -3  -4  -6    9.80   24.20
   3  -4   6   27.30   10.80
   3   4   6   32.80   12.60
  -3   4  -6   23.10   13.50
  -4  -4  -6  -23.80   22.20
   4  -4   6   15.90    9.20
  -4   4  -6    5.10   11.50
  -5  -4  -6   -5.60   24.90
  -5   4  -6   11.60   13.30
  -6  -4  -6  -31.70   28.30
   6   4   6    7.40   10.90
  -6   4  -6    9.10   14.30
  -5  -5   6    2.80   10.40
  -5  -5   6   23.20   30.30
  -3  -5   6    6.80   29.30
   3  -5  -6   17.00   11.40
  -3  -5   6   16.90   12.20
   3   5  -6   17.50   13.60
  -3   5   6   19.30   13.60
  -2  -5   6    1.80    9.70
  -2  -5   6  -20.40   22.50
  -2   5   6    8.00   11.50
   2   5  -6    6.20   12.20
  -1  -5   6  -22.20   23.80
  -1  -5   6   10.00   10.80
  -1  -5   6  -34.00   30.30
   1  -5  -6  -27.00   27.20
  -1   5   6   24.50   13.00
   1   5  -6   10.40   13.70
   0  -5  -6  -33.80   26.30
   0  -5   6    4.10   10.10
   0   5   6   15.20   12.80
   0   5  -6   18.40   14.30
  -1  -5  -6    5.40    7.80
  -1  -5  -6  -38.70   26.60
   1  -5   6   -0.30    8.80
  -1   5  -6    4.20   12.60
   1   5   6   10.20   12.60
  -2  -5  -6   -7.70   31.90
   2  -5   6   52.29   15.30
  -2  -5  -6   57.79   18.20
  -2   5  -6   40.20   17.60
   2   5   6   28.10   13.90
   2   5   6  -55.99   41.60
   3  -5   6    4.60   10.70
  -3  -5  -6  -30.20   30.00
  -3   5  -6    4.10   12.10
   3   5   6   18.40   13.40
  -4  -6   6  -14.70   41.80
  -3  -6   6   12.00   14.30
  -3  -6   6  -18.40   37.90
  -2  -6   6   10.90   14.50
   2  -6  -6   -2.80   10.60
  -2   6   6    1.80   13.70
   1  -6  -6   14.40   13.60
  -1   6   6    2.70   14.20
   1   6  -6  -11.60   13.70
   0  -6   6    9.40   12.90
   0   6   6    8.60   14.00
   0   6  -6    0.90   14.20
   1  -6   6   -0.20   11.00
   1   6   6   20.10   17.80
  -1   6  -6   18.00   16.50
   2  -6   6   17.60   12.90
  -2   6  -6   14.00   19.10
   2   6   6    1.10   12.90
  -9   0   7  695.83   37.50
  -9   0   7  613.44   47.50
  -8   0   7  476.05   32.20
  -8   0   7  350.66   38.00
  -7   0   7  147.59   24.60
  -6   0   7   15.00   13.20
  -6   0   7   28.50   11.40
   5   0  -7    5.20    8.90
  -5   0   7    3.40    7.30
  -5   0   7    5.70    3.00
  -5   0   7    6.90    9.10
  -4   0   7   -1.50    2.40
  -4   0   7    3.30    3.20
  -4   0   7   -6.40    4.80
   4   0  -7    5.00    7.90
  -4   0   7   -1.20    5.20
  -3   0   7    1.60    2.70
  -3   0   7    2.70    4.70
  -3   0   7    1.70    5.30
   3   0  -7   -0.10    1.80
   3   0  -7    6.60    7.00
   2   0  -7   -1.60    2.80
  -2   0   7   -1.10    4.00
   2   0  -7   -1.40    4.60
  -2   0   7    1.40    4.00
  -2   0   7   -0.20    2.60
   2   0  -7    0.40    2.40
  -1   0   7   -1.00    4.30
  -1   0   7    0.40    5.80
   1   0  -7   -1.60    2.50
   1   0  -7   -0.20    3.50
  -1   0   7    2.60    4.80
  -1   0   7   -4.50    2.70
   1   0  -7   -0.60    2.80
   1   0  -7   -0.70    3.00
   0   0  -7   -5.30    2.60
   0   0   7   -4.30    3.00
   0   0   7   13.00    8.10
   0   0  -7   -0.40    3.00
   0   0   7    2.20    5.20
   0   0   7    3.70    5.40
   0   0  -7   -0.40    4.60
   0   0  -7    0.80    6.60
   1   0   7   -0.90    5.00
   1   0   7   -2.00    3.40
   1   0   7   10.50    7.80
  -1   0  -7    3.20    6.40
  -1   0  -7   -0.10    3.90
  -1   0  -7    3.80    6.30
  -1   0  -7   -1.00    3.10
   1   0   7    1.50    4.10
  -2   0  -7   -0.50    5.90
   2   0   7   -0.40    3.50
  -2   0  -7    3.30    3.30
  -2   0  -7    6.40    7.20
   2   0   7   -2.10    4.50
  -2   0  -7   -2.20    3.20
   2   0   7   17.00   11.20
  -3   0  -7    0.10    7.60
   3   0   7   -0.20    3.90
  -3   0  -7    0.50    3.30
  -3   0  -7   -6.80    7.90
   4   0   7   -1.70    4.00
  -4   0  -7    0.10    3.50
  -4   0  -7    4.30   10.80
   5   0   7    1.80    4.40
  -5   0  -7    0.70   17.00
  -8   0  -7  460.35   47.40
  -9  -1   7  464.25   49.30
  -9  -1   7  614.64   31.60
  -8  -1   7  211.68   39.40
  -7  -1   7  218.68   40.10
  -7  -1   7  210.18   34.00
  -7   1   7  222.68   28.20
  -6  -1   7   28.00   17.10
  -6  -1   7   28.00   15.30
  -6   1   7   15.10   15.20
  -6   1   7   29.90   10.00
  -6   1   7   57.29   24.80
   6   1  -7   16.90   12.50
  -5  -1   7   75.29   17.90
  -5  -1   7   56.79    6.00
  -5  -1   7   67.09    5.90
  -5  -1   7   58.19   16.10
  -5   1   7   72.59   22.10
   5   1  -7   77.39   15.70
  -5   1   7   73.99   18.40
  -5   1   7   87.39   14.70
  -5   1   7   61.29    6.60
  -4  -1   7  224.58   10.10
  -4  -1   7  234.78   23.50
  -4  -1   7  239.78   26.50
  -4  -1   7  215.78   10.60
  -4   1   7  220.98   17.30
  -4   1   7  224.68   10.50
  -4   1   7  253.97   26.10
  -4   1   7  222.48   27.80
   4   1  -7  211.78   16.20
  -3  -1   7   10.20    4.50
  -3  -1   7    0.70    4.30
   3  -1  -7    9.20    3.20
  -3  -1   7    3.50    6.00
  -3  -1   7    9.20    4.00
  -3   1   7   13.30    4.40
  -3   1   7    5.50    6.20
  -3   1   7    3.80    3.60
   2  -1  -7  297.87   11.90
  -2  -1   7  287.87   12.40
  -2  -1   7  306.07   20.20
  -2  -1   7  308.87   13.20
   2  -1  -7  295.07   14.20
  -2  -1   7  277.67   27.20
  -2  -1   7  308.27   22.10
   2  -1  -7  282.97   20.70
  -2   1   7  287.57   14.70
  -2   1   7  302.17   24.00
   2   1  -7  304.37   13.70
  -2   1   7  294.47   20.50
   2   1  -7  309.87   12.20
   2   1  -7  274.67   17.90
  -2   1   7  289.77   12.40
   2   1  -7  284.57   20.20
   1  -1  -7  430.36   18.90
  -1  -1   7  406.66   24.30
  -1  -1   7  439.36   25.80
   1  -1  -7  437.06   15.50
  -1  -1   7  431.46   23.20
   1  -1  -7  448.96   24.20
  -1  -1   7  419.66   16.60
  -1  -1   7  409.76   31.90
  -1  -1   7  439.76   16.10
   1  -1  -7  425.56   26.20
   1   1  -7  433.06   17.60
  -1   1   7  428.16   27.00
  -1   1   7  437.16   23.20
   1   1  -7  440.16   34.30
  -1   1   7  421.06   15.70
  -1   1   7  433.56   20.30
   1   1  -7  448.56   22.70
   1   1  -7  454.15   15.90
   1   1  -7  429.06   24.40
  -1   1   7  422.86   27.90
   0  -1  -7  150.58    9.40
   0  -1  -7  142.19   13.60
   0  -1   7  128.09    9.60
   0  -1   7  170.88   19.90
   0  -1  -7  137.99   16.00
   0  -1   7  138.39   13.10
   0  -1   7  138.69   23.00
   0  -1  -7  147.29   15.30
   0  -1   7  162.18   17.70
   0  -1   7  148.89    9.40
   0   1   7  133.89   14.00
   0   1  -7  156.58   14.90
   0   1   7  137.49    9.40
   0   1  -7  189.18   27.50
   0   1   7  134.49   14.00
   0   1  -7  143.49   15.10
   0   1   7  144.39   22.00
   0   1  -7  154.48    9.60
   0   1   7  159.58   21.90
   0   1  -7  144.39   11.50
  -1  -1  -7  612.54   40.10
  -1  -1  -7  605.34   35.40
  -1  -1  -7  601.04   20.30
   1  -1   7  573.04   41.40
  -1  -1  -7  580.44   35.80
   1  -1   7  615.54   35.60
   1  -1   7  601.74   21.80
   1  -1   7  619.94   27.90
   1  -1   7  602.54   20.70
   1  -1   7  561.94   35.20
  -1   1  -7  556.34   25.40
  -1   1  -7  612.44   20.60
   1   1   7  629.64   40.90
   1   1   7  567.34   38.60
  -1   1  -7  609.84   23.10
   1   1   7  590.64   26.70
   1   1   7  608.84   20.60
  -1   1  -7  565.94   31.30
  -1   1  -7  614.74   43.70
  -2  -1  -7  105.09    8.80
   2  -1   7   90.49   18.90
  -2  -1  -7  123.19   26.00
  -2  -1  -7  116.09   20.40
   2  -1   7  130.29   18.20
   2  -1   7  107.59    9.20
  -2   1  -7  105.69    8.70
   2   1   7  110.59    7.10
  -2   1  -7  122.99   26.60
  -2   1  -7   98.09   11.30
  -2   1  -7   96.79    9.40
   2   1   7  110.39    9.20
   2   1   7  178.88   33.10
  -2   1  -7  124.69   20.00
  -3  -1  -7   30.20   11.40
  -3  -1  -7   22.50   10.40
  -3  -1  -7   60.49    9.40
   3  -1   7   26.90    8.20
   3  -1   7   43.30    7.80
   3   1   7   52.69    9.00
  -3   1  -7   43.40    7.80
   3   1   7   41.20    7.90
  -3   1  -7   27.50    6.30
  -3   1  -7   47.40   10.70
  -3   1  -7   46.90   12.50
  -3   1  -7   18.10    9.80
   4  -1   7   15.10    5.80
  -4  -1  -7   17.30    6.20
  -4  -1  -7    3.80   10.90
  -4  -1  -7   12.60   10.90
  -4   1  -7   23.00   13.00
  -4   1  -7    9.30   11.90
  -4   1  -7    2.70    6.80
  -4   1  -7   15.90    5.90
   4   1   7   22.60    7.00
  -5  -1  -7  139.59   31.50
   5  -1   7  128.09    9.90
  -5  -1  -7   73.89   22.20
  -5   1  -7  106.89   32.10
  -5   1  -7   77.99   18.50
   5   1   7  115.19   10.50
  -6  -1  -7   20.10   17.70
  -7  -1  -7   83.99   22.80
  -8  -1  -7  319.37   52.49
  -8  -2   7   78.09   24.10
  -8  -2   7   28.10   27.50
   8   2  -7    2.70   13.20
  -7  -2   7   15.90   21.50
  -7  -2   7   29.20   19.10
  -7   2   7   76.59   38.30
  -7   2   7   41.30   16.30
   7   2  -7    1.30   10.40
  -6  -2   7    7.10   15.30
  -6  -2   7   16.90    5.60
  -6  -2   7   -2.50   16.30
  -6   2   7    1.90   16.10
  -6   2   7   14.90   30.80
   6   2  -7    4.00   11.00
  -5  -2   7  136.09   10.50
  -5  -2   7  122.09   24.90
  -5  -2   7  169.98   28.30
   5   2  -7  126.49   16.90
  -5   2   7  143.89   11.60
  -5   2   7  156.88   13.90
  -5   2   7  154.68   26.00
  -5   2   7  203.18   41.10
  -4  -2   7   62.19    9.20
   4  -2  -7   56.89    7.60
  -4  -2   7   42.10    7.80
  -4  -2   7   40.80   14.40
  -4  -2   7   31.60   12.30
   4   2  -7   39.90    7.40
  -4   2   7   46.80   14.60
  -4   2   7   40.20   16.30
  -4   2   7   56.79    9.20
  -4   2   7   35.50    6.40
  -3  -2   7   25.20    9.60
  -3  -2   7   47.70    8.50
  -3  -2   7   31.00   11.10
  -3  -2   7   45.10    8.00
  -3   2   7   46.30   14.30
  -3   2   7   54.39    9.10
   3   2  -7   48.40    8.70
  -3   2   7   34.40   13.60
  -2  -2   7 1816.72   47.50
  -2  -2   7 1947.81   79.49
  -2  -2   7 1860.41   47.60
  -2  -2   7 1774.42   81.69
  -2  -2   7 1984.70   75.69
  -2   2   7 1894.41   83.39
  -2   2   7 1819.02   46.70
   2   2  -7 1821.92   77.09
  -2   2   7 1854.01   78.39
  -2   2   7 1756.42   77.39
   2   2  -7 1936.61   48.50
  -1  -2   7 2191.38   95.59
  -1  -2   7 2258.87   54.69
   1  -2  -7 2216.38   88.59
   1  -2  -7 2095.39   65.29
  -1  -2   7 2237.08   81.89
  -1  -2   7 2199.78   87.39
  -1  -2   7 2228.08   54.99
   1   2  -7 2136.49   86.39
   1   2  -7 2274.77   97.19
  -1   2   7 2121.39   86.59
  -1   2   7 2194.68   53.79
   1   2  -7 2265.07   55.79
  -1   2   7 2199.88   90.29
  -1   2   7 2054.09   88.79
   0  -2   7    3.40    8.10
   0  -2  -7    8.70    5.40
   0  -2   7    5.00    5.30
   0  -2   7    0.00    5.40
   0  -2  -7    5.20    5.90
   0   2   7    8.40    8.30
   0   2   7   24.00   14.40
   0   2   7    7.70    5.40
   0   2   7    7.40    5.60
   0   2  -7    1.40    5.70
   0   2  -7   10.00    8.50
   0   2  -7    9.60    6.70
   1  -2   7 1599.64   43.50
   1  -2   7 1586.54   55.79
  -1  -2  -7 1550.14   63.19
  -1  -2  -7 1630.94   74.49
   1  -2   7 1687.93   68.09
  -1   2  -7 1502.55   71.69
   1   2   7 1588.44   43.00
   1   2   7 1432.46   70.29
   1   2   7 1539.85   67.39
   1   2   7 1657.43   79.09
  -1   2  -7 1632.44   46.00
  -2  -2  -7  112.39   13.20
  -2  -2  -7  134.89   26.40
   2  -2   7  154.38   29.20
   2  -2   7  119.09   11.00
   2   2   7  125.79   11.60
  -2   2  -7  201.88   36.10
  -2   2  -7  149.49   34.10
   2   2   7   99.49   23.60
  -2   2  -7  128.89   13.80
  -3  -2  -7  303.47   38.50
   3  -2   7  290.57   16.40
  -3  -2  -7  296.87   34.10
  -3   2  -7  332.87   49.30
  -3   2  -7  361.26   42.50
   3   2   7  268.67   29.20
   3   2   7  297.87   16.90
  -3   2  -7  281.27   19.60
  -4  -2  -7  493.85   52.59
   4  -2   7  447.66   20.80
  -4  -2  -7  420.36   41.90
   4   2   7  451.05   21.70
  -4   2  -7  442.76   24.70
   4   2   7  471.15   21.40
  -4   2  -7  443.36   48.80
  -4   2  -7  482.95   70.59
  -5  -2  -7   -2.20   10.30
  -5  -2  -7   29.40   21.40
  -5   2  -7   -0.50   25.90
  -5   2  -7  -12.10   18.10
   5   2   7   10.60   10.00
  -5   2  -7   15.20   11.10
  -6  -2  -7   49.40   24.30
  -7  -2  -7   68.89   27.50
   9   3  -7    6.60   18.10
  -8  -3   7    9.80   33.30
   8   3  -7    7.90   13.60
  -7  -3   7   22.40   19.70
  -7  -3   7  -36.80   24.60
  -7   3   7   -7.80    8.10
   7   3  -7    3.70   12.30
  -6  -3   7   13.10    6.90
  -6  -3   7   25.90   21.00
  -6  -3   7   11.10   24.30
  -6   3   7   10.00    9.20
   6   3  -7   18.00   12.40
  -5  -3   7   95.09   28.90
  -5  -3   7  131.19   30.50
  -5  -3   7  108.49   12.40
  -5   3   7  116.09   15.10
  -5   3   7  128.79   50.59
  -4  -3   7  186.58   15.10
   4  -3  -7  168.48   13.30
  -4  -3   7  192.38   31.50
  -4  -3   7  153.18   28.90
   4   3  -7  198.68   15.30
  -4   3   7  145.09   27.80
  -4   3   7  196.58   16.00
  -4   3   7  240.98   46.60
  -3  -3   7   70.99   12.20
  -3  -3   7   48.70   15.70
  -3  -3   7   47.30   17.40
  -3   3   7   69.49   21.70
   3   3  -7   57.29   11.80
  -3   3   7   60.89   25.10
  -3   3   7   63.29   11.80
  -2  -3   7   32.50   15.40
  -2  -3   7   58.59   16.40
  -2  -3   7   44.70   10.40
  -2   3   7   39.10   19.00
   2   3  -7   64.49   12.80
  -2   3   7   55.49   20.00
  -2   3   7   42.50   10.10
  -1  -3   7  294.57   29.30
  -1  -3   7  272.47   17.50
   1  -3  -7  358.86   41.90
  -1  -3   7  247.78   28.00
  -1  -3   7  291.77   41.50
   1  -3  -7  267.37   13.00
   1   3  -7  326.27   42.70
  -1   3   7  278.37   17.80
  -1   3   7  302.27   41.20
   1   3  -7  279.17   19.10
  -1   3   7  370.36   47.50
   0  -3   7   48.70   13.70
   0  -3   7   86.89   13.70
   0  -3  -7   48.10   15.30
   0   3   7   77.39   24.30
   0   3  -7   54.69   12.60
   0   3   7   70.09   21.80
   0   3   7   68.39   12.20
   0   3  -7   36.20   19.50
   0   3  -7   33.60   13.00
   1  -3   7   83.89   13.50
  -1  -3  -7   45.40   14.80
   1  -3   7   70.69   19.00
  -1   3  -7  103.19   29.50
  -1   3  -7   77.39   13.70
  -1   3  -7   41.80   14.80
   1   3   7   70.89   12.20
   1   3   7   68.29   22.30
   2  -3   7  289.97   44.40
   2  -3   7  241.88   17.10
  -2  -3  -7  256.77   41.20
  -2   3  -7  219.38   19.00
   2   3   7  315.47   52.59
   2   3   7  213.88   17.00
   2   3   7  165.18   27.90
  -2   3  -7  257.67   52.99
   3  -3   7  351.16   20.70
  -3  -3  -7  386.16   51.39
   3   3   7  361.06   21.80
  -3   3  -7  334.87   23.60
  -3   3  -7  381.16   72.09
  -3   3  -7  367.46   68.39
   4  -3   7  234.88   17.40
  -4  -3  -7  195.68   38.20
  -4   3  -7  236.58   21.70
   4   3   7  226.98   18.00
  -4   3  -7  236.68   47.60
  -4   3  -7  167.58   37.90
  -5  -3  -7   11.50   25.50
   5   3   7   34.40   11.70
  -5   3  -7   15.50   37.80
  -5   3  -7   44.20   14.50
  -6  -3  -7   42.30   30.70
   6   3   7    6.00   10.70
  -6   3  -7   11.80   12.50
  -7  -3  -7   19.50   33.70
  -7   3  -7   44.10   15.20
   8   4  -7    8.50   15.80
   7   4  -7    8.20   12.30
  -7   4   7   -1.00   11.80
  -6  -4   7   -2.20    7.70
  -6  -4   7   10.90   23.00
  -6   4   7   -3.00   10.00
  -5  -4   7   -3.70   30.00
  -5  -4   7   25.40   10.60
  -5  -4   7   22.60   21.90
  -5   4   7   17.30   11.10
  -4  -4   7   13.90   20.70
  -4  -4   7    7.60    9.10
  -4  -4   7  -12.50   22.10
  -4   4   7    8.10    9.80
  -4   4   7  -42.00   47.40
  -3  -4   7   36.50   26.20
  -3  -4   7   87.89   27.80
  -3  -4   7   62.39   14.00
  -3   4   7   16.00   22.70
  -3   4   7   49.90   13.00
   3   4  -7   52.29   14.30
  -3   4   7   43.40   45.40
  -2  -4   7  216.28   38.00
  -2  -4   7  173.78   35.40
  -2  -4   7  236.48   20.30
  -2   4   7  230.48   51.39
  -2   4   7  156.28   32.10
   2   4  -7  241.98   21.10
  -2   4   7  223.48   19.20
  -1  -4   7  152.78   30.30
  -1  -4   7  101.49   27.70
  -1  -4   7  142.79   16.60
   1  -4  -7  103.79   27.30
   1  -4  -7   96.99   10.80
  -1   4   7  141.89   45.40
  -1   4   7  140.19   17.00
  -1   4   7  127.49   31.60
   1   4  -7  127.29   19.10
   1   4  -7   80.69   19.30
   0  -4   7   46.00   20.30
   0  -4  -7   32.00   19.40
   0  -4   7   94.89   16.80
   0  -4  -7   62.39   12.00
   0   4  -7   83.69   17.90
   0   4  -7   31.80   18.30
   0   4  -7   84.89   34.00
   0   4   7   73.09   15.30
   0   4   7   47.50   34.60
   1  -4   7  136.89   30.30
  -1  -4  -7  172.88   20.40
   1  -4   7  145.89   16.60
  -1  -4  -7  119.99   30.10
   1   4   7  138.69   17.10
   1   4   7  155.88   41.20
  -1   4  -7  230.58   55.49
  -1   4  -7  168.68   23.10
   2  -4   7   49.60   12.90
  -2  -4  -7   26.70   19.40
   2  -4   7   33.60   26.30
   2   4   7   62.49   15.30
  -2   4  -7   74.69   17.30
   2   4   7   55.69   32.60
   3  -4   7    9.60    9.00
  -3  -4  -7    2.70   21.10
  -3   4  -7   19.60   13.30
  -3   4  -7   -1.70   31.60
   3   4   7   22.20   11.90
  -4  -4  -7  -23.30   23.30
  -4   4  -7   -0.20   10.80
  -5  -4  -7  -12.70   26.60
  -5   4  -7    5.70   12.20
  -6  -4  -7   -2.10   30.50
  -6   4  -7    2.10   13.50
  -5  -5   7    4.20   11.40
  -5   5   7   -7.90   11.30
  -3  -5   7  -40.60   35.90
  -3  -5   7   19.70   11.70
  -3  -5   7    6.50   30.30
   3  -5  -7   36.20   13.30
  -3   5   7   39.30   14.50
  -2  -5   7  -37.60   24.00
  -2  -5   7   10.50   10.70
   2   5  -7   16.40   14.00
  -2   5   7   11.30   12.30
  -1  -5   7    5.60   10.50
  -1  -5   7  -26.10   28.00
  -1  -5   7  -22.00   26.20
  -1   5   7   -3.70   11.00
   1   5  -7   -2.60   11.60
   0  -5   7  -19.20   28.70
   0  -5   7   39.10   14.40
   0  -5  -7  -18.50   27.90
   0   5  -7   49.30   16.10
   0   5   7   18.60   13.40
  -1  -5  -7    5.60    7.80
   1  -5   7    0.30    9.30
  -1  -5  -7  -34.20   26.50
  -1   5  -7    6.40   11.40
   1   5   7    5.50   11.70
  -2  -5  -7  -31.30   29.70
   2  -5   7   14.80   12.30
  -2  -5  -7   35.00   13.20
  -2   5  -7    5.90   13.10
   2   5   7   13.90   12.30
  -3  -5  -7  -41.40   29.00
   3  -5   7    4.40   10.20
  -3   5  -7    0.00   13.00
   3   5   7    1.70   11.60
  -5  -5  -7  448.06   40.20
  -3  -6   7    9.70   14.50
  -3   6   7    4.80   15.30
   2  -6  -7  -16.70    9.40
  -2  -6   7   -6.90   12.70
   2   6  -7  -11.00   13.70
  -1  -6   7    4.50   13.00
   1   6  -7    8.90   15.50
  -1   6   7    9.30   15.00
   0  -6   7   19.40   14.20
   0   6   7    1.50   12.60
   1  -6   7   24.80   14.10
   1   6   7   19.50   15.40
  -1   6  -7    9.30   14.90
   2  -6   7    8.60   11.70
  -2   6  -7  -12.40   15.50
   2   6   7    3.50   17.30
  -9   0   8  497.55   30.70
  -9   0   8  584.14   43.70
  -8   0   8  352.06   27.00
  -8   0   8  361.76   35.40
  -7   0   8  190.18   27.10
  -7   0   8  161.78   27.60
  -6   0   8  416.36   42.10
  -6   0   8  472.25   37.40
  -5   0   8  188.18    8.00
  -5   0   8  217.38   23.90
  -5   0   8  179.78    8.50
  -5   0   8  167.18   26.40
   5   0  -8  171.98   17.10
  -4   0   8  514.55   35.80
   4   0  -8  473.85   23.80
  -4   0   8  449.16   15.60
  -4   0   8  520.15   30.80
  -4   0   8  492.25   14.90
   3   0  -8 1994.50   42.40
  -3   0   8 1904.51   43.70
  -3   0   8 1986.00   70.99
   3   0  -8 1971.10   52.19
  -3   0   8 1970.40   79.89
   2   0  -8  603.94   17.70
  -2   0   8  541.85   21.30
   2   0  -8  575.34   27.50
  -2   0   8  565.54   27.90
   2   0  -8  570.34   20.00
  -2   0   8  577.04   32.90
  -2   0   8  584.14   17.90
  -1   0   8  252.87   11.50
  -1   0   8  262.57   20.40
   1   0  -8  254.27   18.70
   1   0  -8  265.57   11.50
   1   0  -8  264.27   10.70
  -1   0   8  243.68   27.50
   1   0  -8  246.98   16.70
  -1   0   8  273.97   19.10
   0   0   8  522.45   29.50
   0   0  -8  500.85   26.50
   0   0  -8  542.05   39.70
   0   0   8  534.15   29.90
   0   0  -8  483.35   27.00
   0   0  -8  510.75   17.90
   0   0   8  495.95   36.50
   0   0   8  510.55   17.90
   1   0   8 1310.57   34.50
  -1   0  -8 1269.67   52.49
  -1   0  -8 1292.57   52.29
  -1   0  -8 1303.37   68.09
   1   0   8 1202.28   65.69
   1   0   8 1246.48   35.70
  -1   0  -8 1333.27   34.60
   1   0   8 1269.57   55.49
   2   0   8  188.28   29.30
  -2   0  -8  146.89   10.10
   2   0   8  143.79   10.20
  -2   0  -8  148.99    7.90
  -2   0  -8  177.78   31.90
  -2   0  -8  145.39   17.50
   3   0   8  264.47   13.80
  -3   0  -8  266.17   14.00
  -3   0  -8  249.38   26.20
  -3   0  -8  305.37   42.00
  -4   0  -8  232.78   51.89
  -4   0  -8  161.28   11.80
   4   0   8  176.48   12.00
   5   0   8   51.29    8.70
  -9  -1   8  465.25   50.19
  -8  -1   8  270.47   42.80
  -8   1   8  380.16   31.30
  -7  -1   8  186.18   34.70
  -7   1   8  190.88   29.10
  -6  -1   8   96.99    6.20
  -6  -1   8  127.59   26.80
  -6  -1   8   92.29   22.40
   6   1  -8   98.89   19.90
  -6   1   8   98.19   25.40
  -6   1   8  146.09   19.90
  -6   1   8   84.99    7.00
  -5  -1   8   69.39   16.70
  -5  -1   8   78.89    6.70
  -5  -1   8   93.49   21.00
  -5  -1   8   65.29    6.90
  -5   1   8   75.89    7.60
  -5   1   8   89.29   25.00
   5   1  -8   86.49   16.60
  -5   1   8   86.99   14.80
  -5   1   8   90.09   20.70
  -4  -1   8   57.39   12.20
  -4  -1   8   67.59    7.40
  -4  -1   8   78.79    6.90
   4  -1  -8   85.99    4.70
  -4  -1   8   72.69   15.40
  -4   1   8   66.49   14.80
  -4   1   8   81.89    7.50
   4   1  -8   83.39   14.10
  -4   1   8   76.49   11.50
  -3  -1   8   22.60    5.60
  -3  -1   8    9.30    5.20
  -3  -1   8   13.00    7.60
  -3  -1   8   16.70    4.70
  -3   1   8   14.70    5.00
  -3   1   8   18.00    5.20
   3   1  -8   22.50    4.80
  -3   1   8   10.10    6.40
  -3   1   8   11.90    7.70
  -2  -1   8  126.99   16.60
  -2  -1   8  146.79   16.60
  -2  -1   8  147.19   14.90
  -2  -1   8  135.99    9.80
  -2  -1   8  143.39   25.10
  -2  -1   8  129.39    8.90
   2  -1  -8  141.19   10.20
  -2   1   8  138.69   11.80
  -2   1   8  153.68   19.70
   2   1  -8  131.99   11.80
   2   1  -8  159.58   10.10
  -2   1   8  138.79    9.00
  -2   1   8  134.29   15.10
   1  -1  -8  109.19    8.40
   1  -1  -8  102.19   14.10
  -1  -1   8  102.79   22.00
  -1  -1   8   90.99    8.80
   1  -1  -8  102.99   10.00
   1  -1  -8  111.99   13.60
  -1  -1   8  100.99   14.00
  -1  -1   8  104.79   15.40
  -1  -1   8   92.59    8.10
  -1   1   8   96.69   11.50
  -1   1   8   94.69    8.20
  -1   1   8  103.69    7.30
   1   1  -8  105.89   10.30
   1   1  -8  132.09   27.70
   1   1  -8  105.09   11.60
   1   1  -8  105.29   12.70
  -1   1   8  123.19   14.10
   1   1  -8  105.09    8.00
  -1   1   8  113.89   19.40
   0  -1  -8  937.51   45.40
   0  -1   8  928.41   43.00
   0  -1  -8  938.91   38.60
   0  -1   8  948.41   40.80
   0  -1   8  948.61   45.80
   0  -1  -8  947.31   42.50
   0  -1   8  945.01   28.00
   0  -1  -8  971.50   27.80
   0  -1   8  951.20   29.20
   0  -1   8  893.51   53.69
   0   1   8  945.41   27.70
   0   1   8  881.71   51.19
   0   1   8  959.60   42.00
   0   1  -8  972.40   56.09
   0   1  -8  933.91   41.20
   0   1   8  912.01   48.40
   0   1   8  928.21   41.90
   0   1  -8  902.31   27.40
   0   1  -8  951.20   30.40
   0   1  -8  921.21   40.60
  -1  -1  -8  973.10   28.60
  -1  -1  -8  984.60   54.99
   1  -1   8  943.71   46.80
   1  -1   8  868.31   46.00
  -1  -1  -8  969.90   47.90
   1  -1   8  951.40   28.70
   1  -1   8  940.51   39.90
   1   1   8  863.11   52.19
  -1   1  -8  961.10   59.39
   1   1   8  993.00   53.19
   1   1   8  929.01   38.10
   1   1   8  891.81   20.00
  -1   1  -8  930.31   37.80
   1   1   8  916.21   28.10
  -1   1  -8  976.40   31.70
  -1   1  -8  911.81   28.10
  -2  -1  -8  318.47   34.50
  -2  -1  -8  321.47   15.50
   2  -1   8  311.77   15.50
   2  -1   8  283.27   26.70
  -2  -1  -8  310.77   29.80
   2  -1   8  320.47   25.80
  -2   1  -8  281.77   17.30
  -2   1  -8  308.17   15.00
  -2   1  -8  314.67   18.30
   2   1   8  272.47   31.80
   2   1   8  313.17   15.50
  -2   1  -8  326.97   39.80
   2   1   8  380.76   41.40
   3  -1   8   71.09   10.00
  -3  -1  -8   39.90   12.70
  -3  -1  -8   36.80   12.40
   3  -1   8   48.90    9.90
  -3  -1  -8   65.79    9.70
  -3   1  -8   56.99   13.00
  -3   1  -8   62.59   11.60
   3   1   8   57.59    9.10
  -3   1  -8   46.10    7.90
  -3   1  -8   58.29    8.70
  -3   1  -8   38.00   13.90
  -4  -1  -8  175.98   33.60
  -4  -1  -8  155.58   12.10
   4  -1   8  144.99   11.60
  -4  -1  -8   97.59   20.60
  -4   1  -8  171.88   25.90
   4   1   8  139.29   11.70
  -4   1  -8   89.19   22.60
  -4   1  -8  106.59   15.20
  -4   1  -8  155.88   12.20
   5  -1   8   11.00    5.60
  -5  -1  -8   22.40   16.00
  -5  -1  -8   -4.20   16.20
  -5   1  -8  -14.00   11.80
   5   1   8    8.10    6.40
  -5   1  -8  -12.40   22.90
  -6  -1  -8   42.40   17.40
  -7  -1  -8  227.08   44.00
   9   2  -8   -1.50   15.10
  -8  -2   8   72.79   22.60
  -8  -2   8   69.59   26.90
  -7  -2   8   34.50   20.70
  -7  -2   8    5.10   19.00
   7   2  -8    4.10   12.20
  -7   2   8   75.49   35.90
  -7   2   8   46.00   18.30
  -6  -2   8    9.40   15.70
  -6  -2   8    2.50   15.60
  -6  -2   8    9.60    5.50
  -6   2   8    9.10   27.60
  -6   2   8  -12.40   14.70
   6   2  -8    9.10   11.90
  -6   2   8    8.50    6.40
  -5  -2   8   39.90   16.40
  -5  -2   8   66.69   20.70
  -5  -2   8   52.89    8.70
  -5   2   8   52.59    9.30
  -5   2   8   32.80   18.10
  -5   2   8   41.70   24.60
  -5   2   8   51.29    9.70
   5   2  -8   42.00   13.80
  -4  -2   8   12.00    5.90
  -4  -2   8    9.60    9.90
  -4  -2   8    7.30    5.20
  -4  -2   8   -0.50    7.10
  -4  -2   8    7.70    9.30
   4   2  -8   18.20    6.60
  -4   2   8   12.30   12.90
  -4   2   8   13.00    6.70
  -4   2   8    7.20   14.60
  -4   2   8    8.10    3.60
  -3  -2   8   43.40   11.60
  -3  -2   8   66.69    9.90
  -3  -2   8   37.60   10.80
  -3  -2   8   58.49    9.00
  -3   2   8   84.79   10.90
   3   2  -8   72.59   13.20
  -3   2   8   52.19   15.70
  -3   2   8   77.29   17.70
   3   2  -8   76.29   11.00
  -2  -2   8  286.97   15.50
  -2  -2   8  368.26   31.70
  -2  -2   8  318.27   16.60
  -2  -2   8  343.37   28.20
  -2  -2   8  295.37   32.90
  -2   2   8  362.36   33.90
   2   2  -8  333.67   17.80
  -2   2   8  337.67   31.80
   2   2  -8  302.77   25.40
  -2   2   8  296.67   27.80
  -2   2   8  315.07   16.20
   1  -2  -8  762.32   44.00
  -1  -2   8  783.72   44.10
   1  -2  -8  730.43   27.60
  -1  -2   8  733.83   26.90
  -1  -2   8  776.72   42.20
  -1  -2   8  705.13   47.90
  -1  -2   8  776.72   26.80
  -1   2   8  743.73   26.00
   1   2  -8  735.03   27.60
  -1   2   8  744.83   41.60
   1   2  -8  751.52   41.50
  -1   2   8  745.43   49.10
  -1   2   8  804.42   45.70
   1   2  -8  831.02   54.09
   0  -2   8  141.59   11.60
   0  -2  -8  175.48   23.40
   0  -2   8  153.08   16.10
   0  -2   8  159.58   21.80
   0   2   8  145.59   21.20
   0   2   8  167.88   31.20
   0   2   8  139.79   11.70
   0   2  -8  131.09   20.30
   0   2  -8  147.29   13.90
   0   2   8  142.49   19.30
   0   2   8  140.09   24.20
   0   2  -8  176.28   33.10
   1  -2   8  331.47   20.50
   1  -2   8  365.86   34.00
  -1  -2  -8  325.37   21.80
   1  -2   8  343.17   17.70
  -1  -2  -8  356.16   32.60
   1   2   8  306.37   16.80
   1   2   8  294.27   31.80
  -1   2  -8  338.87   19.70
   1   2   8  352.66   30.40
   1   2   8  436.56   47.40
  -1   2  -8  346.57   42.10
   2  -2   8  257.67   34.60
  -2  -2  -8  237.98   33.20
   2  -2   8  241.98   16.60
   2  -2   8  213.68   14.80
  -2  -2  -8  234.18   16.10
  -2   2  -8  284.37   39.20
   2   2   8  248.38   15.90
   2   2   8  187.38   29.50
   2   2   8  283.47   28.60
  -2   2  -8  215.58   17.10
  -2   2  -8  260.57   42.40
  -3  -2  -8   32.80   14.20
   3  -2   8   40.40    9.70
  -3  -2  -8   18.40    9.90
  -3   2  -8   43.30   19.50
   3   2   8   30.60    8.50
   3   2   8   29.70    8.70
  -3   2  -8   37.40   12.00
  -3   2  -8   18.70   14.50
  -4  -2  -8  282.47   45.80
   4  -2   8  243.78   16.20
  -4  -2  -8  237.58   38.80
   4   2   8  230.48   16.30
  -4   2  -8  247.08   20.80
  -4   2  -8  244.38   44.10
   4   2   8  223.98   15.80
  -5  -2  -8   -8.60   10.60
  -5  -2  -8   22.70   20.10
  -5   2  -8   16.60   11.40
  -5   2  -8  -20.70   27.90
  -5   2  -8  -23.40   17.90
   5   2   8   19.50   10.80
  -6  -2  -8   27.80   24.20
  -7  -2  -8   57.59   26.80
  -8  -3   8  -13.00   31.00
   8   3  -8   24.90   15.80
  -7  -3   8    6.10   26.50
  -7  -3   8   35.30   23.10
  -7   3   8    5.00    9.40
   7   3  -8   13.10   12.60
  -6  -3   8  -23.00   20.90
  -6  -3   8    9.90    6.70
  -6  -3   8   16.80   19.70
   6   3  -8   -2.00   10.50
  -6   3   8    4.20    8.90
  -5  -3   8   15.10   16.60
  -5  -3   8   11.70   18.20
  -5  -3   8   23.20    8.40
  -5   3   8  -25.50   17.30
  -5   3   8   16.50    8.90
  -5   3   8  -33.40   33.10
  -4  -3   8    1.50   12.20
  -4  -3   8    5.40    7.00
  -4  -3   8   -2.70   13.40
   4   3  -8    3.20    7.70
  -4   3   8    0.60    7.50
  -4   3   8   -9.30   16.80
  -4   3   8    4.80   25.60
  -3  -3   8   43.00   16.40
  -3  -3   8   51.19   11.40
  -3  -3   8   44.80   17.90
   3   3  -8   57.99   12.60
  -3   3   8   34.10   20.80
  -3   3   8   21.30   20.60
  -3   3   8   47.40   11.50
  -2  -3   8  193.58   15.50
  -2  -3   8  226.18   30.70
  -2  -3   8  241.98   41.60
  -2   3   8  251.07   45.00
  -2   3   8  194.08   15.90
   2   3  -8  213.28   18.10
  -2   3   8  250.77   44.20
  -1  -3   8  108.59   12.40
   1  -3  -8   91.59   10.70
   1  -3  -8   74.49   16.90
   1  -3  -8   99.99    7.70
  -1  -3   8  152.28   27.30
  -1  -3   8   80.29   18.70
  -1   3   8  111.39   26.30
  -1   3   8  118.89   13.10
   1   3  -8   74.29   16.60
  -1   3   8   95.59   23.20
   1   3  -8  119.29   14.70
   0  -3   8   51.99   10.40
   0  -3   8   42.70   14.60
   0  -3  -8   35.50   14.40
   0   3   8   68.79   12.40
   0   3  -8   62.49   12.70
   0   3   8   55.19   20.50
   0   3   8   65.39   25.90
   0   3  -8   35.00   15.00
   1  -3   8   23.40    8.40
  -1  -3  -8   21.50   11.20
   1  -3   8   36.50   10.40
   1  -3   8   45.80   20.90
  -1   3  -8   31.40   11.80
   1   3   8   40.40   19.90
  -1   3  -8   34.50   20.80
   1   3   8   31.60   10.90
  -1   3  -8   23.70   15.60
  -2  -3  -8   84.19   21.70
   2  -3   8  131.69   14.10
   2  -3   8  121.19   27.70
  -2   3  -8  156.58   20.70
   2   3   8  112.29   14.50
  -2   3  -8   73.29   22.40
  -2   3  -8  170.58   39.00
  -3  -3  -8   14.90   17.80
   3  -3   8   29.70   10.20
   3   3   8   23.80   10.00
  -3   3  -8   21.10   28.30
  -3   3  -8   11.80   20.10
  -3   3  -8   26.60   12.50
   4  -3   8   23.50    9.60
  -4  -3  -8   24.60   22.80
   4   3   8   31.20   10.60
  -4   3  -8    6.20   30.00
  -4   3  -8   42.10   14.20
  -5  -3  -8    7.00   23.70
  -5   3  -8    6.10   10.90
   5   3   8   10.50    9.90
  -6  -3  -8   15.00   27.90
   6   3   8   -3.60   10.30
  -6   3  -8    4.60   11.70
   8   4  -8   18.40   17.10
  -7  -4   8  -47.30   33.70
   7   4  -8   10.60   11.90
  -7   4   8    8.00   12.90
  -6  -4   8   19.30   22.70
  -6  -4   8    8.20    9.10
  -6   4   8    6.50   11.40
  -5  -4   8  -30.30   26.40
  -5  -4   8    2.60    8.40
  -5  -4   8    2.40   23.30
  -5   4   8   13.90   10.80
  -4  -4   8   21.70   10.90
  -4  -4   8   -2.10   25.50
  -4  -4   8   37.90   25.30
  -4   4   8   23.10   12.00
  -3  -4   8    1.30   22.50
  -3  -4   8   19.90   10.50
  -3  -4   8   41.40   24.90
  -3   4   8   27.70   11.90
   3   4  -8   39.70   13.30
  -3   4   8   20.00   45.80
  -3   4   8  -23.40   23.10
  -2  -4   8  211.08   38.30
  -2  -4   8  180.88   18.70
  -2  -4   8  157.98   33.70
   2   4  -8  194.28   19.70
  -2   4   8  134.49   48.00
  -2   4   8  184.58   19.10
  -2   4   8  128.49   32.70
  -1  -4   8   91.79   16.50
  -1  -4   8   96.89   27.60
   1  -4  -8   46.40   22.60
  -1  -4   8   62.69   25.90
  -1   4   8   61.19   39.00
   1   4  -8   83.59   16.60
   1   4  -8   41.10   17.60
  -1   4   8   63.09   15.00
  -1   4   8   81.79   31.10
   0  -4   8  138.19   19.80
   0  -4  -8  113.79   13.90
   0  -4  -8   97.09   28.20
   0  -4   8  124.69   30.00
   0   4  -8  118.89   20.40
   0   4   8  124.89   18.30
   0   4   8  108.19   41.10
   1  -4   8   41.30   12.10
  -1  -4  -8    6.10   18.00
   1  -4   8   15.40   24.60
  -1  -4  -8   30.80    9.40
  -1   4  -8   32.10   14.10
   1   4   8   33.90   12.00
   1   4   8   27.90   33.20
  -2  -4  -8    6.60   20.50
   2  -4   8   22.20   10.60
   2  -4   8    2.30   28.80
   2   4   8   28.50   12.40
   2   4   8    6.40   29.80
  -2   4  -8   19.70   13.20
  -3  -4  -8   67.19   31.80
   3  -4   8  128.49   19.50
   3   4   8  108.49   19.20
  -3   4  -8   81.19   18.40
  -4  -4  -8   -6.10   25.80
  -4   4  -8    8.60   12.90
  -5  -4  -8   -9.70   27.70
  -5   4  -8    5.10   13.90
   5   4   8   18.20   10.70
  -6  -4  -8  -35.20   28.10
  -5  -5   8   -6.40    8.80
  -5  -5   8   12.40   30.10
  -5   5   8    2.50   13.10
  -4  -5   8   26.00   14.00
  -4  -5   8   30.20   31.60
  -4   5   8   46.40   16.80
  -3  -5   8  -45.10   27.10
  -3  -5   8   -4.30   10.40
   3  -5  -8    3.40    9.80
  -3   5   8    7.20   11.30
  -2  -5   8    3.00   10.00
  -2  -5   8  -41.90   25.10
  -2   5   8   -7.30    9.80
   2   5  -8   12.30   12.30
  -1  -5   8    0.50    9.50
  -1  -5   8  -44.30   26.00
   1  -5  -8  -39.50   27.30
   1   5  -8    2.90   12.70
  -1   5   8   -4.30   10.60
   0  -5  -8  -36.60   27.30
   0  -5   8   24.50   12.00
   0   5  -8    1.30   12.90
   0   5   8   25.00   13.00
   1  -5   8   -3.00    8.30
   1   5   8   14.80   13.00
  -1   5  -8    0.10   12.30
   2  -5   8   -7.20    9.30
   2   5   8    5.70   12.00
  -2   5  -8   -9.20   11.80
   3  -5   8    7.40   10.30
  -3   5  -8   -0.20   13.50
   3   5   8   -7.40   10.30
  -5  -5  -8  509.75   39.50
  -2  -6   8   -4.70   12.50
   2  -6  -8    5.20   13.20
  -2   6   8   -2.50   14.90
  -1  -6   8    8.40   13.60
  -1   6   8    6.70   15.40
   0  -6   8   -0.70   11.50
   0   6  -8   -6.10   15.10
   0   6   8    3.50   14.00
   1  -6   8   -0.50   11.10
   1   6   8   15.40   17.00
   2   6   8   16.80   14.20
  -2   6  -8   -1.10   16.70
  -9   0   9  693.63   39.90
  -8   0   9  437.16   31.60
  -8   0   9  429.76   37.80
  -7   0   9  133.29   23.20
  -7   0   9  175.58   24.90
  -6   0   9   21.10    7.60
  -6   0   9    9.10   10.20
  -6   0   9   -0.70   13.50
  -5   0   9   -2.60    3.10
   5   0  -9    1.40    9.60
  -5   0   9   -0.60    4.00
  -5   0   9   -1.90    7.30
  -5   0   9   -3.30   10.00
  -4   0   9    2.50    4.00
  -4   0   9    1.80    7.30
   4   0  -9   -0.50    7.90
  -4   0   9    0.50    3.20
  -4   0   9   -4.40    4.60
   3   0  -9    1.90    2.80
  -3   0   9    3.50    3.50
  -3   0   9    3.10    2.50
  -3   0   9    2.00    5.70
  -3   0   9    4.70    5.70
   3   0  -9    6.80    7.10
  -2   0   9   -0.60    4.90
   2   0  -9    0.30    5.00
  -2   0   9   -1.70    3.00
   2   0  -9   -1.80    2.50
  -2   0   9   -1.60    5.20
   2   0  -9   -0.70    3.00
  -1   0   9    4.20    6.40
  -1   0   9   -0.90    4.50
  -1   0   9   -0.20    6.10
  -1   0   9   -2.60    3.20
   1   0  -9   -0.10    3.60
   1   0  -9    0.00    3.80
   1   0  -9    3.60    4.30
   1   0  -9   -0.90    3.00
   0   0   9    2.80    6.60
   0   0  -9    1.00    7.50
   0   0  -9    5.20    4.20
   0   0   9    3.10    4.20
   0   0   9   14.40    9.70
   0   0   9   -0.40    4.50
   0   0  -9    1.80    5.50
   0   0  -9    0.50    3.60
   0   0   9    2.30    6.60
  -1   0  -9    5.50    7.60
  -1   0  -9    2.70    3.90
  -1   0  -9    0.80    4.40
   1   0   9    1.30    4.20
   1   0   9    7.30    9.40
  -2   0  -9    0.00    3.70
   2   0   9    0.80    4.30
   2   0   9   17.10   13.60
  -2   0  -9   -1.20    3.20
  -2   0  -9    2.80    8.70
  -2   0  -9   -3.30    5.10
  -3   0  -9    5.90   10.80
  -3   0  -9    0.70    3.90
   3   0   9    1.20    4.60
  -4   0  -9   -1.10    4.30
   4   0   9    0.90    5.30
  -4   0  -9    2.90   15.70
   5   0   9    3.80    5.50
  -5   0  -9  -15.90   21.60
  -7   0  -9  275.57   36.70
  -9  -1   9  642.84   35.40
  -8  -1   9  527.85   34.70
  -8   1   9  400.86   35.50
  -7   1   9  151.68   27.50
  -6  -1   9   37.40    5.40
  -6  -1   9   42.80   18.20
  -6  -1   9   38.80   15.00
   6   1  -9   26.60   13.70
  -6   1   9   80.59   28.20
  -6   1   9   35.20    6.20
  -6   1   9   33.40   20.20
  -6   1   9   30.00   10.60
  -5  -1   9   32.10    6.60
  -5  -1   9   26.00   11.10
  -5  -1   9   34.70    6.30
  -5  -1   9   31.70   14.40
  -5   1   9   35.40   17.00
  -5   1   9   29.00    6.60
  -5   1   9   25.00    8.90
   5   1  -9   39.10   13.30
  -5   1   9   49.80   20.20
  -4  -1   9  148.49   21.10
  -4  -1   9  160.88   23.00
  -4  -1   9  137.99    9.20
  -4  -1   9  141.59    9.90
  -4   1   9  146.49   15.00
  -4   1   9  157.88   24.70
   4   1  -9  142.79   15.30
  -4   1   9  151.68    9.90
  -3  -1   9    0.70    4.10
  -3  -1   9    2.10    4.30
  -3  -1   9   -1.80    5.30
  -3  -1   9    3.90    7.10
  -3  -1   9    4.40    3.80
  -3   1   9   -1.10    5.20
  -3   1   9    4.00    4.20
  -3   1   9    3.10    4.50
  -3   1   9    0.20    7.70
  -2  -1   9  336.27   24.50
  -2  -1   9  309.57   15.00
  -2  -1   9  336.87   14.70
  -2  -1   9  274.07   31.90
  -2  -1   9  330.57   20.00
   2  -1  -9  321.27   17.10
  -2  -1   9  328.77   25.70
   2   1  -9  313.27   17.90
  -2   1   9  325.87   14.30
  -2   1   9  321.47   18.90
  -2   1   9  313.97   20.10
  -2   1   9  332.87   27.60
  -1  -1   9  141.29   10.90
  -1  -1   9  124.09   24.70
  -1  -1   9  130.59    9.90
   1  -1  -9  159.48   15.50
  -1  -1   9  154.78   19.00
   1  -1  -9  142.39   12.30
  -1  -1   9  141.29   16.40
  -1   1   9  143.29    8.00
  -1   1   9  131.59   12.70
   1   1  -9  156.08   13.40
   1   1  -9  150.28   12.20
  -1   1   9  155.78   22.70
   1   1  -9  155.18   29.90
  -1   1   9  158.38   16.90
  -1   1   9  137.39   10.00
   0  -1   9  599.64   35.70
   0  -1   9  525.95   21.70
   0  -1  -9  588.84   30.20
   0  -1   9  592.04   31.10
   0  -1   9  578.94   34.70
   0  -1  -9  598.24   31.90
   0  -1   9  578.74   21.30
   0   1  -9  616.24   46.00
   0   1   9  605.24   40.00
   0   1   9  571.14   21.00
   0   1  -9  612.54   24.40
   0   1   9  529.35   40.90
   0   1   9  608.64   31.40
   0   1   9  579.14   30.80
   0   1  -9  573.04   29.90
   0   1   9  554.84   13.60
  -1  -1  -9  166.58   30.70
   1  -1   9  171.08   25.30
   1  -1   9  188.78   27.60
  -1  -1  -9  160.88   20.40
   1  -1   9  173.78   11.80
   1  -1   9  169.88   18.30
  -1   1  -9  150.58   13.40
   1   1   9  146.59   14.30
  -1   1  -9  214.38   35.30
   1   1   9  135.09   26.20
  -1   1  -9  151.38   13.80
   1   1   9  153.58   11.30
   1   1   9  192.38   33.20
   2  -1   9   20.10   12.20
   2  -1   9   38.70   12.10
  -2  -1  -9   23.90   10.80
   2  -1   9   40.10    8.10
  -2  -1  -9   21.40    8.90
  -2   1  -9   55.19   11.60
  -2   1  -9   24.60    6.00
  -2   1  -9   26.30   11.70
   2   1   9   47.00    9.30
   2   1   9   55.99   20.50
  -3  -1  -9  126.49   26.80
   3  -1   9   87.49   15.70
   3  -1   9  113.89   10.80
  -3  -1  -9   84.19   17.90
  -3   1  -9   96.19   12.20
   3   1   9  119.69   11.10
  -3   1  -9   77.29   20.20
  -4  -1  -9   67.39   19.50
  -4   1  -9   66.99   22.90
  -4   1  -9   85.89   14.30
  -5  -1  -9   15.00   15.60
  -5   1  -9   -5.40   26.80
  -6  -1  -9   56.49   21.00
  -7  -1  -9  206.68   43.00
   9   2  -9   -8.20   15.00
  -8  -2   9   69.49   26.70
   8   2  -9    9.00   13.20
  -7  -2   9    5.60   18.80
  -7  -2   9   31.70   22.20
  -7   2   9   39.30   19.40
   7   2  -9    0.00   11.50
  -6  -2   9  119.99   29.70
  -6  -2   9   83.99    9.10
  -6  -2   9   85.89   25.50
   6   2  -9  102.19   20.10
  -6   2   9   83.99   28.30
  -6   2   9  155.18   45.30
  -6   2   9   85.89   10.90
  -5  -2   9   93.99   21.40
  -5  -2   9  100.59   10.10
  -5  -2   9  129.19   27.10
  -5   2   9  108.49   11.50
  -5   2   9  120.49   28.00
  -5   2   9  128.39   35.90
  -5   2   9   97.39   12.00
   5   2  -9   89.89   17.40
  -4  -2   9   37.30    8.20
  -4  -2   9   26.20   11.80
  -4  -2   9   21.20   11.10
  -4  -2   9   40.10    8.60
  -4   2   9   25.80    5.20
  -4   2   9   43.70    9.10
  -4   2   9   22.80   15.10
  -4   2   9   44.80   20.90
  -3  -2   9   -1.00    7.60
  -3  -2   9   10.40    9.90
  -3  -2   9   11.90    8.20
  -3  -2   9   17.50    6.80
  -3  -2   9    7.60    6.10
   3   2  -9    6.00    6.40
  -3   2   9   17.70   13.30
   3   2  -9    9.40    4.20
  -3   2   9    6.30    6.10
  -3   2   9    0.90   10.10
  -2  -2   9  515.55   36.30
  -2  -2   9  508.85   21.60
  -2  -2   9  509.65   34.60
  -2  -2   9  408.26   39.80
  -2  -2   9  510.05   21.10
   2   2  -9  471.45   31.60
  -2   2   9  533.25   42.10
  -2   2   9  487.95   33.90
   2   2  -9  502.75   22.40
  -2   2   9  475.45   20.40
  -2   2   9  499.55   38.70
  -1  -2   9  456.05   33.10
   1  -2  -9  478.05   35.30
   1  -2  -9  429.56   20.80
  -1  -2   9  449.36   20.30
  -1   2   9  495.45   42.80
   1   2  -9  443.16   31.10
  -1   2   9  426.76   30.90
  -1   2   9  470.25   20.50
   1   2  -9  517.95   47.10
   1   2  -9  469.15   22.30
  -1   2   9  489.95   35.90
   0  -2  -9  131.59   16.40
   0  -2   9  169.98   18.60
   0  -2   9  161.68   12.60
   0  -2  -9  161.28   23.20
   0  -2   9  177.98   24.50
   0   2   9  152.88   12.50
   0   2   9  153.58   19.00
   0   2  -9  209.78   36.90
   0   2   9  160.08   22.40
   0   2  -9  125.29   20.70
   0   2   9  192.48   35.30
   0   2  -9  168.18   15.20
  -1  -2  -9   29.60   10.20
   1  -2   9   33.40    7.40
   1  -2   9   56.49   10.20
   1  -2   9   59.79   18.20
   1   2   9   52.99   10.20
  -1   2  -9   26.70   11.70
   1   2   9   40.90   12.50
  -1   2  -9   55.89   12.80
   1   2   9   54.99   22.60
   1   2   9   15.30    9.00
  -2  -2  -9  264.87   36.20
   2  -2   9  242.78   21.10
   2  -2   9  240.78   15.80
   2  -2   9  280.47   40.70
   2   2   9  270.47   28.20
  -2   2  -9  281.07   48.80
  -2   2  -9  277.47   36.80
  -2   2  -9  230.38   18.30
   2   2   9  248.08   16.60
  -3  -2  -9  313.67   42.70
   3  -2   9  272.27   17.40
  -3  -2  -9  288.07   40.00
  -3   2  -9  303.87   42.20
   3   2   9  269.07   14.40
   3   2   9  276.87   18.00
  -3   2  -9  253.67   20.90
  -3   2  -9  367.86   65.69
  -4  -2  -9    7.50   17.40
  -4  -2  -9    3.00   10.50
   4  -2   9   14.60    8.00
  -4   2  -9    9.40   16.90
  -4   2  -9   -1.60   20.80
   4   2   9   14.60    8.20
   4   2   9   17.60    8.50
  -4   2  -9   12.90   11.00
  -5  -2  -9   45.90   25.30
  -5   2  -9   62.49   16.00
  -5   2  -9   -5.50   18.80
  -6  -2  -9   40.60   23.10
  -7  -2  -9   73.89   32.30
   8   3  -9   15.20   14.20
  -7  -3   9   32.50   24.90
  -7  -3   9  -14.50   24.60
   7   3  -9    9.00   12.20
  -7   3   9    4.40    9.20
  -6  -3   9  -13.80   22.90
  -6  -3   9   39.60   24.10
  -6  -3   9   36.20    9.50
  -6   3   9   27.80   10.40
  -6   3   9  -12.40   21.20
  -6   3   9   77.59   50.59
   6   3  -9    9.10   12.20
  -5  -3   9   -7.20   14.60
  -5  -3   9   -2.70    5.50
  -5  -3   9  -13.40   15.20
  -5   3   9    0.70    7.60
  -5   3   9  -47.70   33.50
  -4  -3   9   -8.50   13.60
  -4  -3   9    2.50    6.60
  -4  -3   9   -9.60   11.70
  -4   3   9    7.80    8.00
  -4   3   9  -14.80   19.80
  -4   3   9  -21.50   24.60
   4   3  -9    7.30    8.20
  -3  -3   9  311.97   46.50
  -3  -3   9  269.37   18.40
  -3  -3   9  289.27   36.20
  -3   3   9  271.97   18.50
   3   3  -9  299.57   20.00
  -3   3   9  347.27   56.49
  -3   3   9  305.77   49.20
  -2  -3   9  302.87   33.20
  -2  -3   9  255.07   17.90
  -2  -3   9  289.07   43.70
   2  -3  -9  309.87   41.20
   2   3  -9  251.77   19.50
  -2   3   9  323.37   51.79
  -2   3   9  246.68   17.90
  -2   3   9  300.97   49.60
  -1  -3   9  199.58   15.90
   1  -3  -9  232.48   39.60
  -1  -3   9  250.17   42.40
   1  -3  -9  155.78   13.30
  -1  -3   9  226.48   31.00
  -1   3   9  265.37   52.09
  -1   3   9  187.98   16.20
   1   3  -9  187.48   18.10
   1   3  -9  277.97   53.69
  -1   3   9  236.28   44.50
   0  -3   9    0.20    6.60
   0  -3   9   11.50   14.10
   0  -3  -9   12.40   12.40
   0   3   9   30.00   24.20
   0   3  -9    5.90   13.90
   0   3  -9   -0.50    9.30
   0   3   9   -5.40    7.30
   0   3   9    4.20   17.10
   1  -3   9   91.19   14.30
   1  -3   9  103.29   15.20
  -1  -3  -9   53.69   17.00
   1  -3   9  107.39   27.40
   1   3   9  108.69   34.10
   1   3   9   82.99   23.60
  -1   3  -9   53.49   20.90
   1   3   9  111.39   16.20
  -1   3  -9   84.69   16.60
  -1   3  -9   65.09   25.00
  -2  -3  -9   93.99   24.20
   2  -3   9  124.09   14.70
   2  -3   9  122.79   30.90
   2   3   9  102.29   24.00
   2   3   9  127.19   17.30
  -2   3  -9   66.79   24.90
  -2   3  -9  115.89   33.60
  -2   3  -9  136.79   20.30
  -3  -3  -9   27.30   20.40
   3  -3   9   24.50   10.10
   3   3   9   26.50   10.70
  -3   3  -9    5.60   24.10
  -3   3  -9   15.70   12.60
   4  -3   9   57.49   12.50
  -4  -3  -9   48.90   27.00
   4   3   9   65.69   13.70
  -4   3  -9   64.69   16.70
   4   3   9   85.49   13.70
  -5  -3  -9   -5.20   23.30
  -5   3  -9   11.00   12.20
   5   3   9    2.30    8.50
  -6  -3  -9   41.60   32.30
  -6   3  -9   37.10   15.50
   8   4  -9   14.60   16.60
  -7   4   9   10.90   12.90
   7   4  -9   14.90   12.10
  -6  -4   9    5.20    8.40
  -6  -4   9    4.60   24.70
  -6  -4   9  -50.89   29.80
  -6   4   9    7.70   11.20
  -5  -4   9    5.20    8.60
  -5  -4   9  -29.30   26.20
  -5  -4   9    5.10   20.70
  -5   4   9    8.60   11.00
  -4  -4   9   -9.50   18.60
  -4  -4   9   -7.40    7.50
  -4   4   9  -61.59   48.70
  -4   4   9    0.80    9.30
  -3  -4   9   13.30   20.70
  -3  -4   9  -21.30   20.80
  -3  -4   9    6.10    9.10
  -3   4   9    0.80    9.50
   3   4  -9    3.20   10.40
  -3   4   9  -26.20   24.00
  -3   4   9  -32.30   42.90
  -2  -4   9    4.10   18.00
  -2  -4   9   -5.80   21.80
  -2  -4   9    0.50    8.20
  -2   4   9  -43.50   33.80
  -2   4   9  -11.00   25.80
   2   4  -9   -1.50   10.20
  -2   4   9    7.80    9.70
  -1  -4   9  -16.70   18.20
  -1  -4   9   -7.80   19.80
   1  -4  -9    2.50   17.60
  -1  -4   9   -0.60    7.60
   1   4  -9   -2.50   14.80
  -1   4   9  -48.50   30.60
  -1   4   9    6.80   10.10
   1   4  -9   10.00   10.90
  -1   4   9  -13.00   27.40
   0  -4  -9   -2.90   18.40
   0  -4   9    8.80   21.70
   0  -4   9   28.20   10.80
   0   4   9  -30.60   30.80
   0   4  -9    3.70   19.40
   0   4   9   23.90   11.80
   0   4  -9   27.60   12.40
   1  -4   9   45.60   13.90
  -1  -4  -9   16.40   22.00
   1  -4   9    3.70   28.10
   1   4   9   31.30   11.80
  -1   4  -9   38.10   14.00
   1   4   9  -10.00   30.50
  -2  -4  -9    7.60   21.70
   2  -4   9  -26.70   31.30
   2  -4   9   22.50   10.70
   2   4   9   10.00   10.50
   2   4   9  -24.10   27.80
  -2   4  -9   13.30   12.40
   3  -4   9   18.60    9.90
  -3  -4  -9   -6.50   25.30
   3   4   9   37.10   13.70
  -3   4  -9   35.80   15.40
  -4  -4  -9  -20.10   25.60
  -4   4  -9   11.30   13.50
  -5  -4  -9  -21.00   28.20
  -5   4  -9    0.20   12.60
  -5  -5   9   -2.80   33.00
  -5  -5   9   11.20   11.90
  -5   5   9   -3.60   12.60
  -4  -5   9   19.70   12.90
  -4  -5   9   22.50   34.40
  -4   5   9   10.30   12.60
  -3  -5   9   -2.30   10.50
  -3  -5   9  -33.10   26.00
  -3   5   9    8.60   11.90
  -2  -5   9  -47.80   25.80
  -2  -5   9    8.10   10.10
  -2   5   9    7.30   11.50
   2   5  -9   -3.70   12.60
  -1  -5   9   13.30   11.50
   1  -5  -9  -46.50   28.40
  -1  -5   9  -49.60   30.00
  -1   5   9   19.30   12.80
   1   5  -9    1.80   11.90
   0  -5   9    8.30   10.30
   0   5   9   10.50   11.20
   0   5  -9   17.20   13.40
  -1  -5  -9  -47.70   28.80
   1  -5   9    9.50   11.00
   1   5   9   12.40   12.10
  -1   5  -9    7.90   12.90
  -2  -5  -9  -45.90   27.90
   2  -5   9   14.30   11.80
  -2   5  -9   10.00   15.40
   2   5   9    2.50   11.80
  -3  -5  -9  -22.70   36.80
   3  -5   9   33.20   13.80
  -3   5  -9   18.40   15.90
   3   5   9   20.00   14.20
  -4   5  -9   16.50   16.30
  -5  -5  -9  607.84   42.70
  -2   6   9    0.80   13.90
  -1  -6   9    3.50   13.90
   1   6  -9    4.10   16.20
  -1   6   9   -2.60   14.00
   0  -6   9   12.90   14.20
   0   6  -9    0.20   15.60
   0   6   9    2.60   13.40
   1  -6   9    9.70   14.00
   1   6   9   13.70   15.00
  -1   6  -9    3.50   19.10
  -2   6  -9  -10.70   16.90
   2   6   9   11.20   16.50
  -9   0  10  661.93   39.20
  -8   0  10  441.66   36.80
  -8   0  10  373.46   30.80
  -7   0  10   10.70   13.00
  -7   0  10   74.79   20.00
  -6   0  10   18.20    4.40
  -6   0  10   13.70   11.50
  -6   0  10   20.90    8.10
  -6   0  10   12.50   17.50
  -5   0  10   98.09    7.60
  -5   0  10  131.99   26.50
  -5   0  10  104.69   19.10
  -5   0  10  119.09   18.70
  -5   0  10   99.69    8.70
   5   0 -10  107.89   17.50
  -4   0  10   35.10    6.30
  -4   0  10   38.10    7.20
   4   0 -10   38.60    4.90
  -4   0  10   21.40    5.90
  -4   0  10   21.40   12.00
   4   0 -10   32.10   10.80
  -4   0  10   28.00    9.40
  -3   0  10   84.49   14.30
   3   0 -10   93.39   13.00
  -3   0  10   88.99   17.00
  -3   0  10   77.09    9.80
  -3   0  10   88.39    7.70
   3   0 -10   97.09   11.20
  -2   0  10  177.58   18.30
   2   0 -10  187.08   11.50
  -2   0  10  184.88   10.90
  -2   0  10  205.68   21.90
   2   0 -10  190.68   16.10
   1   0 -10  454.25   25.60
  -1   0  10  425.56   17.30
  -1   0  10  438.36   29.70
   1   0 -10  464.85   15.30
  -1   0  10  460.85   28.70
   0   0  10  576.24   35.30
   0   0  10  553.34   20.80
   0   0 -10  562.64   30.90
   0   0  10  532.15   21.90
   0   0  10  574.54   34.40
   0   0 -10  571.54   28.10
   0   0 -10  511.95   30.80
   0   0 -10  614.64   47.40
  -1   0 -10  145.59   16.50
   1   0  10  150.48   11.20
  -1   0 -10  188.98   33.20
   1   0  10  175.18   27.20
  -2   0 -10  387.66   47.00
  -2   0 -10  393.86   12.80
  -2   0 -10  408.46   30.80
   2   0  10  374.76   17.90
   2   0  10  453.35   42.90
  -3   0 -10   28.50   15.50
   3   0  10   28.10    8.10
   4   0  10  174.28   13.60
  -5   0 -10   93.69   37.30
  -7   0 -10  430.36   47.20
  -9  -1  10  816.42   44.20
  -8  -1  10  438.76   31.30
  -8   1  10  359.86   35.50
  -7  -1  10  217.08   25.00
  -7   1  10  165.18   30.00
  -6  -1  10   41.10    6.00
  -6  -1  10   36.90   17.90
  -6  -1  10   48.70   15.80
  -6  -1  10   61.39   20.90
  -6   1  10   43.30   22.70
  -6   1  10  108.19   31.50
  -6   1  10   22.00    9.80
  -6   1  10   33.50    6.40
   6   1 -10   34.80   14.70
  -5  -1  10   63.09   19.30
  -5  -1  10   39.00   13.00
  -5  -1  10   60.89    7.20
  -5  -1  10   51.59    8.90
  -5  -1  10   52.69   17.50
  -5   1  10   53.49   11.90
  -5   1  10   68.39   24.20
  -5   1  10   56.49   21.30
  -5   1  10   66.19    8.90
   5   1 -10   62.79   15.30
  -4  -1  10   33.60    6.60
  -4  -1  10   24.10    6.50
  -4  -1  10   11.60    9.10
  -4  -1  10   20.60   10.60
  -4  -1  10   16.70    7.40
  -4   1  10   19.50   12.90
  -4   1  10   21.10    7.50
   4   1 -10   30.40   11.40
  -4   1  10   28.40    6.70
  -3  -1  10   39.50    7.20
  -3  -1  10   32.20   11.50
  -3  -1  10   33.80   11.40
  -3  -1  10   38.00    7.90
  -3  -1  10   20.30    6.20
  -3   1  10   24.70    6.90
  -3   1  10   27.80    7.30
  -3   1  10   39.30    7.20
  -3   1  10   20.50   10.90
  -2  -1  10  397.46   18.10
   2  -1 -10  423.06   21.30
  -2  -1  10  407.96   29.30
  -2  -1  10  420.26   22.00
  -2  -1  10  443.56   31.60
  -2  -1  10  404.46   17.10
  -2   1  10  442.56   33.30
  -2   1  10  400.96   17.20
  -2   1  10  422.86   24.00
  -2   1  10  388.96   22.10
   2   1 -10  402.66   20.10
  -1  -1  10  115.29   18.50
  -1  -1  10   99.69   15.80
  -1  -1  10   82.39    9.60
  -1  -1  10   99.89    9.20
   1  -1 -10   92.59   11.60
   1  -1 -10  103.29   14.10
  -1   1  10  108.99   21.80
  -1   1  10   87.19    9.00
   1   1 -10   96.79   11.60
  -1   1  10  108.49   17.20
  -1   1  10   96.19    6.70
  -1   1  10   95.29   10.90
   0  -1  10  214.78   25.80
   0  -1 -10  200.18   18.80
   0  -1  10  172.68   11.70
   0  -1  10  194.78   19.50
   0  -1 -10  178.88   18.50
   0   1  10  202.68   26.90
   0   1 -10  212.38   35.60
   0   1 -10  210.48   15.30
   0   1  10  197.78   12.60
   0   1  10  190.68   17.90
  -1  -1 -10  465.85   43.50
   1  -1  10  467.85   36.70
   1  -1  10  452.15   29.90
   1  -1  10  435.06   34.90
  -1  -1 -10  486.95   33.60
  -1   1 -10  445.66   25.40
  -1   1 -10  462.75   23.00
  -1   1 -10  457.25   45.90
   1   1  10  454.65   25.40
   1   1  10  468.55   20.00
   1   1  10  511.55   46.10
   2  -1  10   69.19   15.50
   2  -1  10   73.99    9.40
   2  -1  10   50.89   15.20
  -2  -1 -10   56.69   13.80
  -2  -1 -10   45.80   14.20
  -2   1 -10   74.09   10.30
   2   1  10   80.59   24.60
  -2   1 -10   50.89   15.90
   2   1  10   74.79    9.80
  -3  -1 -10   49.30   16.30
   3  -1  10   57.69   11.10
  -3  -1 -10   72.89   18.30
   3  -1  10   82.49   10.50
   3   1  10   97.59   13.10
  -3   1 -10   59.49   10.90
  -3   1 -10   47.90   18.90
  -4  -1 -10   81.79   23.60
  -4  -1 -10   62.19   21.70
   4  -1  10  106.09   14.30
   4   1  10   79.09   11.80
  -4   1 -10   54.69   25.50
  -5  -1 -10   59.79   23.60
  -6  -1 -10   48.80   18.80
  -7  -1 -10  321.77   54.09
   9   2 -10  -10.80   14.50
  -8  -2  10   98.39   31.00
  -7  -2  10   11.10   19.40
  -7  -2  10   29.40   22.70
  -7   2  10   24.10   21.50
   7   2 -10    1.90   12.00
  -7   2  10    8.80    7.10
  -6  -2  10   19.50    6.50
  -6  -2  10    7.40   15.20
  -6  -2  10    9.30   17.70
  -6   2  10   -4.80   21.30
  -6   2  10   53.89   32.20
   6   2 -10   15.90   12.60
  -6   2  10   12.20    7.20
  -5  -2  10   54.19   19.80
  -5  -2  10   63.99   10.10
  -5  -2  10   42.40   16.00
  -5   2  10   85.79   32.80
  -5   2  10   49.20   23.40
  -5   2  10   60.39   10.60
   5   2 -10   40.50   12.90
  -5   2  10   41.40    8.30
  -4  -2  10   22.80    7.50
  -4  -2  10   15.90   10.60
  -4  -2  10   21.30    7.80
  -4  -2  10    7.70   10.80
  -4   2  10   22.80   18.20
  -4   2  10   28.10    8.50
  -4   2  10   11.50    5.40
  -4   2  10   18.70   18.10
  -3  -2  10    4.40    8.20
  -3  -2  10    2.60    4.90
  -3  -2  10    0.90    5.90
  -3  -2  10    2.50   10.00
  -3   2  10   -4.40   13.50
  -3   2  10    0.80    5.70
   3   2 -10    1.30    6.30
  -3   2  10   -9.70    9.80
   3   2 -10    5.90    3.50
  -3   2  10    0.00    7.30
   2  -2 -10  195.28    9.80
  -2  -2  10  222.98   25.60
  -2  -2  10  195.68   13.60
  -2  -2  10  209.88   28.10
  -2  -2  10  184.08   14.20
   2   2 -10  179.88   20.00
   2   2 -10  220.48   16.30
  -2   2  10  222.28   31.90
  -2   2  10  182.08   22.00
  -2   2  10  204.88   14.30
  -2   2  10  221.38   35.40
  -1  -2  10   31.50   12.90
  -1  -2  10   31.20   10.70
   1  -2 -10   27.80    6.80
   1  -2 -10   26.50    9.40
  -1  -2  10   34.80    8.20
  -1   2  10   46.40    9.90
  -1   2  10   34.50   12.60
  -1   2  10   18.40    6.80
   1   2 -10   21.20    7.70
  -1   2  10   42.10   18.50
   1   2 -10   32.90   13.90
   1   2 -10   45.80   11.80
   0  -2 -10   10.50    8.20
   0  -2 -10   15.20    7.90
   0  -2  10   25.00    7.90
   0  -2  10   36.90   14.50
   0  -2  10   13.40    8.10
   0   2 -10   11.40    7.60
   0   2 -10   34.40   10.70
   0   2  10   18.10   10.20
   0   2  10   30.30   18.50
   0   2 -10   16.40   12.10
   0   2  10   30.10    8.80
   1  -2  10  323.97   18.40
   1  -2  10  361.06   39.50
  -1  -2 -10  340.17   35.00
   1  -2  10  319.97   23.10
   1   2  10  315.17   18.10
   1   2  10  408.56   54.69
  -1   2 -10  356.76   51.59
   1   2  10  311.07   30.10
  -1   2 -10  322.57   21.20
   2  -2  10  109.69   25.40
  -2  -2 -10   96.99   20.50
   2  -2  10  110.69   12.70
   2  -2  10  118.59   21.70
   2   2  10  130.39   33.00
   2   2  10  114.29   12.80
   2   2  10  131.49   25.40
  -2   2 -10  128.79   17.80
  -2   2 -10   74.29   21.20
  -3  -2 -10  257.77   42.60
  -3  -2 -10  258.27   42.80
   3  -2  10  222.78   16.60
   3   2  10  225.48   12.90
  -3   2 -10  222.88   38.00
  -3   2 -10  210.38   19.90
   3   2  10  258.87   18.10
  -4  -2 -10   29.10   20.00
  -4  -2 -10   23.60   13.70
   4  -2  10   39.40   10.10
   4   2  10   50.89   10.80
  -4   2 -10   11.50   25.90
   4   2  10   49.10   11.50
  -4   2 -10   31.50   13.40
  -5  -2 -10   -3.00   13.10
  -5  -2 -10   36.30   25.40
  -6  -2 -10   46.60   26.60
  -7  -2 -10   96.09   33.70
   8   3 -10    8.30   13.60
  -7  -3  10    8.80    6.80
  -7  -3  10   18.90   22.60
  -7  -3  10  -25.00   27.10
   7   3 -10    6.30   12.90
  -7   3  10    2.40    8.90
  -6  -3  10   21.10    8.40
  -6  -3  10   14.90   21.20
  -6  -3  10   -3.10   20.80
  -6   3  10   18.80    9.50
   6   3 -10   14.50   12.20
  -6   3  10   23.50   45.90
  -5  -3  10  -17.50   14.00
  -5  -3  10    3.50    6.50
  -5  -3  10   -9.50   15.40
  -5   3  10   -9.30    6.80
  -5   3  10  -22.20   36.80
  -4  -3  10    5.10    6.80
  -4  -3  10   14.90   17.10
  -4  -3  10  -11.40   13.60
  -4   3  10  -40.00   26.60
  -4   3  10    4.20    8.10
   4   3 -10    1.60    7.50
  -3  -3  10  135.49   14.30
  -3  -3  10   88.39   21.30
  -3  -3  10  206.78   35.50
  -3   3  10  131.09   34.00
  -3   3  10  123.09   34.20
   3   3 -10  141.09   16.30
  -3   3  10  136.99   15.70
  -2  -3  10  382.76   38.90
  -2  -3  10  346.17   20.80
   2  -3 -10  353.76   45.40
  -2  -3  10  341.07   47.20
  -2   3  10  380.76   54.69
   2   3 -10  337.77   22.00
  -2   3  10  305.67   20.20
  -2   3  10  438.96   63.09
   1  -3 -10   41.60    7.70
   1  -3 -10   48.60   16.30
  -1  -3  10   77.29   14.30
  -1  -3  10   60.99   18.50
   1   3 -10   46.80   18.50
  -1   3  10   89.99   30.10
  -1   3  10   87.89   14.70
   1   3 -10   87.29   16.60
  -1   3  10   75.99   24.20
   0  -3 -10   50.09   16.30
   0  -3  10   84.29   14.40
   0  -3  10   82.09   22.80
   0  -3  10   89.89   17.70
   0   3 -10   45.40   19.70
   0   3  10  113.39   33.30
   0   3  10   73.69   23.70
   0   3  10   98.39   15.50
   0   3 -10  106.79   17.90
   1  -3  10   57.39   11.80
  -1  -3 -10   49.00   18.40
   1  -3  10   60.39   12.50
   1  -3  10   75.79   25.90
   1   3  10   47.00   22.60
   1   3  10   87.19   33.00
   1   3  10   70.09   13.70
  -1   3 -10   82.09   17.30
  -1   3 -10   38.20   22.20
   2  -3  10  211.68   36.70
   2  -3  10  228.08   18.30
  -2  -3 -10  243.68   45.50
  -2   3 -10  270.67   56.99
   2   3  10  207.18   18.30
  -2   3 -10  209.98   21.00
   2   3  10  187.18   28.40
  -3  -3 -10   -0.40   17.70
   3  -3  10    8.50    7.70
  -3   3 -10  -11.00   26.30
   3   3  10    7.10    9.30
  -3   3 -10   -1.50   10.20
   4  -3  10   29.30   10.10
  -4  -3 -10   21.50   24.60
   4   3  10   33.30   11.80
  -4   3 -10   40.30   16.10
   4   3  10   30.80    9.50
  -5  -3 -10    0.70   24.30
  -5   3 -10    4.40   12.20
  -6  -3 -10   25.90   31.40
  -6   3 -10   19.80   13.10
  -7   4  10   15.40   13.40
   7   4 -10   17.20   14.00
  -6  -4  10   10.50   28.40
  -6  -4  10   34.30   12.00
  -6   4  10   28.50   13.20
  -5  -4  10   35.50   11.60
  -5  -4  10   33.90   29.10
  -5   4  10   27.10   12.70
  -4  -4  10    0.90   23.70
  -4  -4  10   11.60    9.40
  -4  -4  10  -40.70   23.10
  -4   4  10   18.10   10.80
  -4   4  10  -76.39   49.60
  -3  -4  10  -21.00   21.10
  -3  -4  10   -1.00    7.90
  -3  -4  10   -4.40   18.40
  -3   4  10    9.20    9.90
   3   4 -10   -0.40   10.00
  -3   4  10  -36.50   27.10
  -2  -4  10   16.40    9.70
  -2  -4  10   12.80   21.80
   2  -4 -10   -2.90   18.10
  -2  -4  10    4.00   22.50
  -2   4  10  -15.50   39.30
   2   4 -10   10.50   12.40
  -2   4  10  -26.40   29.40
  -2   4  10   10.50   11.10
   1  -4 -10  -11.10   18.40
  -1  -4  10    5.40    8.50
  -1  -4  10  -20.10   20.10
   1   4 -10    0.90   17.30
  -1   4  10  -15.20   30.60
   1   4 -10   -6.80    9.60
  -1   4  10    9.60   10.60
   0  -4  10   19.80   10.90
   0  -4 -10   18.90    6.30
   0  -4  10  -11.80   23.10
   0  -4 -10   -6.50   18.00
   0   4 -10   25.80   13.80
   0   4  10   19.40   35.90
   0   4  10   31.30   13.10
   0   4  10  -35.60   30.80
  -1  -4 -10  -11.20   19.10
   1  -4  10   16.90   10.50
   1  -4  10  -21.30   30.30
   1   4  10   29.50   13.60
  -1   4 -10   20.00   13.30
  -2  -4 -10   52.89   28.90
   2  -4  10   91.29   17.40
   2  -4  10   29.20   39.90
  -2   4 -10  113.89   22.10
   2   4  10  108.49   19.70
   2   4  10   41.50   31.60
   3  -4  10   59.29   14.90
  -3  -4 -10   51.69   32.20
   3   4  10   36.40   13.40
  -3   4 -10   47.30   15.90
  -4  -4 -10   21.70   32.10
  -4   4 -10   28.60   16.20
  -5  -4 -10  -29.10   28.70
  -5   4 -10    4.40   13.00
  -5  -5  10  -16.80   30.00
  -5   5  10    4.90   13.10
  -4  -5  10   19.00   12.50
  -4  -5  10  -24.80   29.30
  -4   5  10    8.40   12.40
  -3  -5  10    2.00   10.50
  -3  -5  10  -40.20   26.50
  -3   5  10    3.80   12.40
  -2  -5  10  -43.90   29.90
  -2  -5  10    2.80   10.30
   2   5 -10    3.30   12.90
  -2   5  10   -6.20   10.20
  -1  -5  10    6.60   10.70
   1   5 -10    2.90   14.30
  -1   5  10   -6.40   10.40
   0  -5  10   23.80   13.70
   0   5  10   20.00   14.30
   0   5 -10    0.60   13.90
   1  -5  10   20.70   12.70
   1   5  10   10.50   13.40
  -1   5 -10   -3.60   13.70
  -2  -5 -10  -32.60   30.70
   2  -5  10   15.00   11.90
   2   5  10   13.10   13.30
  -2   5 -10   10.00   13.80
   3  -5  10    9.70   11.40
  -2   6  10    8.80   15.90
  -1  -6  10   13.10   13.90
   1   6 -10   -2.80   14.50
  -1   6  10    3.50   14.90
   0  -6  10   -5.80   11.70
   0   6 -10    0.00   15.80
   0   6  10   -0.10   14.70
   1  -6  10   -9.30   12.30
  -1   6 -10   -2.20   17.40
   1   6  10   10.00   16.90
   2   6  10   -6.00   13.20
  -9   0  11  535.75   34.90
  -8   0  11  467.75   36.30
  -7   0  11   91.79   20.80
  -6   0  11    1.60    3.70
  -6   0  11   -4.30   10.30
  -6   0  11    1.00   17.70
  -5   0  11  -11.60   11.70
  -5   0  11   -0.90    5.20
  -5   0  11   -2.10    8.90
  -5   0  11    0.90    4.60
  -5   0  11    5.50    4.00
   5   0 -11    4.30    9.20
  -4   0  11   -3.80    7.90
  -4   0  11    0.50    3.80
  -4   0  11    3.80    3.90
  -4   0  11   -0.40    7.20
  -4   0  11    5.10    5.00
   4   0 -11    0.60    8.10
   3   0 -11   -0.50    7.00
  -3   0  11   -2.00    6.20
  -3   0  11   -0.60    7.60
  -3   0  11   -4.20    4.10
  -3   0  11   -1.30    3.90
  -2   0  11    3.00    6.80
  -2   0  11   -5.30    3.50
   2   0 -11   -3.90    5.00
  -2   0  11   -1.10    5.70
   2   0 -11   -1.60    3.70
  -1   0  11   -5.80    4.50
  -1   0  11    1.10    4.10
  -1   0  11    5.10    9.10
   1   0 -11   -4.40    3.70
   1   0 -11    4.80    5.50
  -1   0  11    1.40    6.50
   0   0  11   10.40    5.00
   0   0  11   12.00    9.60
   0   0 -11    6.80    3.40
   0   0 -11   12.60    3.00
   0   0 -11    4.00    9.10
   0   0  11   18.20   11.30
  -1   0 -11    0.80    9.70
   1   0  11    7.90   11.70
   1   0  11    0.80    5.00
   2   0  11   -4.70    4.60
   2   0  11   31.00   18.30
  -2   0 -11   10.90   12.70
   3   0  11   -3.90    5.00
  -3   0 -11    7.80   15.70
   4   0  11    1.70    6.20
  -4   0 -11   -6.10   20.80
  -7   0 -11  364.26   45.70
  -8   1  11  242.08   30.40
  -7   1  11  179.38   33.90
  -6  -1  11   32.70   18.50
  -6  -1  11   28.70   12.90
  -6  -1  11   51.79   20.50
  -6  -1  11   38.50    6.60
   6   1 -11   22.20   13.80
  -6   1  11   21.00   21.80
  -6   1  11   29.10    7.00
  -6   1  11   21.80   11.10
  -5  -1  11  185.28   11.50
  -5  -1  11  184.38   30.00
  -5  -1  11  186.28   27.50
  -5  -1  11  215.38   31.00
  -5   1  11  189.08   34.50
   5   1 -11  175.58   17.50
  -5   1  11  180.78   20.00
  -5   1  11  185.38   12.10
  -4  -1  11   73.29    9.80
  -4  -1  11   63.29   16.50
  -4  -1  11   52.09   16.20
  -4  -1  11   61.59    9.70
  -4  -1  11   39.60    9.20
  -4   1  11   46.70    9.90
  -4   1  11   76.59   10.10
   4   1 -11   47.90   12.60
  -4   1  11   37.50   15.50
  -4   1  11   25.80    9.30
  -3  -1  11   31.70    6.50
  -3  -1  11   40.50    8.50
  -3  -1  11   36.80   11.50
  -3  -1  11   54.59    8.70
  -3  -1  11   38.00   13.00
  -3   1  11   30.40    8.50
  -3   1  11   54.09    8.60
  -3   1  11   34.90   13.90
  -3   1  11   24.20    6.70
  -2  -1  11  316.87   28.60
  -2  -1  11  289.07   15.20
  -2  -1  11  307.97   26.60
   2  -1 -11  308.67   18.90
  -2  -1  11  289.47   16.10
  -2   1  11  263.37   17.30
  -2   1  11  321.47   23.90
  -2   1  11  313.87   31.90
  -2   1  11  294.67   15.30
  -1  -1  11   35.20    7.40
   1  -1 -11   22.20    6.10
  -1  -1  11   20.20    8.80
   1  -1 -11   28.40    7.60
  -1  -1  11   28.70   11.40
  -1  -1  11   22.80    7.30
   1   1 -11   23.10   11.50
   1   1 -11   19.30    4.90
  -1   1  11   25.70   11.00
  -1   1  11   19.80    4.60
  -1   1  11   33.50    7.30
  -1   1  11   30.80   10.60
   0  -1 -11  339.77   25.20
   0  -1 -11  363.06   25.70
   0  -1  11  389.96   34.20
   0  -1  11  381.86   28.50
   0  -1  11  373.46   18.10
   0   1 -11  402.86   47.40
   0   1 -11  354.06   23.70
   0   1  11  374.86   26.00
   0   1  11  361.86   17.60
   0   1  11  389.66   36.00
   1  -1  11  246.28   33.30
  -1  -1 -11  255.07   40.30
   1  -1  11  254.97   26.50
  -1  -1 -11  257.57   26.00
   1  -1  11  242.88   15.00
   1  -1  11  216.38   30.30
   1   1  11  303.57   43.30
   1   1  11  226.88   20.00
  -1   1 -11  294.37   45.10
   1   1  11  216.68   14.60
  -1   1 -11  222.18   18.10
  -2  -1 -11   43.30   12.80
   2  -1  11   52.09   16.10
   2  -1  11   25.40   14.40
  -2  -1 -11   40.60   16.10
   2  -1  11   69.99   11.70
  -2   1 -11   33.60   15.00
  -2   1 -11   52.49   10.00
   2   1  11   65.89   24.80
   2   1  11   46.50    9.40
   3  -1  11  128.09   12.50
   3  -1  11   93.09   17.60
  -3  -1 -11   85.19   20.50
  -3  -1 -11   98.99   21.60
   3   1  11  116.69   12.70
  -3   1 -11   67.39   22.00
  -3   1 -11  131.19   14.40
   4  -1  11  216.08   16.10
  -4  -1 -11  321.07   47.00
   4   1  11  226.78   16.40
  -4   1 -11  218.48   46.50
  -5  -1 -11   41.40   19.70
  -6  -1 -11  189.18   38.60
  -7  -1 -11  241.28   49.00
   9   2 -11  -18.60   13.80
   8   2 -11  -10.80   11.50
  -7  -2  11   23.80   22.70
  -7  -2  11   10.00   18.00
  -7   2  11   15.20    7.50
  -7   2  11   35.80   26.20
   7   2 -11    3.40   11.90
  -6  -2  11   55.79   25.90
  -6  -2  11   48.00    8.90
  -6  -2  11   26.40   16.70
  -6   2  11   48.30   10.00
   6   2 -11   36.90   14.40
  -6   2  11   35.70   27.60
  -5  -2  11   38.60   18.90
  -5  -2  11   65.59   10.70
  -5  -2  11   24.80   14.00
  -5   2  11   54.79   29.40
  -5   2  11   29.50   24.30
  -5   2  11   56.19   11.10
   5   2 -11   46.70   14.70
  -4  -2  11  114.99   23.50
  -4  -2  11  137.39   12.20
  -4   2  11  134.49   32.40
  -4   2  11  137.49   12.70
  -4   2  11  156.18   31.80
  -3  -2  11   47.70   10.40
  -3  -2  11   29.30   10.80
  -3  -2  11   39.00   14.90
  -3  -2  11   43.60    9.30
  -3   2  11   50.69   20.80
  -3   2  11   45.50    9.70
   3   2 -11   40.90   10.60
   3   2 -11   55.19   10.70
  -3   2  11   34.60   18.00
  -2  -2  11  514.55   22.80
   2  -2 -11  483.55   20.70
  -2  -2  11  514.45   37.00
  -2  -2  11  550.44   39.40
  -2  -2  11  544.85   38.40
  -2   2  11  510.65   22.40
  -2   2  11  471.75   33.00
   2   2 -11  472.25   31.60
  -2   2  11  580.94   46.90
   2   2 -11  561.34   25.40
  -2   2  11  578.94   50.49
  -1  -2  11  189.38   24.30
  -1  -2  11  177.48   25.40
   1  -2 -11  221.88   27.60
   1  -2 -11  162.78   14.90
  -1  -2  11  185.78   14.30
   1   2 -11  144.89   20.60
  -1   2  11  174.38   13.90
   1   2 -11  187.38   16.70
   1   2 -11  229.38   49.00
  -1   2  11  166.98   19.90
  -1   2  11  197.88   37.50
  -1   2  11  184.78   29.60
   0  -2  11  224.88   15.50
   0  -2  11  243.48   23.50
   0  -2 -11  247.98   28.70
   0  -2  11  229.28   31.80
   0  -2 -11  175.28   21.00
   0   2  11  307.47   50.69
   0   2  11  240.88   28.10
   0   2 -11  300.57   51.79
   0   2 -11  187.18   23.70
   0   2  11  205.08   15.10
   0   2 -11  223.18   18.50
  -1  -2 -11   63.29   15.00
   1  -2  11   79.79   22.20
   1  -2  11   89.29   17.30
   1  -2  11   84.69   12.40
  -1   2 -11   59.89   19.10
   1   2  11  100.19   14.10
   1   2  11   72.89   14.90
  -1   2 -11   98.49   16.50
   1   2  11  104.49   29.80
   2  -2  11   68.89   14.30
   2  -2  11  113.29   13.00
  -2  -2 -11   89.69   20.50
   2  -2  11  108.99   26.50
   2   2  11   79.39   15.30
   2   2  11  155.58   37.60
   2   2  11  100.99    7.30
  -2   2 -11   67.99   21.10
  -2   2 -11  107.29   17.20
   2   2  11  108.39   13.20
   3  -2  11   71.09   13.50
  -3  -2 -11   49.10   20.60
  -3   2 -11   74.29   16.60
  -3   2 -11   26.40   23.80
   3   2  11   86.69   10.40
   3   2  11   73.39   12.90
  -4  -2 -11    7.80   13.20
  -4  -2 -11   14.40   20.80
   4  -2  11   22.60    9.00
   4   2  11   12.90    8.80
  -4   2 -11   20.70   13.20
  -5  -2 -11   10.40   22.20
  -5  -2 -11  -16.10   13.60
  -6  -2 -11   77.99   29.20
  -7  -2 -11   89.69   33.70
   8   3 -11   13.50   14.90
  -7  -3  11   43.60   26.50
   7   3 -11   -4.10   12.60
  -7   3  11    8.80    9.40
  -6  -3  11    9.10    6.80
  -6  -3  11  -28.90   18.30
  -6  -3  11    5.40   20.80
   6   3 -11    8.00   10.90
  -6   3  11    5.30    9.00
  -5  -3  11   27.70    9.50
  -5  -3  11  -11.10   15.60
  -5  -3  11   38.80   24.90
  -5   3  11  -41.30   25.80
  -5   3  11   21.10   10.10
  -5   3  11   -8.50   39.30
  -4  -3  11   -9.00   13.80
  -4  -3  11   -1.90    6.90
  -4  -3  11   12.90   17.40
  -4   3  11    1.40    8.30
  -4   3  11   -9.50   32.70
  -4   3  11  -32.00   26.20
  -3  -3  11  559.14   47.50
  -3  -3  11  514.45   52.39
  -3  -3  11  493.55   25.60
  -3   3  11  476.65   64.09
  -3   3  11  585.74   68.89
   3   3 -11  492.95   26.00
  -3   3  11  500.85   26.10
   2  -3 -11 1055.49   66.29
  -2  -3  11 1005.50   67.99
  -2  -3  11  935.31   36.50
  -2  -3  11 1014.10   61.29
  -2   3  11 1057.69   80.79
  -2   3  11 1035.10   77.89
  -2   3  11  921.61   35.90
   2   3 -11  937.01   37.30
  -1  -3  11  153.68   23.70
  -1  -3  11  122.99   14.40
   1  -3 -11   77.19   12.10
  -1  -3  11  106.19   23.50
   1  -3 -11   85.69   19.20
  -1   3  11  136.89   29.80
  -1   3  11  129.49   15.10
   1   3 -11  148.49   20.40
   1   3 -11   98.39   24.80
  -1   3  11  119.69   32.00
   0  -3 -11   38.30   16.20
   0  -3  11   44.70   10.90
   0  -3  11   46.60   21.20
   0  -3  11   56.79   16.70
   0   3  11   74.19   32.60
   0   3  11   53.39   22.70
   0   3  11   54.59   11.80
   0   3 -11   27.40   20.20
   0   3 -11   51.39   15.00
   1  -3  11  422.76   55.89
   1  -3  11  365.46   22.70
  -1  -3 -11  397.16   48.00
   1  -3  11  328.27   26.00
   1   3  11  351.06   22.50
  -1   3 -11  407.86   77.39
   1   3  11  413.86   61.69
  -1   3 -11  376.66   26.00
   1   3  11  315.97   49.40
  -2  -3 -11   15.20   18.10
   2  -3  11   45.80   11.70
   2  -3  11   28.60   27.60
  -2   3 -11   15.80   11.50
  -2   3 -11   16.50   25.90
   2   3  11  -10.50   16.80
   2   3  11   34.40   12.00
   3  -3  11   27.80   10.50
  -3  -3 -11   16.40   21.40
  -3   3 -11   28.10   14.00
   3   3  11   15.60   10.50
  -3   3 -11  -17.70   32.90
  -4  -3 -11   21.80   27.30
   4  -3  11   24.70   10.00
   4   3  11   23.40   11.30
  -4   3 -11   39.50   15.50
  -5  -3 -11   43.30   33.00
  -5   3 -11   22.30   15.60
  -6  -3 -11   -2.70   32.50
  -7   4  11    0.40   12.80
   7   4 -11   18.80   14.60
  -6  -4  11   -2.20   24.40
  -6  -4  11    0.10    8.60
  -6   4  11   -3.70   10.20
  -5  -4  11   22.70   28.20
  -5  -4  11   27.80   10.80
  -5   4  11   23.70   12.00
  -4  -4  11  -32.30   19.50
  -4  -4  11    3.30    8.50
  -4   4  11   -4.30    8.90
  -3  -4  11   15.30   20.90
  -3  -4  11   -7.50   23.20
  -3  -4  11   37.00   11.80
  -3   4  11  -38.40   30.70
   3   4 -11   22.30   12.60
  -3   4  11  -28.80   45.00
  -3   4  11   40.30   13.60
  -2  -4  11    2.80   21.10
  -2  -4  11    6.40    8.40
   2  -4 -11   -5.10   18.30
  -2  -4  11  -18.10   21.40
   2   4 -11    7.00   11.90
  -2   4  11   13.30   11.00
  -2   4  11  -41.70   32.10
  -1  -4  11   11.50   10.20
  -1  -4  11   -8.80   20.50
   1  -4 -11  -10.50   18.90
  -1   4  11  -10.60   34.00
   1   4 -11    0.30   18.70
  -1   4  11  -42.20   34.20
  -1   4  11   11.70   10.80
   1   4 -11   36.10   15.00
   0  -4  11   43.30   13.70
   0  -4  11   -4.30   27.90
   0   4  11   27.40   12.40
   0   4  11   20.00   39.80
   0   4 -11   44.20   16.30
   0   4  11  -35.00   33.20
   1  -4  11  -58.19   31.30
   1  -4  11    1.20    8.70
  -1  -4 -11  -27.30   19.00
   1   4  11    5.50   10.60
  -1   4 -11    2.90   12.30
   2  -4  11   45.90   14.00
   2  -4  11  -45.00   35.30
  -2  -4 -11    9.00   24.80
  -2   4 -11   33.30   14.00
   2   4  11   30.80   12.90
   2   4  11  -46.50   27.70
  -3  -4 -11   50.19   33.80
   3  -4  11   89.19   17.60
  -3   4 -11   60.79   19.50
   3   4  11  112.69   20.60
  -4  -4 -11  -16.80   31.10
  -4   4 -11    8.50   14.80
  -5  -4 -11  -29.90   30.00
  -5   4 -11   -6.60   12.20
  -5   5  11    3.90   13.70
  -4  -5  11   -0.60    9.50
  -4  -5  11  -36.40   26.20
  -4   5  11   -1.50   11.20
  -3  -5  11    2.00    9.90
  -3   5  11    6.20   12.30
  -2  -5  11    0.20    9.20
   2   5 -11    0.70   13.20
  -2   5  11   -3.30   11.60
  -1  -5  11    7.30   11.40
   1   5 -11   -2.60   12.80
  -1   5  11   -3.00   10.90
   0  -5  11   27.30   13.70
   0   5 -11   21.10   15.20
   0   5  11    3.80   11.60
   1  -5  11    2.60   10.20
   1   5  11    1.10   11.50
  -1   5 -11    0.50   13.80
   2  -5  11    8.40   11.40
  -2   5 -11   17.70   17.00
   2   5  11    7.40   12.90
   3  -5  11   16.10   12.30
  -3   5 -11   -3.90   15.40
  -1  -6  11   10.60   15.40
   1   6 -11   -0.20   15.00
  -1   6  11   -4.40   14.20
   0  -6  11   19.50   16.30
   0   6 -11    6.20   16.40
   0   6  11   12.50   16.40
   1  -6  11    2.70   13.90
  -1   6 -11   -5.70   17.90
   2   6  11   15.10   15.60
  -9   0  12  706.93   44.90
  -8   0  12  380.76   32.00
  -7   0  12  216.18   32.00
  -6   0  12   59.89    7.80
  -6   0  12   55.59   18.50
  -6   0  12   68.09   25.20
  -5   0  12    3.10   10.20
   5   0 -12   10.70   11.20
  -5   0  12   17.00    7.60
  -5   0  12    6.60   14.40
  -5   0  12   13.00    5.30
  -4   0  12    0.50    4.60
  -4   0  12    3.90    5.30
   4   0 -12   -1.10    9.00
  -4   0  12    1.50    3.70
  -4   0  12   -5.70    7.40
  -4   0  12   -5.40    8.20
   3   0 -12  105.49   12.70
  -3   0  12  113.69   22.80
  -3   0  12  112.09    9.80
  -3   0  12  101.09   18.90
  -3   0  12  108.59   10.90
  -2   0  12  125.39   20.80
  -2   0  12  112.89   11.10
  -2   0  12  149.88   20.70
  -2   0  12  122.29   10.50
   2   0 -12  138.69   11.30
  -1   0  12  518.95   36.20
  -1   0  12  490.55   20.60
  -1   0  12  551.04   38.30
   1   0 -12  503.05   17.00
   0   0  12  567.84   39.00
   0   0 -12  586.64   53.99
   0   0  12  580.54   23.00
   0   0 -12  566.44   29.90
   0   0  12  619.44   41.50
   0   0 -12  564.84   14.50
  -1   0 -12  218.28   47.60
   1   0  12  256.47   38.00
   1   0  12  204.58   14.40
  -2   0 -12   89.69   20.90
   2   0  12  111.89   20.10
  -3   0 -12   23.70   19.90
   3   0  12   15.70    7.70
   4   0  12  120.29   13.30
  -6   0 -12  334.07   39.30
  -7   0 -12  438.06   48.90
  -9  -1  12  250.87   37.50
  -8  -1  12  455.15   33.20
  -6  -1  12   17.80   17.50
  -6  -1  12   27.00    6.40
  -6  -1  12   24.70   12.80
  -6   1  12   28.20   25.00
   6   1 -12   21.40   13.80
  -6   1  12   20.30    6.60
  -6   1  12   15.60   10.20
  -5  -1  12   95.29   23.50
  -5  -1  12   88.09    9.40
  -5  -1  12  107.99   24.20
  -5  -1  12   57.79   12.90
   5   1 -12   82.19   17.20
  -5   1  12   66.99   13.40
  -5   1  12   77.99    9.80
  -5   1  12   99.29   27.40
  -4  -1  12  148.69   27.90
  -4  -1  12  124.09   11.50
  -4  -1  12  145.89   26.20
  -4  -1  12  135.09   11.00
  -4  -1  12  127.09   19.50
  -4   1  12  130.59   11.20
   4   1 -12  113.19   15.30
  -4   1  12  140.39   28.00
  -4   1  12  118.39   17.00
  -3  -1  12   15.40   10.80
  -3  -1  12   11.90    5.10
  -3  -1  12   18.90    7.30
  -3  -1  12   13.80    5.90
   3  -1 -12   16.40    5.00
  -3  -1  12   15.20   10.40
  -3   1  12    6.80    4.80
  -3   1  12    7.30   12.50
  -3   1  12   13.50    8.30
  -3   1  12   17.40    6.70
  -2  -1  12   59.99   10.80
  -2  -1  12   45.80   13.20
  -2  -1  12   57.89   14.80
  -2  -1  12   60.89    9.30
   2  -1 -12   53.69    9.80
  -2   1  12   59.89   13.00
  -2   1  12   56.49    8.20
  -2   1  12   61.49    9.90
  -2   1  12   53.69   16.70
   1  -1 -12  308.17   21.40
  -1  -1  12  310.87   28.40
   1  -1 -12  271.37   20.60
  -1  -1  12  301.37   30.10
  -1  -1  12  286.97   16.10
  -1   1  12  323.17   35.20
  -1   1  12  333.27   27.70
  -1   1  12  265.37   15.50
   1   1 -12  308.07   44.90
   1   1 -12  291.67   18.60
   0  -1  12   11.40    6.10
   0  -1  12   23.20   14.00
   0  -1  12    3.20    8.00
   0  -1 -12    6.60    5.00
   0   1  12    6.90    6.50
   0   1  12    6.00   14.90
   0   1 -12   12.90   13.10
   0   1  12    7.10    5.90
   1  -1  12  134.99   12.20
   1  -1  12  154.58   27.00
   1  -1  12   99.49   19.10
   1  -1  12  132.29   25.10
  -1  -1 -12  145.39   22.20
   1   1  12  130.09   27.50
   1   1  12  124.19   12.10
   1   1  12  119.09   18.40
  -2  -1 -12  226.68   31.50
   2  -1  12  236.88   38.50
   2  -1  12  141.19   22.30
   2  -1  12  179.18   14.40
  -2  -1 -12  253.97   54.69
   2   1  12  323.27   55.49
  -2   1 -12  300.17   60.19
  -2   1 -12  198.88   17.50
   2   1  12  198.78   15.40
  -3  -1 -12   34.30   16.50
   3  -1  12   24.00    9.20
  -3  -1 -12   27.90   18.80
   3  -1  12   45.10   10.80
   3   1  12   48.20   11.10
  -3   1 -12   45.10   25.10
   4  -1  12   71.89   12.90
  -4  -1 -12   46.60   23.40
  -4  -1 -12   73.39   22.60
   4   1  12   85.99   14.00
  -5  -1 -12   55.29   20.30
  -6  -1 -12  195.48   41.50
  -7  -1 -12  295.97   50.59
   9   2 -12  -16.50   15.20
  -7  -2  12   46.00   29.70
  -7   2  12   33.00   31.30
  -7   2  12   23.40    8.40
   7   2 -12   36.20   15.40
  -6  -2  12    1.10    5.00
  -6  -2  12  -18.70   11.30
  -6  -2  12   -6.90   17.50
  -6   2  12  -21.60   23.30
   6   2 -12   -4.80    9.60
  -6   2  12    3.20    6.80
  -5  -2  12   17.40    7.00
  -5  -2  12    6.10   17.30
  -5  -2  12    2.30   10.30
  -5   2  12   10.70    7.70
  -5   2  12   36.40   29.00
  -5   2  12   -2.20   22.10
   5   2 -12   10.80   11.00
  -4  -2  12   77.79   21.40
  -4  -2  12   97.89   11.10
  -4   2  12  101.39   12.70
  -4   2  12   95.39   28.60
  -4   2  12  113.99   32.50
  -3  -2  12   79.89   19.60
  -3  -2  12   90.59   13.40
  -3  -2  12  101.49   13.90
  -3  -2  12   62.29   13.10
  -3  -2  12   87.79   20.80
   3   2 -12  104.49   13.30
  -3   2  12  110.19   28.80
  -3   2  12   98.49   13.40
  -3   2  12   96.49   27.70
   2  -2 -12  205.08   13.30
  -2  -2  12  268.87   32.70
  -2  -2  12  223.48   15.70
  -2  -2  12  219.78   28.50
  -2   2  12  186.28   21.40
  -2   2  12  262.67   43.90
  -2   2  12  237.98   37.30
   2   2 -12  193.98   20.10
   2   2 -12  238.78   19.00
  -2   2  12  207.68   15.80
   1  -2 -12   52.19   10.00
  -1  -2  12   66.19   10.90
  -1  -2  12   70.69   17.00
  -1  -2  12   57.29   16.40
   1  -2 -12   48.70   11.80
  -1   2  12   57.19   21.80
  -1   2  12   67.29   19.30
   1   2 -12   41.70    9.80
   1   2 -12   88.79   15.60
   1   2 -12   57.79   19.90
  -1   2  12   38.60    8.80
  -1   2  12   82.89   13.00
   0  -2  12   17.40   10.70
   0  -2  12   22.30   15.00
   0  -2 -12   16.20    9.00
   0  -2  12   26.20    8.70
   0   2 -12   12.10   15.70
   0   2  12   31.80   22.80
   0   2  12   15.20    7.60
   0   2 -12   17.60   11.00
   0   2  12   14.40   12.00
   1  -2  12   36.50   11.20
   1  -2  12   49.60   11.10
  -1  -2 -12   26.00   11.90
   1  -2  12   50.59   22.80
   1   2  12   62.59   12.30
  -1   2 -12   36.50   12.20
   1   2  12   41.90   13.20
  -1   2 -12   30.10   18.50
   1   2  12   82.59   30.90
  -2  -2 -12   38.70   15.80
   2  -2  12   78.99   14.30
   2  -2  12   52.39   25.30
   2  -2  12   31.80   14.20
  -2   2 -12   35.00   23.30
   2   2  12   40.30   14.00
   2   2  12   60.89   35.60
  -2   2 -12   72.89   16.40
   2   2  12   52.09   12.60
  -3  -2 -12    2.30   14.00
   3  -2  12   10.30    8.60
  -3  -2 -12   11.80   13.10
  -3   2 -12   13.70   12.20
  -3   2 -12   12.00   24.40
   3   2  12   13.60    8.80
   4  -2  12   26.20    9.50
  -4  -2 -12   18.00   15.50
  -4  -2 -12   25.30   22.30
   4   2  12   30.90   10.90
  -5  -2 -12  -19.00   15.60
  -5  -2 -12   34.10   23.80
  -6  -2 -12   86.09   30.70
   8   3 -12   13.80   15.50
  -7  -3  12   -6.50   25.50
  -7  -3  12   11.30    7.60
   7   3 -12    2.50   14.00
  -7   3  12   -7.40    8.40
  -6  -3  12   -8.80   21.80
  -6  -3  12    7.10    6.60
   6   3 -12   -4.50   10.00
  -6   3  12    3.10    8.60
  -6   3  12   93.29   47.80
  -5  -3  12    1.30    6.50
  -5  -3  12  -21.30   18.00
  -5   3  12   -0.70    8.30
  -5   3  12  -23.20   39.00
  -4  -3  12   -4.90   17.00
  -4  -3  12   -2.80    6.50
  -4   3  12    4.80    8.50
  -4   3  12  -49.10   30.80
  -4   3  12  -34.10   30.70
  -3  -3  12  130.19   15.10
  -3  -3  12   99.69   23.40
  -3   3  12  139.39   43.60
   3   3 -12  127.59   18.30
  -3   3  12  125.69   17.10
  -3   3  12  164.28   44.90
  -2  -3  12    8.20   14.80
   2  -3 -12    5.30   11.90
  -2  -3  12   10.70    8.40
  -2  -3  12    3.90   13.50
  -2   3  12   12.50   23.60
  -2   3  12   14.80   30.30
  -2   3  12   -2.20    7.70
   2   3 -12   13.90   10.30
  -1  -3  12   25.00   10.10
   1  -3 -12   17.40   13.80
  -1  -3  12   17.90   16.80
  -1  -3  12   26.20   15.10
   1   3 -12    8.80   18.60
   1   3 -12   21.00   12.40
  -1   3  12   27.50   22.30
  -1   3  12   26.20   33.00
  -1   3  12   26.70   11.00
   0  -3 -12    2.10   12.90
   0  -3  12   -2.10   10.80
   0  -3  12   -2.90    7.50
   0  -3  12   -2.20   19.00
   0   3  12   -4.10    8.00
   0   3 -12    5.60   19.60
   0   3  12   17.20   32.80
   0   3 -12   10.40   12.20
   0   3  12   -1.10   18.70
   1  -3  12  139.69   16.10
   1  -3  12   96.59   19.50
  -1  -3 -12   94.59   23.90
   1  -3  12  130.19   34.90
  -1   3 -12   79.79   28.10
  -1   3 -12  137.49   20.40
   1   3  12   75.19   24.30
   1   3  12  146.49   43.90
   1   3  12  121.09   15.70
  -2  -3 -12    2.50   17.20
   2  -3  12   33.20   11.40
   2  -3  12    9.90   28.80
   2   3  12   21.80   10.60
  -2   3 -12   27.30   13.90
   2   3  12  -22.50   16.70
  -3  -3 -12   -9.70   17.50
   3  -3  12    0.20    8.60
  -3   3 -12    0.60   11.20
   3   3  12   -9.80    8.70
  -4  -3 -12    8.50   25.30
   4  -3  12    1.90    7.90
   4   3  12   12.60   10.90
  -4   3 -12   12.20   12.40
  -5  -3 -12    5.20   28.80
  -5   3 -12    2.50   13.50
  -6  -3 -12   25.10   35.50
   7   4 -12    8.20   13.50
  -7   4  12   15.90   14.10
  -6  -4  12    2.90    8.40
  -6  -4  12   -5.60   26.30
  -6   4  12    4.90   11.00
  -5  -4  12   29.90   29.90
  -5  -4  12   18.90   10.50
  -5   4  12    7.10   10.80
  -5   4  12  -70.89   56.99
  -4  -4  12   12.40    9.70
  -4  -4  12  -15.50   23.10
  -4   4  12   13.40   11.40
  -4   4  12  -74.99   47.50
  -3  -4  12   39.80   13.70
  -3  -4  12  -13.70   23.50
  -3  -4  12   20.60   23.00
  -3   4  12   54.29   15.50
   3   4 -12   19.10   12.90
  -3   4  12  -55.39   43.90
  -2  -4  12  -26.80   20.70
  -2  -4  12  -22.40   20.40
  -2  -4  12    5.70   10.00
   2   4 -12   -2.50   11.00
  -2   4  12    0.30    9.30
   1  -4 -12    5.40   21.30
  -1  -4  12   30.60   13.00
  -1  -4  12    6.70   28.10
  -1   4  12  -25.40   38.30
   1   4 -12   45.20   16.40
  -1   4  12   41.20   13.70
   1   4 -12    6.80   21.20
   0  -4  12  -10.60   29.40
   0   4  12  -22.10   42.00
   0   4  12    6.50   11.60
   0   4 -12    3.30   12.10
   1  -4  12   28.00   11.60
   1  -4  12    2.00   41.10
  -1  -4 -12   20.90   25.30
  -1   4 -12   16.30   13.30
   1   4  12   56.89   15.80
   2  -4  12   27.00   11.80
  -2  -4 -12  -17.00   23.10
  -2   4 -12   22.90   15.00
   2   4  12   13.60   12.20
  -3  -4 -12   17.50   31.50
   3  -4  12   54.39   14.60
   3   4  12   40.80   14.90
  -3   4 -12   54.89   18.10
  -4  -4 -12   -1.70   33.20
  -4   4 -12   52.59   18.40
  -5  -4 -12  -27.00   34.30
  -5   4 -12    8.30   14.80
  -4  -5  12   11.50   13.00
  -4   5  12    0.30   12.40
  -3  -5  12    1.70   10.80
  -3   5  12   10.40   12.60
  -2  -5  12    4.90   12.00
   2   5 -12   -3.10   14.70
  -2   5  12   -4.20   10.30
  -1  -5  12   23.90   12.20
  -1   5  12   29.40   15.70
   1   5 -12   25.90   17.00
   0  -5  12    3.90   10.80
   0   5  12    0.20   11.60
   0   5 -12    2.20   14.50
   1   5  12  -11.20   10.90
  -1   5 -12   14.20   16.40
  -2  -5 -12  -24.80   34.30
   2  -5  12   25.90   13.30
   2   5  12   25.30   16.00
  -2   5 -12   23.60   17.50
  -3   5 -12    7.10   17.20
   1   6 -12   10.00   16.30
   0   6  12   10.90   15.00
   1  -6  12    7.70   14.70
   1   6  12   13.20   15.20
   2  -6  12   12.30   14.50
  -8   0  13  470.75   38.80
  -6   0  13   -5.80   11.20
  -6   0  13   -7.40   17.80
  -6   0  13    4.60    4.70
  -5   0  13   -7.50    8.70
  -5   0  13   -8.90   13.70
  -5   0  13    7.20    5.30
   5   0 -13  -10.10    9.70
  -5   0  13   -2.00    4.60
  -4   0  13   -5.80    8.00
  -4   0  13    1.50    5.40
  -4   0  13   -4.70    2.80
  -4   0  13    0.40   10.80
   4   0 -13    3.00    9.20
  -4   0  13   -2.80    4.50
   3   0 -13    0.10    7.30
  -3   0  13   -6.70    8.40
  -3   0  13   -1.10    8.50
  -3   0  13    2.40    5.10
  -3   0  13    2.00    4.90
  -2   0  13    0.40    5.10
  -2   0  13  -11.30    6.30
   2   0 -13    2.90    6.60
  -2   0  13    0.20    5.50
  -2   0  13    6.40    9.80
  -1   0  13   25.90   14.30
  -1   0  13    3.60   10.30
  -1   0  13    6.80    5.60
   1   0 -13    6.00    4.70
   0   0 -13   12.40   12.30
   0   0  13   30.40   15.20
   0   0  13   12.60    6.10
   0   0  13   11.60   12.40
   0   0 -13    8.60    4.10
   1   0  13   17.00   17.70
   1   0  13   -3.10    5.20
  -1   0 -13    2.40    4.00
  -1   0 -13    7.40   14.60
  -2   0 -13    3.00   15.80
   2   0  13   -2.90    5.60
   2   0  13   28.50   22.70
  -3   0 -13    1.70   21.10
   3   0  13    3.40   22.30
   3   0  13    0.20    6.50
   4   0  13    0.80    6.90
  -4   0 -13   -0.60   30.00
  -6   0 -13  333.37   39.00
  -7   0 -13  466.15   52.59
  -8  -1  13  470.25   34.10
  -7  -1  13  292.97   30.90
  -6  -1  13  110.19   27.00
  -6  -1  13   74.79    8.60
  -6  -1  13   63.39   24.00
  -6   1  13   61.49    9.70
  -6   1  13   61.49   29.50
   6   1 -13   55.09   16.20
  -5  -1  13   28.40   18.50
  -5  -1  13    6.00   15.20
  -5  -1  13    4.20    7.20
  -5  -1  13   14.50    6.30
   5   1 -13   16.60   11.40
  -5   1  13    3.60   20.80
  -5   1  13   19.80    7.20
  -5   1  13    5.80    8.60
  -4  -1  13   41.40   17.60
  -4  -1  13   45.10    9.20
  -4  -1  13   27.50   15.60
  -4  -1  13   23.00    7.40
  -4   1  13   28.60   18.10
  -4   1  13   30.60   10.60
  -4   1  13   39.60    9.10
   4   1 -13   34.40   12.80
  -3  -1  13   56.09   16.50
  -3  -1  13   52.69   16.60
  -3  -1  13   49.00    9.50
   3  -1 -13   55.39    9.00
  -3  -1  13   40.20    9.70
  -3   1  13   52.89   10.00
  -3   1  13   30.10   15.00
  -3   1  13   35.20   11.10
   3   1 -13   41.90   11.60
  -2  -1  13   53.39    9.90
  -2  -1  13   45.30   14.80
  -2  -1  13   36.10   14.50
   2  -1 -13   40.90    9.20
  -2   1  13   48.70    9.50
  -2   1  13   37.30   16.10
  -2   1  13   44.20   13.80
  -1  -1  13   18.20   11.30
  -1  -1  13   44.40   15.60
  -1  -1  13   47.40    9.90
   1  -1 -13   26.40    6.60
   1   1 -13   22.30    5.20
   1   1 -13   19.90   13.40
  -1   1  13   39.80   17.00
  -1   1  13   40.00    9.00
   0  -1  13   32.90   18.40
   0  -1  13   22.50    8.00
   0  -1 -13    9.80    5.80
   0  -1  13   13.80   10.60
   0   1  13   25.40   18.90
   0   1 -13   19.30   15.90
   0   1 -13    9.00    6.00
   0   1  13   22.70    8.20
   1  -1  13    5.10    6.40
   1  -1  13   11.40   18.00
  -1  -1 -13    1.70    6.00
   1  -1  13   -7.90   11.10
  -1  -1 -13    1.80   12.40
  -1   1 -13    2.70   13.10
   1   1  13   25.80   24.30
   1   1  13   -5.20    7.10
   1   1  13    0.60    5.90
   2  -1  13  102.79   23.00
  -2  -1 -13  155.98   29.80
  -2  -1 -13   93.09   25.20
   2  -1  13  114.49   13.10
  -2   1 -13   93.69   26.50
   2   1  13  117.89   13.60
   2   1  13  144.89   35.10
  -3  -1 -13  383.96   74.39
   3  -1  13  294.17   19.80
  -3  -1 -13  360.96   46.00
   3  -1  13  349.87   43.20
   3   1  13  294.77   19.70
  -4  -1 -13   -0.10   21.00
   4  -1  13   23.30    9.20
  -4  -1 -13   54.39   20.40
   4   1  13   27.90    9.90
  -5  -1 -13   51.29   20.70
  -6  -1 -13  273.77   46.40
   9   2 -13    7.30   18.80
   8   2 -13   -5.80   12.70
   6   2 -13    7.50   12.50
  -6   2  13  117.99   34.40
  -6   2  13    2.60   26.10
  -5  -2  13    9.10   19.10
  -5  -2  13   50.99   21.60
  -5  -2  13   13.10    7.00
  -5   2  13   63.69   29.20
  -5   2  13   21.30    8.70
  -5   2  13  -10.60   25.20
   5   2 -13   16.50   12.00
  -4  -2  13  251.67   16.70
  -4  -2  13  287.67   37.10
  -4  -2  13  324.67   36.80
  -4  -2  13  197.38   31.80
  -4   2  13  267.27   47.00
  -4   2  13  257.47   17.90
  -4   2  13  322.37   50.99
  -3  -2  13   49.99   17.20
  -3  -2  13   84.29   23.00
  -3  -2  13   75.19   12.90
  -3   2  13   60.09   25.80
  -3   2  13   85.49   13.90
  -3   2  13   68.09   27.00
  -2  -2  13    6.40   13.00
  -2  -2  13   17.10   14.90
  -2  -2  13    8.50    6.80
   2  -2 -13    0.80    3.40
  -2   2  13    3.70    4.80
   2   2 -13    2.60    4.20
  -2   2  13   15.20   19.30
  -2   2  13    0.00   16.70
   2   2 -13    5.10    9.10
  -2   2  13    1.00    7.00
  -1  -2  13  134.69   25.90
  -1  -2  13  119.19   24.00
   1  -2 -13  130.09   26.10
  -1  -2  13  123.89   13.30
   1  -2 -13   94.69   14.50
  -1   2  13  114.69   28.80
  -1   2  13  160.28   29.30
  -1   2  13  116.39   13.10
   1   2 -13  138.69   19.00
   1   2 -13   92.99   23.60
  -1   2  13  138.99   17.70
   0  -2  13  166.38   15.00
   0  -2 -13  151.88   27.10
   0  -2  13  165.28   24.30
   0  -2  13  150.48   29.20
   0   2  13  151.28   14.40
   0   2  13  142.39    7.50
   0   2  13  132.19   32.70
   0   2 -13  147.99   18.00
   0   2  13  159.48   24.80
   0   2 -13  126.89   28.30
   1  -2  13   60.59   14.40
   1  -2  13   77.59   26.70
   1  -2  13   99.19   15.80
  -1  -2 -13   41.10   13.90
   1   2  13  107.19   15.40
  -1   2 -13   96.09   18.60
  -1   2 -13   43.30   22.00
   1   2  13   96.29   34.60
   1   2  13   55.99   14.90
  -2  -2 -13    0.70   11.20
   2  -2  13   -4.40   22.40
   2  -2  13    6.00    7.80
   2   2  13   10.00   34.80
  -2   2 -13   18.00   12.50
   2   2  13    2.30    8.30
  -2   2 -13   -9.10   20.20
  -3  -2 -13   18.80   18.10
   3  -2  13   28.70   10.90
  -3  -2 -13   20.30   15.30
  -3   2 -13   22.80   13.50
   3   2  13   16.20    9.40
  -4  -2 -13   20.00   17.10
   4  -2  13   39.80   11.10
  -4  -2 -13   23.90   24.50
   4   2  13   32.10   11.20
  -5  -2 -13   38.60   28.10
  -6  -2 -13  103.89   31.80
   8   3 -13   24.10   16.10
  -7  -3  13    4.20   26.80
   7   3 -13   24.40   15.50
  -7   3  13   27.70   11.80
  -6  -3  13    0.10   23.50
  -6   3  13   11.50    9.70
   6   3 -13   13.10   11.70
  -6   3  13  106.79   48.20
  -5  -3  13    1.20    6.80
  -5  -3  13  -29.80   17.40
  -5   3  13   25.20   41.60
  -5   3  13    6.80    8.70
  -4  -3  13   -4.00    6.30
  -4  -3  13  -19.10   17.00
  -4  -3  13  -20.60   13.80
  -4   3  13    3.30    8.90
  -4   3  13  -27.40   33.80
  -3  -3  13   59.39   13.20
  -3  -3  13   63.99   23.60
  -3   3  13   63.19   13.80
   3   3 -13   67.09   15.50
  -3   3  13   43.60   42.30
  -3   3  13   52.19   39.10
  -2  -3  13  107.09   24.40
  -2  -3  13   60.29   22.90
  -2  -3  13   69.59   13.60
  -2   3  13   99.49   36.80
  -2   3  13  102.89   16.70
  -2   3  13   70.19   35.60
   2   3 -13   93.99   17.60
  -1  -3  13   20.40   15.70
  -1  -3  13    4.90   17.60
   1  -3 -13   -2.30   12.30
  -1  -3  13    7.70    8.00
  -1   3  13   17.30   31.00
  -1   3  13    1.70   20.80
   1   3 -13    3.80   11.10
   1   3 -13    9.60   20.70
  -1   3  13   13.80    8.90
   0  -3  13   81.29   19.80
   0  -3  13   59.49   13.90
   0  -3 -13   37.10   17.30
   0  -3  13   48.30   26.80
   0   3 -13   73.19   16.70
   0   3  13   68.49   14.90
   0   3  13   49.90   39.20
   0   3  13   38.20   23.70
   1  -3  13   33.40   31.40
   1  -3  13   79.19   16.10
   1  -3  13   27.60   11.10
  -1  -3 -13   25.30   17.20
   1   3  13   -3.30   21.30
   1   3  13   62.59   13.70
  -1   3 -13   66.29   18.00
   1   3  13   78.69   45.80
   2  -3  13   35.20   12.00
  -2  -3 -13    3.80   18.80
   2  -3  13   -1.60   29.30
   2   3  13   27.80   11.10
  -2   3 -13   19.00   12.60
   3  -3  13   17.10    9.70
  -3  -3 -13    3.90   22.20
   3   3  13   11.90   10.50
  -3   3 -13   14.00   13.00
  -4  -3 -13   35.10   31.50
  -4   3 -13   45.50   16.10
  -5  -3 -13   20.70   31.30
  -5   3 -13   31.10   16.60
  -7   4  13   12.70   13.40
   7   4 -13    6.30   11.90
  -6  -4  13  -28.90   25.20
  -6   4  13    0.50   10.80
  -5  -4  13  -17.40   25.70
  -5  -4  13   12.80   10.20
  -5   4  13   15.60   12.00
  -5   4  13  -46.30   62.19
  -4  -4  13    6.10    8.70
  -4  -4  13  -10.10   20.10
  -4   4  13  -55.59   50.79
  -4   4  13    7.20   10.40
  -3  -4  13    9.00   24.40
  -3  -4  13   44.40   13.70
  -3  -4  13  -19.20   23.10
  -3   4  13  -17.70   46.50
   3   4 -13   33.10   13.80
  -3   4  13   39.00   14.20
  -2  -4  13   12.80   11.00
  -2  -4  13   12.90   25.50
   2   4 -13   13.40   12.50
  -2   4  13  -50.39   38.50
  -2   4  13   28.00   12.60
  -1  -4  13  -27.00   23.80
  -1  -4  13    4.10    8.10
   1  -4 -13  -12.00   19.00
  -1   4  13   12.10   10.60
  -1   4  13  -68.09   43.10
   1   4 -13   -4.00   11.10
   0  -4  13    2.40    9.30
   0  -4  13  -46.00   30.30
   0   4 -13    0.60   12.30
   0   4  13  -37.80   43.70
   0   4  13    0.40   10.40
  -1  -4 -13    0.70   23.50
   1  -4  13   26.40   12.30
   1  -4  13  -63.09   40.10
   1   4  13   23.30   13.50
  -1   4 -13   12.20   14.70
   2  -4  13   23.50   12.40
  -2  -4 -13    4.40   26.30
  -2   4 -13   32.80   15.80
   2   4  13   32.50   15.30
  -3  -4 -13  -14.40   32.50
   3  -4  13   29.10   12.70
   3   4  13   22.50   12.60
  -3   4 -13   27.00   15.20
  -4  -4 -13  -35.80   31.20
  -4   4 -13   22.40   16.70
  -5  -4 -13  -33.50   37.30
  -4  -5  13    5.70   12.10
  -4   5  13    2.00   11.80
  -3  -5  13   -7.50   10.10
  -3   5  13  -14.00   10.80
  -2  -5  13    0.10   10.50
  -2   5  13    8.50   12.80
   2   5 -13   20.30   15.70
  -1  -5  13   37.30   15.10
   1   5 -13   16.10   15.30
  -1   5  13   13.10   13.00
   0  -5  13   -2.30   10.80
   0   5 -13   -9.50   13.60
   0   5  13   11.20   13.90
   1  -5  13   13.80   12.30
  -1   5 -13   -3.10   15.30
   1   5  13    5.90   13.40
   2  -5  13   27.60   13.90
  -2   5 -13   14.30   16.70
   2   5  13   28.10   16.80
  -3   5 -13   -1.20   16.50
  -8   0  14  361.96   34.40
  -7   0  14  271.47   35.50
  -6   0  14   63.79    9.50
  -6   0  14   87.49   29.30
  -6   0  14   47.90   18.10
  -5   0  14    6.20    5.50
  -5   0  14   -3.90    9.90
  -5   0  14  -13.80   15.90
   4   0 -14   10.10   10.60
  -4   0  14   25.40    7.90
  -4   0  14   18.10   12.10
  -4   0  14   21.40   16.20
   3   0 -14  123.49   13.70
  -3   0  14   87.19   20.80
  -3   0  14  120.29   11.70
  -3   0  14  107.99   12.10
  -3   0  14  125.59   24.00
   2   0 -14  334.27   16.90
  -2   0  14  357.76   36.50
  -2   0  14  356.76   33.20
  -2   0  14  300.67   17.20
  -1   0  14  376.66   38.40
   1   0 -14  364.46   14.50
  -1   0  14  357.06   19.00
  -1   0  14  415.96   40.30
   0   0 -14  309.07   54.99
   0   0  14  308.07   38.10
   0   0  14  346.87   40.30
   0   0 -14  277.77   21.20
   0   0  14  278.27   17.50
  -1   0 -14   11.10    6.20
   1   0  14   11.70   19.50
  -1   0 -14   11.10   18.10
   1   0  14   14.70    7.60
   2   0  14  358.26   21.30
  -2   0 -14  484.85   77.59
   2   0  14  441.16   58.19
  -3   0 -14  242.08   45.40
   3   0  14  275.27   18.70
   3   0  14  245.58   38.90
   4   0  14   84.79   14.50
  -5   0 -14  320.37   41.90
  -6   0 -14  402.56   44.10
  -8  -1  14  499.35   35.90
  -7   1  14  103.79   29.00
  -6  -1  14   30.30   21.80
  -6  -1  14   74.79   24.00
  -6   1  14   28.30   26.90
   6   1 -14   38.40   16.40
  -5  -1  14  115.79   30.70
  -5  -1  14   79.09   23.80
  -5  -1  14   84.99   10.30
   5   1 -14   83.89   18.10
  -5   1  14   47.70   13.80
  -5   1  14   86.19   10.80
  -5   1  14   76.19   31.10
  -4  -1  14   -0.80   12.10
  -4  -1  14   -3.60   13.10
  -4  -1  14    6.50    6.10
  -4  -1  14   -8.30    5.00
   4   1 -14   12.10   10.30
  -4   1  14    0.80    5.90
  -4   1  14  -10.00   17.60
  -4   1  14   -7.80    8.80
  -3  -1  14   85.69   20.70
  -3  -1  14   90.19   13.40
  -3  -1  14   86.59   11.00
  -3  -1  14   94.49   22.30
  -3   1  14   65.79   15.50
  -3   1  14   86.79   25.10
  -3   1  14   88.79   11.30
   3   1 -14   95.99   15.30
  -2  -1  14   20.10   13.00
  -2  -1  14   17.40   12.30
  -2  -1  14   19.00    7.90
  -2   1  14   25.00   14.00
  -2   1  14   12.60    7.00
  -2   1  14   19.80   17.00
   1  -1 -14   37.60    7.50
  -1  -1  14   45.00   15.20
  -1  -1  14   64.39   11.70
  -1  -1  14   54.99   19.30
   1   1 -14   29.30    5.80
  -1   1  14   53.49   10.40
   1   1 -14   32.60   16.70
  -1   1  14   43.50   19.10
   0  -1  14   49.00   15.40
   0  -1  14   62.79   21.10
   0  -1 -14   40.30    9.20
   0  -1  14   83.29   13.30
   0   1 -14   37.40    8.60
   0   1  14   65.69   22.60
   0   1 -14   50.09   21.50
   0   1  14   86.09   13.40
   1  -1  14  113.89   15.50
   1  -1  14  105.19   26.10
   1  -1  14   81.89   20.50
   1   1  14   98.09   31.90
   1   1  14   95.19   13.70
   1   1  14  102.79   17.40
  -2  -1 -14  277.47   35.60
   2  -1  14  227.58   17.40
   2  -1  14  184.48   29.40
  -2  -1 -14  157.48   30.40
  -2   1 -14  342.97   74.09
   2   1  14  233.18   42.60
   2   1  14  248.88   18.70
   3  -1  14   12.10   20.10
  -3  -1 -14   23.80   22.90
  -3  -1 -14   48.00   18.90
   3  -1  14   36.00   10.50
   3   1  14   45.50   11.70
  -3   1 -14   11.40   27.60
  -4  -1 -14   45.90   18.60
   4  -1  14   17.90    8.60
   4   1  14   25.30   10.10
  -5  -1 -14  119.39   29.70
  -6  -1 -14  344.17   50.99
  -8   2  14   26.00   34.10
   8   2 -14   -6.60   12.90
  -7   2  14   -0.90   30.90
  -6   2  14    9.80   28.90
  -5  -2  14   31.20    9.20
  -5  -2  14   25.00   21.60
  -5  -2  14   83.69   24.60
   5   2 -14   18.40   11.50
  -5   2  14  106.99   35.00
  -5   2  14   -1.10   30.50
  -5   2  14   34.20   10.40
  -4  -2  14   77.09   23.40
  -4  -2  14   62.19   22.00
  -4  -2  14   72.89   12.40
  -4   2  14  102.89   36.20
  -4   2  14   62.29   33.80
  -4   2  14   78.19   13.60
  -3  -2  14  263.87   37.00
  -3  -2  14  282.07   36.70
  -3  -2  14  272.57   18.20
  -3   2  14  283.37   48.40
  -3   2  14  261.47   49.80
  -3   2  14  258.47   18.70
  -2  -2  14   33.90    9.40
  -2  -2  14   23.60   17.90
  -2  -2  14   21.40   15.50
   2  -2 -14   15.50    5.80
   2   2 -14   14.60    5.30
  -2   2  14   28.50   27.30
  -2   2  14   23.80   21.20
  -2   2  14   22.50    9.60
  -2   2  14   12.90    5.80
   1  -2 -14   76.89   14.30
   1  -2 -14   80.89   14.70
  -1  -2  14  131.49   25.00
  -1  -2  14  113.39   25.90
  -1  -2  14  115.89   16.00
   1   2 -14   57.89   11.30
   1   2 -14   64.59   23.40
  -1   2  14   96.69    8.00
  -1   2  14  125.99   28.60
  -1   2  14  123.29   35.90
   1   2 -14  125.09   19.70
  -1   2  14  137.39   17.50
   0  -2  14    5.90   11.80
   0  -2 -14   13.00    9.70
   0  -2  14   18.90    9.30
   0  -2  14   23.40   22.20
   0   2  14    7.80   13.70
   0   2 -14   24.80   20.80
   0   2  14   35.70   31.50
   0   2  14   26.70   10.10
   0   2 -14   19.50   12.90
   1  -2  14   -3.80   10.80
   1  -2  14   -1.80   22.90
  -1  -2 -14    3.80    9.70
   1  -2  14    6.70    8.50
   1   2  14  -12.20   10.10
  -1   2 -14   -0.20   20.60
  -1   2 -14    2.70   10.80
   1   2  14   16.40   33.30
   1   2  14    1.40    7.20
   2  -2  14   -0.70    7.70
  -2  -2 -14   -5.10   11.10
   2   2  14   13.90   36.60
   2   2  14   11.40    8.80
  -2   2 -14  -11.60   23.80
  -2   2 -14    9.50   11.90
   3  -2  14   17.20    9.20
  -3  -2 -14   16.50   19.20
   3   2  14   26.70   11.30
   4  -2  14    7.80    8.10
  -4  -2 -14  -31.90   20.70
  -4  -2 -14    1.00   17.20
   4   2  14    4.70    8.50
  -5  -2 -14   29.60   26.00
  -6  -2 -14   77.19   31.10
   8   3 -14   14.70   15.30
  -6  -3  14  -22.00   23.70
  -6   3  14    8.50   10.00
   6   3 -14   15.70   12.90
  -5  -3  14    9.60    8.60
  -5  -3  14   -8.80   21.30
  -5   3  14   35.70   40.50
  -5   3  14    7.20    9.50
  -4  -3  14    0.80   17.70
  -4  -3  14   26.60   10.70
  -4   3  14   14.50   43.20
  -4   3  14   30.10   11.60
  -3  -3  14   70.49   14.10
  -3  -3  14   33.80   16.30
  -3  -3  14   50.29   23.80
  -3   3  14   66.99   14.20
  -3   3  14   57.69   43.00
   3   3 -14   59.19   14.80
  -3   3  14    9.00   44.90
  -2  -3  14   54.79   25.00
  -2  -3  14  108.69   26.90
  -2  -3  14   64.89   13.10
   2   3 -14   78.29   17.50
  -2   3  14   50.89   33.20
  -2   3  14   38.90   38.80
  -2   3  14   81.69   15.50
  -1  -3  14    7.20    8.60
  -1  -3  14    3.40   13.90
  -1  -3  14   -7.20   19.40
   1  -3 -14  -10.30   11.60
  -1   3  14    7.90    8.50
  -1   3  14  -17.10   19.20
   1   3 -14   -5.80   21.30
   1   3 -14   -7.00   10.20
  -1   3  14  -29.40   34.90
   0  -3  14   16.40    9.30
   0  -3  14   -2.10   23.00
   0  -3  14   12.50   14.00
   0  -3 -14    1.20   13.70
   0   3  14    3.80    9.40
   0   3 -14    5.10   12.30
   0   3  14  -18.90   39.10
   0   3  14   -9.60   20.10
   1  -3  14   16.60   10.60
  -1  -3 -14    3.30   15.20
   1  -3  14    1.40   32.30
   1  -3  14   33.00   11.00
   1   3  14   37.80   12.20
  -1   3 -14   24.40   13.80
   1   3  14   42.70   43.10
   2  -3  14  -48.10   27.70
  -2  -3 -14  -16.40   15.80
   2  -3  14    5.90    9.10
   2   3  14    4.70    9.00
  -2   3 -14    5.30   13.20
  -3  -3 -14  -22.50   19.90
   3  -3  14   15.90   10.40
  -3   3 -14   20.40   14.80
   3   3  14   16.00   11.60
  -4  -3 -14  -11.70   23.90
  -4   3 -14   12.70   14.50
  -5  -3 -14    7.30   31.00
   7   4 -14    4.80   13.50
  -6   4  14    0.40   11.00
  -5  -4  14  -16.10   22.10
  -5  -4  14   17.70   10.40
  -5   4  14   -2.70   10.60
  -5   4  14  -98.99   58.49
  -4  -4  14   17.20   11.00
  -4  -4  14  -13.20   21.50
  -4   4  14   43.30   15.00
  -4   4  14  -49.50   54.89
  -3  -4  14   67.39   15.50
  -3  -4  14   14.40   26.00
  -3  -4  14   -6.50   23.60
  -3   4  14   78.59   17.50
  -3   4  14   30.30   51.79
  -2  -4  14   13.50   10.10
   2   4 -14   18.00   14.20
  -2   4  14    9.50   10.30
   0  -4  14   22.10   11.50
   0  -4 -14  -13.30   21.20
   0  -4  14  -56.59   34.60
   0   4  14  -66.09   53.19
   0   4  14   20.70   12.30
   0   4 -14   18.30   14.40
  -1  -4 -14  -25.50   21.60
   1  -4  14   -3.90    9.00
   1   4  14   -2.40   10.20
  -1   4 -14    4.60   13.60
   2  -4  14   51.39   15.80
   2   4  14   63.39   18.40
  -2   4 -14   57.09   19.80
  -3  -4 -14  -30.80   30.60
   3  -4  14   40.80   15.00
   3   4  14   21.20   12.80
  -3   4 -14   29.30   17.30
  -4  -4 -14  -37.60   36.00
  -4   4 -14    3.60   15.30
  -4   5  14    2.90   13.20
  -3  -5  14    6.60   11.40
  -3   5  14   -3.10   11.90
  -1  -5  14   19.60   13.30
   1   5 -14    7.30   13.40
  -1   5  14   -1.20   11.50
   0  -5  14   20.50   13.80
   0   5  14   15.00   14.70
   0   5 -14   13.40   15.40
   1  -5  14   22.10   13.30
   1   5  14   29.60   16.40
  -1   5 -14    9.40   16.70
   2  -5  14   30.10   14.90
   2   5  14   36.50   17.20
  -2   5 -14   19.90   17.30
  -8   0  15  366.86   38.00
  -7   0  15  222.28   31.90
  -6   0  15   -2.50    4.80
  -6   0  15  -16.00   12.10
  -6   0  15   31.70   23.20
  -5   0  15    2.20    5.30
  -5   0  15   -4.60   19.80
  -5   0  15   -5.90   11.50
  -4   0  15  -17.70   13.00
  -4   0  15    0.50    5.90
  -4   0  15   -5.90   11.00
   4   0 -15    0.10    9.20
  -3   0  15    3.80    6.60
  -3   0  15   -5.40   13.50
   3   0 -15    9.20    9.00
  -3   0  15    8.70   12.30
  -3   0  15   -0.90    5.60
  -2   0  15    1.10    6.30
  -2   0  15   12.60   14.40
  -2   0  15    4.00   13.60
   2   0 -15    1.10    7.10
  -1   0  15    5.90   15.00
  -1   0  15   38.10   19.50
  -1   0  15    1.90    6.30
   1   0 -15    8.50    5.50
   0   0 -15    1.10   13.90
   0   0 -15    4.10    3.90
   0   0  15   12.00   17.40
   0   0  15   26.20   17.90
   0   0  15    9.80    7.10
  -1   0 -15   -4.10   18.90
   1   0  15   14.80   23.90
  -1   0 -15    1.80    4.70
   1   0  15   -0.30    6.50
   2   0  15    3.30    7.10
  -2   0 -15    1.50   22.10
   2   0  15   -2.40   24.80
  -2   0 -15   12.90    7.50
   3   0  15    5.50    7.30
   3   0  15  -18.10   26.70
  -3   0 -15   25.00   10.30
  -5   0 -15  352.56   41.60
  -6   0 -15  377.76   41.90
  -8   1  15  203.38   37.70
  -7  -1  15  304.87   32.10
  -6  -1  15   97.89   25.20
  -5  -1  15   10.00   19.30
  -5  -1  15    2.30    5.90
  -5  -1  15   -3.80   14.50
  -5   1  15  -22.30   22.60
   5   1 -15    3.10   11.10
  -5   1  15   15.60    7.50
  -5   1  15   -8.70    9.20
  -4  -1  15    4.70   15.40
  -4  -1  15   13.30   19.40
  -4  -1  15   28.30    8.90
  -4   1  15   30.10    9.40
  -4   1  15   -1.00   10.70
   4   1 -15   20.90   11.40
  -4   1  15   11.40   22.00
  -3  -1  15   72.49   21.20
  -3  -1  15   81.89   24.00
  -3  -1  15   90.59   13.00
  -3   1  15   67.69   25.70
   3   1 -15   80.89   14.50
  -3   1  15   83.09   12.90
  -3   1  15   60.89   16.90
  -2  -1  15  103.69   12.00
  -2  -1  15   99.89   22.70
  -2  -1  15  127.79   26.90
  -2   1  15  104.69   12.20
  -2   1  15  109.99   27.30
  -2   1  15  125.69   21.60
  -1  -1  15  430.26   22.30
  -1  -1  15  485.95   48.40
   1  -1 -15  429.46   26.20
  -1  -1  15  469.95   43.10
  -1   1  15  483.25   48.60
  -1   1  15  424.46   22.30
   1   1 -15  415.66   22.00
   0  -1  15   75.69   13.00
   0  -1  15   76.39   20.50
   0  -1  15   76.19   26.20
   0   1  15   80.69   30.00
   0   1 -15   61.99   23.70
   0   1  15   94.09   14.60
   0   1  15   88.69   17.70
   1  -1  15  123.19   25.40
  -1  -1 -15  170.98   27.70
   1  -1  15  143.79   14.90
   1  -1  15  139.39   30.40
   1   1  15  152.68   39.40
   1   1  15  173.18   25.20
   1   1  15  157.68   15.40
  -1   1 -15   96.49   29.30
   2  -1  15   21.80    9.10
  -2  -1 -15   27.70   21.30
  -2  -1 -15   19.70   11.80
   2  -1  15  -11.80   20.20
  -2   1 -15   15.10   23.80
   2   1  15   45.20   11.90
   2   1  15   30.50   33.90
   3  -1  15    8.70    8.30
  -3  -1 -15    7.30   12.70
   3   1  15    4.00    8.30
   3   1  15   -6.40   34.40
   4  -1  15   11.40    7.90
  -4  -1 -15   37.50   18.00
   4   1  15    5.00    8.00
  -5  -1 -15   62.89   20.70
  -6  -1 -15  419.16   58.09
  -8  -2  15   49.90   32.40
   8   2 -15   -7.90   12.20
  -8   2  15    6.60   39.10
  -5  -2  15   62.29   25.80
  -5  -2  15   88.49   13.60
   5   2 -15   67.89   16.90
  -5   2  15   86.49   14.10
  -5   2  15   66.39   38.80
  -4  -2  15   17.50   18.20
  -4  -2  15   48.00   22.90
  -4  -2  15   18.60    8.70
  -4   2  15   40.40   29.00
  -4   2  15   10.30    8.70
  -4   2  15    3.60   31.60
  -3  -2  15   76.59   13.40
  -3  -2  15   93.29   26.70
  -3  -2  15   71.99   22.80
  -3   2  15  164.38   41.90
  -3   2  15   99.99   15.50
  -3   2  15   85.59   36.40
  -2  -2  15  297.57   36.50
  -2  -2  15  271.27   18.90
  -2  -2  15  281.37   41.70
  -2   2  15  279.57   52.09
  -2   2  15  331.47   49.20
  -2   2  15  243.28   18.40
   1  -2 -15   11.40    9.50
  -1  -2  15   26.10   20.90
  -1  -2  15   34.90   10.50
  -1  -2  15   20.50   17.50
   1   2 -15   17.70   21.30
   1   2 -15    8.40    7.00
  -1   2  15   24.40   20.20
  -1   2  15   31.40   10.20
  -1   2  15   23.00   31.50
   0  -2  15  175.28   33.80
   0  -2  15  206.28   33.10
   0  -2 -15  214.18   33.50
   0  -2  15  209.28   18.10
   0   2 -15  169.28   36.20
   0   2  15  173.68   43.80
   0   2  15  187.08   36.40
   0   2  15  210.28   17.90
  -1  -2 -15   66.09   17.70
   1  -2  15   58.49   28.50
   1  -2  15   99.19   16.20
   1  -2  15   51.49   17.50
   1   2  15   47.70   15.50
  -1   2 -15   57.69   28.20
   1   2  15  106.09   44.50
   1   2  15   98.79   16.40
   2  -2  15   36.90   11.50
  -2  -2 -15   21.70   16.90
   2   2  15   29.90   44.30
   2   2  15   28.40   11.30
  -3  -2 -15  -12.40   14.80
   3  -2  15    6.10    8.00
   3   2  15    5.60    8.60
   4  -2  15   25.00   10.70
  -4  -2 -15   17.80   25.30
   4   2  15   17.20   11.60
  -5  -2 -15   43.90   27.90
  -6  -2 -15  161.48   39.60
   8   3 -15   -0.10   13.60
   7   3 -15   16.20   16.20
  -7   3  15    2.30    9.50
  -6   3  15  173.38   50.69
  -5   3  15  128.09   47.10
  -4  -3  15   45.60   25.10
  -4  -3  15   46.10   12.00
  -4   3  15   52.69   13.40
  -4   3  15  -62.29   49.10
  -4   3  15   76.49   45.00
  -3  -3  15   20.20    9.50
  -3  -3  15    6.40   20.30
  -3   3  15  -48.00   45.50
  -3   3  15    9.50    9.50
  -3   3  15   -4.70   37.30
   3   3 -15   21.40   12.10
  -2  -3  15   20.60   10.30
  -2  -3  15   49.40   21.50
  -2  -3  15    6.20   21.00
  -2   3  15  -40.20   38.30
  -2   3  15   26.80   11.60
  -2   3  15   -9.00   32.70
   2   3 -15   32.40   14.30
   1  -3 -15   41.10   16.80
  -1  -3  15  102.09   24.30
  -1  -3  15   72.49   14.60
  -1  -3  15   63.19   29.30
  -1   3  15   51.39   28.50
  -1   3  15   24.30   44.70
   1   3 -15  112.19   21.10
   1   3 -15   55.99   30.00
  -1   3  15   63.59   13.90
   0  -3  15   67.59   18.40
   0  -3  15   21.50   30.80
   0  -3 -15   29.20   17.30
   0  -3  15   46.70   13.10
   0   3  15   61.89   14.90
   0   3  15   -9.10   39.90
   0   3  15   12.60   22.60
   0   3 -15   37.80   14.60
  -1  -3 -15  -17.00   13.00
   1  -3  15  -36.70   32.80
   1  -3  15   -9.70    9.90
   1  -3  15   -6.80    8.00
   1   3  15  -21.80   51.19
  -1   3 -15   -1.30   13.00
   1   3  15   15.20    9.90
   2  -3  15  -20.50   32.50
  -2  -3 -15  -13.20   19.10
   2  -3  15    6.50    9.90
   2   3  15    5.80   10.70
  -2   3 -15    5.50   13.70
   3  -3  15   30.60   11.90
  -3  -3 -15   13.70   26.20
   3   3  15   25.20   12.90
  -3   3 -15   30.90   16.80
  -4  -3 -15  -28.20   26.10
  -5  -3 -15   -1.70   31.60
   7   4 -15    7.60   14.40
  -6   4  15   -1.50   11.10
  -5  -4  15   17.20   11.00
  -5   4  15   19.00   13.00
  -5   4  15  -41.30   66.29
  -3  -4  15   36.70   28.20
  -3  -4  15  102.59   18.80
  -3   4  15   42.70   53.19
  -3   4  15   89.89   18.30
   2   4 -15   28.50   14.50
  -2   4  15   18.40   12.50
   0  -4  15    5.60    9.90
   0  -4 -15  -30.50   20.50
   0   4  15   -7.30    8.90
   0   4 -15   17.80   15.10
  -1  -4 -15  -32.20   22.50
   1  -4  15    9.10   10.10
   1   4  15   14.00   13.50
  -1   4 -15   11.20   15.50
  -2  -4 -15  -31.30   24.60
   2  -4  15   12.10   12.60
  -2   4 -15    1.50   14.90
   2   4  15    9.00   14.10
   3  -4  15   43.20   15.90
  -3  -4 -15  -43.40   35.30
  -3   4 -15   15.90   17.40
   3   4  15   26.20   14.50
  -4  -4 -15  -32.50   37.10
  -2  -5  15    9.90   13.90
  -2   5  15   -6.70   12.90
  -1  -5  15   23.60   14.00
  -1   5  15    1.00   12.90
   1   5 -15    3.90   16.60
   0  -5  15   23.60   14.90
   0   5  15   21.20   15.60
   1  -5  15   21.70   13.40
  -1   5 -15   11.90   16.60
   1   5  15   -2.80   13.10
   2  -5  15   35.90   15.80
   2   5  15   30.00   17.90
  -2   5 -15   41.30   20.10
  -8   0  16  367.86   39.30
  -7   0  16  257.27   36.10
  -6   0  16   81.29   11.70
  -6   0  16   43.00   19.60
  -6   0  16  142.69   32.40
  -5   0  16  -19.20   11.40
  -5   0  16    5.10    6.00
  -5   0  16    0.90   23.00
  -4   0  16   -9.50   12.40
  -4   0  16  -16.40   16.20
  -4   0  16   -0.80    6.50
   4   0 -16    0.80   10.70
  -3   0  16   76.59   25.90
  -3   0  16   85.49   13.30
   3   0 -16  110.39   15.90
  -3   0  16   64.59   19.00
  -2   0  16   52.79   20.80
   2   0 -16   51.69   10.50
  -2   0  16   41.90   21.90
  -2   0  16   38.90   10.40
  -1   0  16   19.10   20.40
  -1   0  16   16.10    8.60
  -1   0  16   21.40   19.30
   0   0  16   18.40   22.30
   0   0  16   28.20   10.00
   0   0  16   35.50   20.80
   1   0  16  365.46   56.59
  -1   0 -16  386.96   33.10
   1   0  16  348.17   21.80
  -1   0 -16  426.56   80.99
   2   0  16  238.38   42.30
   2   0  16  263.87   19.40
   3   0  16   97.59   15.20
   3   0  16   21.10   33.50
  -5   0 -16  349.87   40.40
  -6   0 -16  553.94   54.39
  -8   1  16  199.58   40.90
  -7  -1  16  332.67   33.70
  -6  -1  16  169.68   30.60
  -5  -1  16   15.40   19.70
  -5  -1  16   43.20   10.00
  -5  -1  16   54.99   25.40
  -5   1  16   24.90    9.20
  -5   1  16   20.40   29.20
   5   1 -16   21.50   13.30
  -4  -1  16   15.50   17.10
  -4  -1  16   34.70   23.70
  -4  -1  16   39.30   10.00
  -4   1  16   16.70   25.90
  -4   1  16   29.50    9.50
  -4   1  16    1.80   12.90
   4   1 -16   30.30   12.10
  -3  -1  16    2.00   14.80
  -3  -1  16   -5.00   16.20
  -3  -1  16    6.70    7.10
  -3   1  16   -9.50   13.90
  -3   1  16    4.80    7.70
   3   1 -16    5.10    8.90
  -3   1  16    8.30   20.90
  -2  -1  16  101.29   12.70
  -2  -1  16   79.29   22.00
  -2  -1  16  112.99   27.00
  -2   1  16  101.99   29.00
  -2   1  16   96.89   20.80
  -2   1  16   95.69   14.30
  -1  -1  16   17.30   21.00
  -1  -1  16    1.40   15.50
  -1  -1  16   12.30    7.60
  -1   1  16   11.70    8.40
  -1   1  16   23.40   23.70
   0  -1  16   12.20   23.20
   0  -1  16   11.10    8.10
   0  -1  16    0.60   16.90
   0   1  16    5.30   27.00
   0   1 -16    8.70   19.80
   0   1  16   17.20   11.10
   0   1  16   11.20    8.20
   1  -1  16   29.80   23.30
  -1  -1 -16   21.70   10.50
   1  -1  16   38.40   11.60
   1  -1  16    5.00   20.20
   1   1  16   37.10   11.40
  -1   1 -16   24.30   26.00
   1   1  16   11.20   33.30
  -2  -1 -16    6.90   10.80
  -2  -1 -16   30.50   24.50
   2  -1  16   21.40   10.30
   2   1  16   13.20    9.90
   2   1  16  -23.90   34.60
   3  -1  16   11.90    9.00
  -3  -1 -16   23.00   15.00
   3   1  16    6.90    8.90
   4  -1  16   10.70    8.30
   4   1  16    2.00    8.30
  -5  -1 -16  201.98   40.80
  -6  -1 -16  392.46   57.29
   8   2 -16    1.50   15.20
  -5   2  16  -18.80   34.40
   5   2 -16   21.80   13.50
  -4  -2  16   25.90   20.30
  -4  -2  16   12.50   21.20
  -4  -2  16    3.80    7.40
  -4   2  16   17.60    9.40
  -4   2  16   68.49   32.40
  -4   2  16  -16.50   34.60
  -3  -2  16   12.10   19.70
  -3  -2  16   29.70   10.60
  -3  -2  16   32.40   22.00
  -3   2  16   16.10   32.60
  -3   2  16   30.20   10.60
  -3   2  16   68.69   31.30
  -2  -2  16   85.29   25.60
  -2  -2  16   63.59   25.00
  -2  -2  16   74.39   14.30
  -2   2  16   79.19   14.80
  -2   2  16   50.99   38.70
  -2   2  16  122.19   34.70
  -1  -2  16   32.00   10.30
  -1  -2  16   34.60   20.90
  -1  -2  16   31.80   23.10
   1  -2 -16    8.70    9.70
   1   2 -16   27.40   24.40
  -1   2  16   54.79   25.70
  -1   2  16   52.19   12.60
  -1   2  16   20.80   32.30
   0  -2 -16    0.70    9.80
   0  -2  16   28.50   26.70
   0  -2  16    7.80   15.20
   0  -2  16   18.50    9.50
   0   2  16   -2.50   33.80
   0   2 -16   12.30   26.00
   0   2  16   22.00   10.30
   0   2  16   21.20   15.90
   1  -2  16    2.80   16.10
   1  -2  16   24.80   28.90
   1  -2  16   46.70   13.30
  -1  -2 -16   21.70   13.40
   1   2  16   22.90   13.80
   1   2  16   36.40   46.30
   1   2  16   53.99   13.60
   2  -2  16   33.10   11.40
  -2  -2 -16   26.30   18.10
   2   2  16   -7.90   49.00
   2   2  16   31.20   11.10
   3  -2  16   -1.20    7.60
  -3  -2 -16    3.40   18.60
   3   2  16    5.70    9.70
  -4  -2 -16    7.10   22.80
  -5  -2 -16   64.19   31.20
   7   3 -16    0.20   13.90
  -7   3  16    2.30   10.40
  -6   3  16  237.68   57.69
  -5   3  16  134.99   47.10
  -4   3  16   89.99   46.10
  -3  -3  16   -8.00   18.80
  -3  -3  16   17.40    9.70
  -3   3  16   49.30   39.20
  -3   3  16   17.50   11.20
  -2  -3  16    4.00    8.00
  -2  -3  16  -14.00   21.10
  -2   3  16    9.00   10.00
   2   3 -16    2.30   11.30
  -2   3  16  -20.00   31.50
  -1  -3  16   -1.10    8.20
   1  -3 -16  -10.60   11.60
  -1  -3  16   30.10   17.90
  -1  -3  16  -24.50   22.10
  -1   3  16    1.50    9.00
   1   3 -16    0.40   11.30
  -1   3  16  -24.00   21.20
   0  -3  16  -23.10   27.30
   0  -3  16   13.70   10.30
   0  -3  16   38.30   15.40
   0  -3 -16    6.10   15.90
   0   3  16  -69.09   47.30
   0   3  16   22.90   11.30
   0   3  16  -11.40   21.10
   0   3 -16   41.30   15.90
  -1  -3 -16   -8.30   14.40
   1  -3  16  -39.50   33.40
   1  -3  16   -5.70    8.00
   1   3  16  -77.09   54.39
   1   3  16    6.00   10.80
  -1   3 -16   13.00   14.10
  -2  -3 -16  -27.20   18.60
   2  -3  16  -62.69   35.40
   2  -3  16    7.10    9.80
   2   3  16    9.80   10.70
  -2   3 -16   -0.80   12.90
   3  -3  16   14.10   10.90
  -3  -3 -16   -4.40   25.40
  -3   3 -16   23.10   15.60
   3   3  16    8.40   10.70
  -4  -3 -16  -16.80   28.40
  -5  -3 -16   35.90   38.60
   7   4 -16    7.70   15.60
  -3  -4  16   -8.00   25.80
  -3  -4  16   50.29   15.20
  -3   4  16  -44.60   48.40
  -3   4  16   49.30   15.30
   1   4 -16   23.60   14.20
   0  -4  16    6.00   10.70
   0   4 -16    6.90   13.90
   0   4  16   15.50   13.10
   1  -4  16   15.80   11.50
  -1   4 -16    9.20   14.80
   1   4  16   23.70   14.30
   2  -4  16   15.60   14.40
  -2   4 -16   12.50   15.50
   2   4  16    7.60   13.10
  -3   4 -16   14.40   17.90
  -4  -4 -16  -45.40   41.40
  -4  -5  16  850.51   41.10
  -3  -5  16  805.32   41.20
  -2  -5  16   23.70   15.10
  -2   5  16   13.70   15.50
  -1   5  16    2.80   13.00
   1   5 -16    2.90   15.90
   0  -5  16    4.90   12.90
   0   5  16   34.10   17.70
   0   5 -16    3.30   16.60
   1  -5  16   14.50   14.80
   1   5  16   -3.40   13.90
  -1   5 -16   11.70   16.40
   2  -5  16   36.80   18.10
   2   5  16   27.90   17.10
  -6   0  17   80.49   27.60
  -6   0  17    8.30    6.60
  -5   0  17  -18.80   22.70
  -5   0  17    0.60    6.00
  -4   0  17    0.70    6.70
  -4   0  17  -29.50   19.90
  -4   0  17  -10.50   14.50
  -3   0  17   -5.60   19.80
  -3   0  17   -2.30    6.60
  -3   0  17   -2.90   15.70
  -2   0  17  -15.50   18.20
  -2   0  17   -0.50   17.70
  -2   0  17   -1.40    7.20
  -1   0  17   -2.70   21.30
  -1   0  17    7.90   20.40
  -1   0  17   -1.80    7.20
   0   0  17    7.50    8.50
   0   0 -17   -0.60    4.10
   0   0  17  -16.10   23.50
   1   0  17  -19.40   27.10
  -1   0 -17   27.50   25.20
  -1   0 -17    9.20    6.00
   1   0  17    8.90    8.20
   2   0  17    5.40    8.20
  -2   0 -17   20.10    8.60
  -5   0 -17  428.26   44.40
  -6   0 -17  669.53   59.29
  -7  -1  17  347.37   34.70
  -6  -1  17  179.18   30.50
  -5  -1  17   82.79   28.90
  -5  -1  17   -6.80   20.80
  -5  -1  17   31.70    9.50
  -5   1  17   25.80    9.30
   5   1 -17   31.10   14.00
  -5   1  17   29.70   31.60
  -4  -1  17   52.79   22.60
  -4  -1  17  115.69   32.50
  -4  -1  17  105.79   13.20
  -4   1  17  125.39   16.80
  -4   1  17  104.09   37.80
   4   1 -17  104.99   18.00
  -3  -1  17  162.28   15.20
  -3  -1  17  137.69   29.60
  -3  -1  17  177.28   33.70
  -3   1  17  171.98   41.40
  -3   1  17  154.68   15.10
  -3   1  17  109.79   23.20
   3   1 -17  141.49   15.70
  -2  -1  17   13.20   18.90
  -2  -1  17   17.10    9.20
  -2  -1  17   14.00   19.40
  -2   1  17   -5.40   15.90
  -2   1  17    0.90   23.80
  -2   1  17   24.60    9.40
   2   1 -17   27.40    9.70
  -1  -1  17   29.30   21.90
  -1  -1  17   16.10    8.40
  -1  -1  17    0.60   22.30
  -1   1  17   28.50   10.70
  -1   1  17   21.20   28.60
   0  -1  17   16.10   22.00
   0  -1  17   37.30   12.10
   0  -1  17   22.80   25.10
   0  -1 -17   16.00    8.20
   0   1  17   28.80   10.40
   0   1 -17   34.10   26.40
   0   1  17   10.40   34.40
  -1  -1 -17    2.00    7.90
   1  -1  17    7.40    8.50
   1  -1  17  -28.60   20.80
   1   1  17  -34.30   34.20
   1   1  17    2.20    8.40
   2  -1  17  -31.20   25.60
   2  -1  17   47.20   12.80
   2   1  17    1.30   41.70
  -3  -1 -17   20.10   13.30
   3  -1  17   -2.00    7.30
   3   1  17    0.70    8.10
  -4  -1 -17  215.38   41.40
  -5  -1 -17  249.88   42.30
  -6  -1 -17  526.95   64.29
   8   2 -17    1.50   15.60
  -5   2  17  -14.90   38.30
  -4  -2  17   -0.70    7.00
  -4  -2  17   35.70   21.80
  -4  -2  17  -17.90   19.00
  -4   2  17   -1.90    8.00
  -4   2  17  -59.39   34.20
   4   2 -17    2.10   10.00
  -3  -2  17   -3.50   18.00
  -3  -2  17   -0.90    6.90
  -3  -2  17  -29.80   17.40
  -3   2  17   43.70   27.90
  -3   2  17   -3.60    7.30
  -3   2  17  -37.90   35.50
  -2  -2  17   35.70   24.80
  -2  -2  17   37.90   22.80
  -2  -2  17   30.80   10.90
  -2   2  17   80.69   29.60
  -2   2  17   18.20   40.40
  -2   2  17   32.10   10.30
  -1  -2  17   14.80    9.30
   1  -2 -17   -6.00    8.70
  -1  -2  17    6.60   18.40
  -1  -2  17  -10.20   21.10
  -1   2  17   44.70   23.20
  -1   2  17   13.00    9.40
  -1   2  17  -24.30   40.30
   1   2 -17   13.80   25.10
   0  -2  17    3.40   28.30
   0  -2 -17   -8.50    9.10
   0  -2  17    7.60    9.20
   0  -2  17    9.50   17.70
   0   2  17   23.70   10.90
   0   2  17  -41.30   42.20
   0   2  17   26.90   16.00
  -1  -2 -17    0.40   11.30
   1  -2  17   10.10    9.80
   1  -2  17   22.50   30.20
   1   2  17   32.30   11.10
   1   2  17  -10.00   11.70
   1   2  17  -74.09   45.10
   2  -2  17   18.60   10.60
  -2  -2 -17  -12.30   13.90
   2   2  17   -0.80    8.50
   2   2  17  -76.69   49.50
  -3  -2 -17   41.30   24.80
   3  -2  17   63.99   15.10
   3   2  17   40.80   12.80
  -4  -2 -17   30.80   24.60
  -5  -2 -17   46.50   26.30
  -7   3  17   -1.60   10.50
   7   3 -17    0.70   14.00
  -6   3  17  252.97   59.09
  -5   3  17  146.69   48.60
  -4   3  17  135.79   45.90
  -3  -3  17   12.20    9.40
  -3   3  17   40.50   38.70
  -3   3  17   13.00   10.90
  -2  -3  17   12.90    9.30
  -2  -3  17  -18.10   23.40
  -2   3  17   18.50   32.10
  -2   3  17    5.50    9.20
  -1  -3  17    9.20    9.80
  -1  -3  17  -31.50   24.30
   1  -3 -17  -13.70   12.40
  -1   3  17    2.30    9.20
  -1   3  17  -17.30   20.90
   1   3 -17   -2.30   10.90
   0  -3  17  -52.89   29.70
   0  -3  17    5.70   10.10
   0  -3  17   21.90   14.60
   0   3  17    0.10    9.10
   0   3  17  -30.30   20.00
   0   3 -17    9.10   13.40
   1  -3  17  -44.20   33.10
  -1  -3 -17  -12.00   15.70
   1  -3  17   38.90   13.70
  -1   3 -17   15.80   14.30
   1   3  17   23.90   12.20
   2  -3  17   12.60   11.00
  -2  -3 -17  -32.80   19.30
  -2   3 -17   11.90   14.00
   2   3  17    0.60    9.60
   3  -3  17   -0.80    8.90
  -3  -3 -17  -30.50   24.50
   3   3  17    9.70   11.30
  -4  -3 -17  -26.00   29.60
  -5  -3 -17   -6.50   36.10
  -1  -4  17   29.60   14.50
  -1   4  17   17.50   12.80
   1   4 -17   36.20   17.90
   0  -4  17   18.90   12.50
   0   4 -17   14.40   14.00
   0   4  17   13.60   13.00
   1  -4  17   14.80   12.40
   1   4  17   -0.70   11.50
  -1   4 -17    7.70   16.30
  -2  -4 -17  -50.09   29.10
   2   4  17    8.00   13.10
  -2   4 -17   14.00   16.60
  -3  -4 -17  -52.99   37.80
  -3   4 -17   27.60   20.80
  -4  -5  17 1035.10   52.19
   1   5 -17   16.00   16.40
  -1   5  17   12.50   15.10
   0   5  17   -1.20   13.60
   0   5 -17   10.80   18.20
   1  -5  17   35.40   17.40
   1   5  17   25.80   16.10
  -1   5 -17   40.40   19.70
   2  -5  17   20.50   16.40
   2   5  17   23.00   16.30
  -7   0  18  249.38   41.60
  -6   0  18  -12.50   17.20
  -6   0  18   24.60    8.80
  -5   0  18   32.90    9.90
  -5   0  18   47.60   28.70
  -5   0  18   -3.00   17.90
  -4   0  18  122.19   14.20
  -4   0  18  182.68   42.50
  -4   0  18   92.59   25.80
  -3   0  18   65.89   30.10
  -3   0  18   27.20   21.80
  -3   0  18   80.39   14.60
  -2   0  18  116.79   30.30
  -2   0  18  140.89   15.40
  -2   0  18  123.29   35.50
  -1   0  18    5.10   28.10
  -1   0  18   20.80    9.90
  -1   0  18    4.30   23.80
   0   0  18  396.26   24.20
   0   0  18  431.26   61.29
   0   0 -18  382.86   27.30
  -1   0 -18  231.68   27.20
   1   0  18  223.98   19.40
   2   0  18   82.19   15.30
  -4   0 -18  320.57   36.70
  -5   0 -18  541.25   51.89
  -7   1  18   97.39   38.00
  -6  -1  18  -36.50   21.50
  -6  -1  18   11.40    7.70
  -6   1  18    3.70    7.50
  -6   1  18   12.10   31.30
   6   1 -18    2.80   13.90
  -5  -1  18   25.50    9.20
  -5  -1  18  -29.90   18.10
  -5  -1  18   42.30   25.40
  -5   1  18   19.80   34.60
  -5   1  18   14.10    8.60
   5   1 -18    4.60   11.90
  -4  -1  18  113.19   16.90
  -4  -1  18  104.99   29.70
  -4  -1  18  168.28   38.40
   4   1 -18  119.89   20.30
  -4   1  18  130.79   42.30
  -4   1  18  118.59   14.70
  -3  -1  18   52.39   28.60
  -3  -1  18   40.50   11.20
  -3  -1  18   21.00   21.50
  -3   1  18   39.00   11.30
   3   1 -18   25.80   11.40
  -3   1  18   16.20   34.20
  -3   1  18  -12.90   17.90
  -2  -1  18   -5.50   21.60
  -2  -1  18   -0.50   21.70
  -2  -1  18   13.00    8.60
  -2   1  18    6.80   27.50
  -2   1  18   20.10    9.90
   2   1 -18   19.40    8.80
  -2   1  18   -4.80   17.70
  -1  -1  18  261.37   47.20
  -1  -1  18  226.88   40.30
  -1  -1  18  245.08   19.80
  -1   1  18  258.27   19.90
  -1   1  18  226.88   49.50
   0  -1  18    6.40    8.20
   0  -1  18    1.80   26.20
   0  -1  18  -14.40   21.60
   0   1  18   14.20   10.00
   0   1  18  -25.80   35.90
   1  -1  18   22.10   11.10
  -1  -1 -18    8.70    9.40
   1   1  18  -45.90   40.60
   1   1  18    9.30    9.30
  -2  -1 -18   79.79   20.00
   2  -1  18   93.69   16.60
   2   1  18   80.69   15.60
   2   1  18  -35.50   46.20
   3  -1  18    9.30    9.70
  -3  -1 -18   26.90   14.50
   3   1  18   10.80    9.90
  -4  -1 -18  233.78   41.90
  -5  -1 -18  334.47   51.79
   8   2 -18   -4.50   16.50
  -7  -2  18    8.90    7.40
  -7   2  18   10.10    9.50
   7   2 -18  -10.20   14.20
  -7   2  18  -50.49   42.50
  -4  -2  18   61.19   23.00
  -3  -2  18   -2.70   21.80
  -3  -2  18  -23.30   20.30
  -3  -2  18   13.40    9.10
  -3   2  18  -60.09   40.50
  -3   2  18   14.10    9.60
  -2  -2  18   13.90    9.50
  -2  -2  18   15.30   24.30
  -2  -2  18  -11.40   22.80
  -2   2  18   15.40    9.80
  -1  -2  18  -27.40   18.00
  -1  -2  18  -26.30   26.10
  -1  -2  18   12.40    9.40
  -1   2  18   -3.90    7.20
  -1   2  18  -66.49   42.60
   0  -2  18   -4.70   28.40
   0  -2  18   -7.30   19.30
   0  -2 -18   10.20   11.50
   0  -2  18   13.20   10.10
   0   2  18   25.30   10.20
   0   2  18  -70.19   48.30
   1  -2  18  -29.00   29.70
  -1  -2 -18   -6.30   10.70
   1  -2  18    6.90   10.00
   1   2  18   18.10   10.70
   1   2  18  -87.89   51.19
  -2  -2 -18   -4.10   13.50
   2  -2  18   10.40    9.80
   2   2  18    7.20    9.60
   3  -2  18   33.80   12.40
  -3  -2 -18   28.80   22.30
   3   2  18   19.60   11.50
  -4  -2 -18   22.30   24.20
  -5  -2 -18   44.20   28.90
   7   3 -18    7.10   14.40
  -7   3  18    6.20   11.80
   5   3 -18    7.10   12.70
  -5   3  18   13.80   11.30
  -4   3  18  187.78   48.30
  -3   3  18   85.49   39.10
  -2  -3  18  114.99   23.60
  -2   3  18   69.19   33.80
  -1  -3  18   21.70   11.60
  -1  -3  18  -41.30   29.20
  -1   3  18    6.10   23.90
  -1   3  18   26.60   11.70
   0  -3  18    3.90    9.70
   0  -3  18   -0.10   14.30
   0   3  18   13.60   10.50
   1  -3  18    8.30   10.70
   1   3  18    9.90   11.10
   2  -3  18   21.80   11.80
  -2  -3 -18  -29.00   21.10
   2   3  18   15.70   11.70
   3  -3  18    9.10   11.00
  -3  -3 -18   -9.00   28.80
   3   3  18   13.80   11.60
  -4  -3 -18   -6.20   30.70
   6   4 -18   16.50   15.70
  -5  -4  18  760.42   45.50
  -1  -4  18   22.80   13.00
  -1   4  18    8.10   12.80
   1   4 -18   16.50   14.70
   0  -4  18    9.60   12.80
   0   4  18    6.90   11.80
   1   4  18   21.60   15.30
  -1   4 -18   26.60   16.90
   2   4  18   27.90   16.80
  -2   4 -18   25.90   19.20
   1   5 -18   -8.30   13.70
   0   5 -18    9.70   17.10
  -7   0  19  220.38   42.40
  -6   0  19   77.59   29.60
  -5   0  19    0.80    7.10
  -5   0  19   25.20   28.40
  -4   0  19   -0.50    6.60
  -4   0  19   -8.50   23.20
  -3   0  19  -12.90   27.60
  -3   0  19    2.70    8.00
  -3   0  19  -38.60   20.30
  -2   0  19  -21.80   23.20
  -2   0  19   10.40    8.90
  -2   0  19  -19.60   27.50
  -1   0  19    1.10    8.00
  -1   0  19   -0.80   24.40
  -1   0  19  -30.70   26.80
   0   0  19   10.10    8.60
  -1   0 -19   17.00    6.50
   1   0  19   12.10    8.70
   2   0  19   -0.20    7.40
  -4   0 -19  412.56   41.20
  -5   0 -19  605.34   49.30
  -7  -1  19  -37.20   26.80
  -7   1  19   77.29   39.50
  -7   1  19   16.20    9.70
  -6  -1  19   10.70    7.90
  -6   1  19   35.50   36.90
  -6   1  19    5.60    7.80
  -5  -1  19   11.50    8.40
  -5   1  19  -22.20   33.50
   5   1 -19   -1.60   12.00
  -5   1  19    6.10    8.40
  -4  -1  19   51.19   28.60
  -4  -1  19   29.20   10.90
  -4  -1  19  -11.40   22.90
   4   1 -19   16.50   11.70
  -4   1  19   17.90   37.40
  -4   1  19   32.40   11.10
  -3  -1  19   34.70   11.30
  -3  -1  19   23.00   27.20
  -3  -1  19   -8.70   23.80
   3   1 -19   21.00   10.90
  -3   1  19   25.50   10.60
  -3   1  19  -12.40   34.40
  -2  -1  19    5.30   27.20
  -2  -1  19    2.90   25.00
  -2  -1  19   24.30   10.60
  -2   1  19  -34.30   35.70
   2   1 -19   27.20    9.90
  -2   1  19   35.30   11.60
  -1  -1  19   61.09   31.20
  -1  -1  19   46.70   32.60
  -1  -1  19   90.09   16.50
  -1   1  19   38.00   44.50
  -1   1  19  101.59   17.80
   0  -1  19   71.79   15.60
   0  -1  19   20.00   30.70
   0  -1  19   10.80   29.60
   0   1  19  -16.60   46.10
   0   1  19   48.30   13.10
   0   1 -19   53.29   33.40
  -1  -1 -19   63.69   15.60
   1  -1  19   13.00   35.30
   1   1  19  132.99   20.20
   1   1  19   28.00   51.19
  -2  -1 -19   12.80   10.90
   2  -1  19   31.00   12.90
   2   1  19   21.50   12.00
   3  -1  19   20.80   11.40
  -3  -1 -19   51.59   17.20
   3   1  19   25.80   11.50
  -4  -1 -19  225.58   41.80
  -5  -1 -19  430.66   55.29
   8   2 -19   15.40   19.40
   7   2 -19  -10.60   14.80
  -7   2  19   12.50    9.90
  -4  -2  19  104.19   26.30
  -3  -2  19   49.10   25.90
  -3  -2  19   21.70   10.40
  -2  -2  19   52.49   13.90
  -2  -2  19   11.50   29.90
  -2  -2  19   55.79   27.20
  -2   2  19   63.99   15.00
  -2   2  19  -40.50   53.09
  -1  -2  19   12.20    9.50
  -1  -2  19  -28.30   29.40
  -1   2  19    9.70    9.30
   0  -2  19   -7.40   21.60
   0   2  19    8.40    9.20
   1  -2  19  -35.80   30.90
   1  -2  19   17.60   10.70
  -1  -2 -19    1.40   12.40
   1   2  19   14.80   10.40
  -2  -2 -19   -0.90   15.20
   2  -2  19   17.30   10.90
   2   2  19   16.80   11.00
  -3  -2 -19    3.80   20.80
   3  -2  19   23.90   12.10
   3   2  19   13.30   11.20
  -4  -2 -19   49.40   26.10
  -5  -2 -19  121.59   31.40
   7   3 -19   -0.20   13.60
  -6  -3  19    3.10    9.00
   6   3 -19   14.50   14.60
  -6   3  19    3.20   11.80
  -5   3  19  267.27   58.09
  -4   3  19  182.68   46.00
  -3   3  19  150.48   45.00
  -2  -3  19   16.10   10.90
  -2   3  19   56.99   33.90
  -1  -3  19   17.30   11.10
  -1  -3  19   47.40   18.30
  -1   3  19    9.60   11.00
  -1   3  19   -8.30   23.00
   0  -3  19   32.00   13.70
   0   3  19   47.50   15.80
  -1  -3 -19  -26.80   16.20
   1  -3  19    6.30   11.10
   1   3  19   -7.20    9.80
  -2  -3 -19  -19.30   25.10
   2  -3  19   22.80   13.60
   2   3  19   28.20   14.40
  -3  -3 -19  -30.10   28.00
   3  -3  19   27.40   12.80
   3   3  19   23.20   14.30
  -4  -3 -19  -25.90   34.00
   6   4 -19   27.80   16.70
  -4  -4  19  649.43   40.00
  -2  -4  19   24.30   14.00
  -2   4  19   28.50   15.50
  -1  -4  19   26.80   15.00
  -1   4  19   21.30   15.60
   1   4 -19   39.30   17.60
   0  -4  19   18.10   13.90
   0   4  19    5.60   13.60
   1  -4  19   10.30   12.70
  -1   4 -19    7.10   16.10
   1   4  19    8.10   13.50
   2  -4  19    8.60   13.00
   2   4  19   21.70   14.80
  -2   4 -19   42.40   21.00
   0   5 -19    7.50   17.60
  -6   0  20  102.09   32.70
  -5   0  20  198.68   43.80
  -5   0  20  118.09   17.60
  -4   0  20  -20.40   24.00
  -4   0  20   69.29   14.50
  -4   0  20   42.00   35.40
  -3   0  20   31.80   10.60
  -3   0  20    6.40   32.70
  -2   0  20   36.50   11.70
  -2   0  20  -23.40   27.70
  -2   0  20   -8.10   33.70
  -1   0  20  222.48   53.29
  -1   0  20  199.28   41.70
  -1   0  20  228.38   20.10
   0   0  20   65.99   14.10
   0   0  20  -30.00   40.50
   1   0  20   23.00   11.00
   2   0  20   18.10   10.50
  -4   0 -20  492.15   44.30
  -5   0 -20  748.63   56.49
  -7   1  20    4.80    9.20
  -6  -1  20   13.40    8.40
   6   1 -20   10.40   16.40
  -6   1  20   32.00   39.60
  -6   1  20    8.60    8.70
  -5  -1  20    8.50    8.80
  -5   1  20    1.50    8.10
   5   1 -20   -1.20   13.20
  -5   1  20   13.70   37.30
  -4  -1  20   50.89   28.10
  -4  -1  20  -46.10   24.10
  -4  -1  20   18.20    9.50
  -4   1  20    9.50    9.00
  -4   1  20  -21.20   37.70
   4   1 -20    4.10   11.20
  -3  -1  20    5.80   26.50
  -3  -1  20    4.90    8.80
  -3  -1  20  -46.20   24.60
   3   1 -20   16.00   10.40
  -3   1  20  -27.20   36.70
  -3   1  20   21.70   11.30
  -2  -1  20    7.50   29.50
  -2  -1  20   17.80   10.10
  -2  -1  20  -40.80   27.90
  -2   1  20   24.10   10.80
  -2   1  20  -52.29   41.00
  -1  -1  20   10.20   10.00
  -1  -1  20  -40.60   27.80
  -1  -1  20  -25.40   28.00
  -1   1  20  -75.19   43.00
  -1   1  20    2.30    8.50
   1  -1  20   33.20   12.10
   1   1  20   38.00   13.20
   2  -1  20    7.50    9.70
   2   1  20   12.90   11.20
   3  -1  20    9.50    9.20
   3   1  20    4.70   10.70
  -4  -1 -20  297.27   45.20
  -5  -1 -20  451.55   54.39
  -7   2  20    1.70   10.00
   7   2 -20   -2.40   15.90
  -3  -2  20   64.19   29.40
  -1  -2  20    6.70    9.80
  -1  -2  20   -7.40   22.60
   0  -2  20  -54.59   29.80
   0  -2  20  -30.70   23.30
   0  -2  20   19.60   11.70
   0   2  20   12.40   10.30
   1  -2  20   26.10   12.70
   1   2  20   17.80   10.60
   2  -2  20   11.10   10.30
   2   2  20   18.00   11.40
   3  -2  20   12.50   11.00
  -3  -2 -20   24.10   22.70
   3   2  20    1.10   10.70
  -4  -2 -20   65.49   28.10
   7   3 -20    8.10   15.40
   6   3 -20    3.90   13.60
  -5   3  20  358.06   67.19
  -4   3  20  302.07   58.79
  -3   3  20  181.18   47.40
  -2  -3  20  161.08   29.10
  -2   3  20  106.79   39.50
  -1  -3  20   39.90   21.10
  -1  -3  20    9.00   11.10
  -1   3  20  -22.60   22.80
  -1   3  20    6.70   11.40
   0  -3  20   -1.10   10.30
   0   3  20    2.80   11.30
   1  -3  20    1.30   10.20
   1   3  20    4.80   10.50
   2  -3  20   23.00   12.80
   2   3  20   15.30   13.70
   6   4 -20   15.40   15.50
  -2  -4  20    7.10   13.20
  -2   4  20    6.20   14.30
  -1  -4  20    9.70   13.10
  -1   4  20   -2.60   13.00
   0  -4  20   29.00   16.00
   0   4  20   12.30   14.30
   1  -4  20   17.60   14.40
   1   4  20   10.90   15.70
   2  -4  20    9.40   13.20
   2   4  20   13.10   15.90
  -6   0  21   62.69   35.10
  -6   0  21    6.80    8.80
  -5   0  21   75.49   37.80
  -5   0  21   10.20    9.00
  -4   0  21   -5.90   33.90
  -4   0  21   12.90    8.80
  -3   0  21   13.50    9.10
  -3   0  21  -12.30   33.90
  -2   0  21  -40.60   34.00
  -2   0  21    6.20    8.70
  -1   0  21   15.90    9.70
   0   0  21   13.40   10.00
   1   0  21   -6.80    7.90
   2   0  21    5.50   10.00
   3   0  21    1.00    9.40
  -6   1  21   52.69   43.60
   6   1 -21   -2.70   16.10
  -5  -1  21    8.60    9.90
   5   1 -21    1.30   14.10
  -5   1  21   18.00   10.90
  -4  -1  21   21.80   11.30
  -4  -1  21   58.59   30.20
  -4   1  21  -37.80   40.80
   4   1 -21    7.40   12.90
  -4   1  21   21.90   11.10
  -3  -1  21    0.40   28.40
  -3  -1  21   19.10   11.20
  -3   1  21    5.10    9.00
  -2  -1  21    2.40    9.10
  -2  -1  21  -37.50   29.20
  -2   1  21    0.20    9.50
   0  -1  21  113.79   20.20
   0  -1  21    4.30   44.50
   0  -1  21    5.60   36.10
   0   1  21   89.09   16.80
   1  -1  21   -3.20    9.20
   1   1  21   15.20   11.60
   2  -1  21   31.00   12.70
   2   1  21   39.20   14.00
   3  -1  21    7.60    9.60
   3   1  21    2.20   10.40
   7   2 -21   -3.50   15.70
  -6  -2  21    9.50    9.60
   6   2 -21    7.20   14.50
  -6   2  21   15.70   11.40
  -3  -2  21   64.89   27.00
   0  -2  21   12.60   10.30
   0   2  21    6.70   10.60
   1  -2  21    8.20   10.80
   1   2  21   15.60   11.80
   2  -2  21    4.60   10.50
   2   2  21   13.60   11.70
   3  -2  21   14.00   12.70
   3   2  21   -3.50   11.10
   6   3 -21    8.50   14.80
  -3   3  21  260.17   57.49
  -2  -3  21  227.68   39.50
  -2   3  21  156.28   46.40
  -1  -3  21    8.50   10.90
  -1  -3  21   42.20   25.50
  -1   3  21   10.40   12.90
   0  -3  21    4.90   11.40
   0   3  21   16.80   13.20
   1  -3  21    2.80   10.80
   1   3  21    3.30   11.00
   2  -3  21   51.99   16.20
   2   3  21   18.20   14.50
   0  -4  21   23.30   15.30
   0   4  21    3.60   15.10
   1   4  21   13.00   17.50
  -6   0  22   18.50   10.10
  -5   0  22  130.79   44.50
  -5   0  22   83.19   16.10
  -4   0  22  131.39   46.10
  -4   0  22   78.69   16.10
  -3   0  22   19.40   10.40
  -3   0  22   17.10   41.20
  -2   0  22   39.90   12.70
  -2   0  22  -23.80   42.20
  -1   0  22   52.69   53.79
  -1   0  22  204.68   20.20
   0   0  22    5.50    9.90
   1   0  22   12.00   10.40
   2   0  22   26.30   13.70
   3   0  22   35.00   14.30
  -6  -1  22   22.30   10.40
  -6   1  22   18.40   10.70
  -5  -1  22    2.80    8.60
  -5   1  22    9.50   10.20
  -5   1  22  -47.80   43.90
   5   1 -22  -13.70   13.80
  -4  -1  22   19.70   11.40
  -4  -1  22   86.49   35.80
  -4   1  22  -75.59   42.00
  -4   1  22   16.20   10.70
  -3  -1  22   65.19   35.70
  -3  -1  22   48.90   14.60
  -3   1  22   42.60   14.10
  -1  -1  22    8.10   10.50
  -1   1  22    5.60    9.40
   0  -1  22  -62.89   36.90
   0  -1  22   72.89   16.90
   0   1  22   76.89   17.70
   1  -1  22   32.50   13.30
   1   1  22   32.60   13.70
   2  -1  22    6.00   10.50
   2   1  22   10.80   11.10
   3  -1  22   26.20   12.10
   3   1  22   38.60   15.30
   7   2 -22   -5.10   17.10
   6   2 -22    2.20   15.00
  -4  -2  22   10.30   10.10
   4   2 -22   16.80   12.80
  -4   2  22   -2.40    9.90
  -3  -2  22   85.19   30.20
  -1  -2  22   18.70   11.90
  -1  -2  22  -24.60   27.80
  -1   2  22    0.00   10.10
   0  -2  22    8.10   11.00
   0   2  22   16.80   11.90
   1  -2  22   35.80   13.90
   1   2  22   43.00   15.30
   2  -2  22   23.00   13.10
   2   2  22   15.30   11.90
   6   3 -22   -3.50   13.30
   5   3 -22   15.00   14.30
  -2  -3  22   87.89   29.60
  -2   3  22   80.09   36.40
  -1  -3  22   21.40   13.80
  -1   3  22   18.60   14.00
   0  -3  22    7.60   12.40
   0   3  22   14.80   14.00
   1  -3  22   21.20   14.10
   1   3  22    0.90   12.10
   2  -3  22   30.60   15.10
   2   3  22   23.70   16.20
   5   4 -22   23.10   15.90
  -6   0  23   15.50   10.60
  -5   0  23   49.60   42.60
  -4   0  23   14.40   10.30
  -4   0  23    6.10   42.70
  -3   0  23  -50.39   41.30
  -3   0  23   19.20   10.30
  -2   0  23  -67.59   46.50
  -2   0  23   15.80   10.40
  -1   0  23   12.10   10.00
   0   0  23    5.90   10.20
   1   0  23    8.70   11.10
   2   0  23   15.50   12.20
  -6  -1  23   33.10   11.50
  -6   1  23   31.00   13.10
  -5  -1  23   33.00   13.10
  -5   1  23  -46.60   49.50
  -5   1  23   36.70   13.30
  -4  -1  23    7.80   10.40
  -4  -1  23   63.89   38.20
  -4   1  23   16.00   11.00
  -3  -1  23  -23.40   33.80
  -3  -1  23   21.70   12.00
  -3   1  23    8.20   10.10
  -1  -1  23   18.90   11.90
  -1   1  23   26.40   13.60
   0  -1  23    3.70   10.70
   0   1  23   39.30   14.10
   1  -1  23   32.30   13.90
   1   1  23   23.70   13.50
   2  -1  23   19.10   11.40
   2   1  23    7.60   11.40
   7   2 -23  -21.50   17.70
   6   2 -23  -13.10   14.40
  -4  -2  23    7.40   11.60
  -4   2  23   11.90   12.60
  -2  -2  23   13.10   11.90
  -2  -2  23    5.70   35.40
  -2   2  23   12.40   11.30
  -1  -2  23  -60.09   33.70
  -1  -2  23   22.80   14.00
  -1   2  23   19.50   13.20
   0  -2  23   22.80   14.30
   0   2  23   36.60   14.30
   1  -2  23   46.60   16.40
   1   2  23   36.20   14.70
   2  -2  23   41.40   16.00
   2   2  23   14.70   14.60
   6   3 -23    9.30   16.00
   5   3 -23   13.90   13.80
  -3   3  23  233.98   56.79
  -2   3  23   11.10   13.80
  -1  -3  23   14.50   13.50
  -1   3  23    7.20   14.10
   0  -3  23   29.80   15.70
   0   3  23   17.20   15.20
   1  -3  23   26.40   16.20
   1   3  23    8.80   13.60
   2  -3  23   10.40   13.70
   2   3  23   15.90   16.20
   5   4 -23   21.40   15.50
  -5   0  24    3.80    9.80
  -4   0  24    5.30   10.50
  -4   0  24  -28.20   45.90
  -3   0  24  -51.59   47.60
  -3   0  24   14.70   10.80
  -2   0  24   51.59   14.40
  -1   0  24   20.10   11.40
   0   0  24   24.10   13.30
   1   0  24    4.90   11.50
   2   0  24   21.10   13.60
  -4  -1  24    4.90   10.80
  -4   1  24    1.00   10.60
  -3  -1  24   16.00   12.10
  -3  -1  24    2.20   42.00
  -3   1  24    4.50   10.20
  -2  -1  24   15.90   12.90
  -2  -1  24  -50.69   41.70
  -2   1  24    4.30   10.80
  -1  -1  24   31.20   14.20
  -1   1  24   12.90   12.20
   0  -1  24   25.10   14.70
   0   1  24    3.90   11.10
   1  -1  24   20.30   12.60
   1   1  24    8.60   12.00
   2  -1  24    8.30   10.80
   2   1  24    4.60   10.70
  -3  -2  24   65.89   37.70
  -3  -2  24   13.70   12.50
  -3   2  24    3.30   11.60
  -2  -2  24   12.00   13.60
  -2   2  24   13.60   12.90
  -1  -2  24   17.20   13.70
  -1   2  24   13.00   13.00
   0  -2  24   30.70   15.20
   0   2  24   40.40   16.40
   1  -2  24   17.60   14.00
   1   2  24   29.50   14.90
   2  -2  24   24.80   14.70
   2   2  24   19.70   14.10
  -3  -3  24  129.39   38.20
  -3   0  25    7.90   11.60
  -2   0  25    2.30    9.90
  -1   0  25   11.10   11.90
   0   0  25   12.00   12.60
   1   0  25   14.30   14.00
   2   0  25    2.00   12.10
  -3  -1  25   28.90   13.80
  -3   1  25    4.30   11.20
  -2  -1  25   32.80   16.00
  -2   1  25   16.90   13.80
  -1  -1  25   17.40   14.10
  -1   1  25    4.50   12.20
   0  -1  25   27.00   14.10
   0   1  25   35.60   15.60
   1  -1  25   15.80   13.50
   1   1  25   14.60   13.60
   2  -1  25   32.50   13.90
   2   1  25   21.40   14.40
  -3  -2  25   39.30   43.30
  -1   0  26   17.30   14.60
   0   0  26    8.70   13.10
;
_shelx_hkl_checksum              38791
_shelx_res_file
;
TITL ns9 in P1c1
CELL  0.71073   6.6616   4.8577  19.0987   90.000   99.821   90.000
ZERR     2.00   0.0012   0.0010   0.0036    0.000    0.006    0.000
LATT   -1
SYMM   +X,-Y,1/2+Z
SFAC  C    H    F    N    O
UNIT  30   20   2    2    4
OMIT    -3.00  50.00
L.S. 50
BOND $H
EQIV $1 x+1, y+1, z
EQIV $2 x+1, y, z
HTAB C3 O2_$1
HTAB C9 O2_$2
FMAP 2
PLAN 20
SIZE     0.25   0.30   0.35
ACTA
HTAB
MPLA 11 C1 C2 C3 C4 C5 C6 C7 C8 N1 O1 O2
MPLA 6  C10 C11 C12 C13 C14 C15
CONF
TEMP    23.00
WPDB -1
WGHT    0.000000    0.269500
FVAR       1.46703
MOLE   1
F1    3    0.515503    0.920860    0.939482    11.00000    0.09041    0.07475 =
         0.06516    0.02299   -0.00035    0.00329
N1    4    0.663526    0.207214    1.166005    11.00000    0.03703    0.03413 =
         0.05115    0.00185    0.00702   -0.00308
O1    5    0.442144   -0.111949    1.202172    11.00000    0.07678    0.06924 =
         0.08529    0.01781    0.03099   -0.01198
O2    5    0.160799    0.121763    1.080502    11.00000    0.04167    0.07916 =
         0.09803   -0.01217    0.01850   -0.01396
C1    1    0.649835    0.401270    1.110261    11.00000    0.03599    0.02858 =
         0.04249   -0.00495    0.01037   -0.00374
C2    1    0.798769    0.575962    1.094378    11.00000    0.03559    0.04351 =
         0.04474   -0.00629    0.00128    0.00157
AFIX  43
H2    2    0.928231    0.577872    1.121858    11.00000   -1.20000
AFIX   0
C3    1    0.749600    0.749442    1.035975    11.00000    0.04878    0.04503 =
         0.05648   -0.00137    0.01307   -0.00877
AFIX  43
H3    2    0.847800    0.867836    1.023782    11.00000   -1.20000
AFIX   0
C4    1    0.557422    0.747298    0.996217    11.00000    0.05850    0.04114 =
         0.04645    0.00333    0.00327    0.00384
C5    1    0.406392    0.575136    1.011011    11.00000    0.04222    0.05260 =
         0.04579   -0.00753   -0.00198    0.00456
AFIX  43
H5    2    0.277158    0.575489    0.983363    11.00000   -1.20000
AFIX   0
C6    1    0.454648    0.401932    1.068574    11.00000    0.03371    0.03807 =
         0.04392   -0.00959    0.00688   -0.00286
C7    1    0.335807    0.194380    1.098871    11.00000    0.03378    0.05584 =
         0.05996   -0.01437    0.01869   -0.00099
C8    1    0.483585    0.069214    1.163348    11.00000    0.05729    0.04589 =
         0.05509   -0.00059    0.02045   -0.00285
C9    1    0.849941    0.139656    1.215986    11.00000    0.04862    0.03887 =
         0.05210    0.00352    0.00753    0.00638
AFIX  23
H9A   2    0.960254    0.112171    1.189485    11.00000   -1.20000
H9B   2    0.829304   -0.032245    1.239609    11.00000   -1.20000
AFIX   0
C10   1    0.911970    0.359429    1.271697    11.00000    0.05092    0.03257 =
         0.04090    0.00779    0.00528    0.00785
C11   1    0.783179    0.437367    1.317083    11.00000    0.05666    0.05035 =
         0.05668    0.00253    0.01406    0.00350
AFIX  43
H11   2    0.654856    0.357300    1.312819    11.00000   -1.20000
AFIX   0
C12   1    0.842017    0.634228    1.369285    11.00000    0.08666    0.05984 =
         0.05088   -0.00314    0.01802    0.01740
AFIX  43
H12   2    0.753170    0.686096    1.399562    11.00000   -1.20000
AFIX   0
C13   1    1.031559    0.751992    1.376076    11.00000    0.09462    0.05502 =
         0.04824   -0.00435   -0.01061    0.00945
AFIX  43
H13   2    1.071390    0.882942    1.411224    11.00000   -1.20000
AFIX   0
C14   1    1.162619    0.677274    1.331193    11.00000    0.05909    0.06521 =
         0.06269   -0.00140   -0.00692   -0.01152
AFIX  43
H14   2    1.290669    0.758219    1.335575    11.00000   -1.20000
AFIX   0
C15   1    1.102852    0.480424    1.279309    11.00000    0.04527    0.05882 =
         0.05074   -0.00273    0.00434    0.00830
AFIX  43
H15   2    1.192123    0.428769    1.249163    11.00000   -1.20000
AFIX   0
HKLF 4
REM  ns9 in P1c1
REM R1 =  0.0547 for    1318 Fo > 4sig(Fo)  and  0.0877 for all    1859 data
REM    172 parameters refined using      2 restraints
END
WGHT      0.0000      0.2686
REM Instructions for potential hydrogen bonds
HTAB C3 O2_$1
HTAB C9 O2_$2
REM Highest difference peak  0.208,  deepest hole -0.171,  1-sigma level  0.040
Q1    1   0.7584  0.3620  1.0864  11.00000  0.05    0.21
Q2    1   0.7949  0.1766  1.1738  11.00000  0.05    0.16
Q3    1   0.6352  0.2079  1.1105  11.00000  0.05    0.16
Q4    1   0.6312  0.3753  1.1609  11.00000  0.05    0.16
Q5    1   0.0591  0.1434  1.1176  11.00000  0.05    0.16
Q6    1   0.6048  0.1979  1.0753  11.00000  0.05    0.15
Q7    1   0.4464  0.2102  1.0685  11.00000  0.05    0.15
Q8    1   0.4006  0.0713  1.1986  11.00000  0.05    0.14
Q9    1   0.9004  0.3678  1.0785  11.00000  0.05    0.14
Q10   1   0.3804  0.1578  1.1714  11.00000  0.05    0.14
Q11   1   0.1890  0.2859  1.0852  11.00000  0.05    0.14
Q12   1   0.3596  0.3976  1.0993  11.00000  0.05    0.14
Q13   1   0.4200  0.2132  1.2425  11.00000  0.05    0.14
Q14   1   0.7494  0.5587  1.0420  11.00000  0.05    0.13
Q15   1   0.8641  0.2941  1.2298  11.00000  0.05    0.13
Q16   1   0.8776  1.1641  1.0753  11.00000  0.05    0.13
Q17   1   0.5573  0.7438  0.9475  11.00000  0.05    0.13
Q18   1   0.6907  0.1988  1.2161  11.00000  0.05    0.13
Q19   1   0.9155  0.1380  1.3303  11.00000  0.05    0.13
Q20   1   0.2006  0.3857  1.1007  11.00000  0.05    0.13
;
_shelx_res_checksum              66320
_shelxl_version_number           2.014
loop_
_space_group_symop_operation_xyz
'x, y, z'
'x, -y, z+1/2'
loop_
_atom_site_type_symbol
_atom_site_label
_atom_site_fract_x
_atom_site_fract_y
_atom_site_fract_z
_atom_site_U_iso_or_equiv
_atom_site_adp_type
_atom_site_calc_flag
_atom_site_occupancy
F F1 0.5155(5) 0.9209(8) 0.93948(19) 0.0784(12) Uani d 1
N N1 0.6635(6) 0.2072(9) 1.1660(2) 0.0408(12) Uani d 1
O O1 0.4421(7) -0.1119(9) 1.2022(3) 0.0751(14) Uani d 1
O O2 0.1608(6) 0.1218(9) 1.0805(2) 0.0722(13) Uani d 1
C C1 0.6498(7) 0.4013(11) 1.1103(3) 0.0353(14) Uani d 1
C C2 0.7988(8) 0.5760(11) 1.0944(3) 0.0419(15) Uani d 1
H H2 0.9282 0.5779 1.1219 0.050 Uiso calc 1
C C3 0.7496(9) 0.7494(12) 1.0360(3) 0.0496(17) Uani d 1
H H3 0.8478 0.8678 1.0238 0.060 Uiso calc 1
C C4 0.5574(9) 0.7473(13) 0.9962(3) 0.0494(16) Uani d 1
C C5 0.4064(8) 0.5751(12) 1.0110(3) 0.0480(16) Uani d 1
H H5 0.2772 0.5755 0.9834 0.058 Uiso calc 1
C C6 0.4546(8) 0.4019(11) 1.0686(3) 0.0385(14) Uani d 1
C C7 0.3358(9) 0.1944(12) 1.0989(3) 0.0486(16) Uani d 1
C C8 0.4836(9) 0.0692(12) 1.1633(3) 0.0515(17) Uani d 1
C C9 0.8499(8) 0.1397(11) 1.2160(3) 0.0467(15) Uani d 1
H H9A 0.9603 0.1122 1.1895 0.056 Uiso calc 1
H H9B 0.8293 -0.0322 1.2396 0.056 Uiso calc 1
C C10 0.9120(9) 0.3594(10) 1.2717(3) 0.0418(14) Uani d 1
C C11 0.7832(9) 0.4374(12) 1.3171(3) 0.0541(17) Uani d 1
H H11 0.6549 0.3573 1.3128 0.065 Uiso calc 1
C C12 0.8420(11) 0.6342(14) 1.3693(3) 0.065(2) Uani d 1
H H12 0.7532 0.6861 1.3996 0.078 Uiso calc 1
C C13 1.0316(12) 0.7520(14) 1.3761(3) 0.069(2) Uani d 1
H H13 1.0714 0.8829 1.4112 0.082 Uiso calc 1
C C14 1.1626(10) 0.6773(13) 1.3312(4) 0.0644(19) Uani d 1
H H14 1.2907 0.7582 1.3356 0.077 Uiso calc 1
C C15 1.1029(9) 0.4804(12) 1.2793(3) 0.0521(17) Uani d 1
H H15 1.1921 0.4288 1.2492 0.062 Uiso calc 1
loop_
_atom_site_aniso_label
_atom_site_aniso_U_11
_atom_site_aniso_U_22
_atom_site_aniso_U_33
_atom_site_aniso_U_12
_atom_site_aniso_U_13
_atom_site_aniso_U_23
F1 0.090(3) 0.075(3) 0.065(2) 0.003(2) 0.000(2) 0.023(2)
N1 0.037(3) 0.034(3) 0.051(3) -0.003(2) 0.007(3) 0.002(3)
O1 0.077(3) 0.069(3) 0.085(4) -0.012(3) 0.031(3) 0.018(3)
O2 0.042(3) 0.079(3) 0.098(4) -0.014(2) 0.018(2) -0.012(3)
C1 0.036(4) 0.029(3) 0.042(4) -0.004(3) 0.010(3) -0.005(3)
C2 0.036(4) 0.044(4) 0.045(4) 0.002(3) 0.001(3) -0.006(3)
C3 0.049(4) 0.045(4) 0.056(5) -0.009(3) 0.013(4) -0.001(3)
C4 0.059(5) 0.041(4) 0.046(4) 0.004(3) 0.003(3) 0.003(3)
C5 0.042(4) 0.053(5) 0.046(4) 0.005(3) -0.002(3) -0.008(4)
C6 0.034(4) 0.038(4) 0.044(4) -0.003(3) 0.007(3) -0.010(3)
C7 0.034(4) 0.056(4) 0.060(4) -0.001(3) 0.019(3) -0.014(3)
C8 0.057(4) 0.046(4) 0.055(5) -0.003(3) 0.020(3) -0.001(4)
C9 0.049(4) 0.039(4) 0.052(4) 0.006(3) 0.008(3) 0.004(3)
C10 0.051(4) 0.033(3) 0.041(4) 0.008(3) 0.005(3) 0.008(3)
C11 0.057(4) 0.050(4) 0.057(4) 0.003(3) 0.014(3) 0.003(4)
C12 0.087(6) 0.060(5) 0.051(5) 0.017(4) 0.018(4) -0.003(4)
C13 0.095(6) 0.055(4) 0.048(5) 0.009(4) -0.011(4) -0.004(4)
C14 0.059(5) 0.065(5) 0.063(5) -0.012(4) -0.007(4) -0.001(4)
C15 0.045(4) 0.059(4) 0.051(4) 0.008(3) 0.004(3) -0.003(4)
loop_
_atom_type_symbol
_atom_type_description
_atom_type_scat_dispersion_real
_atom_type_scat_dispersion_imag
_atom_type_scat_source
C C 0.0033 0.0016 'International Tables Vol C Tables 4.2.6.8 and 6.1.1.4'
H H 0.0000 0.0000 'International Tables Vol C Tables 4.2.6.8 and 6.1.1.4'
F F 0.0171 0.0103 'International Tables Vol C Tables 4.2.6.8 and 6.1.1.4'
N N 0.0061 0.0033 'International Tables Vol C Tables 4.2.6.8 and 6.1.1.4'
O O 0.0106 0.0060 'International Tables Vol C Tables 4.2.6.8 and 6.1.1.4'
loop_
_geom_angle_atom_site_label_1
_geom_angle_atom_site_label_2
_geom_angle_atom_site_label_3
_geom_angle
C8 N1 C1 110.8(4)
C8 N1 C9 123.6(5)
C1 N1 C9 125.3(4)
C2 C1 C6 120.4(5)
C2 C1 N1 128.3(5)
C6 C1 N1 111.3(4)
C1 C2 C3 118.0(5)
C1 C2 H2 121.0
C3 C2 H2 121.0
C4 C3 C2 120.6(5)
C4 C3 H3 119.7
C2 C3 H3 119.7
F1 C4 C3 118.7(6)
F1 C4 C5 118.8(6)
C3 C4 C5 122.5(6)
C4 C5 C6 117.1(5)
C4 C5 H5 121.4
C6 C5 H5 121.4
C5 C6 C1 121.4(5)
C5 C6 C7 132.0(5)
C1 C6 C7 106.6(5)
O2 C7 C6 130.2(6)
O2 C7 C8 124.1(6)
C6 C7 C8 105.6(5)
O1 C8 N1 128.5(6)
O1 C8 C7 125.9(6)
N1 C8 C7 105.6(5)
N1 C9 C10 113.5(4)
N1 C9 H9A 108.9
C10 C9 H9A 108.9
N1 C9 H9B 108.9
C10 C9 H9B 108.9
H9A C9 H9B 107.7
C11 C10 C15 118.5(6)
C11 C10 C9 120.9(5)
C15 C10 C9 120.6(5)
C10 C11 C12 120.9(6)
C10 C11 H11 119.6
C12 C11 H11 119.6
C13 C12 C11 119.8(6)
C13 C12 H12 120.1
C11 C12 H12 120.1
C12 C13 C14 120.3(6)
C12 C13 H13 119.9
C14 C13 H13 119.9
C13 C14 C15 119.6(6)
C13 C14 H14 120.2
C15 C14 H14 120.2
C14 C15 C10 120.9(6)
C14 C15 H15 119.5
C10 C15 H15 119.5
loop_
_geom_bond_atom_site_label_1
_geom_bond_atom_site_label_2
_geom_bond_distance
F1 C4 1.364(6)
N1 C8 1.367(7)
N1 C1 1.413(6)
N1 C9 1.469(6)
O1 C8 1.213(6)
O2 C7 1.211(6)
C1 C2 1.378(6)
C1 C6 1.404(7)
C2 C3 1.392(8)
C2 H2 0.9300
C3 C4 1.373(7)
C3 H3 0.9300
C4 C5 1.374(7)
C5 C6 1.378(7)
C5 H5 0.9300
C6 C7 1.461(8)
C7 C8 1.563(8)
C9 C10 1.514(7)
C9 H9A 0.9700
C9 H9B 0.9700
C10 C11 1.373(7)
C10 C15 1.386(8)
C11 C12 1.389(8)
C11 H11 0.9300
C12 C13 1.372(9)
C12 H12 0.9300
C13 C14 1.373(9)
C13 H13 0.9300
C14 C15 1.386(8)
C14 H14 0.9300
C15 H15 0.9300
loop_
_geom_hbond_atom_site_label_D
_geom_hbond_atom_site_label_H
_geom_hbond_atom_site_label_A
_geom_hbond_site_symmetry_A
_geom_hbond_distance_DH
_geom_hbond_distance_HA
_geom_hbond_distance_DA
_geom_hbond_angle_DHA
C3 H3 O2 1_665 0.93 2.50 3.272(7) 140.0
C9 H9A O2 1_655 0.97 2.66 3.580(7) 158.9
loop_
_geom_torsion_atom_site_label_1
_geom_torsion_atom_site_label_2
_geom_torsion_atom_site_label_3
_geom_torsion_atom_site_label_4
_geom_torsion
C8 N1 C1 C2 -178.9(5)
C9 N1 C1 C2 -4.8(8)
C8 N1 C1 C6 1.1(6)
C9 N1 C1 C6 175.2(5)
C6 C1 C2 C3 -0.4(7)
N1 C1 C2 C3 179.6(5)
C1 C2 C3 C4 0.7(8)
C2 C3 C4 F1 179.9(5)
C2 C3 C4 C5 -0.7(9)
F1 C4 C5 C6 179.7(5)
C3 C4 C5 C6 0.4(8)
C4 C5 C6 C1 -0.1(8)
C4 C5 C6 C7 -179.3(6)
C2 C1 C6 C5 0.1(7)
N1 C1 C6 C5 -179.9(5)
C2 C1 C6 C7 179.5(5)
N1 C1 C6 C7 -0.5(6)
C5 C6 C7 O2 -0.2(10)
C1 C6 C7 O2 -179.5(6)
C5 C6 C7 C8 179.1(6)
C1 C6 C7 C8 -0.2(5)
C1 N1 C8 O1 179.2(6)
C9 N1 C8 O1 4.9(9)
C1 N1 C8 C7 -1.2(5)
C9 N1 C8 C7 -175.4(4)
O2 C7 C8 O1 -0.1(9)
C6 C7 C8 O1 -179.5(6)
O2 C7 C8 N1 -179.8(5)
C6 C7 C8 N1 0.9(5)
C8 N1 C9 C10 -111.8(6)
C1 N1 C9 C10 74.8(6)
N1 C9 C10 C11 59.0(7)
N1 C9 C10 C15 -123.0(5)
C15 C10 C11 C12 0.4(8)
C9 C10 C11 C12 178.4(5)
C10 C11 C12 C13 -0.3(9)
C11 C12 C13 C14 0.4(10)
C12 C13 C14 C15 -0.5(9)
C13 C14 C15 C10 0.5(9)
C11 C10 C15 C14 -0.4(8)
C9 C10 C15 C14 -178.5(5)

_cod_database_fobs_code 2020256
