#------------------------------------------------------------------------------
#$Date: 2016-08-27 04:13:54 +0300 (Sat, 27 Aug 2016) $
#$Revision: 186037 $
#$URL: file:///home/coder/svn-repositories/cod/cif/2/02/05/2020575.cif $
#------------------------------------------------------------------------------
#
# This file is available in the Crystallography Open Database (COD),
# http://www.crystallography.net/. The original data for this entry
# were provided by IUCr Journals, http://journals.iucr.org/.
#
# The file may be used within the scientific community so long as
# proper attribution is given to the journal article from which the
# data were obtained.
#
data_2020575
loop_
_publ_author_name
'H\"utzler, Wilhelm Maximilian'
'Egert, Ernst'
'Bolte, Michael'
_publ_section_title
;
 One barbiturate and two solvated thiobarbiturates containing the triply
 hydrogen-bonded <i>ADA</i>/<i>DAD</i> synthon, plus one ansolvate and
 three solvates of their coformer 2,4-diaminopyrimidine
;
_journal_issue                   9
_journal_name_full               'Acta Crystallographica Section C'
_journal_page_first
;
;
_journal_paper_doi               10.1107/S205322961601336X
_journal_volume                  72
_journal_year                    2016
_chemical_formula_iupac          'C4 H6 N4'
_chemical_formula_moiety         'C4 H6 N4'
_chemical_formula_sum            'C4 H6 N4'
_chemical_formula_weight         110.13
_chemical_name_systematic
;
Pyrimidine-2,4-diamine
;
_space_group_crystal_system      monoclinic
_space_group_IT_number           14
_space_group_name_Hall           '-P 2ybc'
_space_group_name_H-M_alt        'P 1 21/c 1'
_symmetry_space_group_name_Hall  '-P 2ybc'
_symmetry_space_group_name_H-M   'P 1 21/c 1'
_atom_sites_solution_hydrogens   mixed
_audit_creation_method           SHELXL-2014/7
_cell_angle_alpha                90
_cell_angle_beta                 118.346(10)
_cell_angle_gamma                90
_cell_formula_units_Z            4
_cell_length_a                   12.0330(17)
_cell_length_b                   4.0256(3)
_cell_length_c                   11.5992(15)
_cell_measurement_reflns_used    4847
_cell_measurement_temperature    173(2)
_cell_measurement_theta_max      26.17
_cell_measurement_theta_min      3.52
_cell_volume                     494.50(11)
_computing_cell_refinement
;
X-AREA (Stoe & Cie, 2001)
;
_computing_data_collection
;
X-AREA (Stoe & Cie, 2001)
;
_computing_data_reduction
;
X-AREA (Stoe & Cie, 2001)
;
_computing_molecular_graphics
;
Mercury (Version 3.8, Macrae <i>et al.</i>,  2008) and XP in
SHELXTL-Plus (Sheldrick,
2008)
;
_computing_publication_material
;
publCIF (Westrip, 2010)
;
_computing_structure_refinement
;
SHELXL (Sheldrick, 2015)
;
_computing_structure_solution
;
SHELXS97 (Sheldrick, 2008)
;
_diffrn_ambient_temperature      173(2)
_diffrn_measured_fraction_theta_full 0.995
_diffrn_measured_fraction_theta_max 0.996
_diffrn_measurement_device_type  'Stoe IPDS II two-circle'
_diffrn_measurement_method       \w
_diffrn_radiation_type           MoK\a
_diffrn_radiation_wavelength     0.71073
_diffrn_reflns_av_R_equivalents  0.0668
_diffrn_reflns_limit_h_max       14
_diffrn_reflns_limit_h_min       -14
_diffrn_reflns_limit_k_max       4
_diffrn_reflns_limit_k_min       -4
_diffrn_reflns_limit_l_max       14
_diffrn_reflns_limit_l_min       -14
_diffrn_reflns_number            3858
_diffrn_reflns_theta_full        25.000
_diffrn_reflns_theta_max         25.830
_diffrn_reflns_theta_min         3.513
_exptl_absorpt_coefficient_mu    0.104
_exptl_absorpt_correction_T_max  1.000
_exptl_absorpt_correction_T_min  0.599
_exptl_absorpt_correction_type   multi-scan
_exptl_absorpt_process_details
;
(X-AREA; Stoe & Cie, 2001)
;
_exptl_crystal_colour            colourless
_exptl_crystal_density_diffrn    1.479
_exptl_crystal_description       block
_exptl_crystal_F_000             232
_exptl_crystal_size_max          0.120
_exptl_crystal_size_mid          0.100
_exptl_crystal_size_min          0.070
_refine_diff_density_max         0.183
_refine_diff_density_min         -0.177
_refine_ls_extinction_method     none
_refine_ls_goodness_of_fit_ref   1.100
_refine_ls_hydrogen_treatment    mixed
_refine_ls_matrix_type           full
_refine_ls_number_parameters     85
_refine_ls_number_reflns         942
_refine_ls_number_restraints     4
_refine_ls_restrained_S_all      1.098
_refine_ls_R_factor_all          0.0422
_refine_ls_R_factor_gt           0.0386
_refine_ls_shift/su_max          0.000
_refine_ls_shift/su_mean         0.000
_refine_ls_structure_factor_coef Fsqd
_refine_ls_weighting_details
'w=1/[\s^2^(Fo^2^)+(0.0555P)^2^+0.1736P] where P=(Fo^2^+2Fc^2^)/3'
_refine_ls_weighting_scheme      calc
_refine_ls_wR_factor_gt          0.1074
_refine_ls_wR_factor_ref         0.1095
_reflns_number_gt                859
_reflns_number_total             942
_reflns_threshold_expression     'I > 2\s(I)'
_cod_data_source_file            sk3636sup1.cif
_cod_data_source_block           I
_cod_database_code               2020575
_shelx_space_group_comment
;
The symmetry employed for this shelxl refinement is uniquely defined
by the following loop, which should always be used as a source of
symmetry information in preference to the above space-group names.
They are only intended as comments.
;
_shelx_estimated_absorpt_t_min   0.988
_shelx_estimated_absorpt_t_max   0.993
_shelx_hkl_file
;
   1   0 -11    2.73    2.96   0
  -2   1 -10   42.30    2.57   0
  -4   2  -9    2.90    2.30   0
  -3   1  -8    6.77    2.16   0
  -1   0  -7   -1.53    1.81   0
  -5   2  -6    5.31    3.01   0
  12  -1  -5   85.50    3.77   0
  -4   1  -4    9.95    2.19   0
  -4   1  -3    2.28    2.93   0
   8  -1  -3  142.19    4.40   0
  -4   1  -2   45.98    3.60   0
  -7   4  -1   21.49    3.43   0
  -7   4   0   59.28    3.73   0
   8   0   1    1.97    2.00   0
  -6   3   2   10.05    3.04   0
  11   1   2   20.50    2.27   0
  -6   4   3   83.90    5.08   0
   9   1   3  152.73    3.90   0
   1   1   4  346.46    6.42   0
   6   1   4   84.39    3.54   0
   2   0 -12   46.93    3.42   0
   0   0  -9    5.07    2.14   0
  -3   1  -7  365.18    5.15   0
  -1   0  -6   32.19    3.16   0
  -6   3  -5   72.71    3.70   0
  11  -1  -4   53.22    3.46   0
   9  -1  -3  388.68    6.06   0
  -1   0  -2   55.28    5.67   0
  11   0   0   32.39    2.38   0
   9   0   1    1.68    2.91   0
   8   2   5   89.30    3.69   0
   2   2   6  519.14    6.27   0
   3   2   6   35.09    3.26   0
   4   2   6  519.05    6.09   0
  -1   4   7    6.85    4.31   0
   2   3   7   54.98    3.53   0
   3   0 -13   -0.53    2.88   0
   8  -1 -13  133.28    5.78   0
  -1   1 -11  157.84    3.65   0
   5  -1 -10   18.73    3.28   0
  -2   1  -9   16.48    3.23   0
  -4   2  -8   66.77    2.83   0
   4  -1  -8   47.35    3.85   0
  14  -1  -6    6.28    3.09   0
  -5   2  -5   45.89    3.25   0
  -1   0  -5    0.52    3.41   0
  13  -1  -5    6.65    3.07   0
  -6   3  -4   71.48    3.78   0
   5  -1  -3   34.55    4.22   0
  13   0  -1    2.21    2.21   0
  -5   2   1  586.90    7.98   0
  -3   1   1   33.29    4.37   0
   4   0   2  768.16    7.78   0
   5   0   2 2071.55   11.58   0
   6   0   2  110.04    3.89   0
  10   1   3    6.58    2.94   0
   7   1   4   50.24    2.51   0
  -2   2   5  200.62    6.97   0
   1   2   6   73.92    3.92   0
   5   2   6   11.03    3.02   0
   1   3   7    1.82    3.01   0
   3   3   7   21.61    3.37   0
   4   3   7   16.39    3.36   0
   0   1 -12    6.39    2.17   0
   7  -1 -12  148.56    5.99   0
   6  -1 -11  225.61    5.96   0
   1   0 -10   24.00    2.47   0
   0   0  -8  136.57    4.01   0
  -3   1  -6  243.40    4.80   0
  -5   2  -4  619.74    6.17   0
  -1   0  -4  369.26    6.85   0
  12  -1  -4   41.73    3.39   0
  -6   3  -3    8.54    3.24   0
  -1   0  -3    0.05    3.98   0
  10  -1  -3  169.85    3.95   0
  12   0   0   52.38    3.41   0
  -6   3   1   33.53    3.39   0
  10   0   1    0.05    2.76   0
   3   0   2 2707.94   14.74   0
   7   0   2    1.85    3.26   0
  -4   2   3   17.28    4.38   0
   0   1   4  509.01    8.01   0
   8   1   4   12.27    2.99   0
   6   2   6   13.43    3.33   0
   0   3   7  159.38    5.05   0
   2   0 -11    1.07    3.15   0
  -1   1 -10   67.48    3.55   0
  -3   2  -9    7.95    3.11   0
  -4   2  -7   12.04    2.32   0
   4  -1  -7    0.67    3.96   0
  -5   2  -3    8.09    2.90   0
  11  -1  -3  308.05    5.25   0
  -6   3  -2   46.39    3.62   0
   7  -1  -2  199.56    5.05   0
   8  -1  -2   47.52    3.64   0
  -6   3  -1  130.31    4.28   0
  -6   3   0    5.61    3.18   0
  -5   2   0   40.10    3.49   0
  -6   4   2    0.65    3.28   0
   8   0   2    4.40    3.03   0
   0   2   6   18.45    3.49   0
   5  -1  -9   48.44    4.55   0
  -2   1  -8  150.97    3.47   0
   0   0  -7   28.63    3.31   0
  -5   3  -6   32.12    2.94   0
  -3   1  -5  153.09    4.22   0
  14  -1  -5   26.43    3.55   0
  13  -1  -4   55.74    3.72   0
  -5   2  -2    4.99    2.08   0
   6  -1  -2  737.04    9.20   0
   9  -1  -2  941.62    8.33   0
  -5   2  -1   81.02    3.95   0
  11   0   1   -0.72    2.06   0
   9   1   4   21.27    2.39   0
   3   1   5  153.99    3.98   0
   4   1   5  447.55    5.14   0
   5   1   5    5.13    3.08   0
   7   2   6   14.09    2.46   0
   5   0 -14   11.64    3.51   0
   4   0 -13   -0.32    3.22   0
   3   0 -12   56.47    2.92   0
   0   1 -11   10.83    3.20   0
  -2   2 -10   42.44    3.66   0
   1   0  -9    0.82    2.03   0
  -4   2  -6  450.64    5.21   0
  -3   1  -4  555.21    6.56   0
  12  -1  -3   -1.30    3.11   0
  -6   4  -2   17.62    3.42   0
  10  -1  -2   51.47    3.54   0
  -6   4   1   30.67    3.81   0
   2   0   2 1394.96   12.31   0
   9   0   2  115.65    3.10   0
  -5   4   4  266.51    8.65   0
  10   1   4   46.46    3.42   0
   2   1   5   67.51    3.53   0
   6   1   5   91.68    2.99   0
  -2   4   7  129.81    6.80   0
  -1   3   7  199.96    5.70   0
   9  -1 -13   14.79    3.79   0
   1   1 -12    5.78    3.42   0
   6  -1 -10  830.92   10.91   0
  -1   1  -9   79.83    3.76   0
  -3   2  -8   59.36    2.87   0
  -2   1  -7  276.98    4.98   0
   4  -1  -6  347.91    9.66   0
  -5   3  -5   26.23    2.63   0
  14  -1  -4   19.32    3.29   0
  -6   4  -1    4.31    3.47   0
  -6   4   0    9.33    3.40   0
  -3   1   0  100.54    5.24   0
  12   0   1    0.74    2.16   0
  10   0   2  255.99    4.64   0
  -5   3   3   76.59    4.85   0
   5   0   3   -1.91    3.12   0
   6   0   3    3.29    3.16   0
   7   1   5   96.67    3.01   0
   3   2   7   45.53    3.58   0
   4   2   7   10.59    3.11   0
   2   1 -13    6.80    3.33   0
   8  -1 -12   54.61    5.01   0
   7  -1 -11   23.67    4.46   0
   2   0 -10    3.75    3.15   0
  -4   3  -7   24.35    3.47   0
   0   0  -6 1506.98   10.55   0
  -4   2  -5  335.28    4.88   0
  -5   3  -4   60.61    4.01   0
  -3   1  -3  385.89    5.52   0
  13  -1  -3   24.75    3.16   0
  -3   1  -2  118.40    4.84   0
   5  -1  -2  228.03    6.42   0
  11  -1  -2  284.40    4.69   0
  -3   1  -1   38.60    4.38   0
   7  -1  -1   66.79    3.60   0
   8  -1  -1    6.02    2.92   0
   4   0   3    1.09    3.27   0
   7   0   3   -0.02    2.18   0
   1   1   5   89.95    4.01   0
   8   1   5   -0.50    2.19   0
  -1   2   6   88.10    4.37   0
   2   2   7    1.89    2.94   0
   5   2   7    4.69    3.23   0
   2   3   8   70.77    4.16   0
   3   3   8   17.02    3.55   0
   3   0 -11   -0.05    3.27   0
   0   1 -10  293.01    5.03   0
  -2   2  -9    8.10    3.35   0
   1   0  -8  351.50    5.30   0
  -3   2  -7   49.54    3.38   0
  -2   1  -6   80.34    3.85   0
  -4   2  -4 1625.91   10.04   0
  12  -1  -2    2.42    3.21   0
   6  -1  -1  555.37    7.50   0
   9  -1  -1  791.71    7.55   0
  11   0   2    1.80    2.38   0
   8   0   3    3.10    2.25   0
   9   1   5  116.97    3.90   0
  -3   3   6  375.72   12.58   0
   1   2   7   54.12    3.49   0
   6   2   7   42.25    2.72   0
   6   0 -14   23.66    3.76   0
   5   0 -13   -0.59    3.35   0
   4   0 -12   51.14    3.76   0
  -1   1  -8   94.16    3.85   0
   5  -1  -8  143.50    5.65   0
  -4   3  -6  185.64    4.69   0
   0   0  -5   24.43    4.42   0
   4  -1  -5  148.60   10.11   0
  -5   3  -3  180.05    3.92   0
  10  -1  -1    6.31    2.26   0
   3   0   3    2.24    2.51   0
   9   0   3    0.25    2.12   0
   4   1   6 1579.07    9.66   0
   5   1   6   10.95    3.15   0
   1   3   8   13.44    3.43   0
  10  -1 -13    5.71    4.72   0
   1   1 -11   39.27    2.73   0
  -1   2 -10    6.57    3.27   0
   2   0  -9    0.05    3.02   0
  -3   3  -8   17.47    2.53   0
  -3   2  -6   39.01    3.51   0
  -5   4  -3   30.82    3.70   0
  -4   2  -3  149.80    4.26   0
   4  -1  -3  305.65   11.44   0
  -5   3  -2  614.19    6.97   0
  13  -1  -2   17.65    3.36   0
  11  -1  -1   85.61    3.17   0
  -5   3   2   38.30    3.76   0
  -4   2   2  408.35    8.44   0
  10   0   3    3.35    3.34   0
  -1   1   4    8.57    3.80   0
   3   1   6  243.22    4.79   0
   6   1   6   10.62    2.31   0
   7   1   6  242.77    4.66   0
   3   1 -13   39.86    3.85   0
   2   1 -12   80.29    3.25   0
   0   2 -11    5.78    3.21   0
   0   1  -9    6.32    3.14   0
  -2   2  -8   19.48    2.42   0
   1   0  -7    0.09    3.13   0
  -4   3  -5  127.07    4.30   0
  -2   1  -5   66.00    3.04   0
   0   0  -4  675.92    9.30   0
  -4   2  -2   28.74    3.19   0
  -5   3  -1  604.06    7.16   0
   5  -1  -1  394.64    7.34   0
  12  -1  -1   24.49    3.55   0
  -5   3   0  101.97    4.22   0
   7  -1   0  164.31    4.29   0
   8  -1   0   60.02    3.33   0
   9  -1   0  714.56    7.09   0
  -5   3   1   27.62    3.66   0
   1   0   2   61.13    6.00   0
  -5   4   3   36.20    4.27   0
  11   0   3   -0.67    3.11   0
   5   0   4  373.16    5.54   0
   6   0   4   10.32    3.32   0
   7   0   4  453.33    5.59   0
   0   1   5  915.61    9.91   0
   2   1   6   77.84    3.75   0
   8   1   6   16.25    3.20   0
  -2   3   7  261.79    7.77   0
   0   2   7   34.36    3.73   0
   0   3   8   39.03    3.93   0
   9  -1 -12   10.03    4.66   0
   3   0 -10   31.70    3.55   0
   6  -1  -9  502.32    9.64   0
  -3   3  -7   17.05    3.62   0
  -1   1  -7   16.90    2.47   0
  -5   4  -2  218.02    4.50   0
  -4   2  -1    8.51    3.09   0
   6  -1   0  473.67    6.61   0
  10  -1   0   82.44    3.74   0
  -4   2   1    2.96    3.61   0
   2   0   3   -0.03    2.56   0
   4   0   4  316.68    5.38   0
   8   0   4  307.43    4.45   0
   3   2   8   65.44    3.71   0
   4   2   8   81.97    3.89   0
   5   2   8    0.68    3.35   0
   7   0 -14   12.15    3.62   0
   4   0 -11   -0.04    3.35   0
   1   1 -10    1.71    3.13   0
   7  -1 -10   62.44    5.51   0
  -1   2  -9   16.65    3.42   0
  -3   2  -5   90.69    3.24   0
  -4   3  -4  172.79    4.61   0
  -2   1  -4   42.01    3.99   0
   4  -1  -2 1857.88   19.64   0
  -5   4  -1  293.02    6.00   0
  13  -1  -1   39.90    2.95   0
  -5   4   0  356.81    6.38   0
  -4   2   0  245.23    5.84   0
  11  -1   0   16.83    3.43   0
  -5   4   2    9.44    3.77   0
   9   0   4  321.55    4.52   0
   2   2   8   23.43    3.50   0
   6   0 -13    3.42    3.46   0
   5   0 -12   86.60    4.20   0
   2   1 -11   19.26    3.56   0
   8  -1 -11   90.83    5.39   0
   2   0  -8 1977.61   12.59   0
  -2   2  -7    0.02    2.33   0
   1   0  -6  120.10    4.98   0
   0   0  -3   12.33    3.92   0
  12  -1   0    1.10    3.62   0
  -5   4   1   67.73    4.20   0
   8  -1   1  123.72    4.20   0
   9  -1   1   51.53    3.59   0
   3   0   4  253.34    4.66   0
  10   0   4   37.04    2.79   0
   1   1   6  295.36    5.10   0
   4   1   7  261.03    4.90   0
   5   1   7   86.51    3.90   0
   6   1   7    2.34    3.13   0
  -1   3   8   24.62    4.80   0
   3   1 -12   30.00    3.75   0
   0   2 -10    4.02    2.45   0
  -2   3  -8   76.03    2.95   0
   0   1  -8   38.59    2.70   0
   5  -1  -7  307.47    8.75   0
  -3   3  -6    2.27    2.55   0
  -1   1  -6  232.15    4.56   0
  -4   4  -4    8.05    2.66   0
  -3   2  -4  333.31    5.46   0
  -4   3  -3  591.78    6.76   0
  -2   1  -3  192.42    5.48   0
   5  -1   0  124.28    4.28   0
   7  -1   1   75.89    2.90   0
  10  -1   1  126.38    4.28   0
  -4   4   5   46.31    6.81   0
   6   0   5    1.66    3.30   0
   7   0   5    0.63    3.24   0
  -2   2   6   55.17    4.48   0
  -1   2   7   25.32    4.54   0
   3   1   7  375.47    5.81   0
   7   1   7   94.72    3.19   0
   1   2   8   31.98    3.56   0
   1   3   9    8.93    3.55   0
   4   1 -13    2.00    2.43   0
   1   2 -11   53.25    3.78   0
  -1   2  -8   32.48    3.52   0
   0   0  -2 3243.51   25.36   0
   4  -1  -1 1889.74   16.50   0
   6  -1   1   80.76    3.12   0
  11  -1   1   31.08    3.69   0
   5   0   5    2.21    2.35   0
   8   0   5   -0.09    2.33   0
   9   0   5    0.03    3.38   0
   2   2 -12   11.44    2.66   0
  -1   3  -9    9.99    2.48   0
   1   1  -9  203.48    4.75   0
   3   0  -9    4.32    2.41   0
  -2   2  -6  472.72    5.53   0
  -3   3  -5   28.71    3.82   0
  -4   4  -3   20.68    2.82   0
  -4   3  -2   11.86    3.47   0
  12  -1   1   26.28    3.67   0
   8  -1   2  348.06    5.20   0
   1   0   3    1.90    4.38   0
   2   0   4  262.91    5.13   0
   4   0   5    0.86    2.36   0
   2   1   7  261.64    4.54   0
   4   2   9    2.90    3.36   0
   8   0 -14  178.84    5.26   0
  10  -1 -12    0.45    4.54   0
   4   0 -10  122.65    4.45   0
   0   2  -9   83.69    3.99   0
  -2   3  -7   56.44    3.00   0
   0   1  -7   59.61    3.91   0
  -3   4  -5    4.45    3.61   0
  -1   1  -5   93.92    4.27   0
  -3   2  -3   18.38    2.44   0
  -4   4  -2  133.28    4.80   0
  -2   1  -2  528.33    7.46   0
   5  -1   1  254.49    5.00   0
   7  -1   2   11.58    2.41   0
   9  -1   2    1.62    2.26   0
  10  -1   2   52.90    4.02   0
  -4   3   4   82.63    6.90   0
   3   0   5   -1.69    3.10   0
   0   1   6    9.08    3.60   0
   0   2   8  239.24    5.40   0
   0   3   9   17.37    3.88   0
   3   2   9    8.70    2.41   0
   7   0 -13   -1.17    3.60   0
   6   0 -12 1008.35    9.40   0
   5   0 -11   -0.65    3.38   0
   2   1 -10   26.55    2.51   0
   2   0  -7   -0.15    2.33   0
   1   0  -5    0.03    3.08   0
  -4   3  -1   33.80    3.68   0
   4  -1   0  695.35    9.74   0
   6  -1   2  122.30    3.57   0
  11  -1   2   28.44    3.57   0
  -1   1   5  289.46    6.93   0
   6   0   6  192.32    4.54   0
   7   0   6  184.29    4.46   0
   8   0   6   17.93    3.39   0
   1   1   7   18.71    3.47   0
   4   1   8   37.58    3.56   0
   5   1   8   24.05    2.44   0
   6   1   8   91.78    3.51   0
   2   2   9    7.92    3.44   0
   5   1 -13   35.82    3.71   0
   4   1 -12   52.39    4.02   0
   3   1 -11  104.75    3.39   0
   1   2 -10   40.33    2.89   0
  -1   3  -8   12.62    2.48   0
   6  -1  -8  237.39    7.70   0
  -1   2  -7   52.63    2.95   0
  -2   3  -6    3.35    3.13   0
  -2   2  -5   92.08    3.21   0
  -3   3  -4   35.98    2.83   0
  -3   2  -2   20.16    3.34   0
  -4   4  -1   22.12    3.81   0
  -2   1  -1   86.79    5.38   0
  -4   3   0    6.59    3.66   0
   5   0   6  162.69    3.71   0
   3   1   8    8.07    3.30   0
   3   2 -12   56.60    3.95   0
   2   2 -11   39.29    2.83   0
   9  -1 -11   10.41    4.86   0
   1   1  -8   31.25    3.44   0
  -2   4  -6    9.91    3.70   0
  -3   4  -4   17.42    2.58   0
  -4   4   0    1.32    3.43   0
   4  -1   1  481.34    7.64   0
   5  -1   2 1204.34    9.18   0
   7  -1   3   52.05    3.71   0
   8  -1   3   47.29    2.76   0
   9  -1   3  120.02    3.48   0
  10  -1   3    1.56    3.52   0
   2   0   5    1.13    3.34   0
   4   0   6  170.98    3.87   0
  -2   3   8    6.21    4.56   0
   1   2   9    9.42    2.38   0
   9   0 -14  150.46    5.26   0
   8  -1 -10  196.82    7.44   0
   0   3  -9   15.00    2.58   0
   7  -1  -9  181.72    7.17   0
   0   2  -8  167.84    3.80   0
   3   0  -8  343.67    5.90   0
   0   1  -6   12.26    3.62   0
  -1   1  -4  329.79    5.62   0
  -3   3  -3  362.88    5.97   0
  -3   2  -1  371.06    6.53   0
  -2   1   0 1511.89   16.36   0
  -4   3   1    8.01    3.70   0
  -4   3   2   98.17    4.94   0
  -4   3   3   12.20    4.04   0
   6  -1   3    1.03    2.15   0
  -4   4   4  154.62    7.22   0
   1   0   4  366.55    6.51   0
   3   0   6  178.09    4.53   0
  -1   2   8   25.34    3.67   0
   2   1   8  165.16    3.90   0
  -1   3   9    3.02    3.60   0
   1   3 -10   41.35    2.99   0
   2   1  -9  139.47    3.62   0
  -1   3  -7    4.63    3.37   0
  -1   2  -6   77.98    4.15   0
  -2   2  -4  121.20    3.47   0
  -3   4  -3    4.28    3.47   0
  -4   4   1    7.99    3.72   0
  -4   4   2   93.48    5.92   0
  -4   4   3  294.22    8.02   0
   5  -1   3  184.54    4.74   0
  -2   2   7    6.80    4.25   0
   0   1   7   60.91    4.04   0
   5   0   7    1.47    3.14   0
   6   0   7    5.07    2.46   0
   7   0   7    3.11    2.55   0
   0   2   9   76.59    4.20   0
   4   1   9   -0.97    3.48   0
   5   1   9   19.84    3.66   0
   8   0 -13    1.30    2.59   0
   3   1 -10  393.04    5.73   0
   1   2  -9   25.61    2.68   0
   4   0  -9    1.43    2.43   0
   2   0  -6 1912.92   14.43   0
  13  -2  -6   12.37    3.91   0
  -2   4  -5   22.07    3.69   0
  -2   3  -5   14.44    2.37   0
  12  -2  -5    0.17    3.48   0
  13  -2  -5    8.71    3.79   0
   1   0  -4 1628.73   14.68   0
  12  -2  -4    7.78    3.63   0
  13  -2  -4  110.37    4.76   0
  -2   1   1 1033.93   17.69   0
   4  -1   2   39.36    3.09   0
   7  -1   4   41.70    2.73   0
   8  -1   4    6.99    2.46   0
   9  -1   4   15.89    2.62   0
  10  -1   4   43.16    3.77   0
  -1   1   6  221.71    5.97   0
   4   0   7   -0.65    3.45   0
   1   1   8   91.10    4.08   0
   3   1   9  465.09    6.16   0
   2   2  10   52.40    4.10   0
   6   1 -13   13.74    2.59   0
   5   1 -12    1.35    3.31   0
   7   0 -12  135.81    4.20   0
  11  -1 -12   -0.17    4.60   0
   4   1 -11    2.09    2.52   0
   6   0 -11   -0.35    3.47   0
   2   2 -10  113.17    3.56   0
   5   0 -10   13.74    2.57   0
   0   3  -8   39.74    3.88   0
   1   1  -7  100.26    4.16   0
  13  -2  -7   -0.70    4.90   0
   5  -1  -6  658.68   15.13   0
  12  -2  -6   18.46    3.96   0
  11  -2  -5   -1.20    3.70   0
  11  -2  -4    3.71    3.55   0
  11  -2  -3    4.83    3.37   0
  12  -2  -3    9.90    3.79   0
  13  -2  -3   38.81    3.97   0
  -3   4  -2  155.55    4.69   0
  -3   3  -2   42.31    3.80   0
  -3   2   0 1220.45   11.70   0
   0   0   2 4024.36   28.74   0
  -2   1   3 1344.47   33.89   0
   6  -1   4   74.50    3.09   0
   1   0   5   -0.26    3.83   0
   2   0   6    5.07    2.17   0
  -3   3   7  310.77   12.45   0
   4   2 -12   31.42    4.24   0
   3   2 -11   78.37    3.27   0
   0   2  -7   24.60    2.81   0
  -1   3  -6  142.17    4.59   0
  10  -2  -4    2.75    3.43   0
  -2   2  -3   16.69    3.52   0
  -1   1  -3  986.97    9.68   0
  10  -2  -3    2.80    3.49   0
  11  -2  -2  225.39    5.32   0
  12  -2  -2    7.99    3.73   0
   4  -1   3   -1.26    3.41   0
   5  -1   4  199.63    4.86   0
  -3   2   5  640.11   24.76   0
   8  -1   5    1.76    3.56   0
   9  -1   5  115.51    3.98   0
   3   0   7    0.78    3.49   0
   6   0   8   20.98    3.35   0
   2   1   9   20.77    3.70   0
   1   2  10    0.21    3.81   0
   1   3  -9    0.70    2.61   0
  12  -2  -7  104.58    6.45   0
  -1   4  -6   39.30    2.97   0
  11  -2  -6  125.73    5.98   0
  -1   2  -5   34.56    2.89   0
   0   1  -5  801.66    8.13   0
  10  -2  -5   55.10    5.41   0
  -2   4  -4  127.61    3.85   0
  -2   3  -4    5.01    2.52   0
  10  -2  -2   60.93    3.15   0
  11  -2  -1   39.46    4.00   0
  12  -2  -1    5.75    3.64   0
   3  -1   0   63.64    4.22   0
  -3   2   1  288.12    7.18   0
   3  -1   1   38.95    4.74   0
  -2   1   2 1760.89   37.65   0
   0   0   3   24.76    5.89   0
   6  -1   5   98.67    4.19   0
   7  -1   5   90.16    3.30   0
   5   0   8  293.90    5.37   0
   2   3 -10    7.89    2.57   0
   1   2  -8   15.45    2.73   0
   2   1  -8  139.79    3.81   0
   3   0  -7   -0.24    2.45   0
   9  -2  -3    3.51    3.46   0
   9  -2  -2    2.19    3.46   0
  -3   4  -1   41.65    4.02   0
  -3   3  -1  290.39    6.05   0
   3  -1  -1   25.49    4.86   0
  10  -2  -1    3.51    2.61   0
   3  -1   2  113.76    5.18   0
   4  -1   4   12.81    3.57   0
   2   0   7   -0.67    3.25   0
   0   1   8   45.82    3.20   0
   4   0   8  606.60    6.70   0
  -1   2   9   30.12    3.91   0
   1   1   9   81.23    4.16   0
  -1   3  10   56.94    5.38   0
   7   1 -13  179.49    5.16   0
   9   0 -13    3.78    3.76   0
  10  -1 -11   25.32    5.25   0
   2   2  -9   77.71    4.21   0
   3   1  -9  127.65    4.25   0
  13  -2  -8   29.95    5.58   0
   0   4  -7   59.34    3.28   0
   0   3  -7  170.00    3.98   0
   9  -2  -4   13.25    4.50   0
   9  -2  -1  102.73    4.54   0
  10  -2   0  412.65    6.29   0
  11  -2   0   11.59    2.69   0
   0   0   4  647.57    9.76   0
   5  -1   5    2.35    2.38   0
   1   0   6   35.11    2.78   0
   8  -1   6   15.33    3.64   0
  -1   1   7  100.60    4.66   0
  -2   2   8    4.38    4.37   0
   3   0   8 2722.32   12.42   0
  -2   3   9   15.16    4.19   0
   0   2  10   -0.18    3.65   0
   3   1  10  585.07    6.51   0
   6   1 -12  122.14    4.55   0
   8   0 -12 1198.49   10.97   0
   5   1 -11    5.77    3.60   0
   3   2 -10  110.64    4.29   0
   4   1 -10   15.96    3.48   0
   1   3  -8   30.44    4.04   0
   4   0  -8   56.60    4.26   0
   0   2  -6   19.10    3.72   0
   1   1  -6  226.39    5.43   0
  -1   4  -5   40.52    2.90   0
  -1   3  -5   83.49    4.19   0
  -2   4  -3   15.68    2.73   0
  -2   3  -3   18.11    3.61   0
  -2   2  -2   25.41    2.97   0
  -1   1  -2  545.03    8.99   0
  -3   4   0   19.22    3.77   0
   9  -2   0  625.74    6.95   0
  10  -2   1   10.09    3.54   0
  11  -2   1   27.23    3.92   0
  -3   2   2   51.49    4.82   0
   3  -1   3  425.06    6.72   0
  -2   1   4  638.89   14.37   0
   6  -1   6    6.37    3.52   0
   7  -1   6  190.19    3.99   0
   5   0   9    3.11    3.58   0
   2   1  10   46.58    4.10   0
   5   2 -12    3.95    2.51   0
   4   2 -11    5.08    2.67   0
   7   0 -11    2.27    3.53   0
   5   0  -9    4.06    3.70   0
   6  -1  -7   41.93    5.82   0
  11  -2  -7    0.76    5.11   0
  10  -2  -6  610.97   12.25   0
   2   0  -5   -1.33    3.15   0
  -1   2  -4    9.16    2.51   0
   1   0  -3   -0.01    5.47   0
   8  -2  -2   14.52    3.86   0
   8  -2  -1    2.98    3.23   0
  -3   3   0   61.30    3.53   0
   8  -2   0  291.81    5.64   0
   9  -2   1  371.57    6.07   0
   4  -1   5  438.96    5.60   0
   5  -1   6   10.51    3.37   0
   4   0   9   -0.76    3.29   0
   3   3 -10    5.38    3.54   0
   6   0 -10  884.42    9.03   0
   9  -1 -10   80.17    5.97   0
   2   3  -9   11.98    2.70   0
   1   2  -7   25.33    3.82   0
   0   4  -6   66.49    4.41   0
   9  -2  -5   18.58    4.97   0
   0   1  -4  439.85    6.61   0
   8  -2  -3   27.32    4.00   0
  -3   4   1    1.98    3.82   0
   8  -2   1    8.27    3.37   0
  10  -2   2    4.80    3.76   0
   3  -1   4  477.60    6.06   0
   0   0   5   18.47    4.33   0
   1   0   7    0.06    2.07   0
   7  -1   7  102.61    4.18   0
   2   0   8  453.57    5.44   0
   0   1   9    5.14    2.44   0
   1   1  10   65.44    3.95   0
  12  -1 -12   71.32    6.32   0
   4   3 -11   23.80    2.99   0
   8  -1  -9    0.26    4.53   0
   2   1  -7  457.98    6.49   0
   0   3  -6    9.68    2.59   0
  -1   4  -4   95.18    4.38   0
  -2   4  -2    4.37    2.59   0
  -2   3  -2  268.51    5.74   0
  -3   3   1    3.03    3.77   0
   8  -2   2  536.52    6.65   0
   9  -2   2   32.38    2.99   0
  -3   2   3   18.13    5.21   0
  -2   1   5  247.12    7.67   0
   4  -1   6 1604.65    9.93   0
   6  -1   7    2.34    3.47   0
  -1   1   8   32.68    3.98   0
   3   0   9    0.93    2.36   0
  -1   2  10   59.70    4.13   0
   0   2  11    7.55    3.67   0
   8   1 -13  176.50    5.04   0
  10   0 -13   -2.01    3.65   0
   2   2  -8    6.33    2.58   0
   7  -1  -8  172.07    7.30   0
  12  -2  -8   83.53    8.93   0
   1   4  -7   10.45    2.80   0
   0   2  -5    7.14    3.34   0
  -1   3  -4   98.58    3.41   0
   3  -1  -2 1298.62   23.07   0
  -2   2  -1    3.59    3.82   0
   7  -2  -1   20.21    3.97   0
   7  -2   0   58.28    3.33   0
   7  -2   1  200.67    5.06   0
  -3   4   2   22.46    4.08   0
   9  -2   3    5.61    3.60   0
  10  -2   3   -0.41    2.60   0
   3  -1   5  135.82    3.71   0
   0   0   6 1813.76   12.49   0
   5  -1   7   83.53    4.10   0
  -2   2   9   79.40    5.38   0
   2   1  11   44.37    4.02   0
   6   2 -12   28.56    3.76   0
   7   1 -12  151.51    4.67   0
   5   2 -11   17.59    3.74   0
   4   2 -10    4.49    3.37   0
   3   2  -9   81.98    4.09   0
   3   1  -8    1.60    2.22   0
   1   3  -7  219.66    4.20   0
   3   0  -6   35.76    4.51   0
   8  -2  -4   17.42    3.90   0
  -1   2  -3   83.50    4.35   0
   7  -2  -2    2.60    3.68   0
   7  -2   2    0.93    3.59   0
   8  -2   3   26.62    3.50   0
  -3   2   6   74.33    7.41   0
  -2   1   6 1745.00   15.42   0
   1   0   8    5.87    2.57   0
   2   0   9   -2.36    2.28   0
  -2   3  10   12.12    4.89   0
   0   1  10  305.77    5.76   0
   4   0  10    5.10    2.59   0
   9   0 -12    6.31    3.67   0
   6   1 -11  283.45    4.99   0
   5   1 -10   23.82    3.63   0
   4   1  -9   19.48    2.55   0
   2   3  -8    5.36    2.47   0
   0   4  -5    0.53    2.58   0
   1   1  -5  270.07    6.21   0
  -1   4  -3   27.26    3.79   0
  -2   4  -1   36.16    3.15   0
  -3   3   2   13.43    4.67   0
   2  -1   2  460.75    7.35   0
  -3   4   3   47.85    5.54   0
   2  -1   3  169.98    4.68   0
   7  -2   3  101.26    4.29   0
  -3   2   4  193.29   13.16   0
   2  -1   4   11.87    3.98   0
   9  -2   4    8.95    3.78   0
   3  -1   6  223.90    4.33   0
   0   0   7   32.01    3.81   0
   4  -1   7  206.10    4.05   0
  -3   3   8   12.01    5.66   0
   6  -1   8   86.51    3.29   0
  -1   1   9  203.25    5.15   0
   3   0  10  461.92    6.34   0
   1   1  11  177.31    4.98   0
   5   3 -11   19.16    3.84   0
   4   3 -10    6.95    3.79   0
   3   3  -9   14.73    2.83   0
   1   4  -6  260.37    5.59   0
   1   2  -6   84.51    4.40   0
   0   3  -5   69.51    3.21   0
  -2   3  -1    2.12    3.57   0
  -1   1  -1 1092.03   13.63   0
   6  -2   0  228.11    5.84   0
   2  -1   1   66.36    4.31   0
   6  -2   1    7.44    3.46   0
   6  -2   2   21.64    3.63   0
   8  -2   4    3.94    2.52   0
   5  -1   8   24.87    2.80   0
  -1   2  11   45.74    4.37   0
   9   1 -13   38.64    4.05   0
  11   0 -13    2.20    3.76   0
   8   0 -11    2.53    2.66   0
  11  -1 -11    1.34    3.72   0
   4   0  -7    2.42    3.44   0
  -1   3  -3    5.92    2.39   0
   0   1  -3  266.95    6.64   0
   7  -2  -3  138.76    5.61   0
   6  -2   3  359.62    5.81   0
  -3   4   4   46.09    5.59   0
   7  -2   4   26.03    2.84   0
   2  -1   5   51.11    3.63   0
   8  -2   5   86.97    4.21   0
  -3   4   6   21.48    6.46   0
  -2   1   7  478.25    8.21   0
   3  -1   7  333.54    4.80   0
   4  -1   8   31.46    3.81   0
   1   0   9   -1.49    2.27   0
   2   0  10    6.47    2.69   0
   7   2 -12    6.55    3.91   0
   7   0 -10   57.11    4.18   0
   6   0  -9    0.75    3.66   0
   5   0  -8  241.34    5.95   0
   2   4  -7  145.30    4.03   0
   2   2  -7    5.88    3.67   0
   1   3  -6  228.82    4.49   0
   2   1  -6 1810.67   12.30   0
   0   4  -4   14.07    3.78   0
   6  -2  -1   39.74    3.97   0
  -2   4   0    2.89    3.56   0
  -2   2   0   40.44    4.41   0
   6  -2   4  107.50    4.05   0
  -3   4   5    0.68    4.49   0
   7  -2   5   12.98    3.49   0
   2  -1   6   78.18    4.09   0
  -3   2   7   85.58    6.35   0
   0   0   8  125.43    3.69   0
   5  -1   9   18.51    3.69   0
  -2   2  10  164.63    5.77   0
   0   1  11   12.97    3.52   0
   8   1 -12   62.75    4.08   0
   6   2 -11    1.77    3.72   0
   3   4  -8   20.90    2.88   0
   3   2  -8   38.78    3.78   0
   2   3  -7  256.43    5.16   0
   0   2  -4   83.06    3.62   0
   2   0  -4  405.31    9.06   0
  -1   4  -2    1.65    2.54   0
   2  -1   0 1335.02   15.87   0
  -3   3   3   40.67    4.35   0
  -2   1   8  163.91    5.31   0
   3  -1   8    9.17    3.42   0
   4  -1   9    0.46    3.49   0
  -1   1  10   -0.18    2.58   0
   1   0  10  580.26    6.70   0
  10   0 -12    7.70    3.67   0
   6   3 -11   18.59    3.80   0
   7   1 -11   28.14    3.80   0
   5   2 -10    3.96    2.40   0
   4   2  -9   -0.84    2.59   0
   3   3  -8   16.25    3.68   0
   3   1  -7   96.73    4.21   0
   1   4  -5   16.32    3.78   0
   0   3  -4    3.34    3.40   0
  -1   2  -2 1481.93   11.37   0
  -2   3   0   25.49    4.12   0
   5  -2   1   86.04    4.32   0
   5  -2   2    5.16    2.50   0
   5  -2   3    9.86    3.34   0
  -1   0   5    0.39    4.40   0
   6  -2   5   12.38    2.46   0
   7  -2   6   14.48    3.44   0
   2  -1   7  247.43    4.46   0
   0   0   9    6.57    3.57   0
   2   0  11    1.49    2.69   0
   5   3 -10   66.18    3.14   0
   6   1 -10  940.24    8.52   0
  10  -1 -10    4.35    4.78   0
   4   3  -9    5.03    2.63   0
   5   1  -9   54.38    3.64   0
   4   1  -8   61.83    3.70   0
   9  -2  -6   58.21    7.42   0
  -1   3  -2   60.33    3.95   0
   6  -2  -2  575.20    9.29   0
  -2   4   1   86.93    4.51   0
  -1   0   4 1556.82   14.34   0
   5  -2   4  473.91    5.56   0
  -1   0   6  117.38    4.28   0
   6  -2   6   14.86    3.65   0
  -3   2   8   38.06    5.19   0
  -3   3   9   16.79    6.22   0
   3  -1   9  454.07    6.06   0
   0   1  12    5.63    3.68   0
  10   1 -13    7.98    2.74   0
   2   4  -6   72.63    3.45   0
   1   3  -5  921.27    8.29   0
   1   2  -5  580.57    6.48   0
   8  -2  -5    0.82    5.09   0
   1   1  -4    9.13    4.11   0
   0   4  -3   11.43    3.58   0
  -1   4  -1   42.54    4.12   0
   5  -2   0   19.96    2.80   0
   1  -1   3 1127.85   10.84   0
   1  -1   4  328.59    5.69   0
   1  -1   5   82.76    3.47   0
   5  -2   5   35.58    2.85   0
   1  -1   6  299.89    5.66   0
  -1   0   7    0.27    2.26   0
   2  -1   8  146.93    3.67   0
  -2   1   9  222.63    5.70   0
  -2   2  11   44.52    4.24   0
  -1   1  11   50.40    4.21   0
   1   0  11    2.94    3.55   0
   8   2 -12   10.77    2.86   0
   9   0 -11    4.37    3.51   0
   4   4  -8   19.56    3.88   0
   3   4  -7   20.02    2.82   0
   2   2  -6   51.87    3.96   0
  -3   3   4   45.89    5.58   0
   5  -2   6    6.29    2.36   0
   1  -1   7   19.03    3.58   0
   6  -2   7   42.31    2.74   0
  -1   0   8  463.90    6.79   0
   2  -1   9   18.51    3.48   0
   0   0  10    6.04    2.59   0
   3  -1  10  556.25    6.33   0
   9   1 -12   19.13    2.79   0
   7   3 -11   33.23    4.01   0
   7   2 -11   -1.91    2.60   0
  12  -1 -11   63.48    5.95   0
   9  -1  -9    7.73    4.89   0
   2   3  -6  385.97    5.92   0
   3   0  -5    0.86    4.39   0
   1   4  -4   -0.24    3.56   0
   7  -2  -4  129.19    6.68   0
   0   2  -3  917.48    9.21   0
   1   0  -2 1176.34   19.31   0
  -2   2   1    1.04    3.87   0
  -2   4   2    7.67    3.87   0
   4  -2   2   25.83    3.36   0
  -1   0   3   -0.07    3.77   0
   4  -2   3  111.20    3.36   0
   4  -2   4 1357.59    9.26   0
   4  -2   5  378.41    5.86   0
   5  -2   7    7.26    3.44   0
  -3   2   9   62.72    4.94   0
  -2   1  10   26.90    3.74   0
  11   0 -12   41.00    4.27   0
   8   1 -11  245.16    5.47   0
   6   3 -10   56.91    4.08   0
   6   2 -10    2.81    2.59   0
   8   0 -10    7.77    3.52   0
   5   3  -9    9.83    3.81   0
   5   2  -9    1.81    3.63   0
   4   3  -8   71.94    4.08   0
   4   2  -8   37.52    3.83   0
   3   3  -7  288.55    4.77   0
   3   2  -7   80.58    3.44   0
   2   1  -5  266.20    6.21   0
   0   3  -3   37.20    2.75   0
   0   1  -2 9627.00   34.35   0
   5  -2  -1  383.51    7.59   0
  -2   3   1  128.54    5.27   0
   1  -1   2  447.87    7.70   0
   4  -2   6  554.81    6.48   0
   1  -1   8   76.21    3.19   0
  -1   0   9    0.93    2.27   0
   2  -1  10   49.13    3.83   0
   0   0  11    6.43    3.43   0
  -1   1  12    2.57    3.55   0
   1   0  12   10.31    2.68   0
   7   0  -9   -1.80    3.87   0
   2   4  -5   51.89    3.31   0
   0   4  -2   17.52    2.91   0
  11  -3  -2   55.23    4.57   0
  -1   3  -1  313.66    6.12   0
  -1   2  -1   59.39    4.87   0
  -1   4   0    0.33    3.72   0
  -1   1   0  556.25   11.82   0
  10  -3   0   23.28    4.08   0
   4  -2   1    5.09    2.56   0
   4  -2   7   18.68    3.55   0
   5  -2   8    3.03    2.54   0
   1  -1   9   67.36    4.00   0
  -2   2  12   17.47    4.16   0
   9   2 -12    4.20    2.79   0
   7   1 -10   70.14    3.29   0
   5   4  -8   46.98    4.17   0
   6   0  -8    0.73    3.57   0
   4   4  -7    5.67    3.82   0
   3   4  -6   19.50    2.97   0
   3   1  -6    7.29    3.97   0
   4   0  -6   22.97    4.34   0
   1   3  -4  231.01    5.00   0
   6  -2  -3  197.00    7.16   0
  10  -3  -1  112.96    4.90   0
   9  -3   1   71.79    4.34   0
   9  -3   2   28.31    4.02   0
  -2   4   3   78.09    5.72   0
  -3   3  10    1.06    5.25   0
  -3   2  10  112.72    5.49   0
  -1   0  10   34.20    2.78   0
  -2   1  11   27.26    3.75   0
   0   0  12   82.78    4.33   0
  10   1 -12   -1.16    3.68   0
   8   2 -11   13.99    3.83   0
   6   1  -9  377.89    5.57   0
   5   1  -8  286.52    5.45   0
   8  -1  -8   -0.98    4.78   0
   4   1  -7   -1.68    3.35   0
   5   0  -7    0.94    2.69   0
   1   2  -4 6309.07   20.98   0
   1   4  -3   15.20    3.80   0
   9  -3   0    0.90    3.90   0
   3  -2   3   26.76    3.51   0
   3  -2   4  270.71    4.69   0
  -3   3   5    0.74    5.27   0
   0  -1   5  861.12    8.83   0
   3  -2   5   88.47    3.20   0
   0  -1   6   14.56    3.68   0
   3  -2   6   36.70    4.04   0
   0  -1   7   57.56    4.05   0
   4  -2   8   75.70    3.15   0
   1  -1  10   58.26    3.94   0
   2  -1  11   43.86    2.90   0
  10   0 -11    0.54    3.77   0
   7   3 -10   62.06    4.12   0
   2   3  -5   34.57    2.93   0
  11  -3  -3   28.26    4.45   0
  10  -3  -2    9.30    3.68   0
   9  -3  -1   27.94    3.91   0
   4  -2   0  217.56    6.01   0
   8  -3   1  125.12    4.70   0
   8  -3   2  371.51    6.23   0
   8  -3   3  299.71    4.93   0
   3  -2   7   42.98    2.94   0
   0  -1   8   41.43    3.77   0
   4  -2   9    6.93    3.78   0
  -3   2  11  101.91    5.97   0
  -1   0  11   -0.41    2.49   0
  -2   1  12   90.83    4.53   0
  10   2 -12   67.68    4.37   0
  12   0 -12  151.40    5.32   0
   9   1 -11   10.49    3.74   0
   7   2 -10  291.19    4.92   0
  11  -1 -10    1.65    5.11   0
   6   3  -9    6.83    2.62   0
   6   2  -9  263.96    5.33   0
   5   3  -8   -0.78    3.49   0
   4   3  -7   11.70    3.80   0
   7  -1  -7   85.50    6.10   0
   3   3  -6  323.88    5.05   0
   2   2  -5  207.34    4.48   0
   5  -1  -5   29.80    6.44   0
   2   4  -4   13.84    3.70   0
   0   3  -2   72.74    3.40   0
   0   4  -1   26.29    4.03   0
  -1   4   1  270.56    5.96   0
   1  -1   1 1070.72   13.39   0
  -2   3   2    8.10    3.84   0
   3  -2   2   17.38    3.50   0
   0  -1   4  435.27    6.56   0
  -3   1   7   93.82    5.24   0
  -2   0   7    1.62    3.46   0
  -3   1   8    0.66    3.56   0
  -2   0   8 1929.12   12.53   0
   3  -2   8   56.59    3.05   0
  -3   1   9  118.60    5.01   0
   0  -1   9    7.36    3.28   0
   1  -1  11  178.52    4.79   0
  13  -1 -11    2.66    5.17   0
   5   2  -8 1255.04    9.36   0
   4   2  -7  201.01    5.06   0
   3   2  -6   74.22    3.23   0
   6  -1  -6  316.37   10.35   0
   3   4  -5    2.46    3.89   0
   1   1  -3 4347.26   21.55   0
   0   2  -2  257.40    6.44   0
   5  -2  -2  114.24    5.65   0
   2  -1  -1  809.43   15.92   0
  -1   3   0  323.14    6.38   0
   8  -3   0   20.84    3.81   0
   7  -3   2  124.55    4.54   0
   7  -3   3   25.76    2.72   0
  -2   4   4   12.90    4.11   0
   7  -3   4   16.43    2.85   0
  -2   0   6 1765.15   13.17   0
  -2   0   9   -0.86    2.41   0
   3  -2   9   14.40    3.46   0
  -3   1  10  353.36    6.48   0
   0  -1  10  306.04    5.40   0
  -1   0  12  272.70    4.73   0
  11   1 -12    3.57    3.65   0
   9   2 -11   60.76    4.29   0
   8   1 -10  241.73    5.29   0
   9   0 -10    8.44    2.57   0
   5   4  -7   -1.51    2.67   0
   4   4  -6    5.93    2.81   0
   1   3  -3  382.17    5.87   0
  10  -3  -3    2.01    3.71   0
   1   4  -2    0.74    3.64   0
   9  -3  -2  132.58    5.10   0
   7  -3   1   52.02    3.97   0
   2  -2   5   83.46    3.28   0
  -3   1   6    5.56    4.61   0
   2  -2   6  412.22    5.40   0
   2  -2   7   -1.07    2.38   0
  -2   0  10    4.50    2.46   0
  -3   2  12   62.07    5.42   0
  -2   1  13    7.77    3.78   0
   8   3 -10   -0.42    2.67   0
  11  -3  -4   55.96    4.67   0
   8  -3  -1   15.41    3.64   0
  -1   2   0  215.56    6.40   0
   3  -2   1  369.60    6.61   0
  -2   2   2   23.22    4.30   0
   0  -1   3  262.45    6.54   0
   6  -3   3    7.47    3.50   0
   2  -2   4  110.39    3.60   0
   6  -3   4   62.83    4.19   0
  -2   0   5    0.64    4.33   0
   6  -3   5   68.19    4.20   0
   2  -2   8   14.49    2.65   0
   2  -2   9    7.51    3.54   0
  -3   1  11  127.89    4.72   0
  -2   0  11   -1.96    3.54   0
   0  -1  11    8.63    2.77   0
  11   0 -11   13.00    3.77   0
   8   2 -10  156.14    4.74   0
   7   3  -9  121.89    4.47   0
   7   1  -9  199.77    4.97   0
   8   0  -9    0.82    3.75   0
   2   3  -4    3.47    3.45   0
   2   1  -4  644.32    8.64   0
   2   4  -3   79.96    4.20   0
   1   2  -3  345.78    6.39   0
   0   4   0  393.77    6.64   0
   7  -3   0   50.45    4.06   0
  -1   4   2   -1.36    3.54   0
  -1   0   2 1183.15   19.09   0
   6  -3   2   45.45    3.98   0
   2  -2   3   14.16    3.49   0
  -1  -1   7   99.42    3.98   0
  -1  -1   8   32.73    3.62   0
  -1  -1   9  204.03    4.59   0
  10   1 -11   50.01    3.89   0
  10  -1  -9   68.26    5.79   0
   6   3  -8    0.60    2.55   0
   6   1  -8  648.20    7.32   0
   5   3  -7  241.31    5.02   0
   4   3  -6   21.33    3.55   0
   3   3  -5   -4.69    3.71   0
   3   4  -4   53.39    4.01   0
   2   0  -3    0.03    5.40   0
   0   3  -1   14.98    3.79   0
   4  -2  -1    3.08    3.77   0
   5  -3   4   47.27    3.90   0
  -2   4   5   41.81    4.52   0
   5  -3   5   26.75    3.86   0
  -3   3   6  292.46   11.55   0
  -1  -1   6  220.04    5.27   0
   5  -3   6   40.75    4.01   0
  -1  -1  10    6.28    3.27   0
   2  -2  10   55.27    3.00   0
  -3   1  12   26.64    3.78   0
  -2   0  12   45.39    3.73   0
   0  -1  12    3.92    2.56   0
  12   1 -12   92.63    4.52   0
  10   2 -11    4.34    3.95   0
   9   3 -10   91.27    4.24   0
   7   2  -9    4.07    2.58   0
   7   0  -8   24.10    3.94   0
   6   4  -7   55.06    2.96   0
   5   1  -7  319.85    5.80   0
   5   4  -6  107.75    4.27   0
   4   1  -6  407.18    6.62   0
   4   4  -5   47.42    3.06   0
   3   1  -5  226.48    5.26   0
   2   2  -4   98.95    4.75   0
   6  -3   1  120.46    4.54   0
  -2   3   3   97.92    5.65   0
   5  -3   3  201.27    5.01   0
   1  -2   6   59.57    3.13   0
   1  -2   7   44.77    2.81   0
   1  -2   8   31.46    2.55   0
   1  -2   9    9.65    3.49   0
  -1  -1  11   48.17    3.84   0
   9   1 -10   90.85    4.30   0
   6   2  -8  230.30    4.44   0
   5   2  -7  243.56    5.29   0
   3   2  -5  901.24    8.61   0
   9  -3  -3    5.15    3.89   0
   8  -3  -2   16.61    3.88   0
   1   4  -1  286.52    5.70   0
   0   1  -1 8306.41   35.75   0
   7  -3  -1    4.30    3.51   0
  -1   3   1   33.19    4.15   0
   2  -2   2   35.21    4.06   0
  -1  -1   5  250.13    5.13   0
   1  -2   5   32.80    2.78   0
   1  -2  10    6.42    3.50   0
  -3   1  13   42.39    4.03   0
  -2   0  13   -1.09    2.33   0
   9   2 -10    3.00    3.69   0
  10   0 -10  112.81    4.85   0
  12  -1 -10   16.06    4.17   0
   8   3  -9    2.88    3.73   0
   6   0  -7    1.63    3.55   0
   4   2  -6   49.15    3.16   0
  10  -3  -4  104.68    6.18   0
   1   3  -2  623.61    7.50   0
   3  -2   0 1184.29   11.82   0
   0   4   1   19.03    3.82   0
   5  -3   2  544.10    6.96   0
  -1   4   3   13.59    3.98   0
  -3   2   5  692.32   26.29   0
   4  -3   5  121.47    4.34   0
  -2   4   6   77.01    5.88   0
   4  -3   6  133.37    3.78   0
   4  -3   7   20.49    3.64   0
  -3   0   8  535.26    7.40   0
  -3   0   9    4.32    3.68   0
  -3   0  10   38.00    3.77   0
  -1  -1  12    3.93    2.74   0
  11   1 -11    0.32    3.78   0
  12   0 -11    4.35    3.88   0
   7   3  -8  110.45    4.29   0
   7   4  -7   19.14    3.92   0
   5   0  -6    4.74    3.79   0
   3   0  -4   16.26    4.74   0
   2   4  -2    5.12    2.72   0
   0   2  -1    4.79    4.41   0
   6  -3   0    5.07    3.47   0
   0  -1   2 8383.41   31.91   0
  -2   0   4  359.57    7.84   0
   1  -2   4    8.71    2.57   0
   4  -3   4  127.15    3.77   0
  -3   0  11    1.58    2.52   0
  11   2 -11   44.41    3.17   0
   8   2  -9   81.70    4.01   0
   8   1  -9    2.19    2.44   0
   6   3  -7   36.43    3.74   0
   6   4  -6   15.37    3.76   0
   5   4  -5   81.01    4.23   0
   4   0  -5    0.94    4.23   0
   4   4  -4  198.23    5.07   0
   3   4  -3   35.14    2.98   0
   2   3  -3   71.75    3.06   0
   5  -3   1  600.87    7.49   0
   4  -3   3  574.17    6.89   0
  -1  -1   4   11.88    4.14   0
  -3   0   7    0.91    3.55   0
   0  -2   7   29.72    3.73   0
   3  -3   7   21.01    3.88   0
  -2  -1   8  160.53    4.68   0
   0  -2   8  225.18    4.19   0
  -2  -1   9  208.73    4.13   0
   0  -2   9   77.04    3.24   0
  -4   2  10   11.19    4.83   0
  -2  -1  10   21.12    2.66   0
   0  -2  10    6.22    3.58   0
  -2  -1  11   26.45    3.62   0
  -3   0  12   62.75    3.10   0
   9   3  -9   91.68    4.11   0
   9   0  -9   16.19    3.88   0
   9  -1  -8    8.04    4.47   0
   5   3  -6  617.98    6.30   0
   4   3  -5    5.79    3.49   0
  11  -3  -5   14.93    5.09   0
   3   3  -4   48.60    2.90   0
   1   4   0   -0.19    3.70   0
   0   3   0    3.41    3.66   0
   1  -2   3   82.86    4.33   0
  -3   1   5  283.26   10.27   0
   3  -3   5   28.01    3.87   0
   0  -2   6   15.58    3.71   0
   3  -3   6    2.82    2.48   0
  -2  -1   7  467.10    6.39   0
   3  -3   8   15.10    2.62   0
  -4   1  10   14.97    3.63   0
  -4   2  11    4.02    3.83   0
  -4   1  11    0.80    3.49   0
   0  -2  11    6.68    3.36   0
  -2  -1  12   94.36    4.26   0
  -3   0  13    2.39    3.76   0
  10   2 -10   58.14    4.12   0
  10   1 -10    7.57    3.55   0
   7   2  -8  786.02    7.36   0
   7   1  -8  116.53    3.53   0
   1   2  -2 1563.10   11.97   0
   1  -1   0  532.42   11.53   0
   2  -2   1    3.59    3.84   0
   4  -3   2    9.09    3.74   0
  -2   4   7  134.39    7.12   0
  -4   2   9   -0.17    4.71   0
  -4   1   9   22.88    4.02   0
  -4   2  12   28.20    4.25   0
  -4   1  12   48.53    4.05   0
  12   1 -11   63.40    3.43   0
  13   0 -11    3.69    3.76   0
  11   0 -10  292.52    6.18   0
   8   3  -8   21.27    3.63   0
   6   2  -7  228.33    5.07   0
   8  -3  -3   54.05    5.39   0
   1   1  -2 8342.65   31.73   0
   7  -3  -2    1.25    3.58   0
   2   4  -1   88.45    4.36   0
   6  -3  -1   31.68    3.84   0
  -1   2   1   62.59    4.88   0
   0   4   2   19.95    3.79   0
  -1   4   4    0.74    3.97   0
   3  -3   4   32.05    2.77   0
   0  -2   5    5.48    2.33   0
  -2  -1   6 1827.34   12.02   0
   2  -3   7   65.62    3.94   0
   2  -3   8   81.77    3.86   0
  -4   1  13    4.50    3.53   0
  -2  -1  13    5.63    2.64   0
  13  -1 -10   13.05    4.00   0
   9   2  -9    5.99    3.54   0
  11  -1  -9   80.12    5.82   0
   7   3  -7  350.57    5.82   0
   6   1  -7   40.40    2.84   0
   7   4  -6  215.71    4.12   0
   5   2  -6  715.41    7.49   0
   6   4  -5   78.43    4.36   0
   2   2  -3  231.56    5.98   0
   5  -2  -3  367.44    9.79   0
   3   4  -2   24.94    3.85   0
   1   3  -1   36.57    3.74   0
   5  -3   0  102.85    4.45   0
  -1   3   2  560.08    8.43   0
  -2   3   4    4.71    4.06   0
  -3   0   6   32.30    3.34   0
   2  -3   6    2.48    3.27   0
  -4   1   8   63.56    5.12   0
  -1  -2   8   24.08    3.60   0
  -1  -2   9   32.06    2.75   0
  -1  -2  10   49.62    2.92   0
  -1  -2  11   44.15    3.71   0
  11   2 -10    1.80    3.87   0
  10   3  -9    6.62    2.50   0
   9   1  -9   16.93    3.56   0
   8   0  -8   66.69    4.78   0
  12  -2  -8   91.98    8.93   0
   5   1  -6  885.21    8.74   0
   4   2  -5    5.82    2.63   0
   5   4  -4  284.85    4.78   0
   3   2  -4  227.07    4.71   0
   6  -2  -4   89.36    7.45   0
   9  -3  -4    1.66    4.79   0
   4   4  -3  228.17    4.30   0
   2   1  -3 1810.12   14.06   0
   4  -2  -2  462.51    9.70   0
   3  -3   3  265.70    4.66   0
   0  -2   4  104.72    4.62   0
   2  -3   5   14.86    3.29   0
  -3   3   7  311.96   12.27   0
  -1  -2   7   24.99    3.74   0
  -4   0  10  123.52    4.51   0
  -3  -1  10  373.52    5.65   0
  -4   0  11    2.93    3.46   0
  -3  -1  11  113.74    4.15   0
  -4   0  12   61.03    3.84   0
  13   1 -11    3.29    3.62   0
  11   1 -10    3.04    3.63   0
   8   2  -8   56.47    3.73   0
   6   3  -6   23.51    2.81   0
   5   3  -5 1068.48    8.44   0
   4   1  -5  141.08    4.31   0
   3   1  -4  560.01    8.06   0
   2   3  -2    9.77    2.38   0
   1   4   1   48.14    4.04   0
  -1   1   1  265.25   10.17   0
   4  -3   1   26.18    3.77   0
   1  -2   2 1858.49   12.87   0
  -2   2   3  224.63    8.11   0
  -1  -1   3 3552.21   18.92   0
   1  -3   8   14.25    3.47   0
  -4   0   9    1.47    3.59   0
  -3  -1   9  119.11    3.39   0
   1  -3   9    9.04    3.44   0
  -3  -1  12   27.76    2.47   0
  -4   0  13    2.49    3.54   0
  -3  -1  13   41.97    3.89   0
  10   0  -9    1.51    3.41   0
   9   3  -8    4.68    2.66   0
   8  -1  -7   35.69    4.24   0
   8   4  -6    8.62    3.67   0
   4   3  -4   75.95    3.17   0
   3   3  -3   43.09    2.82   0
   2  -3   4    4.20    3.23   0
  -1   4   5   15.81    4.77   0
  -2  -1   5  240.90    5.15   0
  -1  -2   6   75.11    3.15   0
   1  -3   7    2.06    3.34   0
  -4   2   8   27.78    6.24   0
  -3  -1   8    0.52    3.08   0
  12   2 -10   22.04    3.81   0
  12   0 -10  309.63    6.15   0
  10   2  -9   17.54    3.52   0
   8   1  -8   -0.33    2.31   0
   8   3  -7    2.82    3.62   0
   7   2  -7   56.42    3.92   0
   7   0  -7   92.37    4.84   0
   7   4  -5    0.45    3.50   0
   3  -2  -1  193.49    6.29   0
   2   4   0    4.76    3.73   0
   0   2   0  663.02    9.33   0
   0   3   1   13.70    3.64   0
   3  -3   2   33.46    2.74   0
   0   4   3    9.18    3.68   0
   1  -3   6  139.74    4.33   0
  -2  -2   9   71.08    3.76   0
  -2  -2  10  155.78    4.39   0
  -2  -2  11   46.40    3.59   0
  -2  -2  12   19.15    3.47   0
   6   4  -4   51.52    3.05   0
   5   4  -3   53.75    3.86   0
   4   4  -2   89.28    4.18   0
   3   4  -1   -0.12    3.48   0
   0  -1   1 7879.44   34.21   0
  -1  -2   5  607.44    6.95   0
  -3  -1   7   97.10    4.07   0
  -4   0   8   50.79    3.15   0
  -2  -2   8   -0.68    3.39   0
   0  -3   9   25.69    3.49   0
  12   1 -10   24.01    2.69   0
  10   1  -9   83.45    3.36   0
  10   3  -8   71.32    3.11   0
   7   1  -7  123.21    4.19   0
   7   3  -6    3.01    2.42   0
   6   2  -6   30.80    3.96   0
  10  -3  -5   28.01    5.74   0
   6  -3  -2    8.39    4.23   0
   5  -3  -1   27.30    3.86   0
   2  -2   0   39.71    4.31   0
   7  -4   1   15.79    3.80   0
   6  -4   2   18.71    3.65   0
   0  -2   3  779.45    7.85   0
   2  -3   3   16.75    3.40   0
  -3   0   5    1.89    4.14   0
   1  -3   5   73.81    2.91   0
  -4   1   7    0.96    3.51   0
   0  -3   8   31.28    2.69   0
  -4  -1  11    2.53    3.23   0
  -5   1  12    1.92    4.27   0
  -4  -1  12   49.43    3.60   0
  11   2  -9   22.31    3.88   0
  12  -1  -9   12.29    4.73   0
   9   2  -8    2.31    2.43   0
  10  -1  -8   15.09    4.78   0
   6   0  -6 2080.22   14.92   0
   8   4  -5   26.83    3.77   0
   6   3  -5   71.98    3.92   0
   5   2  -5   -1.02    3.45   0
   1   2  -1   71.55    4.90   0
   1   3   0  244.37    4.81   0
   4  -3   0    9.65    3.62   0
   1   4   2   -0.11    2.54   0
  -1   3   3  338.76    7.14   0
  -2   0   3    0.02    3.79   0
   5  -4   3   26.95    3.84   0
  -2  -2   7    1.43    3.48   0
   0  -3   7  190.25    3.89   0
  -4  -1  10   10.98    3.50   0
  -5   1  11    6.09    3.43   0
  -5   1  13   30.43    4.06   0
  -4  -1  13    2.39    2.63   0
  13   1 -10   31.34    3.84   0
  13   0 -10    4.79    2.69   0
  11   3  -8  177.79    4.83   0
   9   0  -8   91.58    4.48   0
   9   3  -7   14.10    2.43   0
   7   4  -4   -3.32    3.24   0
   5   3  -4    1.62    3.50   0
   4   2  -4  533.29    6.95   0
   7  -3  -3   10.24    3.94   0
   2   3  -1  136.11    4.49   0
   2   4   1   48.48    3.93   0
   3  -3   1  287.29    5.78   0
   0   4   4   13.49    3.79   0
  -2  -1   4  646.67    8.36   0
   1  -3   4  128.56    4.22   0
   4  -4   4    8.26    3.54   0
  -2   3   5   40.70    5.17   0
  -1   4   6  202.61    6.24   0
  -3  -1   6    2.81    3.56   0
   0  -3   6   17.40    3.55   0
  -4   0   7    1.88    3.51   0
  -4  -1   9   22.16    3.27   0
  -3  -2  10  116.46    3.96   0
  -5   0  11    1.85    3.45   0
  -3  -2  11  100.08    4.12   0
  -5   0  12   83.84    4.08   0
  -3  -2  12   66.10    3.98   0
  -5   0  13   -0.27    3.67   0
  -5   0  14   14.25    3.60   0
  11   1  -9   97.89    4.31   0
  11   0  -9    4.03    3.49   0
   9   1  -8    8.97    3.46   0
   8   2  -7    3.80    2.59   0
   8   3  -6   81.25    4.01   0
   6   1  -6  313.97    5.18   0
   7  -1  -6   12.89    4.33   0
   6   4  -3   89.59    4.20   0
   4   3  -3   14.86    2.42   0
   3   2  -3   21.88    2.80   0
   3   3  -2   11.15    2.27   0
   2   2  -2   24.24    3.08   0
   3   4   0   19.66    3.48   0
   7  -4   0   65.76    4.12   0
   1  -2   1   58.22    4.68   0
   6  -4   1    0.02    3.50   0
  -1  -2   4 7129.14   21.85   0
  -2  -2   6   55.59    3.81   0
  -3  -2   9   66.61    3.88   0
  -1  -3   9    1.79    3.40   0
  -5   1  10   18.46    3.61   0
  -1  -3  10   34.98    2.75   0
  12   2  -9   88.36    3.48   0
  10   2  -8    4.44    3.37   0
  10   3  -7   31.47    3.73   0
   5   0  -5   56.89    5.01   0
   5   4  -2    7.10    2.37   0
   4   4  -1    5.76    3.45   0
   8  -4  -1   55.92    4.45   0
   2  -3   2  267.84    5.40   0
   5  -4   2  221.07    5.06   0
   3  -4   5    8.53    3.54   0
  -1  -3   8   19.43    2.62   0
  -5   0  10   44.41    3.61   0
  14   0 -10    2.27    2.63   0
   7   2  -6    0.82    3.29   0
   7   3  -5  259.41    5.02   0
   5   1  -5   32.49    3.05   0
   8   4  -4    2.65    3.49   0
   8  -3  -4   25.18    5.56   0
   0   1   0    0.75    5.48   0
   0   3   2   83.29    4.65   0
  -1  -1   2 9999.99   34.18   0
   1   4   3   22.06    3.82   0
   4  -4   3   18.10    2.52   0
   0  -3   5   77.34    3.20   0
  -1  -3   7  234.44    4.64   0
  -4  -1   8   56.00    2.72   0
  -3  -2   8   37.44    3.74   0
  -5   2  12    5.30    4.58   0
  13  -1  -9   14.58    4.64   0
   8   1  -7   64.11    3.86   0
   8   0  -7    0.83    3.43   0
  -1   2   2 1309.11   13.69   0
   0  -2   2  200.05    4.92   0
   1  -3   3    4.04    2.36   0
   3  -4   4   19.35    3.66   0
   2  -4   6    6.48    2.45   0
  -1   4   7    5.90    4.07   0
  -5   1   9   50.52    4.85   0
  -5   0   9    0.05    3.29   0
  -2  -3  10    9.93    3.29   0
  -5  -1  11    6.51    3.51   0
  -5  -1  12    0.61    2.32   0
  -4  -2  12   34.02    3.75   0
  -5  -1  13   28.92    2.72   0
  12   1  -9   10.17    2.44   0
  12   0  -9   -0.21    3.44   0
  11   2  -8  605.60    6.80   0
  10   1  -8   16.76    3.48   0
  13  -2  -8   48.27    6.29   0
  11   3  -7  114.85    3.40   0
   9   2  -7   11.11    2.39   0
   9   3  -6   21.53    2.72   0
   6   2  -5   25.13    3.52   0
   6   3  -4   59.55    2.99   0
   4   1  -4   22.37    3.40   0
   7   4  -3    1.18    2.72   0
   6   4  -2    1.06    3.52   0
   6  -4   0    7.65    3.62   0
   1   3   1  262.63    5.64   0
   5  -4   1  287.08    5.82   0
   2   4   2    3.06    3.49   0
   0   4   5    2.14    3.47   0
  -3  -1   5  289.75    6.15   0
  -2  -2   5  195.82    4.15   0
   2  -4   5   19.12    3.56   0
  -1  -3   6  298.74    5.10   0
  -3  -2   7   95.46    4.15   0
  -2  -3   9   12.74    2.48   0
  -4  -2  10   11.60    3.11   0
  -5   2  11   16.41    5.23   0
  -4  -2  11    4.36    2.40   0
  10   0  -8    6.32    2.36   0
   5   3  -3   87.64    3.32   0
   3   1  -3  349.84    6.88   0
   5   4  -1   94.82    4.28   0
   1   1  -1  299.98    8.32   0
   4  -3  -1   10.88    3.70   0
   7  -4  -1  153.53    5.14   0
   4   4   0    0.23    3.34   0
   3  -3   0  103.68    4.60   0
   3   4   1   50.69    3.91   0
   4  -4   2  107.09    4.35   0
   0  -3   4    1.65    2.21   0
  -4  -1   7    0.56    2.16   0
  -3   3   8   12.10    6.07   0
  -2  -3   8    0.76    3.37   0
  -5  -1  10   19.01    2.48   0
  -6   0  14   24.92    3.75   0
  13   1  -9   14.33    3.30   0
  12   2  -8  155.38    4.51   0
  11  -1  -8  178.60    5.63   0
   9  -1  -7  100.41    5.16   0
  10   3  -6    2.57    3.43   0
   8   2  -6    5.00    3.41   0
   7   1  -6   18.88    3.29   0
   8   3  -5   13.36    2.51   0
   5   2  -4   20.15    2.65   0
   8   4  -3   22.97    3.66   0
   4   3  -2  106.34    3.27   0
   2   1  -2 1932.20   14.67   0
   5  -3  -2   51.01    4.78   0
   3   3  -1    6.20    3.24   0
   2   3   0   22.63    2.66   0
   2  -3   1    3.99    3.25   0
  -1  -2   3  293.84    5.18   0
   3  -4   3    1.78    2.35   0
  -1   3   4  196.61    5.89   0
  -4   0   6   22.07    3.18   0
   1  -4   6   50.03    3.87   0
  -4  -2   9    0.32    3.35   0
  -6   0  12  971.08    8.81   0
  -6   1  13   31.50    4.54   0
  -6   0  13    4.10    2.51   0
  13   0  -9   -0.68    3.38   0
  14  -1  -9    9.86    3.97   0
  10   2  -7  238.31    4.73   0
   7   3  -4  152.77    4.46   0
   4   2  -3   26.99    3.66   0
   8  -4  -2   -0.44    3.63   0
   0   2   1    5.83    3.88   0
   1  -3   2   59.10    3.79   0
  -2  -1   3 1789.77   13.52   0
   1   4   4   83.14    4.42   0
   2  -4   4  129.67    3.48   0
  -1  -3   5  913.45    7.73   0
  -3  -2   6   86.47    4.00   0
  -2  -3   7  252.11    4.87   0
  -5   0   8  245.73    5.70   0
  -5  -1   9   48.31    2.83   0
  -3  -3  10   -1.25    3.26   0
  14   1  -9   19.59    3.66   0
  13   2  -8   64.96    4.04   0
  11   1  -8  198.98    4.11   0
   9   1  -7  133.74    4.21   0
  11   3  -6   25.09    3.52   0
   7   0  -6  439.98    7.05   0
   3   0  -3   25.25    4.04   0
   7   4  -2   30.35    2.92   0
   3   2  -2   61.24    4.10   0
   1   2   0  215.73    6.00   0
   2   4   3   17.53    3.67   0
  -3   0   4   13.69    4.25   0
   1  -4   5   49.83    3.71   0
   0   4   6   56.65    4.30   0
  -2   3   6  339.22    8.49   0
   0  -4   7   78.08    3.93   0
  -4  -2   8   32.84    3.47   0
  -3  -3   9   18.91    3.47   0
  -6   0  11    2.27    3.22   0
  -6   1  12  109.22    5.12   0
  -5  -2  12    5.87    2.16   0
  -6  -1  13   28.84    3.36   0
  14   0  -9    0.69    3.35   0
  11   0  -8    5.75    3.30   0
   9   3  -5   25.42    2.54   0
   7   2  -5   71.31    3.76   0
   6   1  -5  535.03    6.84   0
   6  -1  -5  467.05   10.74   0
   6   3  -3   10.98    3.37   0
   6  -3  -3    7.81    4.33   0
   6   4  -1   25.33    2.64   0
   2   2  -1    2.42    3.90   0
   5   4   0  371.57    5.85   0
   5  -4   0  349.14    6.14   0
   4   4   1   21.10    3.27   0
   4  -4   1   18.23    3.38   0
   3   4   2  154.20    4.59   0
   3  -4   2  161.92    4.33   0
   0  -3   3   47.73    3.47   0
  -2  -2   4   78.47    3.36   0
  -4   1   6  382.53   10.16   0
  -4  -1   6  398.17    6.18   0
  -5  -2  11   13.24    2.39   0
  -6  -1  12  116.19    3.37   0
  12   1  -8  128.13    4.23   0
  11   2  -7    5.19    2.43   0
   9   0  -7    0.00    3.48   0
  11  -2  -7    0.95    4.90   0
   9   2  -6  101.23    3.88   0
   8   4  -2    0.80    3.36   0
   5   3  -2   47.96    3.62   0
   2  -2  -1    1.12    3.58   0
   6  -4  -1   32.16    3.75   0
   1  -2   0  239.44    6.12   0
   0   3   3   48.55    4.20   0
   2  -4   3   19.94    3.17   0
  -2  -3   6  296.48    4.41   0
   0  -4   6   54.39    3.80   0
  -5   1   8  268.45    7.38   0
  -5  -1   8  249.02    4.31   0
  -3  -3   8   14.80    2.43   0
  -6   0  10 1615.45   11.29   0
  -5  -2  10    2.96    2.15   0
  -6   1  11  391.46    7.26   0
  -6  -1  11  399.84    5.77   0
  -4  -3  11   24.60    3.53   0
  12  -1  -8   93.17    4.97   0
  10   3  -5   50.40    3.69   0
   8   3  -4   25.84    2.43   0
   6   2  -4  133.14    4.22   0
   3  -2  -2   57.50    5.24   0
   7   4  -1  153.60    4.71   0
   4   3  -1    9.38    3.10   0
   0  -2   1    2.69    4.04   0
   1   3   2   47.26    3.95   0
  -2   2   4   80.28    6.14   0
  -1  -3   4  185.33    3.73   0
   1  -4   4   87.46    3.72   0
   1   4   5   49.97    3.95   0
  -4  -2   7  186.92    4.60   0
  -5   2  10    3.66    5.50   0
  -4  -3  10    3.72    3.18   0
  13   1  -8   18.49    3.55   0
  12   2  -7  143.63    3.76   0
  10   1  -7   94.17    3.19   0
   8   1  -6   62.80    2.85   0
   6   4   0    6.97    3.56   0
   3   3   0  105.83    3.95   0
   2   3   1    1.73    3.25   0
  -3  -1   4  516.06    6.91   0
  -3  -2   5  822.58    7.28   0
   0  -4   5    2.98    3.18   0
   0   4   7   61.33    4.48   0
  -3  -3   7  382.52    5.28   0
  -1  -4   7    8.21    2.36   0
  -5  -2   9    1.31    2.20   0
  -6  -1  10  840.63    7.07   0
  -7   0  14   17.01    3.54   0
  12   0  -8   14.87    2.62   0
  13   2  -7    5.17    3.52   0
  10   2  -6  916.26    7.60   0
   9  -2  -6   54.76    6.74   0
  11   3  -5   25.40    2.60   0
   8   2  -5   -0.11    3.24   0
   6   0  -5    0.76    3.52   0
   9  -3  -5   17.19    7.27   0
   9   3  -4    2.07    3.20   0
   5   1  -4  172.47    4.37   0
   7   3  -3   17.09    2.39   0
   7  -4  -2   18.40    3.76   0
   5   4   1  292.03    5.40   0
   4   4   2  114.35    4.18   0
  -1  -2   2 1495.88   11.11   0
   3   4   3    0.13    3.37   0
   2   4   4  111.17    3.68   0
  -2  -3   5   40.00    3.64   0
  -5   0   7    1.46    3.19   0
  -4  -3   9    9.26    2.42   0
  -6  -2  12   21.04    2.29   0
  -7   0  13   -1.03    3.39   0
  14   1  -8   55.50    3.75   0
  10  -1  -7   92.56    4.42   0
   8  -1  -6   66.31    4.82   0
   5   2  -3  389.65    5.21   0
   3  -3  -1    2.88    3.46   0
   2  -3   0   18.53    3.66   0
   1  -3   1  270.16    5.28   0
   3  -4   1   38.52    3.47   0
   0  -3   2   95.66    4.00   0
   2  -4   2    1.08    3.23   0
  -1   3   5  763.72    9.69   0
  -1  -4   6  248.70    4.82   0
  -5  -1   7  320.03    5.34   0
  -5  -2   8 1184.56    8.49   0
  -2  -4   8  248.08    4.16   0
  -6   0   9    0.73    3.44   0
  -6   1  10  905.61   11.20   0
  -6  -2  11    4.96    2.27   0
  -5  -3  11   12.74    3.25   0
  -7   0  12  419.84    6.28   0
  -7  -1  13  168.45    3.83   0
  13   0  -8    2.76    3.13   0
  13  -1  -8   18.20    3.61   0
  11   1  -7   77.64    2.97   0
  10   0  -7    2.63    3.09   0
  11   2  -6  294.34    4.80   0
   8   0  -6  149.27    4.65   0
   7   1  -5   29.11    3.26   0
  10   3  -4  158.96    4.25   0
   6   3  -2    8.76    2.43   0
   7   4   0   66.64    3.81   0
   4  -4   0   -0.36    3.30   0
  -2  -2   3  209.50    5.50   0
   1  -4   3   13.68    2.36   0
  -4   0   5    1.14    3.76   0
   1   4   6   38.83    3.84   0
  -4  -2   6   50.68    2.85   0
  -3  -3   6  423.07    5.65   0
  -4  -3   8   71.79    2.92   0
  -6  -1   9  475.26    5.49   0
  -7  -1  12  156.41    4.32   0
   9   1  -6    0.74    2.85   0
   9   2  -5   19.47    3.35   0
   7   2  -4  143.08    3.69   0
   7  -3  -4  123.46    7.25   0
   8   3  -3   56.28    2.78   0
   4   1  -3  499.69    6.77   0
   4   2  -2  402.97    5.40   0
   5   3  -1   21.85    3.28   0
   5  -4  -1   74.56    4.05   0
   0  -1   0    1.34    5.10   0
   6   4   1   -0.10    3.48   0
  -1  -3   3  306.21    4.48   0
   0  -4   4   13.58    2.35   0
   2   4   5   15.50    3.49   0
  -4  -1   5  166.66    4.24   0
  -2  -4   7  143.64    3.45   0
  -3   3   9   15.29    5.08   0
  -6  -2  10    5.03    2.05   0
  -5  -3  10   71.51    2.85   0
  14   0  -8  199.32    4.90   0
  14  -1  -8   46.42    3.93   0
  12   1  -7  193.05    4.64   0
  12   2  -6   38.60    2.49   0
  11   3  -4   98.29    3.73   0
   4  -2  -3   11.35    4.33   0
   8  -4  -3   11.34    4.43   0
   4  -3  -2   66.97    4.15   0
   3   2  -1  318.33    5.71   0
   1  -1  -1  267.31    9.53   0
   4   3   0   10.27    3.08   0
  -1  -1   1  300.30    7.89   0
   5   4   2  290.42    5.45   0
   4   4   3   30.82    3.68   0
  -1   2   3  278.62    7.02   0
   3   4   4   19.98    3.57   0
   0   3   4    1.99    3.31   0
  -3  -2   4  277.04    5.19   0
  -2  -3   4    6.48    2.89   0
  -1  -4   5   16.74    2.29   0
  -2   3   7  240.04    7.21   0
  -7   0  11   -2.15    3.07   0
  -7  -1  11   23.19    2.52   0
  -7   1  13  173.15    5.41   0
  11   0  -7    0.70    3.01   0
  12  -2  -7  132.93    6.16   0
  13   2  -6   21.02    3.36   0
   9   3  -3    6.27    2.38   0
   7   3  -2   -0.68    2.16   0
   7   4   1   24.41    3.48   0
   3   3   1  284.47    5.12   0
   1   3   3    8.07    3.18   0
  -2  -4   6   98.66    3.86   0
  -5  -2   7  210.16    3.81   0
  -4  -3   7    7.96    2.25   0
  -6  -1   8  600.81    6.68   0
  -3  -4   8   28.55    2.55   0
  -6  -2   9  255.42    4.51   0
  -5  -3   9   10.59    2.25   0
  -7  -2  12   -1.74    2.36   0
  13   1  -7   13.47    2.25   0
  11  -1  -7   56.99    3.85   0
  10   1  -6  550.69    6.26   0
  10   2  -5   46.98    2.70   0
   8   2  -4   28.08    3.33   0
   6   1  -4  677.81    7.34   0
   5   0  -4  192.11    5.79   0
   6   2  -3  202.75    3.90   0
   3   1  -2 1395.81   11.47   0
   6  -4  -2    0.38    3.25   0
   2   2   0   30.85    3.01   0
   1   2   1   53.39    4.03   0
   2  -4   1   52.95    3.53   0
   6   4   2   16.97    3.29   0
   2   3   2  212.79    4.40   0
   0   2   2  218.90    6.10   0
  -2  -1   2 2371.54   16.02   0
   1  -4   2    2.63    3.06   0
  -3  -3   5    1.41    3.04   0
  -5  -1   6  843.13    7.99   0
  -6   0   8    0.83    3.00   0
  -7  -1  10  110.42    3.87   0
  -7  -2  11    3.07    3.15   0
  -6  -3  11   10.69    2.17   0
  -7   1  12  143.23    5.66   0
  -8   0  14  165.95    4.65   0
  14   1  -7    6.19    2.17   0
  11   2  -5    1.59    2.99   0
   8   1  -5   30.24    3.02   0
  10   3  -3   -0.77    2.17   0
   8   3  -2   23.18    3.17   0
   6   3  -1   28.14    2.55   0
   3  -4   0   18.10    3.13   0
   5   4   3   32.48    3.55   0
   0  -4   3    4.38    2.16   0
  -1  -4   4   -0.49    2.89   0
   3   4   5    5.74    3.30   0
  -4  -2   5    5.73    2.21   0
   2   4   6    6.50    3.45   0
  -3  -4   7   21.94    3.08   0
  -5  -3   8   -1.44    2.98   0
  -7   0  10   51.11    3.63   0
  -6  -3  10   48.12    3.32   0
  -8  -1  13  147.54    3.73   0
  12   0  -7    0.24    3.12   0
   9   0  -6  129.97    3.82   0
   7   0  -5    1.23    3.04   0
  11   3  -3   42.16    2.61   0
   5  -3  -3   98.39    5.45   0
   5   2  -2  156.41    4.21   0
   5   3   0  102.62    3.79   0
   0  -3   1   15.52    3.20   0
  -3  -1   3  335.19    6.39   0
   4   4   4    6.79    2.35   0
  -2  -4   5   59.47    3.61   0
  -5   0   6    6.19    3.29   0
  -4  -3   6   22.68    2.22   0
  -6  -2   8  258.10    4.75   0
  -6   1   9  454.11    8.36   0
  -7  -2  10  301.33    4.92   0
  -8  -1  12   54.78    3.40   0
  -8   0  13   -0.93    3.36   0
  13  -2  -7    0.06    4.29   0
  11   1  -6    6.22    1.96   0
  12   2  -5    3.65    2.33   0
   9   2  -4   24.72    3.22   0
   5  -1  -4  114.32    6.94   0
   7   2  -3  171.38    4.36   0
   9   3  -2  144.49    4.09   0
   7   3  -1    6.98    2.97   0
   2   1  -1 1021.33   11.36   0
   4  -4  -1    6.27    3.23   0
   1  -3   0  300.63    5.61   0
  -1  -3   2  449.14    5.42   0
  -2  -3   3   92.86    3.44   0
  -1   3   6  259.50    6.31   0
  -5  -2   6  686.02    6.74   0
  -5   1   7  301.19    8.16   0
  -4  -4   8   18.42    2.42   0
  13   0  -7    2.85    2.13   0
  12  -1  -7  182.33    5.24   0
  12   1  -6  536.28    6.08   0
   9  -1  -6    1.17    3.17   0
  13   2  -5   18.34    2.37   0
  10   3  -2   17.94    3.20   0
   0  -2   0  709.81    8.92   0
   4   3   1   37.97    3.49   0
  -1  -2   1   48.66    3.23   0
  -2   0   2 7859.60   42.94   0
  -2  -2   2   28.81    3.64   0
  -3  -4   6   20.24    2.16   0
  -6  -1   7   42.17    3.23   0
  -5  -3   7  242.53    4.50   0
  -7  -1   9  165.77    3.63   0
  -6  -3   9    1.36    2.12   0
  -7  -3  11   26.86    3.29   0
  -8   0  12 1314.35   10.08   0
  -8  -2  12   14.34    3.35   0
  14   0  -7    3.62    3.26   0
  13   1  -6   70.99    3.67   0
  10   0  -6    0.83    3.13   0
   9   1  -5   14.37    2.11   0
  10   2  -4    3.41    2.97   0
   5   1  -3   74.92    3.51   0
   7  -4  -3    1.29    3.31   0
  11   3  -2   54.84    3.80   0
   4   2  -1    2.92    2.29   0
   2  -3  -1   73.29    4.05   0
   3   3   2   50.31    3.48   0
  -3  -2   3   28.49    3.42   0
  -4  -1   4   24.02    2.79   0
  -3  -3   4   32.47    2.50   0
   0   3   5   76.12    4.06   0
  -3   2   6   68.12    6.48   0
  -4  -4   7    7.37    3.07   0
  -7  -2   9   -0.21    2.97   0
  -3   3  10    1.74    5.03   0
  -7   1  11   25.92    3.89   0
  -8  -1  11  228.84    4.12   0
  -6   2  12   24.30    6.36   0
  13  -1  -7   14.77    3.25   0
  14   1  -6    5.16    2.40   0
   7  -1  -5   30.46    4.23   0
  11   2  -4    7.82    3.11   0
   7   1  -4    1.36    2.09   0
   8   2  -3   40.29    3.38   0
   5  -4  -2   11.40    3.22   0
   8   3  -1   13.70    2.25   0
   1  -2  -1   65.60    4.24   0
   6   3   0    2.83    2.09   0
   1   1   0  560.66    9.85   0
   1  -4   1   44.11    3.43   0
   0  -4   2   10.90    2.29   0
   2   3   3   15.01    2.26   0
  -1  -4   3    9.56    2.21   0
   1   3   4  110.02    4.20   0
  -2  -4   4   13.51    3.05   0
  -4  -3   5    4.23    3.04   0
  -6  -2   7  208.39    3.85   0
  -2   3   8    3.13    3.53   0
  -6  -3   8    1.41    3.13   0
  -7   0   9   -1.08    3.24   0
  -7  -3  10   63.52    3.46   0
  -8  -2  11   13.90    3.20   0
  14  -1  -7    2.03    3.18   0
  10  -2  -6  395.47    9.56   0
  10   1  -5  783.65    6.94   0
  12   2  -4    7.11    3.20   0
   4   0  -3    0.79    3.97   0
   6   2  -2  853.94    6.99   0
   9   3  -1   32.31    3.31   0
   3   2   0 1193.59    9.43   0
   2  -4   0    1.81    3.04   0
   5   3   1  579.57    6.32   0
  -3   0   3   46.48    5.30   0
  -4  -2   4  475.58    5.63   0
  -5  -1   5   41.13    3.63   0
  -3  -4   5    2.59    3.02   0
  -6   0   7    1.45    2.93   0
  -5  -4   8   43.85    3.29   0
  -8   0  11   -2.55    2.84   0
  -9  -1  13   40.03    3.36   0
  11   0  -6  191.12    4.38   0
   8   0  -5   -1.36    3.05   0
  13   2  -4  102.63    3.08   0
   9   2  -3   -0.36    2.88   0
   3  -3  -2   10.46    3.26   0
  10   3  -1  149.89    3.88   0
   7   3   0   34.66    2.50   0
  -5  -2   5    1.03    2.99   0
  -5  -3   6  646.33    5.72   0
  -4  -4   6    6.16    3.02   0
  -7  -1   8  162.14    3.54   0
  -8  -1  10  230.70    4.01   0
  -8  -2  10  127.82    3.86   0
  10  -1  -6  468.23    7.19   0
  11   1  -5   46.97    2.56   0
   8   1  -4   84.27    3.37   0
   6   0  -4 2112.01   13.95   0
   4   1  -2 1836.19   12.33   0
   2  -1  -2 1895.27   35.51   0
   3  -4  -1    0.76    2.99   0
   8   3   0   34.73    3.22   0
   2   2   1    2.50    3.39   0
   0   1   1 7493.54   37.17   0
   4   3   2   10.55    3.10   0
  -1   3   7  238.65    6.36   0
  -7  -2   8  821.30    6.64   0
  -7  -3   9  104.55    2.97   0
  -9  -1  12   27.21    3.22   0
  -9  -2  12    8.03    3.14   0
  -8   1  13  162.75    5.83   0
  12   0  -6  213.89    4.17   0
  12   1  -5  140.44    4.12   0
  13   1  -5    5.88    3.21   0
  10   2  -3    2.76    2.13   0
   6   1  -3 1021.59    8.56   0
   7   2  -2    3.01    2.12   0
   5   2  -1  504.41    5.54   0
   6   3   1  136.64    3.85   0
  -1  -3   1   35.25    3.44   0
  -2  -3   2   10.50    2.13   0
   3   3   3  352.42    5.46   0
  -3  -3   3   49.81    3.25   0
  -4   0   4 7650.53   30.35   0
  -6  -1   6  349.96    5.36   0
  -6  -2   6   27.58    3.42   0
  -6  -3   7   27.97    2.31   0
  -5  -4   7    1.09    1.90   0
  -9   0  13   -0.65    3.30   0
  13   0  -6   78.80    2.88   0
  14   0  -6   71.22    3.70   0
  14   1  -5   28.57    2.54   0
  11   2  -3    2.58    2.29   0
  12   2  -3   18.58    3.08   0
  13   2  -3   37.89    3.49   0
   2  -2  -2   20.50    3.68   0
   9   3   0   -1.31    2.21   0
  10   3   0   23.13    3.21   0
   0  -3   0    4.13    3.00   0
   0  -4   1   24.21    3.28   0
   1   2   2 1810.79   12.57   0
  -1  -4   2    4.28    2.97   0
  -2  -4   3   66.16    2.74   0
   2   3   4    6.35    3.01   0
  -4  -3   4   76.94    2.82   0
  -3  -4   4   52.55    3.38   0
   1   3   5   71.19    3.67   0
  -2   2   5  208.37    6.96   0
   0   3   6    9.62    3.30   0
  -8  -1   9   -0.89    2.95   0
  -8  -2   9   73.34    3.31   0
  -7   1  10  108.33    5.53   0
  -8   0  10    7.63    2.98   0
  -8  -3  10    1.21    2.95   0
  11  -1  -6    5.80    3.03   0
  11  -2  -6  189.64    6.53   0
   9   0  -5    0.99    3.07   0
   9   1  -4  187.45    4.11   0
   6  -4  -3   51.58    4.63   0
   8   2  -2   20.03    3.13   0
   7   3   1   40.69    2.67   0
   5   3   2  419.93    4.98   0
   0   2   3  763.88    9.25   0
  -5  -3   5  979.19    7.42   0
  -4  -4   5   54.86    3.42   0
  -7   0   8   32.23    3.32   0
  -7  -3   8   83.46    2.71   0
  -6  -4   8    2.09    2.14   0
  -2   3   9   12.70    3.54   0
  -9  -1  11   10.97    2.30   0
  -9  -2  11   52.94    2.70   0
   9   2  -2    3.98    2.86   0
   4  -4  -2   45.27    3.94   0
   6   2  -1   61.02    3.43   0
   1  -3  -1   37.50    3.45   0
   4   2   0  207.90    3.97   0
   1  -4   0   -0.09    3.06   0
   8   3   1  143.84    4.10   0
  -3  -2   2   57.97    3.65   0
   4   3   3  513.39    6.03   0
  -1   2   4 6192.98   27.14   0
  -5   0   5   85.27    4.70   0
  -6  -3   6   25.95    3.10   0
  -5  -4   6   94.06    3.59   0
  -7  -1   7  125.01    3.81   0
  -7  -2   7   51.74    2.50   0
  -6   1   8  552.71    9.50   0
  -8   1  12   57.36    4.68   0
  -9   0  12    5.47    2.28   0
 -10  -1  13    9.17    3.14   0
  12  -1  -6  513.93    6.77   0
  10   0  -5    0.70    2.97   0
   8  -1  -5   28.57    3.97   0
  10   1  -4  574.63    5.49   0
   6  -3  -4   43.70    5.92   0
   7   1  -3   29.15    3.16   0
   4  -3  -3   11.72    3.81   0
  10   2  -2  123.41    3.75   0
   3   1  -1   37.88    4.12   0
   9   3   1   64.46    2.83   0
  -2  -2   1    2.37    3.42   0
   6   3   2   32.98    2.60   0
  -2   1   3 1433.33   31.83   0
  -4  -2   3   19.78    2.35   0
  -6  -4   7   64.10    3.27   0
  -8  -3   9    2.49    2.18   0
  -9  -2  10    5.19    2.76   0
  13  -1  -6   62.30    3.66   0
  14  -1  -6    3.34    3.11   0
  12  -2  -6   23.16    3.36   0
  11   1  -4   53.21    2.46   0
  12   1  -4   48.10    3.22   0
  13   1  -4   48.01    3.44   0
  14   1  -4   11.45    2.35   0
   7   0  -4  593.92    7.11   0
  11   2  -2  187.80    3.56   0
  12   2  -2    7.04    2.10   0
   5   1  -2  385.63    5.96   0
   7   2  -1   22.58    3.29   0
   2  -4  -1   80.37    3.71   0
  -1  -2   0  221.82    5.42   0
   7   3   2  123.37    3.83   0
  -3  -1   2 1487.42   11.48   0
  -4  -1   3  514.34    6.47   0
   3   3   4   39.63    3.32   0
  -5  -2   4   20.53    2.25   0
  -7  -3   7  353.34    4.81   0
  -1   3   8   21.45    3.75   0
  -8  -2   8   58.43    3.04   0
  -9  -1  10   97.58    3.68   0
 -10  -2  12   68.25    3.52   0
  13  -2  -6   14.08    3.48   0
  11   0  -5    1.61    2.93   0
  14   0  -5   -2.09    2.92   0
   8  -4  -4    1.18    4.56   0
   5   2   0   37.35    2.96   0
   3   2   1  310.01    4.77   0
  -2  -1   1  853.54    9.79   0
   8   3   2  452.19    5.50   0
   9   3   2   27.24    3.18   0
  -3  -3   2   10.29    2.58   0
  -2  -4   2    9.58    2.94   0
   5   3   3  155.22    3.47   0
  -4  -3   3   14.01    2.77   0
  -3  -4   3   44.63    3.16   0
  -5  -1   4  161.83    3.93   0
  -4  -4   4  202.70    4.17   0
   2   3   5   14.70    3.09   0
  -6  -2   5   24.22    2.31   0
   1   3   6  130.36    4.28   0
  -6   0   6 1828.47   12.87   0
   0   3   7  183.45    5.10   0
  -8  -1   8   -0.90    2.62   0
  -8   0   9    2.37    3.02   0
  -2   3  10   10.28    3.92   0
  -9  -3  10  101.39    3.54   0
  -9   0  11    1.05    2.77   0
 -10  -1  12   -1.25    2.80   0
  12   0  -5    1.18    2.12   0
  13   0  -5    0.92    2.83   0
   8  -2  -5    2.01    4.11   0
   8   1  -3  119.30    3.02   0
   3   0  -2 1227.82   14.04   0
   2  -3  -2   11.10    3.86   0
   8   2  -1    4.04    2.82   0
  -2  -3   1  123.85    3.88   0
  -1  -4   1  252.53    4.68   0
   6   3   3    8.03    3.06   0
   4   3   4  154.83    4.14   0
  -5  -3   4   -0.17    2.91   0
  -6  -1   5  474.92    6.01   0
  -5  -4   5   69.12    2.70   0
  -7  -2   6    2.81    2.94   0
  -8  -3   8   19.43    2.24   0
 -10  -2  11    6.08    3.02   0
   9  -3  -5   18.89    6.37   0
   5   0  -3   -0.45    2.52   0
   9   2  -1  138.98    3.68   0
  10   2  -1   10.10    2.97   0
  11   2  -1   40.55    3.19   0
  12   2  -1    8.29    2.95   0
   0  -4   0  338.65    5.33   0
   2   2   2   28.94    3.22   0
   7   3   3   50.39    3.35   0
  -6  -3   5   59.55    2.65   0
  -6  -4   6   13.76    2.01   0
  -9  -2   9    6.02    2.09   0
 -10   0  13    0.45    2.84   0
   9  -1  -5   15.16    3.19   0
   8   0  -4  194.29    4.42   0
   9   1  -3  358.94    4.49   0
  10   1  -3  303.31    4.65   0
  13   1  -3   28.91    3.23   0
   5  -4  -3   34.75    4.31   0
   6   1  -2  755.00    7.16   0
   3  -4  -2   24.28    3.24   0
   0  -2  -1    5.71    3.25   0
   6   2   0  238.18    4.27   0
  -1  -1   0  523.67    9.14   0
  -1  -3   0  221.05    4.11   0
   8   3   3  319.69    4.52   0
   5   3   4   48.84    3.27   0
   3   3   5   20.30    2.36   0
  -7  -1   6   20.33    2.71   0
  -7  -3   6   -3.26    2.63   0
  -7   0   7   91.78    4.11   0
  -8  -2   7    8.33    2.83   0
  -7  -4   7   19.68    2.99   0
  -1   3   9    2.15    2.96   0
  -9  -1   9   12.06    2.91   0
  -9  -3   9   87.39    3.29   0
  -8   1  11  238.80    6.54   0
 -10  -1  11   42.04    2.49   0
   6  -1  -4  660.45   10.26   0
  11   1  -3  218.33    3.49   0
  12   1  -3    0.97    1.99   0
   2   1   0 1291.49   11.34   0
   4   2   1    6.07    1.90   0
   6   3   4   71.47    3.48   0
  -4   1   5  156.99    9.29   0
   2   3   6    0.30    2.84   0
   1   3   7    0.69    2.77   0
  -8  -3   7    0.21    2.65   0
   0   3   8   32.00    3.57   0
  -7   1   9  178.88    6.04   0
 -10  -2  10   48.40    3.14   0
  10  -1  -5  746.53    7.91   0
  14  -1  -5   32.20    3.29   0
   9   0  -4  433.71    5.70   0
  14   0  -4   74.66    3.44   0
   4   1  -1 1638.09   10.85   0
   0  -3  -1   13.38    3.01   0
   1  -4  -1  241.37    4.80   0
   7   2   0   82.47    2.77   0
   8   2   0  286.69    4.44   0
  -3  -4   2   24.70    2.92   0
   1   2   3   79.16    3.84   0
  -4  -4   3  286.05    4.50   0
   7   3   4   15.38    2.50   0
  -5  -4   4  374.42    4.91   0
   4   3   5   98.81    3.01   0
  -8  -1   7   62.50    3.17   0
  -4   2   8   26.78    5.62   0
  -9  -2   8    1.08    2.60   0
  -9   0  10   20.37    2.90   0
 -10   0  12   12.72    2.88   0
  -9   1  13   37.06    4.27   0
  11  -1  -5   58.49    3.43   0
  12  -1  -5   94.67    3.60   0
  13  -1  -5   14.38    2.82   0
  10   0  -4 2865.37   12.42   0
  13   0  -4   84.36    3.60   0
   7   1  -2  181.15    4.06   0
   9   2   0  740.86    5.84   0
  10   2   0  345.50    4.28   0
  11   2   0   20.93    2.13   0
   5   2   1   74.67    3.37   0
  -2  -4   1   92.07    3.48   0
  -4  -2   2  456.54    5.72   0
  -5  -2   3  381.93    4.81   0
  -6  -2   4  139.86    3.81   0
   5   3   5   25.11    2.98   0
   6   3   5   59.75    3.63   0
  -6  -4   5   66.86    2.54   0
   3   3   6    0.30    2.84   0
  -7  -4   6  248.08    4.12   0
  -9  -3   8    5.16    2.72   0
  -1   3  10   50.77    3.54   0
 -10  -1  10    4.68    2.84   0
 -11  -1  12    3.15    2.84   0
  11   0  -4 1082.76    7.78   0
  12   0  -4  209.04    3.73   0
   3  -2  -3   21.33    4.12   0
  13   1  -2    8.31    1.97   0
  -3  -2   1  322.07    5.28   0
   3   2   2   17.37    2.77   0
  -4  -3   2  112.34    3.43   0
  -5  -3   3   87.44    2.74   0
   0   2   4   95.35    4.38   0
  -6  -3   4   63.94    2.53   0
  -7  -2   5   62.60    2.64   0
  -7  -3   5  222.37    4.07   0
   4   3   6  154.82    4.12   0
   2   3   7   64.78    3.45   0
   1   3   8   13.29    3.11   0
  -8   0   8   58.46    3.76   0
   0   3   9   18.51    3.21   0
 -11  -2  11   44.32    3.23   0
   9  -2  -5   45.58    4.31   0
   7  -4  -4    1.47    4.98   0
   6   0  -3    0.15    2.38   0
   8   1  -2   46.34    2.44   0
   9   1  -2  902.10    6.95   0
  11   1  -2  440.09    5.00   0
  12   1  -2    5.62    2.09   0
  -1  -4   0    3.25    2.77   0
   6   2   1    6.36    2.70   0
  11   2   1   24.76    3.03   0
  -3  -3   1    3.35    1.83   0
   5   3   6   38.04    3.26   0
  -8  -2   6    2.68    2.77   0
  -8  -3   6   77.14    3.17   0
   3   3   7   20.83    3.05   0
  -9  -1   8    5.87    1.91   0
 -10  -2   9   12.77    1.87   0
 -10  -3   9    0.78    2.75   0
  13  -2  -5    4.35    2.94   0
  10  -3  -5   37.79    5.37   0
  14   0  -3    5.64    2.88   0
   3  -3  -3   39.32    3.61   0
   4  -4  -3  269.94    6.56   0
  10   1  -2   40.75    2.39   0
   1  -2  -2 1423.16   13.20   0
   2  -4  -2    7.71    2.79   0
   5   1  -1  389.00    5.72   0
  -2  -2   0   40.55    3.55   0
   7   2   1  205.14    4.04   0
   8   2   1   10.59    2.85   0
   9   2   1  354.25    4.71   0
  10   2   1    7.25    2.04   0
  -5  -1   3   73.26    3.80   0
  -6  -1   4  647.88    6.70   0
  -1   2   5  560.62    8.05   0
  -5   1   6  784.37   13.84   0
   4   3   7   13.37    3.05   0
  -3   2   7   87.24    5.65   0
   2   3   8   75.21    3.69   0
 -10   0  11   -0.46    2.72   0
 -11  -1  11    1.92    2.81   0
  10  -2  -5   48.95    4.26   0
  12  -2  -5   -0.31    3.47   0
  11  -3  -5   19.94    4.62   0
   1  -3  -2  499.43    6.97   0
  13   1  -1   47.13    3.11   0
  -2  -3   0   18.19    2.17   0
   1   1   1 1034.14   11.66   0
   4   2   2   21.09    2.02   0
  -4  -1   2 1700.63   11.27   0
  -4  -4   2   83.17    3.25   0
   2   2   3   17.17    2.78   0
  -5  -4   3   49.90    3.06   0
  -6  -4   4   70.67    3.30   0
  -7  -1   5   29.66    2.77   0
  -7  -4   5    3.84    2.66   0
  -2   2   6   52.19    4.28   0
  -9  -2   7   10.37    2.04   0
  -9  -3   7   12.37    1.98   0
   3   3   8   16.11    3.02   0
   1   3   9    5.65    2.97   0
  -9   0   9   29.25    3.12   0
 -10  -1   9   84.34    3.31   0
 -11  -2  10    2.29    2.71   0
 -11   0  13   -0.78    2.69   0
  11  -2  -5   -0.08    2.90   0
   7  -1  -4    2.05    2.95   0
  14  -1  -4   15.58    3.14   0
   7   0  -3   -0.12    2.87   0
  13   0  -3   -1.26    1.99   0
  12   1  -1   18.41    3.02   0
   0  -4  -1   11.85    1.98   0
   3   1   0   98.88    4.29   0
  -3  -4   1    0.89    2.71   0
   5   2   2    3.60    2.61   0
  10   2   2    0.42    2.88   0
  -5   0   4  177.41    4.62   0
  -6   0   5    0.74    2.95   0
  -8  -1   6   65.06    3.00   0
  -8  -4   6    4.00    2.74   0
 -10  -2   8    1.87    2.68   0
 -10  -3   8   76.62    3.06   0
  -8   1  10  241.19    6.67   0
  -9   1  12   25.21    3.39   0
  13  -1  -4   48.17    3.35   0
  12   0  -3    0.85    2.72   0
   4  -1  -3  531.94   12.81   0
   4   0  -2  512.10    8.14   0
   6   1  -1  531.15    5.55   0
  11   1  -1   96.66    3.48   0
  -1  -3  -1  289.70    5.00   0
   6   2   2   20.86    2.87   0
   9   2   2   50.02    3.25   0
  -4   0   3    0.44    2.39   0
  -6  -3   3    8.97    2.88   0
  -7  -3   4  152.61    3.78   0
  -7   0   6  409.22    6.07   0
   5  -3  -4    4.29    4.59   0
   8   0  -3    0.48    1.79   0
   9   0  -3    0.41    2.48   0
  10   0  -3    1.56    2.66   0
  11   0  -3    0.37    1.88   0
   7   1  -1   51.54    2.49   0
   8   1  -1    4.02    2.81   0
   9   1  -1  809.58    6.53   0
  10   1  -1    7.62    2.78   0
  -1  -2  -1   58.45    3.64   0
  -2  -4   0    3.13    2.72   0
  -3  -1   1   34.08    2.84   0
   7   2   2    1.16    2.01   0
   8   2   2  470.24    4.78   0
  -5  -2   2  143.91    3.74   0
  -5  -3   2   47.70    2.37   0
   3   2   3   23.25    2.78   0
  10   2   3    7.75    2.87   0
  -6  -2   3  195.48    3.52   0
   1   2   4   11.52    2.88   0
  -7  -2   4  161.34    3.33   0
  -8  -2   5    1.31    2.62   0
  -8  -3   5   14.83    1.95   0
  -6   1   7   44.72    4.41   0
  -9  -1   7  137.17    3.56   0
 -11  -2   9   23.82    2.76   0
 -11  -1  10    3.30    2.66   0
 -11   0  12   98.95    3.75   0
 -12  -1  12   82.90    3.52   0
   8  -1  -4   83.50    3.67   0
  11  -1  -4   42.19    3.13   0
  12  -1  -4   31.50    2.37   0
  12   1   0    2.46    2.67   0
  -4  -3   1    8.83    2.49   0
   9   2   3    7.53    2.72   0
  -9  -2   6   90.09    3.26   0
  -9  -3   6   25.84    2.06   0
  -8   0   7    1.03    2.66   0
 -10   0  10  111.44    3.86   0
   9  -1  -4  194.12    4.57   0
  10  -1  -4  629.33    6.79   0
   3  -4  -3   42.23    4.27   0
  13   0  -2   86.95    2.84   0
   1  -4  -2    2.18    2.59   0
   4   1   0  659.10    7.05   0
  11   1   0   18.42    2.73   0
  -4  -2   1    3.13    1.89   0
  -3   0   2 1277.18   13.97   0
  -5  -4   2   12.19    2.72   0
   4   2   3  117.10    2.89   0
   8   2   3   26.37    3.02   0
  -6  -4   3   77.60    2.67   0
  -7  -4   4    3.35    1.77   0
  -8  -4   5   17.16    1.99   0
 -10  -2   7  197.08    3.80   0
 -10  -3   7   24.54    2.12   0
 -10  -1   8   17.22    2.62   0
 -12  -2  10   18.39    2.72   0
   6  -4  -4   28.96    4.77   0
  12   0  -2  106.52    3.38   0
  -1  -4  -1   38.52    2.94   0
  -3  -3   0   92.47    2.76   0
  12   1   1   20.29    2.98   0
  -4  -4   1    7.27    2.60   0
   5   2   3    4.89    1.89   0
   6   2   3  375.19    4.56   0
   7   2   3   83.31    2.49   0
   2   2   4  136.36    3.84   0
   9   2   4   13.15    2.86   0
   0   2   5    2.04    2.65   0
  -7   1   8  166.41    5.87   0
  -9   0   8   88.44    3.58   0
 -11  -3   8  167.54    3.75   0
  -5   2  10    3.51    4.57   0
 -12  -1  11  120.25    3.70   0
  13  -2  -4  106.39    3.95   0
  13  -1  -3   27.07    3.17   0
   2  -3  -3   87.01    3.83   0
   5   0  -2    1.74    3.25   0
   0  -3  -2   92.96    3.76   0
   5   1   0  181.71    4.17   0
  10   1   0   63.82    2.44   0
  -2  -1   0 1397.13   12.04   0
  -3  -2   0 1161.39    8.57   0
   8   2   4    0.89    2.59   0
 -11  -2   8  572.63    5.60   0
 -11  -1   9   93.55    3.29   0
  -9   1  11   12.02    3.64   0
 -11   0  11   15.67    2.98   0
  11   0  -2   77.78    2.63   0
  13   0  -1    1.95    2.00   0
   6   1   0  450.86    5.45   0
   8   1   0   56.53    3.00   0
   9   1   0  588.70    5.17   0
  -3  -4   0   18.57    2.67   0
   2   1   1   85.17    4.24   0
  11   1   1   27.04    2.85   0
  -6  -3   2   10.13    2.64   0
  -6  -1   3  997.26    7.86   0
  -7  -3   3   14.97    1.92   0
   3   2   4  328.81    4.85   0
   7   2   4   28.23    2.81   0
  -7  -1   4    1.38    1.71   0
  -8  -3   4   23.10    2.01   0
  -8  -1   5   32.79    2.55   0
  -9  -3   5   33.52    2.75   0
  -1   2   6   75.60    3.63   0
 -10   1  13    7.66    3.80   0
  12  -2  -4   11.82    2.85   0
  12  -1  -3   -2.05    2.73   0
  10   0  -2  594.39    5.87   0
  -2  -3  -1   -0.43    1.79   0
   7   1   0  149.74    3.08   0
  -7  -2   3  169.06    3.86   0
  -7  -4   3    0.53    2.65   0
   4   2   4 1675.13    9.15   0
   5   2   4  587.49    5.75   0
   6   2   4   88.61    2.65   0
  -8  -2   4   31.72    2.80   0
  -8  -4   4    2.31    2.59   0
   1   2   5   37.29    3.10   0
   8   2   5   68.31    2.52   0
  -9  -2   5   19.06    2.67   0
  -9  -1   6    0.73    1.56   0
 -10  -3   6    4.49    1.77   0
 -10   0   9    1.76    2.47   0
 -12  -2   9  110.37    2.93   0
 -12  -1  10   34.38    2.85   0
  -6   2  12   23.76    5.29   0
   6   0  -2   57.92    2.99   0
   7   0  -2   56.77    3.23   0
   8   0  -2  261.42    4.29   0
   9   0  -2 1952.60    9.66   0
   0  -2  -2  234.84    5.53   0
   0  -4  -2   12.95    2.71   0
  12   0  -1    1.09    2.04   0
  10   1   1  112.18    2.89   0
  -5  -3   1   17.13    2.03   0
  11   1   2   24.94    2.85   0
  -5  -1   2  357.80    5.00   0
  -6  -2   2  974.23    7.09   0
  -6  -4   2    1.34    1.68   0
   7   2   5    9.65    2.73   0
 -10  -2   6  904.71    6.48   0
  -2   2   7    5.13    2.73   0
 -10  -1   7  114.86    3.47   0
 -11  -3   7  124.38    2.94   0
  -4   2   9    0.53    4.08   0
  -8   1   9    2.81    3.48   0
  11  -2  -4    7.57    2.72   0
  11  -1  -3  299.19    4.69   0
   2  -4  -3   44.65    3.41   0
  13  -1  -2   14.77    2.85   0
  -2  -2  -1    1.32    2.91   0
  -2  -4  -1   34.18    2.24   0
  -4  -3   0    9.75    2.53   0
   9   1   1   55.32    2.93   0
  -5  -4   1   82.08    3.17   0
   2   2   5   98.18    3.43   0
   6   2   5   13.47    2.70   0
   7   2   6   15.48    2.83   0
 -11  -2   7    2.52    2.58   0
  -3   2   8   34.51    3.91   0
 -11  -1   8  196.39    4.01   0
 -12   0  12  214.39    4.67   0
   6  -2  -4  124.92    6.85   0
   5  -4  -4  163.61    6.44   0
   2  -2  -3  223.60    6.69   0
  11   0  -1    0.77    1.74   0
   3   1   1   31.93    2.53   0
   8   1   1  117.36    3.35   0
  -4  -1   1 1848.00   11.20   0
  -5  -2   1  475.81    4.97   0
  10   1   2   46.87    3.03   0
   3   2   5  107.62    3.39   0
   4   2   5  368.72    4.83   0
   5   2   5   37.58    2.16   0
  -7   0   5    0.21    2.70   0
   0   2   6   16.54    3.01   0
  -8   0   6  143.59    3.93   0
 -12  -2   8  138.34    3.37   0
 -11   0  10  325.38    5.08   0
 -13  -1  11    1.60    2.63   0
  10  -2  -4    1.88    2.49   0
   5  -1  -3   65.45    4.17   0
  10  -1  -3  295.87    4.72   0
  -1  -3  -2   58.53    3.25   0
  10   0  -1    2.40    2.39   0
  12   0   0   47.55    2.38   0
  -4  -4   0    1.71    1.72   0
   4   1   1  475.81    5.90   0
   7   1   1   90.19    3.40   0
  -7  -3   2   -1.31    2.50   0
  -8  -3   3   54.47    2.16   0
  -6   0   4 2088.26   12.44   0
  -9  -3   4    2.01    1.85   0
 -10  -3   5   46.84    2.80   0
   6   2   6   11.58    2.09   0
  -9   0   7    2.13    2.74   0
 -12  -1   9   11.80    2.56   0
 -10   1  12   -0.48    3.19   0
   9  -2  -4    6.54    2.77   0
   4  -3  -4   69.50    5.26   0
  11  -3  -4   78.36    4.41   0
   9  -1  -3  395.35    5.48   0
   1  -3  -3  356.37    5.88   0
  12  -1  -2    3.73    2.62   0
  -1  -4  -2    1.46    2.43   0
  -3  -3  -1  295.34    4.42   0
  -4  -2   0  246.95    4.30   0
   5   1   1  235.71    3.96   0
   6   1   1   77.31    2.60   0
   9   1   2    4.94    1.82   0
  -7  -4   2   39.84    2.96   0
  10   1   3    1.41    1.84   0
  -8  -4   3   15.41    1.90   0
   1   2   6   72.75    3.40   0
   4   2   6  523.68    5.47   0
   5   2   6    5.99    1.88   0
 -11  -3   6   20.52    2.03   0
  -1   2   7   21.57    2.84   0
   6   2   7   45.39    2.37   0
   7  -2  -4  130.61    5.31   0
   8  -2  -4   26.24    3.54   0
   8  -1  -3  146.17    3.95   0
  12  -2  -3   13.99    2.77   0
   1  -4  -3   14.00    2.71   0
   9   0  -1    1.38    2.31   0
  13  -1  -1   34.69    2.26   0
  -3  -4  -1   48.90    2.88   0
  11   0   0   36.79    2.85   0
  -2   0   1    3.77    4.42   0
  12   0   1   -2.22    2.43   0
  -6  -3   1   29.75    1.91   0
  -6  -4   1   32.45    2.77   0
   8   1   2  334.67    4.38   0
  -5   0   3   46.12    3.80   0
  -7  -1   3   28.65    2.67   0
  -8  -2   3   40.92    2.79   0
  10   1   4   40.46    2.95   0
  -8  -1   4   81.30    2.42   0
  -9  -2   4   38.22    2.31   0
  -9  -1   5   13.97    1.83   0
 -10  -2   5   49.02    2.22   0
   2   2   6  409.00    4.80   0
   3   2   6   27.07    2.10   0
 -10  -1   6  515.12    5.35   0
 -11  -2   6  263.19    4.05   0
   5   2   7    0.16    2.64   0
 -10   0   8    7.11    2.51   0
  -9   1  10   90.21    4.59   0
 -13  -1  10   29.53    2.85   0
  -5   2  11   16.85    4.08   0
 -12   0  11    2.67    2.62   0
   4  -4  -4  174.60    6.40   0
   6  -1  -3  962.83    9.93   0
   7  -1  -3   31.32    3.12   0
  11  -1  -2  446.02    5.24   0
   3   0  -1    0.28    2.84   0
  -1  -1  -1  813.83    9.77   0
   1   1   2  562.27    7.96   0
  -7  -2   2    4.63    1.87   0
   9   1   3  120.56    2.83   0
   0   2   7   29.95    2.96   0
   4   2   7   14.60    2.62   0
 -11  -1   7   81.20    2.98   0
 -12  -2   7  162.38    3.60   0
  -2   2   8    2.94    2.61   0
   5   2   8    0.62    1.80   0
  10  -3  -4  116.43    4.91   0
  -1  -2  -2 1662.14   11.22   0
   8   0  -1    1.86    1.56   0
  12  -1  -1   18.53    2.79   0
  10   0   0   21.78    2.55   0
  -3  -1   0   91.73    3.26   0
  -5  -3   0  108.81    2.78   0
  -5  -4   0  366.85    4.62   0
  11   0   1    0.70    2.57   0
  -6  -2   1   58.07    2.90   0
   7   1   2   12.77    1.98   0
  -6  -1   2  788.27    6.81   0
   9   1   4   24.46    2.87   0
 -10  -3   4  145.97    3.46   0
   1   2   7   48.38    2.97   0
   2   2   7    1.83    2.43   0
   3   2   7   35.00    2.16   0
   4   2   8   80.00    3.18   0
 -12  -1   8  119.92    3.44   0
  -3   2   9   69.57    4.44   0
   4   2   9    1.97    2.60   0
 -11   0   9    1.17    2.42   0
  -4   2  10   12.09    3.48   0
  11  -2  -3    4.70    2.44   0
  -2  -3  -2  287.03    4.66   0
   7   0  -1   -0.91    1.72   0
  -3  -2  -1  379.30    5.13   0
   6   1   2  137.20    3.53   0
  -8  -3   2   27.56    2.58   0
  -8  -4   2    2.71    2.43   0
   8   1   3   58.65    2.26   0
  -9  -3   3    8.97    1.73   0
   9   1   5  100.67    3.35   0
 -11  -3   5   23.40    1.95   0
  -1   2   8   19.68    2.73   0
   3   2   8   62.41    3.03   0
 -13  -2   8   56.97    2.47   0
   0  -3  -3   49.31    3.34   0
   0  -4  -3    9.53    2.63   0
  10  -1  -2   31.38    2.12   0
  -2  -4  -2    1.51    1.76   0
   4   0  -1    0.31    2.32   0
   5   0  -1    0.88    3.01   0
   6   0  -1    0.62    2.06   0
  -4  -3  -1   31.56    2.75   0
  -4  -4  -1   22.16    2.61   0
   9   0   0   38.15    2.92   0
  -7  -3   1    6.28    2.39   0
  -7  -4   1  142.85    3.63   0
   2   1   2  507.09    6.45   0
   5   1   2 1367.30    8.25   0
  -4   0   2  551.41    8.02   0
  11   0   2    4.08    2.63   0
   8   1   4   14.29    2.57   0
   0   2   8  223.56    4.34   0
   1   2   8   26.86    2.83   0
   2   2   8   18.76    2.77   0
   3   2   9    9.10    1.99   0
 -13  -1   9   11.60    2.61   0
 -12   0  10  288.01    4.84   0
 -10   1  11   44.42    4.02   0
  -5   2  12    4.38    3.40   0
   3  -4  -4   48.10    4.16   0
  12  -2  -2    8.74    2.69   0
  11  -1  -1   96.62    3.29   0
  12  -1   0    0.04    2.80   0
  -5  -2   0   38.11    2.03   0
  10   0   1    3.18    2.43   0
  -5  -1   1  376.12    4.82   0
   3   1   2  104.15    3.20   0
   4   1   2   40.79    2.36   0
  -1   1   3 3858.43   25.73   0
   7   1   3   44.26    2.15   0
  -9  -2   3    0.62    2.50   0
 -10  -2   4    0.43    2.46   0
  -8   0   5    0.94    2.42   0
 -11  -2   5   -0.99    2.37   0
  -9   0   6  184.24    4.24   0
  -2   2   9   70.75    3.61   0
   2   2   9    8.59    2.63   0
   2   2  10   50.17    3.01   0
  -4   2  11    4.08    3.45   0
   3  -3  -4   31.92    3.84   0
   9  -3  -4    1.07    3.38   0
   1  -2  -3  331.15    6.53   0
  10  -2  -3    4.74    2.57   0
   9  -1  -2  913.13    7.34   0
   8   0   0   60.34    3.01   0
  -6  -3   0    6.12    2.40   0
  -6  -4   0    6.34    2.76   0
  -8  -2   2   18.36    2.63   0
   6   1   3    1.06    2.77   0
  11   0   3    0.07    1.80   0
  -7   0   4  552.73    6.37   0
  -9  -1   4  208.33    3.75   0
   8   1   5    1.10    1.85   0
 -10  -1   5  778.84    5.87   0
   8   1   6   16.26    2.62   0
 -11  -1   6    4.61    2.25   0
 -12  -2   6   36.13    2.17   0
  -7   1   7  121.78    5.19   0
 -10   0   7    0.20    2.46   0
 -13  -2   7    1.04    2.41   0
  -8   1   8    1.09    3.25   0
  -1   2   9   27.75    2.82   0
   0   2   9   82.30    3.37   0
   1   2   9    7.57    1.95   0
  -3   2  10  109.69    4.24   0
   1   2  10    3.39    2.60   0
  -3  -4  -2  151.71    3.58   0
   9   0   1    1.19    2.57   0
  12  -1   1   25.77    2.83   0
  10   0   2  240.78    3.86   0
  -8  -1   3  149.80    3.03   0
 -10  -3   3    1.14    2.47   0
   7   1   4   49.73    2.21   0
 -11  -3   4   96.57    3.22   0
 -12  -1   7  206.79    3.88   0
 -11   0   8    0.96    2.44   0
  -2   2  10  148.19    4.42   0
  -1   2  10   55.11    3.32   0
   0   2  10    1.99    2.64   0
  -3   2  11  102.05    4.47   0
   0   2  11    4.86    2.70   0
 -13   0  11   -0.54    2.68   0
  -4   2  12   31.15    3.30   0
  11  -3  -3   43.44    3.39   0
  -1  -4  -3   22.63    2.81   0
  -2  -2  -2   28.51    2.81   0
  11  -2  -2  176.41    3.92   0
  -3  -3  -2   41.38    2.79   0
  10  -1  -1    5.60    2.52   0
  -4  -2  -1    8.68    2.38   0
  -5  -4  -1  293.78    4.35   0
  11  -1   0   18.29    2.78   0
  -7  -2   1   18.95    2.03   0
  -8  -4   1   65.44    2.94   0
  -7  -1   2  187.92    3.79   0
  -9  -3   2  125.59    2.77   0
   5   1   3  146.12    3.06   0
  10   0   3    2.03    2.64   0
   7   1   5   72.89    2.47   0
  -6   1   6  344.92    8.37   0
 -13  -1   8   20.11    2.73   0
  -9   1   9   14.63    3.67   0
  -2   2  11   46.45    3.38   0
  -1   2  11   52.02    3.29   0
  -3   2  12   59.68    3.63   0
  -2   2  12   16.99    2.98   0
   2  -4  -4   10.03    2.85   0
   9  -2  -3   -0.09    2.36   0
  -1  -3  -3    5.13    2.61   0
   8  -1  -2   33.32    2.28   0
  -2  -1  -1   84.73    4.04   0
  12  -2  -1    3.89    1.88   0
  -5  -3  -1  520.12    4.90   0
   7   0   0   59.61    2.52   0
  -4  -1   0  638.02    6.26   0
  -8  -3   1   13.07    1.82   0
   4   1   3   -0.43    2.44   0
  -6   0   3    1.93    3.01   0
   6   1   4   73.98    2.38   0
  10   0   4   43.05    2.79   0
   7   1   6  206.36    3.25   0
   7   1   7  107.02    3.26   0
 -12   0   9    1.06    1.90   0
 -11   1  12    3.27    3.24   0
   2  -3  -4    5.79    3.34   0
   8  -3  -4   21.12    3.60   0
  -6  -2   0  214.69    3.33   0
  -7  -3   0   43.36    2.67   0
  -7  -4   0   61.42    2.94   0
   8   0   1   -0.87    2.27   0
   9   0   2  115.42    2.74   0
   0   1   3  240.03    5.89   0
 -10  -2   3    1.42    2.34   0
 -11  -2   4    7.76    1.70   0
   6   1   5   91.22    3.12   0
 -12  -2   5    0.04    1.67   0
 -13  -2   6   20.18    2.56   0
 -14  -1   9   11.13    1.98   0
   7  -1  -2  191.53    4.27   0
  -4  -4  -2  138.30    3.49   0
   9  -1  -1  837.25    6.56   0
   6   0   0 2339.70   10.86   0
  -6  -1   1  528.19    5.28   0
  11  -1   1   23.75    2.04   0
  -9  -2   2    4.28    2.29   0
   1   1   3 1136.08    9.86   0
   2   1   3  185.36    4.63   0
   3   1   3  397.79    4.84   0
   9   0   3   -1.22    2.49   0
 -11  -3   3   43.65    2.71   0
   5   1   4  186.57    3.14   0
 -10  -1   4  585.76    5.35   0
 -11  -1   5   71.47    2.87   0
   6   1   6    7.75    2.50   0
 -12  -1   6  490.32    5.21   0
 -10   1  10    4.52    3.27   0
 -13   0  10   11.88    1.89   0
   1  -4  -4    0.83    2.56   0
   8  -4  -4    1.42    4.31   0
   0  -2  -3  890.44    8.93   0
  10  -3  -3   -0.17    2.54   0
  -2  -4  -3   16.52    2.60   0
  10  -2  -2  120.35    3.38   0
  -4  -3  -2   11.82    2.44   0
  11  -2  -1   33.19    2.89   0
  -6  -4  -1    3.93    2.41   0
  10  -1   0   62.65    2.38   0
  -8  -2   1    4.63    2.36   0
  11  -1   2   23.30    2.75   0
 -10  -3   2   14.82    2.55   0
  -9  -1   3  387.98    4.54   0
   9   0   4  325.84    4.22   0
   5   1   5    2.74    2.53   0
  -9   0   5   -0.66    2.38   0
 -10   0   6    3.26    2.44   0
   6   1   7    2.08    1.83   0
 -11   0   7    0.13    2.25   0
 -13  -1   7   14.03    2.62   0
   6   1   8   82.40    2.71   0
   8  -2  -3   34.94    3.00   0
  -2  -3  -3   18.81    2.61   0
  -3  -2  -2   18.28    2.42   0
  11  -3  -2   45.96    3.16   0
  -5  -2  -1   82.44    2.94   0
  -6  -3  -1  130.27    2.74   0
   5   0   0 2300.97   11.69   0
  -3   0   1    0.55    2.87   0
   7   0   1    0.53    1.50   0
  -9  -3   1   33.64    2.59   0
  -5   0   2    0.59    3.02   0
   8   0   2    2.70    1.78   0
   4   1   4   13.10    1.71   0
  -8   0   4  187.80    3.94   0
   9   0   5    2.98    2.52   0
 -12   0   8   23.03    2.72   0
 -14  -1   8   62.88    2.99   0
   1  -3  -4  167.55    4.50   0
   6  -1  -2  759.61    7.96   0
  -5  -1   0  181.29    3.89   0
  -7  -2   0   86.63    2.85   0
  -8  -3   0   33.46    2.56   0
  10  -1   1  120.18    3.29   0
  -8  -1   2   45.07    2.14   0
   8   0   3   -1.07    2.42   0
   3   1   4  541.58    5.59   0
 -12  -2   4    6.18    2.46   0
 -13  -2   5   14.78    2.45   0
   5   1   6   11.86    1.80   0
   5   1   7   79.35    3.11   0
   5   1   8   26.28    2.51   0
   5   1   9   18.16    2.73   0
 -11   1  11   -0.02    3.09   0
   0  -4  -4    9.94    2.56   0
  -3  -4  -3    2.71    2.34   0
  -5  -4  -2  188.95    3.43   0
  -3  -1  -1   32.55    2.45   0
   8  -1  -1    5.75    1.62   0
  -7  -4  -1   20.65    2.65   0
   4   0   0  792.19    7.82   0
   9  -1   0  649.60    5.79   0
  11  -2   0   22.25    2.69   0
   6   0   1    2.10    2.58   0
 -10  -2   2  120.57    3.14   0
  -7   0   3   -1.05    2.48   0
 -11  -2   3    2.17    1.63   0
   4   1   5  449.51    4.56   0
 -13   0   9   -1.70    1.74   0
  -5  -3  -2  528.89    4.89   0
  -7  -1   1   62.39    2.27   0
   7   0   2    0.31    1.90   0
  10  -1   2   40.80    2.34   0
   8   0   4  310.38    3.69   0
  12  -2  -7  202.33    4.71   0
   9  -2  -6   93.41    3.66   0
  11  -3  -6   30.97    3.05   0
   7  -2  -5   49.67    2.58   0
  10   3  -2   11.70    3.09   0
   2  -1  -2 2373.40   16.02   0
   5  -4  -2    8.10    2.77   0
   1  -2  -1   73.89    3.77   0
   1  -4   1   40.18    2.84   0
   3   3   2   46.20    3.21   0
   0  -4   2   17.76    2.84   0
   2   3   3   19.34    3.04   0
  -2   1   3 1783.37   13.44   0
   1   3   4  124.78    3.66   0
  -3  -3   4   51.52    2.74   0
   0   3   5   83.32    2.71   0
  -2   3   8    5.33    2.00   0
  -6   1   9  211.79    4.50   0
  -5   2  10    8.48    2.94   0
  11  -1  -7   91.85    4.64   0
   7   0  -5    0.33    3.61   0
   8  -3  -5   13.83    2.21   0
   5  -2  -4   22.11    2.80   0
   6  -3  -4   72.84    3.23   0
   3  -3  -2   12.90    2.15   0
   4   2  -1    4.50    2.02   0
   6   3   0    6.21    2.96   0
   1   1   0  536.33    9.22   0
   2  -4   0   -0.59    2.57   0
  -3  -2   3   26.02    2.52   0
  -1  -4   3   14.44    2.08   0
  -2  -4   4   13.88    2.90   0
  -2   2   5  223.05    4.39   0
  -5   0   6    5.98    3.88   0
  -1   3   7  239.98    4.28   0
  -4  -4   7    4.41    3.01   0
  -4   2   8   25.49    2.25   0
  -7   1  12  118.22    4.13   0
  12   0  -7    0.74    4.61   0
  10  -3  -6    7.38    2.86   0
  10   2  -4    0.66    2.81   0
   8  -4  -4    1.20    1.91   0
   5   1  -3   74.20    4.80   0
   6  -4  -3   80.51    2.60   0
  11   3  -2   62.07    3.59   0
   2  -2  -2   28.20    3.21   0
   8   3  -1   15.63    2.15   0
   3  -4  -1    1.41    1.83   0
   0   1   1 7639.91   28.91   0
  -4  -1   4   26.85    4.71   0
  -4  -3   5    2.08    2.86   0
  -2   3   9   15.01    2.09   0
  -5   2  11   13.22    3.04   0
  -8   0  13    1.65    3.15   0
  11  -2  -7   -1.43    2.04   0
   9   0  -6  178.15    7.33   0
   4  -3  -3   15.30    2.04   0
   4  -4  -2   93.35    3.47   0
   3   2   0 1146.09    8.79   0
   5   3   1  549.52    5.49   0
  -1   2   4 6538.93   18.70   0
  -3  -4   5   -1.50    2.81   0
   0   3   6    6.04    2.20   0
  -4   1   6  407.96    6.28   0
  -3   2   7   87.25    3.29   0
  -1   3   8   26.30    2.87   0
  -7  -2   9    0.66    4.37   0
  -2   3  10    6.95    3.12   0
  -7   0  10   45.63    3.87   0
  -7   1  13  121.75    3.56   0
  12   1  -6  502.16   12.71   0
   8  -1  -6   69.66    3.66   0
   8  -2  -6    3.35    2.59   0
   9  -3  -6   25.07    3.02   0
   7  -3  -5  246.01    4.31   0
   7  -4  -4    0.79    2.61   0
   8   2  -3   37.74    3.34   0
   3  -1  -3  333.23    6.55   0
   3  -2  -3   28.04    3.10   0
   6   2  -2  835.55    7.96   0
   9   3  -1   30.21    2.39   0
   7   3   0   44.63    3.24   0
   0  -3   0    2.28    2.62   0
   2   2   1    3.46    2.98   0
  -1  -3   1   31.10    2.76   0
   4   3   2    9.42    2.09   0
   1   2   2 1795.96   10.61   0
   3   3   3  364.54    4.91   0
   0   2   3  831.13    7.03   0
   2   3   4    7.05    2.78   0
  -4  -2   4  539.77    7.51   0
   1   3   5   82.08    2.68   0
  -6  -2   7  209.10    6.24   0
  -6  -3   8    2.51    3.08   0
  -5  -4   8   50.34    3.34   0
  -4   2   9    0.97    1.82   0
  -6   1  10  698.48    6.87   0
  -5   2  12    3.08    2.15   0
  -8   0  14  159.41    5.21   0
  14  -1  -8   55.34    4.35   0
   9   1  -5   11.31    4.24   0
   6  -1  -5  406.67    6.50   0
   6  -2  -5   19.83    2.26   0
  11   2  -4    7.58    3.71   0
   5  -3  -4    5.07    2.76   0
   5  -4  -3   47.39    2.40   0
  10   3  -1  146.17    4.04   0
   1  -3  -1   34.51    3.00   0
   1  -4   0    0.64    2.51   0
   0  -4   1   24.28    2.74   0
  -2  -3   2    9.25    2.54   0
  -1  -4   2   -0.10    2.75   0
  -5  -3   6  716.69    7.41   0
  -4  -4   6    6.46    2.86   0
   0   3   7  189.56    3.95   0
  -5   1   8  248.87    4.86   0
  -6   0   8   -0.37    2.63   0
  -1   3   9    5.22    2.80   0
  -7  -3  10   59.95    3.80   0
  10  -1  -7  105.83    3.86   0
  10  -2  -7  117.96    3.28   0
  11  -3  -7  142.36    3.86   0
   8  -4  -5   27.18    3.07   0
   2  -3  -2   14.78    2.97   0
   2  -4  -1   80.24    2.55   0
   8   3   0   33.64    2.91   0
   6   3   1  124.91    3.05   0
  -3  -3   3   53.86    3.21   0
  -2  -4   3   74.10    3.23   0
   1   3   6  148.02    3.67   0
  -2   2   6   52.34    2.52   0
  -1   3  10   55.48    3.19   0
  -4   2  10    9.84    2.04   0
  -6   1  11  394.57    5.61   0
  -8  -1  12   38.42    4.98   0
  13  -2  -8   28.99    3.26   0
   8  -3  -6   87.29    3.24   0
   7   1  -4    0.18    3.25   0
   4  -2  -4  510.11    5.82   0
   6  -4  -4   65.62    2.29   0
   3  -4  -2   25.48    2.13   0
   5   2  -1  559.01    6.60   0
   5   3   2  527.21    5.11   0
   4   3   3  564.77    5.38   0
   3   3   4   40.02    2.88   0
  -3  -4   4   48.35    2.94   0
   2   3   5   16.06    2.73   0
  -3   1   5  289.90    5.67   0
   0   3   8   32.48    2.28   0
  -3   2   8   30.47    2.06   0
  -4   2  11    6.02    2.67   0
  13  -1  -8    7.46    2.83   0
  10  -3  -7   27.70    2.72   0
   6  -3  -5   55.50    2.24   0
  12   2  -4   13.39    2.99   0
   5   0  -4  173.56    8.10   0
   3  -3  -3   43.40    2.33   0
   4  -4  -3  279.53    4.23   0
   9   3   0    0.06    2.70   0
   7   3   1   48.53    3.09   0
  -4  -3   4   83.87    3.47   0
  -1   2   5  564.23    5.44   0
  -5  -2   5    0.99    3.20   0
   1   3   7    1.68    2.65   0
  -5  -4   7   -1.17    2.67   0
   0   3   9   18.77    1.94   0
  -7   0  11   -0.04    3.41   0
  -4   2  12   32.16    2.83   0
  -6   1  12  125.76    3.89   0
  12  -2  -8  101.11    3.71   0
   9  -2  -7   11.45    2.64   0
   7  -2  -6    2.81    1.81   0
   7  -4  -5    2.69    2.68   0
  13   2  -4   99.96    4.06   0
   4  -1  -4   40.59    3.78   0
   4  -3  -4   87.55    3.22   0
   9   2  -3    0.91    2.53   0
   7   2  -2    5.69    2.86   0
   0  -2  -1    5.47    2.93   0
  10   3   0   26.20    2.94   0
   4   2   0  222.81    4.37   0
  -1  -2   0  240.05    4.79   0
   6   3   2   47.89    3.03   0
   0   2   4   95.04    3.61   0
  -4  -4   5   49.56    3.00   0
   2   3   6   -2.62    2.56   0
  -2   2   7    5.54    2.50   0
   1   3   8   15.92    2.76   0
  -3   2   9   67.47    3.03   0
  -5   1   9   50.47    3.25   0
  -6   1  13   29.13    3.00   0
   5  -2  -5    0.64    2.28   0
   5  -4  -4  339.99    4.09   0
   4   1  -2 1751.27   15.78   0
   1  -2  -2 1496.00    9.38   0
   1  -4  -1  249.22    4.00   0
   0  -4   0  377.61    4.51   0
   8   3   1  128.05    3.61   0
   3   2   1  357.41    5.09   0
  -2  -2   1   -0.11    2.17   0
  -1  -4   1  262.06    4.18   0
   5   3   3  180.09    3.28   0
   1   2   3   79.75    3.26   0
   4   3   4  162.93    3.51   0
   3   3   5   26.53    2.14   0
  -4   1   7    0.83    1.82   0
  -6  -3   7   34.55    3.07   0
   1   3   9    5.09    2.65   0
  -7  -3   9  121.59    4.71   0
  -3   2  10  108.90    3.45   0
  12  -1  -8  121.30    4.45   0
  11  -2  -8  554.95    6.18   0
   9  -3  -7   11.28    2.57   0
  13   1  -6   51.68    4.93   0
   7  -1  -6   19.59    2.84   0
   7  -3  -6    0.93    1.77   0
   8  -4  -6    6.04    2.77   0
   2  -4  -2    9.76    2.54   0
   0  -3  -1   14.56    2.67   0
  -1  -3   0  308.60    4.45   0
   9   3   1   72.24    3.27   0
   7   3   2  112.84    3.39   0
   2   2   2   26.99    2.19   0
  -3  -2   2   59.96    3.35   0
  -2  -4   2    7.00    1.90   0
  -2   1   4  576.46    6.80   0
   2   3   7   59.15    2.32   0
  -3   2  11  101.48    3.32   0
  -7   0  12  434.24    6.75   0
  -8  -1  13  162.73    6.63   0
  11  -3  -8  179.55    4.05   0
  11   0  -7    0.31    4.79   0
   9  -1  -7  118.38    3.96   0
   5  -3  -5  963.08    6.31   0
   6  -4  -5   85.94    2.50   0
  10   2  -3    5.29    2.62   0
   2  -2  -3  208.44    3.82   0
   3  -4  -3   49.72    2.93   0
   1  -3  -2  524.46    5.01   0
   6   2  -1   61.20    3.25   0
  -2  -3   1  114.35    2.78   0
   6   3   3   10.16    2.58   0
  -3  -4   3   46.64    2.95   0
   5   3   4   54.49    2.94   0
   4   3   5  122.67    3.23   0
  -4   0   5    0.95    3.57   0
  -5  -3   5  899.99    7.43   0
   3   3   6    1.36    1.82   0
  -1   2   6   68.78    2.45   0
  -5  -4   6  101.26    3.58   0
   2   3   8   73.82    2.43   0
  -2   2   8    2.89    1.70   0
  -6  -4   8    0.69    2.76   0
  -5   1  10   18.77    2.77   0
  -3   2  12   60.59    3.19   0
   8  -2  -7    7.15    2.46   0
   4  -4  -4  182.80    3.73   0
   2  -3  -3   82.77    2.59   0
   8   2  -2   18.65    2.91   0
   0  -1  -1 7273.59   26.64   0
  -1  -1   0  514.31    8.36   0
   8   3   2  398.68    4.42   0
  -3  -3   2   14.23    2.54   0
   0   2   5    7.20    2.70   0
   3   3   7   21.79    1.96   0
  -2   2   9   70.96    2.94   0
  -6   0   9    0.68    2.61   0
  -7   0  13    0.44    2.72   0
  -7   0  14   17.50    3.79   0
  10  -2  -8    2.34    2.53   0
   8  -3  -7   -0.66    2.44   0
  14   1  -6    3.93    4.16   0
   6  -2  -6   35.32    2.83   0
   6  -3  -6   20.82    2.69   0
   7  -4  -6  264.95    4.14   0
   5  -1  -5   40.69    3.31   0
   3  -2  -4  267.22    4.00   0
   3  -3  -4   55.69    2.99   0
  11   2  -3    2.90    2.62   0
   5   2   0   36.74    2.77   0
   9   3   2   28.30    2.16   0
   7   3   3   36.51    2.25   0
  -1   1   3 3714.24   16.77   0
  -4  -2   3   21.97    2.95   0
   6   3   4   69.10    3.12   0
  -4  -4   4  179.49    3.32   0
   5   3   5   26.88    2.78   0
   4   3   6  157.17    2.98   0
  -3   1   6    3.84    2.73   0
  -1   2   7   25.80    2.63   0
   3   3   8   15.53    2.05   0
  -4   1   8   57.30    3.13   0
  -2   2  10  156.22    3.59   0
  -5   1  11    4.91    1.95   0
  13  -2  -9   82.20    3.78   0
  11  -1  -8  210.91    5.43   0
  10  -3  -8   76.04    3.23   0
   5  -4  -5   74.77    3.00   0
  12   2  -3   18.37    3.00   0
   1  -4  -2   -0.54    2.38   0
   3   1  -1   31.73    3.69   0
   0  -4  -1   25.25    2.53   0
  -1  -4   0    1.22    2.45   0
  -2  -1   1  899.93   11.09   0
   8   3   3  392.62    4.33   0
  -4  -3   3   14.05    2.62   0
   7   3   4   17.80    2.99   0
   1   2   4   10.91    1.95   0
   6   3   5   66.15    3.26   0
   5   3   6   36.62    2.85   0
   4   3   7   16.13    2.02   0
  -5   0   7    0.03    3.28   0
  -2   2  11   49.48    3.03   0
  -2   2  12   18.92    2.94   0
  -5   1  12    0.71    1.94   0
  -5   1  13   28.88    2.84   0
   4  -2  -5    8.18    2.43   0
   4  -3  -5    8.39    2.69   0
  13   2  -3   39.83    3.31   0
   2  -4  -3   70.23    3.05   0
   9   2  -2    2.70    2.45   0
   7   2  -1   21.38    2.76   0
   4   2   1    9.60    1.82   0
  -2  -4   1   78.72    2.59   0
   3   2   2   16.42    2.65   0
   2   2   3   14.97    1.92   0
  -5  -4   5   74.92    3.27   0
   0   2   6   15.33    2.64   0
  -6  -2   6   27.28    3.68   0
  -6  -3   6   26.88    2.91   0
  -6  -4   7   61.09    3.35   0
  -1   2   8   20.57    2.74   0
  -7  -3   8  100.46    4.53   0
   7  -3  -7  355.35    4.60   0
   6  -4  -6   13.98    2.82   0
  10   1  -5  725.54   10.90   0
   3  -4  -4   55.76    2.90   0
   2  -1  -3 1558.00   11.32   0
   2   1   0 1396.97   12.20   0
   1   1   1  961.47   10.72   0
  -3  -4   2   26.55    2.09   0
  -7  -2   8  909.79   13.35   0
  -1   2   9   27.27    2.61   0
  -4   1   9   20.98    2.11   0
  -6   0  10 1659.32   11.98   0
  12  -2  -9   77.48    3.36   0
   9  -2  -8    2.44    2.48   0
   9  -3  -8    2.43    1.74   0
   8  -1  -7   61.95    3.27   0
   7  -2  -7   53.07    3.03   0
   6   1  -3  992.92   11.61   0
  10   2  -2  124.74    3.62   0
   0  -3  -2   80.92    2.64   0
  -1  -3  -1  278.33    3.75   0
   6   2   0  213.33    4.13   0
  -2  -3   0   26.90    2.47   0
  -4  -4   3  266.80    4.24   0
  -5  -3   4    4.69    2.59   0
   1   2   5   39.03    2.81   0
  -2   1   5  237.15    4.91   0
   0   2   7   34.99    2.72   0
  -3   1   7   92.75    3.26   0
  -1   2  10   53.51    2.30   0
  -4   1  10   14.75    2.54   0
  -1   2  11   52.33    3.15   0
  14  -1  -9   11.26    3.48   0
   7  -4  -7   22.38    2.76   0
   6  -1  -6  343.25    5.62   0
   5  -2  -6  661.50    6.08   0
   5  -3  -6  557.61    4.81   0
   4  -4  -5   48.63    2.18   0
   1  -3  -3  328.15    3.99   0
   0  -2  -2  213.84    3.90   0
   8   2  -1    4.22    2.51   0
  -1  -2  -1   54.52    2.56   0
  -2  -2   0   40.56    3.20   0
  -3  -3   1    5.41    2.37   0
   2   2   4  140.44    3.41   0
  -5  -2   4   24.35    2.88   0
  -4   1  11    3.71    2.58   0
  -4   1  13    6.41    2.58   0
  11  -2  -9   21.37    2.55   0
  10  -1  -8   12.83    3.39   0
   5  -4  -6   93.23    3.02   0
   8   1  -4   75.33    4.19   0
   3  -1  -4  506.19    6.83   0
   2  -3  -4    6.44    1.87   0
   1  -2  -3  296.55    4.19   0
  11   2  -2  238.20    4.37   0
  12   2  -2    8.30    2.56   0
   0  -4  -2   19.20    2.49   0
  -1  -4  -1   44.47    2.53   0
   5   2   1   72.11    2.35   0
   4   2   2   23.32    2.36   0
  -3  -1   2 1493.53   14.54   0
   3   2   3   20.98    2.44   0
   1   2   6   71.29    3.06   0
  -6  -4   6   11.74    2.63   0
   0   2   8  211.45    3.30   0
   0   2   9   83.98    2.95   0
  -7  -1  10  109.72    5.78   0
   0   2  11    5.84    2.50   0
  -6   0  11    1.10    2.36   0
  -4   1  12   45.07    2.16   0
   8  -3  -8   18.50    1.89   0
   6  -3  -7   35.95    2.76   0
   8   0  -6  149.17    7.35   0
   3  -3  -5    1.12    2.40   0
   2  -2  -4   95.23    3.53   0
   2  -4  -4   11.48    2.50   0
   1  -4  -3   11.73    1.69   0
   9   2  -1  125.82    3.47   0
  -2  -4   0    2.74    1.72   0
  -3  -2   1  302.25    4.91   0
  -4  -3   2  116.74    3.27   0
  -1   1   4    9.18    2.98   0
  -5  -4   4  312.33    4.15   0
  -5  -1   5   37.08    6.11   0
  -3   1   8    2.07    2.57   0
   0   2  10    1.54    1.79   0
  -8  -3  10    1.63    3.28   0
  -6   0  12  992.17    8.45   0
  -6   0  13   -0.40    2.59   0
  -6   0  14   26.48    3.03   0
  13  -1  -9   12.78    3.32   0
  10  -3  -9    3.04    1.83   0
   8  -2  -8   62.41    3.01   0
   6  -4  -7   67.16    2.95   0
   3  -4  -5    0.75    2.42   0
   7   2   0   81.80    2.54   0
  -3  -4   1    1.10    1.75   0
   2   2   5   88.18    2.62   0
  -6  -3   5   64.90    3.03   0
   1   2   7   49.45    2.22   0
  -7  -3   7  361.36    6.39   0
  -5   0   8  232.57    5.37   0
  10  -2  -9   16.70    2.66   0
   6  -2  -7  217.40    3.94   0
   4  -3  -6   21.38    2.57   0
  11   1  -5   69.81    4.37   0
   4  -1  -5  160.63    4.28   0
   3  -2  -5  823.26    6.17   0
  10   2  -1    9.09    2.54   0
  11   2  -1   36.37    2.82   0
   6   2   1    4.19    1.60   0
   5   2   2    6.47    2.24   0
  -4  -4   2   85.99    3.05   0
   4   2   3  133.22    3.35   0
   3   2   4  282.11    3.70   0
   2   2   6  489.30    4.92   0
  -2   1   6 1598.67    9.33   0
   1   2   8   27.78    2.03   0
   1   2   9    8.35    1.68   0
  -3   1   9  119.12    3.39   0
   1   2  10    3.22    1.74   0
  -3   1  13   39.24    2.78   0
   9  -3  -9   95.83    3.09   0
   7  -3  -8  100.39    3.08   0
   4  -4  -6    8.17    2.40   0
   0  -3  -3   54.79    2.99   0
   5   1  -2  337.68    6.48   0
  -1  -3  -2   57.58    2.71   0
  12   2  -1    6.62    1.90   0
   8   2   0  264.04    3.82   0
  -4  -2   2  425.09    5.83   0
   0   1   3  243.68    4.87   0
  -5  -3   3  109.87    3.24   0
  -3   0   4   14.11    3.85   0
  -6  -4   5   84.77    3.35   0
   2   2   7    7.30    2.44   0
  -7  -4   7   19.70    2.68   0
   2   2  10   54.81    2.71   0
  -3   1  10  358.33    4.56   0
  -3   1  11  124.85    3.38   0
  -3   1  12   27.06    2.11   0
  12  -1  -9   11.68    3.33   0
   7  -1  -7  122.57    3.80   0
   5  -3  -7  238.04    3.78   0
   4  -2  -6   48.84    2.57   0
  12   1  -5  124.53    4.91   0
   6   0  -5    0.50    4.26   0
   1  -3  -4  211.69    3.74   0
   0  -4  -3    9.67    2.46   0
  -1  -4  -2    3.11    2.30   0
  -2  -3  -1   -0.20    1.54   0
  -2  -4  -1   52.49    2.70   0
   9   2   0  969.40    7.06   0
   7   2   1  197.80    3.73   0
  -5  -4   3   49.37    2.80   0
   3   2   5   91.58    2.57   0
  -4   0   6   24.46    3.55   0
   2   2   8   19.67    1.80   0
   2   2   9    8.65    1.77   0
  -7  -1  11   26.21    3.74   0
   9  -1  -8    7.00    2.56   0
   5  -4  -7    2.12    1.83   0
  13   1  -5    8.70    3.26   0
  14   1  -5   35.04    3.82   0
   2  -3  -5   42.78    2.74   0
   2  -4  -5   61.67    2.82   0
   1  -4  -4    2.35    1.77   0
  10   2   0  453.96    5.01   0
  11   2   0   21.17    2.70   0
  -3  -3   0   93.68    2.59   0
  -3  -4   0   21.08    2.52   0
   6   2   2   22.71    2.01   0
   5   2   3    6.30    2.49   0
   4   2   4 1475.69    7.61   0
  -1   1   5  261.75    4.71   0
   3   2   6   29.11    2.02   0
   3   2   7   48.26    2.79   0
  -2   1   7  410.33    4.58   0
   3   2   8   62.60    2.93   0
   3   2   9    9.73    2.61   0
  -5   0   9    0.30    2.70   0
  -8  -3   9    2.26    3.67   0
  -7  -1  12  152.91    5.21   0
  -2   1  13    7.58    2.75   0
  -7  -1  13  189.49    5.37   0
  -5   0  14   14.91    2.70   0
  12  -2 -10   17.69    2.82   0
   9  -2  -9    6.08    2.45   0
   8  -3  -9    6.87    2.35   0
   7  -2  -8  884.15    6.47   0
   9   1  -4  177.59    5.26   0
   4   1  -1 1798.68   13.04   0
   8   2   1    8.31    1.82   0
   9   2   1  354.17    4.56   0
   7   2   2    2.32    2.46   0
   1   1   2  495.48    6.12   0
   4   2   5  320.70    3.82   0
  -6  -2   5   22.87    2.90   0
  -2   1   8  158.24    3.66   0
   4   2   9    2.49    2.53   0
  -2   1  12  105.41    3.31   0
  -8  -2  12   13.21    5.06   0
  -5   0  13   -2.82    2.73   0
   6  -3  -8    1.97    1.67   0
   5  -2  -7  230.16    3.94   0
   5  -1  -6  841.92    7.87   0
   3  -3  -6  356.75    3.93   0
   3  -4  -6   22.57    1.96   0
   1  -2  -4 6687.77   17.42   0
   7   1  -3   26.97    3.14   0
   0  -2  -3  785.91    6.23   0
  -1  -2  -2 1638.68    8.92   0
  -2  -2  -1    1.71    2.64   0
   3   1   0   87.42    4.17   0
  10   2   1   11.86    2.46   0
  11   2   1   21.45    2.03   0
   2   1   1   79.14    3.99   0
  -4  -3   1   10.04    1.81   0
  -4  -4   1    4.80    1.67   0
   8   2   2  500.54    5.08   0
   6   2   3  314.55    3.77   0
   5   2   4  535.01    4.72   0
  -6  -3   4   70.14    3.10   0
  -6  -4   4   74.57    3.20   0
   5   2   5   40.79    2.71   0
   4   2   6  493.03    4.43   0
  -7  -3   6    2.77    2.39   0
  -7  -4   6  263.22    4.68   0
   4   2   7   12.30    1.94   0
   4   2   8   77.39    2.37   0
   5   2   8    1.15    2.52   0
  -2   1   9  212.08    3.80   0
  -2   1  10   29.82    2.71   0
  -5   0  10   40.66    2.95   0
  -2   1  11   21.04    1.93   0
  -5   0  11   -0.46    2.41   0
  -5   0  12   91.06    3.38   0
  11  -2 -10    0.88    2.41   0
  10   0  -7    0.53    5.39   0
   4  -3  -7   11.38    2.41   0
   4  -4  -7    5.06    2.44   0
   2  -2  -5  214.42    3.80   0
   1  -1  -3 3916.63   16.88   0
   9   2   2   58.17    3.17   0
  10   2   2    5.15    2.51   0
   7   2   3  107.75    3.21   0
  -5  -2   3  411.11    6.00   0
   6   2   4  110.11    2.95   0
   5   2   6    6.15    1.78   0
  -1   1   6  211.17    4.01   0
   5   2   7    0.47    1.73   0
   6   2   7   45.84    2.82   0
  -7  -2   7   52.04    4.67   0
  11  -1  -9   69.35    3.61   0
   0  -4  -4   24.03    2.73   0
  -1  -3  -3    8.15    2.42   0
  -1  -4  -3   26.77    2.44   0
  -2  -4  -2    4.38    2.37   0
  -1  -1  -1  888.69    9.46   0
  -3  -2   0 1217.54    8.48   0
  -5  -3   2   51.39    2.83   0
  -5  -4   2    8.70    1.72   0
   8   2   3   21.58    1.97   0
   9   2   3    9.81    2.61   0
  10   2   3    2.54    1.92   0
  -4  -1   3  482.31    9.41   0
   7   2   4   25.99    2.02   0
   8   2   4    1.97    2.60   0
   9   2   4   12.82    2.68   0
   0   1   4  494.45    5.61   0
   6   2   5   11.79    1.74   0
   7   2   5   12.40    2.40   0
   8   2   5   85.59    3.17   0
   6   2   6   13.15    1.91   0
   7   2   6   12.69    2.48   0
  -1   1  12    2.78    1.93   0
   9  -3 -10   93.29    3.14   0
   8  -2  -9   79.11    3.15   0
   7  -3  -9  113.86    2.78   0
   6  -2  -8  265.98    4.14   0
   5  -4  -8   43.23    2.75   0
   3  -2  -6   77.67    2.84   0
   1  -3  -5  904.70    6.15   0
   1  -4  -5   15.62    1.85   0
  10   1  -4  612.88    7.99   0
   2  -1  -4  555.88    6.50   0
   0  -3  -4    2.36    1.75   0
  -2  -3  -2  256.94    3.47   0
  -3  -4  -1   48.60    2.77   0
  -1   1   7   94.80    2.96   0
  -4   0   7   -0.58    2.63   0
  -1   1  10    2.14    2.53   0
  -1   1  11   49.57    2.24   0
   0   1  12    8.92    2.57   0
  10  -2 -10   55.97    2.99   0
   8  -1  -8    1.21    2.55   0
   5  -3  -8    0.91    1.59   0
   6  -1  -7   45.11    3.07   0
   2  -3  -6  356.65    4.31   0
   2  -4  -6   83.74    2.37   0
  14   1  -4   17.12    3.48   0
  -3  -3  -1  261.34    3.40   0
  -2  -1   0 1399.79   11.78   0
  -4  -4   0    2.14    2.36   0
   1   1   3 1081.69    8.30   0
  -6  -4   3   85.06    3.12   0
  -7  -4   5   -0.28    2.56   0
  -1   1   8   29.49    1.87   0
  -8  -3   8   17.43    2.86   0
  -1   1   9  186.27    3.15   0
  -4   0  13    0.98    2.55   0
   4  -2  -7  187.52    3.59   0
   3  -4  -7   17.70    1.83   0
   3  -1  -5  284.35    5.13   0
  11   1  -4   43.62    3.22   0
  13   1  -4   50.29    3.60   0
   3   0  -3   33.91    4.93   0
   6   1  -2  728.24    8.23   0
  -4  -3   0   10.51    2.28   0
  -4  -2   1    4.38    1.83   0
   0   1   5  826.94    6.55   0
  -7  -3   5  249.30    4.98   0
   0   1  11   10.60    1.90   0
  -4   0  12   54.94    2.95   0
   8  -3 -10    2.37    2.28   0
  10  -1  -9   90.62    4.08   0
   6  -3  -9    2.14    2.19   0
   4  -4  -8   18.29    2.43   0
   3  -3  -7  351.89    3.85   0
  12   1  -4   42.56    3.17   0
   8   1  -3  143.44    4.13   0
  -5  -4   1   88.58    2.90   0
   2   1   2  563.81    6.44   0
  -6  -3   3    7.58    1.78   0
   0   1   6   10.99    2.37   0
  -4   0   8   52.94    3.09   0
   0   1  10  304.95    4.15   0
   1   1  11  172.89    3.72   0
  -4   0  11    0.46    2.45   0
   7  -2  -9    0.81    2.31   0
   0  -4  -5    1.52    2.36   0
   0  -2  -4   97.68    3.49   0
  -1  -4  -4   77.09    2.30   0
  -1  -2  -3   78.12    3.01   0
  -2  -4  -3   20.50    2.33   0
   5   1  -1  384.44    5.95   0
   0   1   7   55.78    2.82   0
   0   1   8   42.75    2.56   0
   0   1   9    4.59    1.57   0
  -4   0   9    1.54    2.47   0
  -4   0  10  128.58    3.54   0
   2   1  11   49.98    2.76   0
  -3   0  13   -0.58    2.45   0
  -6  -1  13   31.74    2.81   0
   9  -2 -10    3.52    2.36   0
   5  -2  -8 1193.68    7.37   0
   4  -3  -8   66.63    2.28   0
   4  -1  -6  384.30    5.34   0
   1  -4  -6  229.60    3.21   0
   1  -2  -5  598.92    5.42   0
  -1  -3  -4  117.63    3.07   0
  -2  -2  -2   31.90    2.69   0
  -3  -4  -2  146.00    2.84   0
   4   1   0  654.50    7.45   0
   3   1   1   31.90    2.52   0
  -5  -3   1   20.19    1.83   0
  -6  -4   2    2.24    2.27   0
   1   1   4  319.79    4.31   0
  -6  -2   4  130.64    4.03   0
  -7  -4   4    0.66    2.40   0
  -3   0   5    0.87    2.69   0
  -8  -3   7    1.36    3.27   0
   1   1  10   58.70    2.23   0
   7  -3 -10   63.14    2.80   0
   2  -4  -7  151.85    2.76   0
   2  -2  -6   57.42    2.95   0
   1  -3  -6  290.81    3.89   0
   0  -3  -5   74.88    2.21   0
   9   1  -3  369.69    5.68   0
  13   1  -3   23.38    2.59   0
  -2  -3  -3   16.62    1.84   0
  -3  -3  -2   39.78    2.59   0
  -4  -4  -1   16.11    1.98   0
  -3  -1   1   34.24    3.41   0
  -5  -2   2  159.50    4.04   0
  -2   0   3    0.08    3.43   0
   1   1   5   93.11    3.27   0
  -8  -4   6    6.75    2.49   0
  -6  -1   8  605.05   10.82   0
   1   1   9   66.40    2.15   0
   2   1  10   49.87    2.72   0
  -3   0  12   64.53    2.77   0
  -6  -1  12  128.78    4.01   0
  11  -2 -11   49.28    3.04   0
  13  -1 -10   27.29    3.70   0
   5  -3  -9    9.80    1.92   0
   7  -1  -8  173.64    4.11   0
   3  -4  -8   19.17    2.46   0
   2  -3  -7  267.66    3.86   0
  10   1  -3  244.86    4.68   0
  12   1  -3    2.24    2.38   0
   7   1  -2  189.13    4.53   0
  -3  -2  -1  320.81    4.22   0
  -5  -4   0  356.50    4.55   0
   2   1   3  183.52    4.00   0
  -7  -3   4  154.81    3.60   0
   1   1   6  309.49    4.26   0
   1   1   7   20.83    2.43   0
   1   1   8   81.04    2.47   0
   2   1   9   19.49    2.42   0
   3   1  10  580.17    4.57   0
  -2   0  13   -0.04    1.64   0
   8  -2 -10  141.72    3.40   0
   9  -1  -9   13.60    2.61   0
   6  -2  -9  258.82    4.05   0
   5  -1  -7  311.06    4.91   0
   3  -2  -7   85.14    2.32   0
  11   1  -3  302.85    4.90   0
  -4  -3  -1   31.49    1.99   0
  -6  -3   2   10.19    2.36   0
  -7  -2   6    3.23    3.08   0
   2   1   8  161.75    3.47   0
   3   1   9  453.45    4.68   0
  -3   0  11   -2.01    2.45   0
  -6  -1  11  408.97    6.15   0
  12  -1 -10   30.87    3.56   0
   6  -3 -10   52.40    2.67   0
   3  -3  -8   10.65    1.67   0
   0  -4  -6   67.04    2.73   0
  -1  -4  -5   41.69    2.01   0
  -2  -4  -4  145.44    2.61   0
   0  -1  -3  241.24    4.78   0
  -3  -4  -3    4.53    2.28   0
   8   1  -2   41.62    2.93   0
  13   1  -2   12.23    1.85   0
   6   1  -1  550.10    6.52   0
  -4  -2   0  239.21    4.14   0
   3   1   2  105.54    3.12   0
  -7  -4   3    1.47    1.63   0
   2   1   4   16.77    1.91   0
  -8  -4   5   21.42    2.79   0
  -3   0   6   33.37    3.12   0
   2   1   7  259.38    3.96   0
   4   1   9    0.73    1.64   0
   5   1   9    9.97    1.85   0
  -6  -1   9  481.91    7.88   0
  -3   0  10   33.16    2.72   0
  -6  -1  10  898.59    9.32   0
  -2   0  12   50.29    2.83   0
  10  -2 -11    5.88    2.61   0
   4  -2  -8   32.28    2.71   0
   1  -4  -7    7.77    1.78   0
   1  -1  -4    7.29    2.20   0
  12   1  -2    7.18    2.56   0
  -1  -1  -2  529.02    6.60   0
  -4  -4  -2  139.09    3.42   0
  13   1  -1   51.75    2.96   0
   5   1   0  181.88    4.43   0
  -5  -3   0   84.43    2.67   0
   4   1   1  420.95    5.31   0
  -6  -4   1   28.27    1.95   0
   2   1   5   61.84    2.37   0
   2   1   6   75.05    2.45   0
  -8  -3   6   81.16    3.69   0
   3   1   8   11.19    1.81   0
   4   1   8   32.73    2.67   0
   5   1   8   27.72    2.66   0
   6   1   8   90.24    3.06   0
  -3   0   9    6.13    2.72   0
  -5  -1  13   33.20    2.84   0
   4  -3  -9    8.44    1.75   0
   2  -4  -8  244.56    3.34   0
   0  -3  -6   15.74    2.54   0
   2  -1  -5  218.02    4.13   0
   0  -2  -5    4.38    2.54   0
  -1  -3  -5   75.41    2.28   0
  -1  -2  -4   11.82    2.51   0
  -2  -3  -4    4.09    2.47   0
   9   1  -2  894.22    7.77   0
  10   1  -2   47.73    2.88   0
  11   1  -2  455.09    5.49   0
  12   1  -1   31.36    2.77   0
   3   1   3  358.44    4.49   0
   3   1   6  232.87    3.87   0
   3   1   7  344.27    3.80   0
   7   1   7  111.07    3.15   0
  -3   0   7   -0.11    2.60   0
  -3   0   8  567.12    6.12   0
  -2   0  11    1.48    2.44   0
  -1   0  12  316.75    4.19   0
   7  -3 -11   28.53    2.61   0
  11  -1 -10    1.53    3.19   0
   7  -2 -10  302.67    4.35   0
   5  -2  -9    1.31    2.43   0
   1  -3  -7  211.27    3.04   0
   7   0  -6  413.32   11.57   0
   3  -1  -6    5.04    2.66   0
   1  -2  -6   82.66    2.92   0
  -2  -2  -3   15.41    1.83   0
  -3  -3  -3  309.09    3.78   0
   7   1  -1   54.80    2.46   0
  11   1  -1   91.41    2.96   0
  -5  -4  -1  261.37    3.54   0
  12   1   0    0.25    2.40   0
  12   1   1   30.27    2.83   0
  -5  -2   1  544.29    5.94   0
   4   1   2   46.42    3.04   0
  -7  -4   2   42.40    2.74   0
  -6  -2   3  206.29    4.55   0
  -7  -3   3   14.69    2.60   0
   3   1   4  496.35    4.85   0
   3   1   5  126.29    2.79   0
   8   1   6   18.08    2.58   0
   4   1   7  233.07    3.23   0
   5   1   7   68.77    2.27   0
   6   1   7    0.56    1.79   0
   0   0  12   86.51    3.17   0
   9  -2 -11   55.48    2.92   0
   5  -3 -10   73.04    2.32   0
   8  -1  -9    2.84    2.44   0
   6  -1  -8  506.47    5.75   0
   2  -3  -8    5.80    2.23   0
   2  -2  -7    7.46    2.31   0
  -1  -4  -6   44.31    2.62   0
  -2  -4  -5   21.73    2.54   0
  -3  -2  -2   18.39    2.45   0
  -4  -3  -2    8.78    1.72   0
   8   1  -1    6.75    2.60   0
   9   1  -1  759.38    6.63   0
  10   1  -1    6.95    2.43   0
  -2  -1  -1   72.14    3.11   0
   6   1   0  369.64    4.74   0
  11   1   0   21.54    2.47   0
  -6  -4   0    7.48    2.42   0
   5   1   1  258.67    4.05   0
  11   1   1   32.85    2.57   0
  -6  -3   1   29.97    1.96   0
  11   1   2   22.82    2.63   0
   4   1   3    0.81    2.41   0
  10   1   4   39.84    2.12   0
  -8  -4   4    1.74    2.52   0
   4   1   5  502.15    5.02   0
   8   1   5    3.58    2.36   0
   9   1   5  104.02    2.62   0
   4   1   6 1459.04    7.26   0
   5   1   6   12.38    2.30   0
   6   1   6    7.24    2.38   0
   7   1   6  183.64    2.93   0
  -2   0  10    3.50    2.45   0
  -1   0  11   -0.37    2.37   0
  -5  -1  12   -0.86    2.42   0
   3  -3  -9   17.93    2.48   0
  14   0  -7    1.47    3.83   0
   0  -4  -7   58.73    2.19   0
  -3  -4  -4   15.00    1.85   0
  -4  -4  -3   28.74    2.68   0
   7   1   0  152.78    3.67   0
  10   1   0   68.80    2.95   0
  10   1   1  114.89    3.25   0
   5   1   2 1346.06    8.13   0
  10   1   2   49.11    2.59   0
  -4  -1   2 1650.03   14.08   0
  10   1   3    1.60    1.84   0
   4   1   4   11.60    1.84   0
   9   1   4   21.38    1.92   0
   5   1   5    4.61    2.52   0
   6   1   5   99.18    2.99   0
   7   1   5  105.11    3.00   0
  -8  -3   5   14.34    2.56   0
  -4  -1  13    3.37    2.56   0
   6  -3 -11   17.68    2.70   0
   6  -2 -10    3.69    2.46   0
   3  -2  -8   34.78    1.99   0
   4  -1  -7   -0.99    2.37   0
  -4  -2  -1    7.89    2.35   0
  -5  -3  -1  498.17    4.65   0
   8   1   0   61.41    3.04   0
   9   1   0  440.28    4.70   0
   6   1   1   83.43    2.51   0
   7   1   1   88.19    3.04   0
   9   1   1   50.16    2.79   0
   6   1   2  132.74    3.16   0
   9   1   2    4.63    2.43   0
   5   1   3  162.30    2.92   0
   6   1   3    1.55    2.31   0
   8   1   3   62.15    2.70   0
   9   1   3  136.08    2.74   0
   5   1   4  182.11    3.09   0
   6   1   4   81.21    2.93   0
   7   1   4   50.49    2.69   0
   8   1   4   12.10    1.83   0
  -2   0   4  374.54    7.15   0
  -7  -2   5   57.46    3.42   0
  -2   0   9   -1.14    1.65   0
  -1   0  10   39.11    2.56   0
   0   0  11    4.05    1.63   0
  -5  -1  11    5.88    2.48   0
   8  -2 -11   12.67    2.49   0
  10  -1 -10    5.94    2.64   0
   4  -3 -10    7.40    2.40   0
   0  -3  -7  185.17    3.41   0
  -1  -3  -6  151.05    3.13   0
  -2  -3  -5   14.86    2.48   0
  -5  -4  -2  237.42    3.46   0
   8   1   1  106.27    2.69   0
  -7  -4   1  169.34    3.77   0
   7   1   2   11.08    1.75   0
   8   1   2  298.56    3.78   0
  -7  -3   2    1.21    2.38   0
   7   1   3   44.51    2.00   0
  -8  -4   3   18.82    2.59   0
  -2   0   8 1886.39   10.01   0
   1   0  11   -2.15    1.88   0
   2   0  11    0.16    2.60   0
  -7  -2  12    0.17    3.20   0
   7  -1  -9  183.30    4.23   0
   4  -2  -9   -0.30    1.68   0
   1  -3  -8   24.49    2.43   0
  13   0  -7   -1.00    3.45   0
  -1  -2  -5   42.08    2.73   0
  -3  -3  -4   35.63    2.01   0
  -4  -3  -3  547.42    4.91   0
  -6  -4  -1    4.36    2.45   0
  -3  -1   0   80.42    3.34   0
  -6  -3   0    1.90    2.31   0
  -6  -2   2  883.96    7.62   0
  -2   0   7    0.79    2.39   0
   0   0  10    8.38    2.54   0
  -4  -1  12   50.84    2.90   0
  -3  -1  13   40.90    2.20   0
  10  -2 -12   68.99    3.23   0
   5  -3 -11    8.16    2.46   0
   2  -3  -9   15.81    2.39   0
   5  -1  -8  279.04    4.59   0
   1  -2  -7   26.36    2.47   0
   0  -2  -6   14.08    1.93   0
  -2  -4  -6    7.64    1.81   0
   5   0  -5   46.12    4.80   0
   1  -1  -5  258.55    4.59   0
  -3  -4  -5    8.79    1.66   0
   0  -1  -4  500.92    5.81   0
  -2  -2  -4  130.29    2.75   0
  -4  -4  -4    9.07    2.38   0
  -5  -2   0   37.42    2.87   0
  -8  -3   4   27.71    2.73   0
  -2   0   5    0.90    2.02   0
  -2   0   6 1900.88   11.40   0
  -1   0   9    2.55    1.76   0
  -9  -3   9   91.03    6.88   0
   1   0  10  609.41    5.30   0
  -5  -1  10   18.78    2.59   0
   7  -2 -11    4.52    2.41   0
   9  -1 -10   91.85    4.03   0
   5  -2 -10    3.92    2.38   0
   2  -2  -8    1.70    2.40   0
   2  -1  -6 1734.26    9.76   0
  -1  -1  -3 1114.17    8.27   0
  -3  -2  -3   21.52    1.78   0
  -5  -4  -3   28.94    2.58   0
  -5  -3  -2  575.08    5.20   0
  -8  -4   2    2.22    2.42   0
  -5  -1   4  160.15    7.75   0
  -9  -3   8    4.47    3.63   0
   2   0  10    4.07    1.85   0
   3   0  10  497.46    4.76   0
   4   0  10    5.04    1.84   0
   9  -2 -12    6.15    2.46   0
   3  -3 -10    2.48    1.65   0
  12   0  -7   -0.39    3.38   0
  -7  -4   0   57.98    2.29   0
  -7  -3   1    4.60    2.37   0
  -7  -2   4  164.32    4.40   0
  -1   0   8  451.91    4.79   0
   0   0   9    5.81    1.66   0
  -4  -1  11    1.98    2.40   0
  -7  -2  11    3.88    3.56   0
  -3  -1  12   24.40    2.73   0
   3  -2  -9   70.78    2.78   0
   0  -3  -8   37.22    2.56   0
  11   0  -7    0.52    4.28   0
   3  -1  -7   92.25    3.15   0
  -1  -3  -7    1.97    1.62   0
  14   0  -6   31.54    3.02   0
  -2  -3  -6    0.98    1.58   0
  -3  -3  -5   33.10    2.37   0
  -2  -1  -2  531.88    5.83   0
  -4  -2  -2   20.46    1.79   0
  -6  -4  -2   14.23    2.49   0
  -6  -3  -1  131.00    3.29   0
  -1   0   2 1128.58   15.97   0
  -8  -3   3   61.42    2.89   0
  -9  -3   7   11.03    3.10   0
   1   0   9    0.71    1.58   0
   2   0   9    0.12    2.40   0
   4   0   9    2.07    2.43   0
   5   0   9   -0.03    1.67   0
  -5  -1   9   54.35    3.20   0
   6  -2 -11    3.32    2.28   0
   4  -3 -11   21.01    1.87   0
   6  -1  -9  477.72    5.88   0
   1  -3  -9    1.49    2.31   0
  -4  -3  -4  171.45    3.25   0
  -6  -2   1   61.91    3.04   0
  -1   0   7    0.65    1.59   0
   0   0   8  143.48    3.33   0
   3   0   9   -2.04    1.73   0
  -2  -1  12  104.80    3.21   0
   8  -2 -12   12.04    2.63   0
   8  -1 -10  204.96    4.51   0
   4  -2 -10   12.77    2.53   0
   2  -3 -10   10.52    2.53   0
   4  -1  -8   60.92    2.99   0
   0  -2  -7   34.22    2.66   0
  -1  -2  -6   65.46    2.30   0
  -2  -2  -5  102.04    3.24   0
  -5  -3  -3  195.62    3.63   0
  -5  -2  -1   78.72    2.91   0
  -7  -4  -1   26.15    2.68   0
  -4  -1   1 1849.12   13.12   0
  -1   0   6  124.38    3.89   0
  -9  -3   6   22.67    2.96   0
   1   0   8    5.84    2.38   0
   5   0   8  300.26    4.04   0
   6   0   8   19.23    1.84   0
  -1  -1  12    1.90    2.53   0
  12  -1 -11   93.55    5.22   0
   1  -2  -8   21.17    1.96   0
  13   0  -6   74.90    4.13   0
  14   0  -5    1.10    2.50   0
  -3  -2  -4  324.99    4.20   0
  -3  -1  -1   37.36    3.38   0
  -7  -3   0   48.03    2.80   0
  -8  -3   2   26.85    2.57   0
  -7  -2   3  166.64    4.32   0
   0   0   7   34.07    2.85   0
   7   0   7    2.60    2.57   0
   2   0   8  482.15    4.87   0
   3   0   8 2670.93   10.04   0
   4   0   8  642.18    5.35   0
  -5  -1   8  279.46    5.73   0
  -4  -1  10   17.22    2.55   0
  -3  -1  11  120.26    2.97   0
   0  -1  12    6.50    1.97   0
  -6  -2  12   29.16    2.93   0
  11  -1 -11    0.74    3.15   0
  13  -1 -11    1.36    3.71   0
   5  -2 -11   15.89    2.32   0
   2  -2  -9   79.29    2.74   0
  -1  -3  -8   14.44    2.60   0
  -2  -3  -7   69.14    2.79   0
   1  -1  -6  206.11    3.96   0
  -3  -3  -6   -0.03    2.30   0
   0  -1  -5  874.82    6.99   0
  14   0  -4   66.74    3.22   0
  14   0  -3    1.09    2.53   0
  -4  -2  -3  136.04    3.28   0
  -6  -3  -2   48.07    2.76   0
  -1   0   3    0.85    3.68   0
  -1   0   5    0.69    2.25   0
  -9  -3   5   26.11    2.97   0
   8   0   6   24.09    2.54   0
   6   0   7    0.65    2.50   0
   7  -2 -12    1.02    1.58   0
   7  -1 -10  105.82    3.44   0
   5  -1  -9   49.01    2.99   0
   0  -3  -9   23.07    2.44   0
   2  -1  -7  437.53    5.00   0
  -4  -3  -5  126.97    3.05   0
  -1  -1  -4  316.18    4.32   0
  -6  -2   0  215.93    3.99   0
  11   0   3    3.55    2.54   0
  -1   0   4 1647.34   11.89   0
  10   0   4   42.17    2.89   0
   9   0   5   -0.78    1.55   0
   7   0   6  175.53    3.39   0
   1   0   7    0.70    1.52   0
   5   0   7    2.13    2.46   0
  -7  -2  10  330.99    7.52   0
  -2  -1  11   24.00    2.05   0
  10  -1 -11   33.99    3.18   0
   3  -2 -10  104.15    2.62   0
   1  -3 -10   53.60    2.70   0
   6   0  -6 1884.67   20.17   0
  13   0  -5    1.48    2.43   0
  -5  -3  -4   53.36    2.78   0
  -2  -1  -3  186.34    4.17   0
  -5  -2  -2    3.87    2.34   0
  13   0  -1    1.25    2.49   0
  12   0   1   -2.13    2.49   0
  -5  -1   3   72.10    4.94   0
  -9  -3   4    1.92    2.98   0
   8   0   5   -0.19    2.43   0
   0   0   6 1698.38    9.13   0
   2   0   7   -0.13    1.66   0
   3   0   7   -2.71    1.73   0
   4   0   7    1.08    1.90   0
  -5  -1   7  324.71    7.16   0
  -3  -1  10  381.82    5.03   0
  -1  -1  11   49.63    2.78   0
   0  -1  11   12.01    2.64   0
   2  -1  11   52.02    2.82   0
   6  -2 -12   25.67    2.65   0
   3  -1  -8    1.78    2.31   0
   0  -2  -8  232.59    3.70   0
  -1  -2  -7   48.53    2.11   0
  12   0  -6  292.13    6.37   0
  -2  -2  -6  490.45    4.80   0
  13   0  -4   43.27    3.00   0
  13   0  -3    1.84    2.60   0
  13   0  -2  107.35    3.38   0
  -7  -3  -1   40.93    2.11   0
  -8  -3   1   13.46    1.90   0
  11   0   2    4.82    2.68   0
  -7  -2   2    4.10    2.77   0
  10   0   3   -2.28    2.63   0
   9   0   4  374.62    4.42   0
   1   0   6   36.19    2.74   0
   6   0   6  178.09    3.03   0
  -4  -1   9   19.92    2.92   0
   1  -1  11  181.02    3.22   0
  -5  -2  12    4.52    2.66   0
   9  -1 -11   11.72    2.72   0
   4  -2 -11    3.52    1.75   0
   6  -1 -10  891.74    7.22   0
   1  -2  -9   30.12    2.47   0
  -3  -2  -5   87.77    2.52   0
   3   0  -4   11.26    3.26   0
   2   0  -3   -0.12    3.65   0
  -6  -3  -3    8.69    1.81   0
  -3  -1  -2  110.70    3.70   0
  12   0   0   32.03    2.07   0
  -4  -1   0  558.79    6.55   0
   0   0   5   13.04    2.35   0
   7   0   5    0.91    1.79   0
   2   0   6    6.42    2.44   0
   3   0   6  174.43    3.65   0
   4   0   6  169.08    3.56   0
   5   0   6  159.42    2.88   0
  -2  -1  10   29.17    2.66   0
  -6  -2  11    4.67    3.41   0
   2  -2 -10  160.94    3.49   0
   4  -1  -9   22.32    2.60   0
  -1  -3  -9    8.73    1.71   0
  -2  -3  -8   69.42    2.22   0
  -3  -3  -7   21.10    1.89   0
  -4  -3  -6  172.09    3.29   0
  -4  -2  -4 1420.74    7.30   0
  12   0  -1   -0.47    2.44   0
  -6  -2  -1    5.16    2.20   0
  11   0   1    1.72    1.89   0
  10   0   2  254.72    3.87   0
   9   0   3    2.28    2.46   0
  -9  -3   3    8.68    2.50   0
   8   0   4  298.35    3.54   0
   6   0   5   -4.23    2.48   0
   3  -1  10  644.31    5.55   0
   5  -2 -12    4.67    2.37   0
   8  -1 -11  244.12    4.70   0
   1  -1  -7   93.02    2.95   0
   0  -1  -6   12.81    2.47   0
  12   0  -5    0.35    2.56   0
  -1  -1  -5   85.13    3.14   0
  -5  -3  -5   31.52    2.58   0
  -5  -2  -3    7.78    2.32   0
  12   0  -2  104.80    3.32   0
  -7  -3  -2  125.22    3.16   0
  11   0   0   35.40    2.74   0
  -8  -3   0   28.55    2.03   0
  -7  -2   1   19.48    2.90   0
   0   0   4  623.26    7.29   0
   7   0   4  413.46    4.59   0
   1   0   5    1.72    2.73   0
   5   0   5   -0.42    2.56   0
  -3  -1   9  122.22    3.71   0
  -1  -1  10    3.61    1.80   0
   0  -1  10  315.94    4.28   0
   1  -1  10   65.36    2.91   0
   2  -1  10   49.18    2.91   0
  -4  -2  12   37.49    3.00   0
   4   0   5   -0.21    1.98   0
   5  -1   9   17.30    1.99   0
;
_shelx_hkl_checksum              27945
_shelx_res_file
;
    mhtr33_12.res created by SHELXL-2014/7
TITL mhtr33_12 in P2(1)/c
CELL 0.71073  12.0330   4.0256  11.5992  90.000 118.346  90.000
ZERR    4.00   0.0017   0.0003   0.0015   0.000   0.010   0.000
LATT  1
SYMM -X, 0.5+Y, 0.5-Z
SFAC C H N
UNIT 16 24 16
SIZE 0.12 0.10 0.07
REM colorless block
ACTA 50
L.S. 10
BOND $H
CONF
FMAP 2
PLAN 10
TEMP -100
OMIT -8 0 8
EQIV $1 -x, y-1/2, -z+1/2
EQIV $2 -x+1, -y+1, -z+1
EQIV $3 -x+1, y+1/2, -z+3/2
HTAB N21A N1A_$1
HTAB
HTAB N41A N3A_$2
HTAB N41A N41A_$3
DFIX 0.88 0.02 N21A H21A N21A H22A N41A H41A N41A H42A
MPLA N1A_$1 C2A_$1 N21A_$1 N3A_$1 C4A_$1 N41A_$1 C5A_$1 C6A_$1
MPLA N1A > C6A
MPLA N1A_$3 C2A_$3 N21A_$3 N3A_$3 C4A_$3 N41A_$3 C5A_$3 C6A_$3
WGHT    0.055500    0.173600
FVAR       1.44464
N1A   3    0.105450    0.512355    0.407094    11.00000    0.01795    0.02848 =
         0.02273    0.00395    0.00888    0.00229
C2A   1    0.197331    0.407167    0.381206    11.00000    0.01855    0.02403 =
         0.01821    0.00499    0.00703    0.00050
N21A  3    0.161003    0.217085    0.273427    11.00000    0.01740    0.03717 =
         0.02269   -0.00634    0.00808   -0.00486
H21A  2    0.081938    0.154460    0.229672    11.00000   -1.20000
H22A  2    0.221164    0.121171    0.265150    11.00000   -1.20000
N3A   3    0.321710    0.477958    0.450185    11.00000    0.01895    0.02445 =
         0.01962    0.00113    0.00838    0.00037
C4A   1    0.356851    0.665560    0.557405    11.00000    0.02014    0.02129 =
         0.01857    0.00386    0.00661    0.00168
N41A  3    0.482190    0.734019    0.630376    11.00000    0.01884    0.03460 =
         0.02416   -0.00711    0.00779   -0.00086
H41A  2    0.531383    0.686062    0.597243    11.00000   -1.20000
H42A  2    0.499792    0.895344    0.686898    11.00000   -1.20000
C5A   1    0.269576    0.778033    0.596154    11.00000    0.02443    0.02788 =
         0.02155   -0.00057    0.01119    0.00179
AFIX  43
H5A   2    0.294942    0.903558    0.674022    11.00000   -1.20000
AFIX   0
C6A   1    0.145742    0.697736    0.515997    11.00000    0.02329    0.02686 =
         0.02525    0.00427    0.01333    0.00531
AFIX  43
H6A   2    0.084479    0.778036    0.538763    11.00000   -1.20000
AFIX   0
HKLF 4
REM  mhtr33_12 in P2(1)/c
REM R1 =  0.0386 for     859 Fo > 4sig(Fo)  and  0.0422 for all     942 data
REM     85 parameters refined using      4 restraints
END
WGHT      0.0555      0.1736
REM Instructions for potential hydrogen bonds
HTAB N21A N1A_$1
HTAB N41A N3A_$2
HTAB N41A N41A_$3
REM Highest difference peak  0.183,  deepest hole -0.177,  1-sigma level  0.046
Q1    1   0.3049  0.7673  0.5665  11.00000  0.05    0.18
Q2    1   0.2816  0.9863  0.6216  11.00000  0.05    0.18
Q3    1   0.1497  0.5261  0.3749  11.00000  0.05    0.18
Q4    1   0.2584  0.5446  0.3939  11.00000  0.05    0.16
Q5    1   0.3849  0.3794  0.4311  11.00000  0.05    0.16
Q6    1   0.3654  0.5804  0.4162  11.00000  0.05    0.13
Q7    1   0.5020  0.2880  0.6067  11.00000  0.05    0.13
Q8    1   0.2213  0.2744  0.2165  11.00000  0.05    0.13
Q9    1   0.5000  0.5000  0.5000  10.50000  0.05    0.13
Q10   1   0.2229  0.6264  0.5737  11.00000  0.05    0.13
;
_shelx_res_checksum              93412
loop_
_space_group_symop_operation_xyz
'x, y, z'
'-x, y+1/2, -z+1/2'
'-x, -y, -z'
'x, -y-1/2, z-1/2'
loop_
_atom_site_type_symbol
_atom_site_label
_atom_site_fract_x
_atom_site_fract_y
_atom_site_fract_z
_atom_site_U_iso_or_equiv
_atom_site_adp_type
_atom_site_calc_flag
_atom_site_occupancy
N N1A 0.10545(11) 0.5124(3) 0.40709(11) 0.0234(3) Uani d 1
C C2A 0.19733(13) 0.4072(4) 0.38121(13) 0.0210(4) Uani d 1
N N21A 0.16100(12) 0.2171(4) 0.27343(12) 0.0263(3) Uani d 1
H H21A 0.0819(15) 0.154(5) 0.2297(17) 0.032 Uiso d 1
H H22A 0.2212(16) 0.121(5) 0.2652(18) 0.032 Uiso d 1
N N3A 0.32171(11) 0.4780(3) 0.45018(11) 0.0213(3) Uani d 1
C C4A 0.35685(13) 0.6656(4) 0.55740(13) 0.0211(4) Uani d 1
N N41A 0.48219(12) 0.7340(4) 0.63038(12) 0.0269(4) Uani d 1
H H41A 0.5314(17) 0.686(5) 0.5972(18) 0.032 Uiso d 1
H H42A 0.4998(17) 0.895(4) 0.6869(16) 0.032 Uiso d 1
C C5A 0.26958(14) 0.7780(4) 0.59615(14) 0.0245(4) Uani d 1
H H5A 0.2949 0.9036 0.6740 0.029 Uiso calc 1
C C6A 0.14574(14) 0.6977(4) 0.51600(14) 0.0244(4) Uani d 1
H H6A 0.0845 0.7780 0.5388 0.029 Uiso calc 1
loop_
_atom_site_aniso_label
_atom_site_aniso_U_11
_atom_site_aniso_U_22
_atom_site_aniso_U_33
_atom_site_aniso_U_12
_atom_site_aniso_U_13
_atom_site_aniso_U_23
N1A 0.0180(6) 0.0285(7) 0.0227(6) 0.0023(5) 0.0089(5) 0.0040(5)
C2A 0.0185(7) 0.0240(8) 0.0182(6) 0.0005(5) 0.0070(5) 0.0050(5)
N21A 0.0174(6) 0.0372(8) 0.0227(6) -0.0049(5) 0.0081(5) -0.0063(5)
N3A 0.0189(6) 0.0244(7) 0.0196(6) 0.0004(5) 0.0084(5) 0.0011(5)
C4A 0.0201(7) 0.0213(7) 0.0186(6) 0.0017(5) 0.0066(5) 0.0039(5)
N41A 0.0188(7) 0.0346(8) 0.0242(6) -0.0009(5) 0.0078(5) -0.0071(5)
C5A 0.0244(8) 0.0279(8) 0.0216(7) 0.0018(6) 0.0112(6) -0.0006(6)
C6A 0.0233(8) 0.0269(8) 0.0253(7) 0.0053(6) 0.0133(6) 0.0043(6)
loop_
_atom_type_symbol
_atom_type_description
_atom_type_scat_dispersion_real
_atom_type_scat_dispersion_imag
_atom_type_scat_source
C C 0.0033 0.0016 'International Tables Vol C Tables 4.2.6.8 and 6.1.1.4'
H H 0.0000 0.0000 'International Tables Vol C Tables 4.2.6.8 and 6.1.1.4'
N N 0.0061 0.0033 'International Tables Vol C Tables 4.2.6.8 and 6.1.1.4'
loop_
_geom_angle_atom_site_label_1
_geom_angle_atom_site_label_2
_geom_angle_atom_site_label_3
_geom_angle
C6A N1A C2A 114.64(12)
N1A C2A N21A 116.53(13)
N1A C2A N3A 126.78(13)
N21A C2A N3A 116.67(13)
C2A N21A H21A 119.0(12)
C2A N21A H22A 115.8(12)
H21A N21A H22A 122.9(18)
C4A N3A C2A 116.18(12)
N3A C4A N41A 117.33(13)
N3A C4A C5A 121.74(13)
N41A C4A C5A 120.89(14)
C4A N41A H41A 117.9(13)
C4A N41A H42A 114.8(12)
H41A N41A H42A 121.6(18)
C6A C5A C4A 116.51(14)
C6A C5A H5A 121.7
C4A C5A H5A 121.7
N1A C6A C5A 124.06(14)
N1A C6A H6A 118.0
C5A C6A H6A 118.0
loop_
_geom_bond_atom_site_label_1
_geom_bond_atom_site_label_2
_geom_bond_distance
N1A C6A 1.3439(19)
N1A C2A 1.3443(19)
C2A N21A 1.3493(19)
C2A N3A 1.3506(18)
N21A H21A 0.876(15)
N21A H22A 0.865(15)
N3A C4A 1.3403(19)
C4A N41A 1.3619(19)
C4A C5A 1.399(2)
N41A H41A 0.867(15)
N41A H42A 0.874(15)
C5A C6A 1.369(2)
C5A H5A 0.9500
C6A H6A 0.9500
loop_
_geom_hbond_atom_site_label_D
_geom_hbond_atom_site_label_H
_geom_hbond_atom_site_label_A
_geom_hbond_site_symmetry_A
_geom_hbond_distance_DH
_geom_hbond_distance_HA
_geom_hbond_distance_DA
_geom_hbond_angle_DHA
N21A H21A N1A 2_545 0.876(15) 2.129(15) 2.9947(18) 169.6(17)
N41A H41A N3A 3_666 0.867(15) 2.188(16) 3.0436(19) 169.1(18)
N41A H42A N41A 2_656 0.874(15) 2.442(15) 3.287(2) 162.9(17)
loop_
_geom_torsion_atom_site_label_1
_geom_torsion_atom_site_label_2
_geom_torsion_atom_site_label_3
_geom_torsion_atom_site_label_4
_geom_torsion
C6A N1A C2A N21A 179.29(13)
C6A N1A C2A N3A -2.3(2)
N1A C2A N3A C4A 1.9(2)
N21A C2A N3A C4A -179.69(12)
C2A N3A C4A N41A 178.51(12)
C2A N3A C4A C5A 0.7(2)
N3A C4A C5A C6A -2.5(2)
N41A C4A C5A C6A 179.72(13)
C2A N1A C6A C5A 0.1(2)
C4A C5A C6A N1A 2.1(2)

_cod_database_fobs_code 2020575
