#------------------------------------------------------------------------------
#$Date: 2016-07-01 04:33:22 +0300 (Fri, 01 Jul 2016) $
#$Revision: 184084 $
#$URL: file:///home/coder/svn-repositories/cod/cif/2/02/05/2020544.cif $
#------------------------------------------------------------------------------
#
# This file is available in the Crystallography Open Database (COD),
# http://www.crystallography.net/. The original data for this entry
# were provided by IUCr Journals, http://journals.iucr.org/.
#
# The file may be used within the scientific community so long as
# proper attribution is given to the journal article from which the
# data were obtained.
#
data_2020544
loop_
_publ_author_name
'Galica, Tomasz'
'Bakowicz, Julia'
'Broda, Piotr'
'Turowska-Tyrk, Ilona'
_publ_section_title
;
 Monitoring photo-induced transformations in crystals of
 2,6-difluorocinnamic acid under ambient conditions
;
_journal_coeditor_code           YF3104
_journal_issue                   7
_journal_name_full               'Acta Crystallographica Section C'
_journal_page_first              593
_journal_page_last               599
_journal_paper_doi               10.1107/S2053229616010019
_journal_volume                  72
_journal_year                    2016
_chemical_formula_iupac          'C9 H6 F2 O2'
_chemical_formula_moiety         'C9 H6 F2 O2'
_chemical_formula_sum            'C9 H6 F2 O2'
_chemical_formula_weight         184.14
_chemical_name_common
;
2,6-Difluorocinnamic acid
;
_chemical_name_systematic
;
3-(2,6-Difluorophenyl)prop-2-enoic acid
;
_space_group_crystal_system      monoclinic
_space_group_IT_number           14
_space_group_name_Hall           '-P 2ybc'
_space_group_name_H-M_alt        'P 1 21/c 1'
_symmetry_space_group_name_Hall  '-P 2ybc'
_symmetry_space_group_name_H-M   'P 1 21/c 1'
_atom_sites_solution_hydrogens   difmap
_atom_sites_solution_primary     direct
_atom_sites_solution_secondary   difmap
_audit_creation_method           SHELXL-2014/7
_cell_angle_alpha                90
_cell_angle_beta                 92.221(6)
_cell_angle_gamma                90
_cell_formula_units_Z            4
_cell_length_a                   3.8856(3)
_cell_length_b                   19.2920(11)
_cell_length_c                   10.9859(6)
_cell_measurement_reflns_used    1694
_cell_measurement_temperature    299(2)
_cell_measurement_theta_max      27.7876
_cell_measurement_theta_min      1.8513
_cell_volume                     822.90(9)
_computing_cell_refinement
;
CrysAlis PRO (Agilent, 2014)
;
_computing_data_collection
;
CrysAlis PRO (Agilent, 2014)
;
_computing_data_reduction
;
CrysAlis PRO (Agilent, 2014)
;
_computing_molecular_graphics
;
ORTEP-3 for Windows (Farrugia, 2012),
and Mercury (Macrae <i>et al.</i>,  2006) and
<i>CrystalExplorer</i> (Wolff <i>et al.</i>,  2012)
;
_computing_publication_material
;
SHELXL2014 (Sheldrick, 2015)
;
_computing_structure_refinement
;
SHELXL2014 (Sheldrick, 2015)
;
_computing_structure_solution
;
SHELXS2013 (Sheldrick, 2008)
;
_diffrn_ambient_temperature      299(2)
_diffrn_detector_area_resol_mean 15.9718
_diffrn_measured_fraction_theta_full 1.000
_diffrn_measured_fraction_theta_max 1.000
_diffrn_measurement_device_type  'KM-4 with an Eos CCD'
_diffrn_measurement_method       '\w scans'
_diffrn_radiation_monochromator  graphite
_diffrn_radiation_type           MoK\a
_diffrn_radiation_wavelength     0.71073
_diffrn_reflns_av_R_equivalents  0.0254
_diffrn_reflns_limit_h_max       4
_diffrn_reflns_limit_h_min       -4
_diffrn_reflns_limit_k_max       23
_diffrn_reflns_limit_k_min       -23
_diffrn_reflns_limit_l_max       13
_diffrn_reflns_limit_l_min       -11
_diffrn_reflns_number            5660
_diffrn_reflns_theta_full        25.242
_diffrn_reflns_theta_max         25.999
_diffrn_reflns_theta_min         2.111
_exptl_absorpt_coefficient_mu    0.134
_exptl_absorpt_correction_T_max  1.00000
_exptl_absorpt_correction_T_min  0.94119
_exptl_absorpt_correction_type   multi-scan
_exptl_absorpt_process_details
;
(Scale3 AbsPack; Agilent, 2014)
;
_exptl_crystal_colour            colourless
_exptl_crystal_density_diffrn    1.486
_exptl_crystal_description       block
_exptl_crystal_F_000             376
_exptl_crystal_size_max          0.40
_exptl_crystal_size_mid          0.10
_exptl_crystal_size_min          0.10
_refine_diff_density_max         0.118
_refine_diff_density_min         -0.156
_refine_ls_extinction_method     none
_refine_ls_goodness_of_fit_ref   1.012
_refine_ls_hydrogen_treatment    refall
_refine_ls_matrix_type           full
_refine_ls_number_parameters     142
_refine_ls_number_reflns         1619
_refine_ls_number_restraints     0
_refine_ls_restrained_S_all      1.012
_refine_ls_R_factor_all          0.0825
_refine_ls_R_factor_gt           0.0408
_refine_ls_shift/su_max          0.000
_refine_ls_shift/su_mean         0.000
_refine_ls_structure_factor_coef Fsqd
_refine_ls_weighting_details
'w=1/[\s^2^(Fo^2^)+(0.0452P)^2^+0.0206P] where P=(Fo^2^+2Fc^2^)/3'
_refine_ls_weighting_scheme      calc
_refine_ls_wR_factor_gt          0.0834
_refine_ls_wR_factor_ref         0.0965
_reflns_number_gt                1000
_reflns_number_total             1619
_reflns_threshold_expression     'I > 2\s(I)'
_cod_data_source_file            yf3104sup1.cif
_cod_data_source_block           I
_cod_database_code               2020544
_shelx_space_group_comment
;
The symmetry employed for this shelxl refinement is uniquely defined
by the following loop, which should always be used as a source of
symmetry information in preference to the above space-group names.
They are only intended as comments.
;
_shelx_hkl_file
;
   0   0  -1 13.4365 23.1215   2
   0   0  -2 70588.3 580.143   2
   0   0  -3 18.0159 57.6868   2
   0   0   3-9.06713 44.2257   3
   0   0   4 102.464 48.6465   3
   0   0  -4 127.291 63.6893   2
   0   0  -5 14.6981 60.5170   2
   0   0   5 20.8860 50.1073   3
   0   0  -6 5422.31 297.908   2
   0   0   6 5306.35 200.762   3
   0   0   7-34.7942 68.1947   9
   0   0   7 18.6735 61.8894   3
   0   0   8 2404.18 166.322   9
   0   0   8 2396.16 166.374   3
   0   0   9-0.19428 79.5537   3
   0   0   9-58.6651 86.2515   9
   0   0  10 69.7732 80.4007   9
   0   0  10 204.754 95.9856   3
   0   0  11-33.2110 90.4364   9
   0   0  11 12.1679 84.8198   3
   0   0  12 449.974 123.035   9
   0   0  12 332.886 116.440   3
   0   0  13-43.4488 90.8799   9
   0   0  13 61.0753 91.9995   3
   0   0  14-25.7390 97.2642   3
   0   1   1 1872.14 72.5574   2
   0  -1  -1 1987.14 74.8548   2
   0  -1  -2 50841.6 507.156   2
   0   1   2 50980.2 506.360   2
   0   1  -2 52000.4 352.741   6
   0   1   3 1288.88 78.0051   9
   0   1  -3 1270.61 116.174   2
   0  -1  -3 1235.69 113.473   2
   0  -1   3 1403.71 85.8861  10
   0   1   3 1194.07 76.2958   3
   0  -1   3 1200.52 77.5798   3
   0   1   4 2034.13 105.846   9
   0  -1   4 2136.08 109.450   3
   0   1  -4 2066.19 152.067   2
   0  -1  -4 2119.70 158.936   2
   0   1   4 2205.08 110.910   3
   0   1   5 5632.18 185.149   3
   0   1   5 5800.46 186.732   9
   0  -1   5 5479.07 185.667   3
   0  -1  -5 5537.08 274.836   2
   0   1  -5 5881.16 272.404   2
   0   1   6 1770.78 119.595   9
   0   1   6 1788.25 121.886   3
   0  -1  -6 1899.59 190.811   2
   0   1  -6 1891.37 185.021   2
   0  -1   6 1819.02 123.542   3
   0  -1   7 310.695 77.2191   3
   0   1   7 177.162 63.9785   9
   0   1   7 249.008 71.3788   3
   0   1   8 1095.97 122.999   9
   0  -1   8 1193.15 128.688   3
   0   1   8 1288.27 130.924   3
   0  -1   9 1999.14 168.422   9
   0   1   9 2018.38 168.523   9
   0  -1   9 1902.11 163.885   3
   0   1   9 2071.23 168.635   3
   0  -1  10 1755.17 165.126   9
   0   1  10 1828.76 169.638   9
   0  -1  10 1901.34 172.379   3
   0   1  10 1949.99 172.646   3
   0  -1  11 942.443 137.598   9
   0   1  11 992.849 146.936   3
   0  -1  11 945.590 141.452   3
   0   1  11 1064.65 146.348   9
   0   1  12-40.0003 85.1040   3
   0  -1  12-80.5081 98.8886   3
   0   1  12-12.0102 87.6602   9
   0  -1  12-8.76671 90.6669   9
   0  -1  13 61.5714 105.484   9
   0   1  13 56.2277 100.269   3
   0   1  13 105.820 102.549   9
   0  -1  13 88.6008 99.5410   3
   0   1  14 148.254 114.365   3
   0  -2   0 52862.4 400.956   1
   0   2   0 52938.2 400.042   1
   0   2   1 6475.41 132.163   1
   0  -2  -1 6419.02 134.937   2
   0  -2  -1 6444.80 135.056   1
   0  -2   1 6376.82 151.014   1
   0   2  -1 6314.51 147.061   1
   0   2   1 6469.73 135.721   2
   0   2  -2 15164.3 232.039   1
   0  -2  -2 14935.5 199.319   1
   0   2   2 15643.1 208.294   9
   0  -2   2 15845.3 209.999   3
   0   2   2 14826.8 281.717   2
   0   2  -2 15612.8 207.917   6
   0  -2  -2 15105.3 283.700   2
   0   2   3 55418.0 444.656   9
   0  -2   3 54530.4 437.374  10
   0   2   3 55470.1 445.602   3
   0  -2   3 54727.4 458.858   3
   0   2  -3 54273.8 442.539   1
   0   2  -3 54550.3 453.654   6
   0  -2  -3 54939.6 650.399   2
   0  -2   4 13734.5 255.668  10
   0  -2  -4 13412.8 375.695   2
   0  -2   4 13952.3 263.175   3
   0   2   4 13941.3 260.776   3
   0   2  -4 13453.6 361.695   2
   0   2   4 13517.4 258.410   9
   0   2   5 7784.57 217.030   9
   0   2   5 7637.66 218.586   3
   0   2  -5 7371.86 308.292   2
   0  -2  -5 7683.87 321.982   2
   0  -2   5 7685.43 218.900   3
   0  -2   6 14161.5 326.679   3
   0   2   6 14133.2 326.491   3
   0   2  -6 14651.8 469.167   2
   0   2   6 13884.4 319.757   9
   0   2   7 12790.6 333.600   9
   0  -2   7 12843.8 338.602   3
   0   2   7 13055.5 339.199   3
   0   2   8 208.302 85.5400   3
   0   2   8 194.497 77.4943   9
   0  -2   8 134.885 79.2631   3
   0   2   9 113.724 83.0141   9
   0  -2   9 75.3047 83.2018   3
   0   2   9 153.064 86.8824   3
   0  -2  10 750.646 121.549   3
   0   2  10 596.664 121.017   9
   0   2  10 777.588 126.169   3
   0  -2  10 423.852 97.4283   9
   0   2  11 9.60127 77.6869   3
   0  -2  11 8.99897 85.4988   9
   0  -2  11-43.1585 89.4470   3
   0   2  11 61.8498 80.4991   9
   0  -2  12 174.480 99.3182   3
   0  -2  12 139.720 93.8805   9
   0   2  12 267.814 118.273   9
   0   2  12 113.585 97.2129   3
   0   2  13-41.2720 89.6985   3
   0  -2  13 21.7429 98.4315   3
   0   2  13-130.202 115.460   9
   0  -2  13-80.7834 101.219   9
   0   2  14 95.4010 113.388   3
   0   3   0-20.0544 36.1794   1
   0  -3   0 19.1571 38.9186   1
   0  -3  -1 50093.7 468.155   1
   0   3   1 50422.8 454.142   1
   0  -3   1 51498.8 506.743   1
   0   3  -1 51460.3 496.620   1
   0   3   1 50440.7 387.105   2
   0  -3   2 29794.2 386.708   1
   0   3  -2 30466.0 392.355   1
   0  -3  -2 30449.5 406.717   2
   0  -3   2 30594.8 312.439   3
   0   3   2 30790.6 404.679   2
   0  -3  -2 30568.5 357.462   1
   0   3   2 30542.2 341.233   1
   0   3   2 30815.5 312.305   9
   0   3  -2 31099.8 309.386   6
   0  -3   3 8322.74 190.108   3
   0   3  -3 8359.94 210.159   1
   0  -3   3 8655.03 175.182  10
   0   3   3 8665.04 191.661   9
   0   3  -3 8606.73 158.343   7
   0  -3  -3 8488.06 260.128   2
   0   3  -3 8255.45 192.205   6
   0   3   3 8565.54 262.082   2
   0  -3   4 21461.5 320.656  10
   0   3   4 21653.8 328.353   3
   0  -3   4 21620.3 338.170   3
   0   3  -4 21723.7 336.948   6
   0   3  -4 21108.6 455.295   2
   0   3  -4 21659.0 335.084   1
   0   3   4 21428.0 332.643   9
   0  -3  -4 21800.0 475.311   2
   0  -3   5-38.7586 52.1638   3
   0   3   5 13.3578 48.0042   3
   0  -3   5 41.2576 61.6380  10
   0   3  -5 34.2883 75.1701   2
   0  -3  -5 46.0881 66.9722   2
   0   3   5 83.0962 56.3227   9
   0   3   6 4138.35 183.573   3
   0   3   6 4220.15 179.549   9
   0   3  -6 4170.24 259.178   2
   0  -3   6 4332.86 187.006   3
   0  -3   7 992.686 109.946   3
   0   3   7 885.363 104.022   9
   0   3   7 991.648 107.892   3
   0  -3   8 3212.03 193.671   3
   0   3   8 3053.15 184.710   9
   0   3   8 2842.21 178.606   3
   0   3   9 1429.00 143.060   3
   0  -3   9 1448.45 150.894   3
   0   3   9 1337.22 145.568   9
   0   3  10 2024.66 180.088   3
   0  -3  10 1837.74 173.356   3
   0   3  10 1717.53 169.540   9
   0   3  11 1029.97 144.914   9
   0  -3  11 893.441 139.955   3
   0   3  11 856.544 134.338   3
   0  -3  12 274.991 105.251   9
   0   3  12 228.432 106.046   9
   0  -3  12 324.449 113.326   3
   0   3  12 429.045 118.234   3
   0   3  13-41.5246 93.1371   3
   0  -3  13-9.59951 95.7949   9
   0  -3  13 10.7790 98.5816   3
   0   3  13-49.6491 116.946   9
   0   3  14-70.9831 119.347   3
   0  -4   0 14986.3 201.056   3
   0   4   0 14737.1 300.785   1
   0  -4   0 14967.0 307.417   1
   0  -4   1 41.9656 34.7099   3
   0  -4  -1 103.900 63.5999   1
   0  -4   1 79.7103 64.7439   1
   0   4   1 10.6009 53.3687   1
   0   4  -1 43.1056 44.1637   6
   0   4   1 26.0745 34.7536   2
   0   4  -1 53.2051 56.3806   1
   0  -4   2 32459.2 347.029   3
   0  -4  -2 32272.5 433.089   1
   0  -4   2 31774.2 457.232   1
   0  -4  -2 32540.5 423.196   2
   0   4  -2 32591.0 462.439   1
   0   4   2 32467.0 349.271   9
   0   4  -2 32774.6 339.521   6
   0   4   2 32181.0 413.716   1
   0   4   2 32889.0 427.917   2
   0   4  -3 42426.1 525.614   1
   0   4  -3 42492.5 440.519   6
   0  -4   3 42821.8 445.733   3
   0  -4   3 42904.5 388.459  10
   0   4  -3 43411.1 366.717   7
   0   4   3 42177.4 587.158   2
   0  -4  -3 42160.4 583.264   2
   0   4   3 42743.4 441.848   9
   0  -4  -4 500.911 95.2731   2
   0  -4   4 546.068 67.3147  10
   0   4   4 462.200 67.6679   9
   0   4  -4 502.045 76.1995   6
   0   4  -4 466.247 57.9104   7
   0   4  -4 531.954 87.0401   2
   0  -4   4 525.579 67.9407   3
   0   4  -4 526.509 75.4426   1
   0   4  -5 862.157 96.6883   6
   0   4   5 896.455 91.4886   9
   0  -4   5 834.732 85.5876   3
   0  -4   5 864.173 90.0411  10
   0  -4  -5 788.929 123.176   2
   0   4  -5 913.374 125.451   2
   0   4   5 869.100 86.2451   3
   0  -4   6 4635.21 196.750   3
   0   4   6 4452.43 189.148   9
   0  -4   6 4611.22 191.508  10
   0   4   6 4742.60 195.083   3
   0   4  -6 4933.63 276.638   2
   0  -4   7 519.782 93.1723   3
   0   4   7 393.342 83.1832   9
   0   4   7 455.581 87.5715   3
   0   4   8-183.935 97.6333   9
   0  -4   8 5.55096 70.2864   3
   0   4   8 30.4878 65.7569   3
   0  -4   9 2179.80 177.925   3
   0   4   9 1966.81 169.663   3
   0   4   9 1941.82 167.028   9
   0   4  10 1597.94 160.670   3
   0   4  10 1465.62 159.411   9
   0  -4  10 1457.14 157.324   3
   0  -4  11 2386.28 206.853   3
   0   4  11 2619.69 213.614   3
   0   4  11 1935.43 189.887   9
   0  -4  12-162.896 117.401   9
   0  -4  12 118.032 103.242   3
   0   4  12-121.765 111.712   9
   0   4  12 50.7934 89.2799   3
   0   4  13 81.5213 101.286   3
   0   4  13 46.6482 102.357   9
   0  -4  13 195.937 114.074   3
   0  -4  13 45.6143 104.024   9
   0   5   0 22.3194 69.5056   1
   0  -5   0 59.8899 79.9306   1
   0  -5   0 16.9409 43.7168   3
   0  -5  -1 12285.4 213.203   3
   0   5  -1 11923.2 206.844   6
   0  -5   1 12192.5 212.566   3
   0   5   1 11994.4 294.363   1
   0   5   1 11731.4 206.260   2
   0   5  -1 11857.3 310.203   1
   0  -5  -1 11870.4 309.338   1
   0  -5   1 11638.2 313.002   1
   0  -5  -2 24230.2 417.408   1
   0   5   2 23536.6 375.914   2
   0   5   2 24012.5 404.326   1
   0  -5   2 23976.6 318.629   3
   0   5  -2 23869.8 313.641   6
   0   5  -2 24209.2 437.291   1
   0  -5   2 23548.6 434.085   1
   0   5  -3 609.474 73.9879   6
   0  -5  -3 577.544 81.4410   2
   0  -5   3 512.855 54.7138  10
   0  -5   3 474.857 63.9967   3
   0   5  -3 565.080 84.6914   1
   0   5   3 504.308 83.3967   2
   0   5   3 640.164 76.1312   9
   0   5  -4 9410.51 278.299   1
   0  -5  -4 9325.42 319.913   2
   0   5  -4 9288.10 242.203   6
   0  -5   4 9366.27 242.643   3
   0   5  -4 9161.53 199.526   7
   0   5   4 9105.81 238.152   9
   0  -5   4 9028.92 210.604  10
   0   5  -5 5599.01 170.605   7
   0  -5   5 5596.65 206.077   3
   0   5  -5 5652.87 268.149   2
   0   5   5 5624.89 204.835   9
   0  -5   5 5591.26 190.239  10
   0   5  -5 5743.14 212.206   6
   0  -5  -5 5770.38 284.745   2
   0   5   6 18662.1 386.069   3
   0  -5   6 18129.3 394.016   3
   0  -5   6 18209.1 365.706  10
   0   5   6 18200.6 391.007   9
   0   5  -6 18099.9 390.374   6
   0   5  -6 18462.6 520.437   2
   0   5   7 1237.48 129.121   9
   0  -5   7 1431.89 132.929   3
   0   5   7 1184.49 118.193   3
   0  -5   8 1498.07 144.233   3
   0   5   8 1379.79 136.885   9
   0   5   8 1513.73 141.788   3
   0   5   9 893.282 127.225   9
   0  -5   9 1053.20 134.045   3
   0   5   9 966.293 128.548   3
   0   5  10-17.2266 80.1992   3
   0   5  10-33.5739 86.1852   9
   0  -5  10 125.825 93.4810   3
   0   5  11 1079.24 149.585   3
   0   5  11 1031.85 149.935   9
   0  -5  11 1105.75 154.360   3
   0   5  12 20.1116 91.6554   3
   0   5  12-64.3970 107.398   9
   0  -5  12 55.7796 91.4554   3
   0  -5  13 23.2999 98.4413   3
   0   5  13-61.3813 104.643   9
   0   5  13 127.407 111.671   3
   0  -5  13-120.051 117.604   9
   0  -6   0 21595.9 457.497   1
   0   6   0 22019.9 442.243   1
   0  -6   0 21725.1 299.305   3
   0  -6   1 158.360 83.5644   1
   0   6   1 43.0083 32.6142   2
   0   6  -1 71.8055 52.9651   6
   0   6  -1 135.676 70.1113   1
   0  -6  -1 107.289 71.6534   1
   0  -6   1 113.654 44.9161   3
   0  -6  -1 66.9781 47.7327   3
   0   6   1 172.049 74.5751   1
   0   6   2 2448.86 125.999   2
   0  -6  -2 2780.88 93.0415  11
   0   6  -2 2489.86 117.083   6
   0  -6   2 2437.75 117.355   3
   0   6   2 2304.15 146.135   1
   0  -6   2 2247.73 163.227   1
   0   6  -2 2443.84 161.149   1
   0  -6  -2 2445.83 157.908   1
   0  -6  -3 708.834 50.9299  11
   0   6  -3 765.177 102.176   1
   0  -6   3 920.193 86.5618   3
   0   6   3 840.505 99.2374   2
   0   6  -3 786.463 84.5597   6
   0  -6   4 52092.6 582.130   3
   0   6   4 52989.5 760.622   2
   0  -6   4 52519.9 496.206  10
   0  -6  -4 52459.9 752.233   2
   0   6  -4 51037.4 480.092   7
   0   6  -4 52262.7 579.594   6
   0   6  -4 52798.9 709.235   1
   0   6   4 51365.1 580.538   9
   0   6  -5 1544.86 150.325   2
   0   6   5 1434.78 118.290   9
   0   6  -5 1452.35 124.434   6
   0  -6   5 1485.41 109.644  10
   0   6  -5 1386.92 97.9626   7
   0  -6  -5 1508.16 158.794   2
   0  -6   5 1498.42 118.038   3
   0  -6   6 493.701 87.6563   3
   0   6  -6 500.278 113.182   2
   0  -6   6 506.331 86.8051  10
   0   6  -6 591.731 102.638   6
   0   6   6 458.096 85.6182   9
   0  -6   7 21.7740 66.2086   3
   0   6  -7 156.169 95.9328   6
   0   6   7-0.24682 72.4908   9
   0  -6   7 296.033 94.5084  10
   0   6   7 50.7761 70.3231   3
   0   6   8 1616.07 149.187   3
   0  -6   8 1386.48 142.244   3
   0   6   8 1488.44 146.957   9
   0  -6   9 1744.71 170.084   3
   0   6   9 1498.35 161.850   9
   0   6   9 1552.98 155.696   3
   0   6  10 5582.19 296.345   9
   0  -6  10 5626.08 294.977   3
   0   6  10 5201.44 278.768   3
   0   6  11 262.643 112.949   9
   0   6  11 252.300 98.8520   3
   0  -6  11 341.788 115.862   3
   0   6  12 93.8085 95.5831   3
   0   6  12 214.095 118.211   9
   0  -6  12 166.938 106.831   3
   0  -6  13 143.368 111.408   3
   0   6  13 119.477 103.748   3
   0   6  13 195.620 121.825   9
   0  -7   0 26.3424 76.0319   1
   0  -7   0-17.5321 46.1577   3
   0   7   0-17.8077 74.6347   1
   0  -7   1 6566.52 183.249   3
   0  -7  -1 6816.38 185.001   3
   0   7  -1 6597.88 271.273   1
   0  -7  -1 6702.05 271.755   1
   0   7   1 6562.52 263.635   1
   0   7  -1 6961.67 188.848   6
   0  -7   1 6737.97 280.089   1
   0   7   1 6469.01 166.389   2
   0  -7   2 3400.55 140.692   3
   0   7   2 3337.76 150.378   2
   0   7  -2 3390.16 199.873   1
   0   7   2 3389.88 186.391   1
   0   7  -2 3382.54 140.061   6
   0  -7  -2 3262.04 192.578   1
   0   7  -3 20894.0 484.312   1
   0   7   3 20561.0 426.569   2
   0  -7  -3 21143.3 255.833  11
   0   7  -3 20008.4 343.878   6
   0  -7   3 20596.2 356.530   3
   0   7  -4 13117.4 258.487   7
   0   7   4 13482.8 393.420   2
   0   7  -4 13046.9 304.678   6
   0  -7   4 12960.7 307.061   3
   0   7  -4 13687.1 394.475   1
   0  -7   4 13201.8 257.543  10
   0   7  -5 15175.6 353.006   6
   0   7  -5 15179.3 294.274   7
   0   7  -5 15377.9 424.112   2
   0  -7   5 15386.7 354.469   3
   0   7   5 15457.3 357.284   9
   0  -7   5 15350.3 308.989  10
   0  -7   6 73.6013 74.7326  10
   0   7  -6-10.0676 59.2164   7
   0   7  -6 43.1085 85.1601   6
   0   7   6 15.9133 70.9772   9
   0   7  -6 51.1633 82.7577   2
   0  -7   6 27.6059 62.5718   3
   0  -7   7 609.756 103.166   3
   0  -7   7 782.470 110.933  10
   0   7   7 523.469 104.738   9
   0   7   7 504.882 93.7410   3
   0   7  -7 547.632 114.113   6
   0   7   8 241.157 90.2141   3
   0   7   8 245.803 99.2122   9
   0  -7   8 147.305 84.8423   3
   0  -7   9 99.3232 83.9884   3
   0   7   9 13.6114 75.1417   3
   0   7   9 93.2721 88.8300   9
   0   7  10 123.364 90.9311   9
   0  -7  10 51.2278 83.2282   3
   0   7  10 74.4677 85.6945   3
   0   7  11 1174.14 155.293   3
   0   7  11 1183.21 168.589   9
   0  -7  11 1186.34 162.887   3
   0  -7  12 19.2472 99.4307   3
   0   7  12-90.6561 96.5843   3
   0   7  12 21.1153 102.378   9
   0   7  13 58.7311 98.6411   3
   0  -7  13-77.2643 104.124   3
   0   7  13 140.700 125.932   9
   0  -8   0 51444.0 793.512   1
   0  -8   0 50548.9 524.444   3
   0   8   0 51622.5 781.123   1
   0  -8  -1 68263.2 901.569   1
   0   8   1 67946.0 549.001   2
   0  -8   1 67847.6 619.187   3
   0  -8  -1 67753.8 615.327   3
   0  -8   1 68930.7 924.664   1
   0   8  -1 69851.3 910.765   1
   0   8   1 67362.0 882.887   1
   0   8   2 35155.4 631.048   1
   0  -8  -2 36562.5 656.030   1
   0   8   2 36054.3 492.418   2
   0   8  -2 36908.5 676.716   1
   0  -8   2 35514.7 464.650   3
   0   8  -2 35590.5 452.120   6
   0   8   3 12138.5 332.571   2
   0  -8  -3 11840.2 213.688  11
   0  -8   3 11618.2 286.906   3
   0   8  -3 12358.7 396.852   1
   0   8  -3 11871.0 279.367   6
   0  -8   4 25732.2 443.639   3
   0  -8   4 25606.0 362.232  10
   0   8  -4 25457.7 433.976   6
   0   8   4 25866.6 547.096   2
   0   8  -4 26137.5 577.806   1
   0  -8   5 286.352 63.0798  10
   0   8  -5 271.351 85.5112   6
   0   8   5 370.005 92.5607   9
   0   8  -5 377.779 93.9346   2
   0   8  -5 264.498 67.5629   7
   0  -8   5 273.767 72.1840   3
   0   8  -6 1684.53 172.724   2
   0   8  -6 1644.87 121.508   7
   0  -8   6 1623.85 141.031   3
   0   8   6 1754.32 152.101   9
   0  -8   6 1673.42 129.898  10
   0   8  -6 1618.84 148.577   6
   0  -8   7 4052.61 201.464  10
   0   8  -7 3795.62 221.984   6
   0   8   7 3730.50 221.034   9
   0  -8   7 4028.89 219.353   3
   0   8   8 111.806 103.238   9
   0  -8   8-31.0494 75.0610   3
   0   8  -8-12.9960 93.2879   6
   0   8   8 59.0156 81.4470   3
   0   8   9 426.661 104.254   3
   0  -8   9 438.394 103.717   3
   0   8   9 459.044 119.029   9
   0  -8  10 87.5855 86.6938   3
   0   8  10 70.6449 78.0411   3
   0   8  10 75.3767 97.6864   9
   0  -8  11 979.576 156.512   3
   0   8  11 1045.92 151.130   3
   0   8  11 968.147 161.227   9
   0  -8  12 139.615 106.734   3
   0   8  12 105.223 121.657   9
   0   8  12 34.1278 91.6186   3
   0   8  13 224.402 135.734   9
   0   8  13 99.0541 110.942   3
   0  -8  13 233.800 122.361   3
   0  -9   0 2.96038 78.9649   1
   0  -9   0-43.4667 47.7157   3
   0   9   0 77.3016 86.6996   1
   0  -9   1 7551.65 223.056   3
   0  -9  -1 7822.20 333.099   1
   0   9   1 7685.90 324.364   1
   0   9   1 7794.94 193.889   2
   0  -9  -1 7650.97 224.392   3
   0   9  -1 8329.19 341.371   1
   0   9  -1 8320.16 231.295   6
   0  -9   2 201.378 61.1049   3
   0   9   2 290.706 90.1411   1
   0   9  -2 303.178 99.1184   1
   0   9  -2 259.553 71.1749   6
   0   9   2 313.621 63.2462   2
   0   9   3 3073.52 173.749   2
   0   9  -3 3000.39 155.660   6
   0  -9   3 2924.92 154.400   3
   0   9  -3 3026.47 213.998   1
   0  -9  -3 3114.38 123.688  11
   0   9  -4 359.499 82.1075   6
   0  -9   4 246.461 52.7203  10
   0  -9   4 325.849 75.8910   3
   0  -9  -4 153.549 44.7444  11
   0   9  -4 293.086 91.1299   1
   0   9   4 383.111 92.7499   2
   0   9  -5 766.180 114.610   2
   0   9  -5 625.161 103.584   6
   0   9  -5 608.562 87.7090   7
   0  -9   5 719.573 102.765   3
   0  -9   5 619.426 81.6085  10
   0   9  -6 4805.04 196.524   7
   0   9  -6 4630.93 232.847   6
   0  -9   6 4824.13 230.399   3
   0   9  -6 5140.50 278.832   2
   0  -9   6 4887.34 199.616  10
   0  -9   7 178.304 84.9719  10
   0  -9   7-10.9045 72.3785   3
   0   9   7 73.6131 97.2685   9
   0   9  -7 81.8914 92.5844   6
   0   9   8 34.1793 80.8562   3
   0   9   8 159.892 103.358   9
   0   9  -8 67.2902 99.3706   6
   0  -9   8-15.8553 76.0445   3
   0   9   9 174.782 84.8458   3
   0  -9   9 250.316 95.0619   3
   0   9   9 187.748 105.807   9
   0  -9  10 666.882 132.340   3
   0   9  10 731.509 132.921   3
   0   9  10 754.728 138.885   9
   0   9  11 65.8831 90.7242   3
   0  -9  11 139.017 106.240   3
   0   9  11 146.850 109.310   9
   0  -9  12 8.99335 97.1517   3
   0   9  12 124.268 99.4429   3
   0   9  13 198.510 136.826   9
   0   9  13 38.6700 102.230   3
   0 -10   0 258.116 63.8628   3
   0  10   0 210.905 101.267   1
   0 -10  -1 6592.58 222.426   3
   0  10  -1 6962.47 333.782   1
   0  10   1 6637.88 182.805   2
   0  10   1 6566.25 319.352   1
   0  10  -1 6936.67 223.113   6
   0 -10   1 6638.85 223.610   3
   0  10  -2 10512.7 407.600   1
   0  10   2 10214.2 272.583   2
   0  10  -2 9939.45 269.509   6
   0 -10   2 9846.97 278.130   3
   0  10   2 10058.7 382.207   1
   0  10  -3 2691.50 216.073   1
   0 -10   3 2477.85 151.321   3
   0 -10  -3 2689.56 126.138  11
   0  10   3 2656.24 166.575   2
   0  10  -3 2625.66 152.089   6
   0  10  -4 1763.80 138.899   6
   0 -10   4 1906.51 140.688   3
   0  10  -4 1719.35 185.384   1
   0 -10   4 1801.08 104.541  10
   0 -10   5 729.247 87.3353  10
   0  10  -5 617.739 105.704   6
   0 -10   5 667.025 104.803   3
   0 -10   6-60.3691 77.6368   3
   0  10  -6-37.6366 67.5418   7
   0  10  -6-18.6223 90.8684   6
   0 -10   6 55.1488 74.2733  10
   0 -10   7 10049.6 307.034  10
   0  10  -7 9222.77 345.929   6
   0 -10   7 9903.34 349.366   3
   0  10  -8 7078.02 319.480   6
   0 -10   8 6860.82 311.653   3
   0  10   8 7208.02 320.186   9
   0  10   9 1996.73 181.325   3
   0  10  -9 1909.60 197.542   6
   0 -10   9 1890.74 183.094   3
   0  10   9 1847.35 187.188   9
   0  10  10 182.402 97.4093   3
   0  10  10 234.441 124.273   9
   0 -10  10 94.3301 103.564   3
   0  10  11 139.289 117.546   9
   0  10  11 87.8794 92.2970   3
   0 -10  11-15.6702 88.4491   3
   0 -10  12-25.9600 95.7065   3
   0  10  12-33.4994 91.4257   3
   0  10  12 135.542 120.247   9
   0  10  13-57.3249 107.257   3
   0  10  13 289.405 152.516   9
   0  11   0 32.1337 64.5062   6
   0 -11   0 25.8795 55.2023   3
   0 -11   1 4149.00 189.149   3
   0  11  -1 4254.27 191.108   6
   0 -11  -1 4180.59 191.674   3
   0  11   1 4384.27 152.069   2
   0  11  -2 5039.99 206.175   6
   0 -11   2 5146.27 212.821   3
   0  11   2 5139.54 198.078   2
   0 -11  -3 12381.8 261.789  11
   0  11  -3 12331.2 324.746   6
   0 -11   3 12186.1 333.833   3
   0  11   3 12687.1 357.345   2
   0 -11   4 744.950 103.668   3
   0  11  -4 835.811 117.604   6
   0 -11   5 15.8866 71.5982   3
   0  11  -5-22.9220 92.3736   6
   0  11  -6 4941.82 213.266   7
   0  11  -6 5268.89 255.179   6
   0 -11   6 5085.67 252.887   3
   0  11  -7 1251.08 158.347   6
   0 -11   7 1204.65 150.759   3
   0 -11   8 62.0764 81.1070   3
   0  11  -8 100.430 99.3536   6
   0 -11   9 913.740 144.725   3
   0  11   9 920.999 133.815   3
   0  11  -9 1043.86 157.990   6
   0 -11  10-54.3303 95.3630   3
   0  11  10 56.0256 85.3970   3
   0  11  11 66.1618 86.7015   3
   0 -11  11 5.25831 89.5511   3
   0 -11  12 7.60158 99.9921   3
   0  11  12 124.336 110.080   3
   0  12   0 14623.2 344.934   6
   0 -12   0 14434.7 353.343   3
   0  12  -1 1866.17 143.030   6
   0 -12  -1 1638.25 132.427   3
   0 -12   1 1573.84 127.796   3
   0  12  -2 8489.70 275.483   6
   0 -12   2 8359.46 280.191   3
   0 -12  -3 674.318 90.8294  11
   0  12  -3 459.148 95.8187   6
   0 -12   3 455.749 90.7134   3
   0  12  -4 1871.50 154.013   6
   0 -12   4 1664.75 148.936   3
   0  12  -5 330.100 101.469   6
   0 -12   5 349.609 96.3064   3
   0 -12   6 84.2010 80.2079   3
   0  12  -6-32.0825 96.0908   6
   0 -12   7 3771.30 238.557   3
   0  12  -7 3905.54 241.408   6
   0  12  -8 1613.21 184.873   6
   0 -12   8 1299.18 159.712   3
   0 -12   9 103.701 96.7186   3
   0  12  -9 280.400 136.628   6
   0  12   9 174.753 93.2517   3
   0 -12  10 295.979 111.085   3
   0  12  10 247.309 105.327   3
   0 -12  11 76.6381 99.8210   3
   0  12  11-17.9858 95.2029   3
   0  12  12 32.0475 103.324   3
   0 -13   0 30.2776 67.9121   3
   0  13   0 44.1818 74.8910   6
   0 -13   1 601.726 98.5275   3
   0  13  -1 670.588 108.405   6
   0 -13  -1 732.296 107.052   3
   0 -13   2 4238.08 217.276   3
   0  13  -2 4418.03 214.834   6
   0 -13   3 91.9360 70.2638   3
   0  13  -3 118.139 87.3766   6
   0 -13  -3 329.095 93.8128  11
   0  13  -4 653.547 113.958   6
   0 -13   4 674.307 111.769   3
   0 -13   5 1025.06 133.685   3
   0  13  -5 921.046 134.544   6
   0 -13   6 143.204 83.5658   3
   0  13  -6 27.6103 95.1877   6
   0  13  -7 5698.12 292.967   6
   0 -13   7 5716.45 291.487   3
   0 -13   8 415.118 116.198   3
   0  13  -8 494.813 137.371   6
   0  13  -9 110.185 108.353   6
   0 -13   9 133.870 102.410   3
   0 -13  10 91.9586 106.347   3
   0  13  10 280.672 107.919   3
   0  13 -10 189.585 128.136   6
   0 -13  11 193.821 101.899   3
   0  13  11 104.721 97.2068   3
   0  13  12 49.8060 109.220   3
   0 -14   0 48.2578 73.5430   3
   0  14   0 142.111 85.1629   6
   0  14  -1 280.361 92.1724   6
   0 -14   1 250.185 89.0176   3
   0 -14  -1 276.511 88.8245   3
   0 -14   2 7454.61 291.180   3
   0  14  -2 7594.72 283.975   6
   0  14  -3 1793.96 160.595   6
   0 -14   3 1687.20 153.003   3
   0  14  -4 1893.61 167.389   6
   0 -14   4 1898.85 169.514   3
   0  14  -5 336.981 106.450   6
   0 -14   5 509.819 107.410   3
   0 -14   6-15.1162 77.6022   3
   0  14  -6-38.9465 97.4115   6
   0  14  -7 276.489 115.081   6
   0 -14   7 308.878 101.907   3
   0  14  -8 415.968 125.469   6
   0 -14   8 480.109 119.513   3
   0 -14   9 1239.28 170.211   3
   0  14  -9 1420.61 191.782   6
   0  14  10 362.205 118.654   3
   0  14 -10 225.048 126.433   6
   0 -14  10 247.189 103.793   3
   0 -14  11-98.7887 113.058   3
   0  14  11-2.49541 99.5156   3
   0 -15   0 0.80027 76.2410   3
   0  15   0-80.3121 93.9292   6
   0  15  -1 673.256 115.066   6
   0 -15  -1 532.042 108.410   3
   0 -15   1 762.786 117.401   3
   0  15  -2 1746.26 159.125   6
   0 -15   2 1681.17 160.762   3
   0 -15   3 5090.68 257.639   3
   0  15  -3 5115.35 254.548   6
   0 -15   4 4615.43 255.584   3
   0  15  -4 5081.51 259.895   6
   0  15  -5 359.752 114.121   6
   0 -15   5 294.094 101.329   3
   0  15  -6 189.689 96.8670   6
   0 -15   6 342.496 111.842   3
   0  15  -7 372.205 126.421   6
   0 -15   7 473.845 122.302   3
   0  15  -8 300.103 127.787   6
   0 -15   8 275.073 112.245   3
   0 -15   9 19.4336 91.8695   3
   0  15  -9 68.5929 111.071   6
   0  15 -10 64.0922 122.477   6
   0 -15  10 16.5942 104.171   3
   0  15  10-1.35033 91.8189   3
   0  15  11 229.623 120.933   3
   0 -16   0 6892.94 298.187   3
   0  16   0 7417.55 296.404   6
   0 -16   1 990.067 133.572   3
   0  16  -1 846.399 129.894   6
   0 -16  -1 860.735 128.628   3
   0 -16   2 11505.3 389.890   3
   0  16  -2 12226.6 382.464   6
   0 -16   3 9634.22 360.111   3
   0  16  -3 9493.60 350.062   6
   0  16  -4 241.276 108.437   6
   0 -16   4 382.606 108.942   3
   0 -16   5 479.894 114.372   3
   0  16  -5 538.282 116.905   6
   0  16  -6 18.1564 107.155   6
   0 -16   6 68.2449 90.5334   3
   0 -16   7-23.4877 88.6489   3
   0  16  -7 50.7293 109.871   6
   0  16  -8-86.1332 122.360   6
   0 -16   8 9.47002 82.3604   3
   0  16  -9 76.6861 125.154   6
   0 -16   9 57.7792 103.994   3
   0  16  10-28.7405 100.822   3
   0  16 -10 198.081 137.700   6
   0 -16  10 133.045 115.173   3
   0  16  11-45.2252 90.2588   3
   0 -17   0-60.7951 83.8484   3
   0  17   0-27.8223 90.9888   6
   0 -17  -1 1969.11 177.484   3
   0  17   1 2406.86 189.157   6
   0 -17   1 2213.44 185.778   3
   0  17  -1 2315.85 185.606   6
   0 -17   2 1038.55 137.886   3
   0  17  -2 1138.01 151.403   6
   0 -17   3 303.363 101.988   3
   0  17  -3 327.880 109.483   6
   0  17  -4 2195.63 192.933   6
   0 -17   4 2051.22 190.802   3
   0 -17   5 821.643 136.959   3
   0  17  -5 739.566 141.584   6
   0  17  -6-144.560 109.192   6
   0 -17   6 29.4204 99.8277   3
   0 -17   7 18.7102 95.0552   3
   0  17  -7 20.4237 109.370   6
   0 -17   8 180.695 114.283   3
   0  17  -8 27.4768 116.208   6
   0 -17   9 20.5989 102.201   3
   0  17  -9 161.685 135.459   6
   0 -18   0 53.2535 81.4075   3
   0  18   0 111.441 96.8025   6
   0 -18   1 3478.12 234.696   3
   0  18   1 3772.05 233.593   6
   0  18  -1 3670.27 234.198   6
   0 -18  -1 3160.63 229.102   3
   0  18  -2 77.7039 93.3332   6
   0 -18   2 179.207 101.881   3
   0 -18   3 60.5292 84.0144   3
   0  18  -3 57.1054 97.8921   6
   0  18  -4 473.227 122.967   6
   0 -18   4 467.437 120.039   3
   0 -18   5-15.6808 84.3917   3
   0  18  -5 40.6399 111.872   6
   0  18  -6 491.505 141.319   6
   0 -18   6 353.787 116.916   3
   0  18  -7 21.4697 119.582   6
   0 -18   7-77.5428 95.3580   3
   0 -18   8 114.470 105.563   3
   0  18  -8 104.143 120.979   6
   0 -18   9 240.733 120.849   3
   0  18  -9 300.393 157.330   6
   0 -19   0-0.47763 83.7789   3
   0  19   0-44.7581 103.242   6
   0 -19  -1 51.7059 81.9881   3
   0  19   1 70.7115 102.632   6
   0  19  -1 26.8733 94.1319   6
   0 -19   1 26.9610 83.1771   3
   0  19  -2 717.118 135.206   6
   0 -19   2 715.130 132.727   3
   0 -19   3 1561.66 180.061   3
   0  19  -3 1643.53 183.789   6
   0  19  -4 106.513 97.7082   6
   0 -19   4 104.050 100.481   3
   0 -19   5 314.586 107.823   3
   0  19  -5 250.182 117.732   6
   0  19  -6 98.0153 117.129   6
   0 -19   6 2.27482 98.9284   3
   0  19  -7 5.67959 113.921   6
   0 -19   7 44.1727 106.601   3
   0 -19   8 73.2330 109.650   3
   0  19  -8 50.8940 125.518   6
   0 -20   0 753.108 142.580   3
   0  20   0 766.593 148.722   6
   0 -20   1 87.6974 98.1979   3
   0  20   1 92.4394 117.745   6
   0  20  -1 55.4652 97.5886   6
   0 -20  -1-22.9283 87.1284   3
   0  20  -2-28.3825 102.195   6
   0 -20   2 97.7363 100.713   3
   0  20   2 70.7163 109.351   6
   0  20  -3 358.266 124.578   6
   0 -20   3 422.794 129.637   3
   0  20  -4 51.4758 105.175   6
   0 -20   4-62.1999 98.7589   3
   0 -20   5 526.345 136.884   3
   0  20  -5 443.587 133.685   6
   0 -20   6-59.1671 102.139   3
   0  20  -6 43.3272 110.198   6
   0  20  -7 413.243 141.472   6
   0 -20   7 403.193 140.874   3
   0  20  -8 43.2594 137.935   6
   0  21   0 5.86275 102.239   6
   0 -21   0 37.6156 92.8185   3
   0  21   1 132.584 116.976   6
   0  21  -1 132.356 105.919   6
   0 -21   1 198.347 107.672   3
   0  21   2 154.970 118.146   6
   0 -21   2 60.8186 97.9045   3
   0  21  -2 110.460 114.135   6
   0 -21   3 306.783 118.328   3
   0  21  -3 431.027 138.770   6
   0 -21   4 141.613 115.475   3
   0  21  -4 126.881 123.212   6
   0 -21   5 73.2563 103.799   3
   0  21  -5 198.478 129.800   6
   0  21  -6-8.33583 116.390   6
   0 -21   6 17.1575 106.673   3
   0  21  -7 20.2859 128.943   6
   0  22   0 24.0999 107.953   6
   0 -22   0 77.4911 107.907   3
   0  22  -1 242.232 119.353   6
   0 -22   1 274.285 123.744   3
   0  22   1 250.646 125.312   6
   0  22   2 66.4774 116.790   6
   0  22  -2 11.5204 103.831   6
   0 -22   2 62.9823 105.044   3
   0  22  -3 12.6436 104.973   6
   0  22   3 132.643 121.079   6
   0 -22   3-43.9764 90.8352   3
   0 -22   4 137.486 116.965   3
   0  22  -4 106.798 111.511   6
   0 -22   5 42.7499 103.497   3
   0  22  -5 125.419 133.195   6
   0  22  -6-15.4600 126.558   6
   0 -23   0-88.8277 96.6829   3
   0  23   0 41.2035 122.115   6
   0  23   1 236.304 129.756   6
   0 -23   1 406.567 136.633   3
   0  23  -1 293.640 126.074   6
   0  23   2 366.789 146.707   6
   0  23  -2 270.146 128.625   6
   0 -23   2 465.291 145.166   3
   0  23   3-40.0321 124.027   6
   0  23  -3 124.930 118.596   6
   0 -23   3 72.4483 100.268   3
   0  23  -4-63.1429 132.607   6
   0 -23   4-73.4465 112.675   3
   0  23  -5 58.8759 126.229   6
   0 -24   0 1664.78 220.783   3
   0  24   0 1498.50 200.173   6
   0 -24   1 221.024 130.535   3
   0  24  -1 257.985 134.084   6
   0  24   1 178.977 137.715   6
   0 -24   2 1015.44 179.609   3
   0  24  -2 854.912 173.095   6
   0  24   2 996.212 179.233   6
   0  24  -3-25.0343 130.657   6
   0  25  -1 101.951 127.191   6
  -1   0  13-64.1787 122.584   9
  -1   0  12-62.6505 105.108   9
  -1   0  11 26.8874 87.4827   9
  -1   0  11 119.086 86.2819   3
  -1   0  10-104.955 90.9971   9
  -1   0  10 43.9703 67.2273   3
  -1   0   9-76.9104 96.1618   9
  -1   0   9-45.4072 68.8774   3
  -1   0   8 139.758 91.8659  10
  -1   0   8-30.1814 89.7862   9
  -1   0   8 74.4677 63.3988   3
  -1   0   7 85.4364 82.1473  10
   1   0  -7 53.8101 55.1296   5
  -1   0   7 14.4980 50.6067   3
  -1   0   6 177.852 52.0501   3
   1   0  -6 276.017 59.5967   5
  -1   0   6 177.695 73.7000  10
  -1   0   5-60.1500 61.0208  10
  -1   0   5-17.2407 70.2036   2
   1   0  -5-1.12653 45.1990   5
  -1   0   5 10.0860 40.2749   3
  -1   0   4 3096.43 110.216   3
   1   0  -4 2928.97 116.277   5
  -1   0   3 41.5991 28.3194   3
   1   0  -3 34.4591 42.8034   6
   1   0  -3 29.6194 41.8732   5
   1   0  -2 995291. 1551.23   6
   1   0  -2 999999. 1862.27   5
   1   0  -1 5.98250 43.6892   5
  -1   0   1-33.8470 51.9702   4
   1   0   0 24683.2 283.259   5
   1   0   0 24699.3 279.074   8
   1   0   1 55.3466 56.0858  12
   1   0   1-23.2903 30.4478   3
   1   0   1-54.5305 48.8064   5
   1   0   2 5206.16 139.354   3
   1   0   2 5174.94 137.537   5
   1   0   2 4987.92 115.534  11
   1   0   3-16.3534 38.4075   5
   1   0   3 2.65820 45.4651   3
   1   0   3 44.0999 35.9577  11
   1   0   4 39565.0 400.019   5
   1   0   4 40324.0 352.725   9
   1   0   4 39996.5 490.581   3
   1   0   5 58.9413 43.4455   5
   1   0   5-22.3731 35.8927   9
   1   0   5-4.45114 56.1397   3
   1   0   6 220.923 54.6659   9
   1   0   6 178.169 70.6683   3
   1   0   6 298.770 61.0994   5
   1   0   7-11.9405 67.6863   3
   1   0   7 9.44657 52.2370   9
   1   0   8 14.2901 77.6984   3
   1   0   9-16.2530 80.6995   3
   1   0  10 136.327 91.2491   3
   1   0  11 55.3334 98.4788   3
   1   0  12 94.9096 95.0821   3
   1   0  13-21.0840 104.270   3
  -1  -1  13 70.3637 103.968   9
  -1   1  13-30.4386 100.752   9
  -1  -1  12 793.186 150.437   9
  -1   1  12 730.554 147.840   9
  -1   1  11 605.700 127.449   9
  -1  -1  11 492.367 125.727   9
  -1  -1  11 524.942 113.666   3
  -1  -1  10 74.8205 76.9668   3
  -1   1  10 72.3265 82.9489   9
  -1  -1  10-65.8388 91.0430   9
  -1   1  10 38.5650 67.9693   3
  -1  -1   9 749.653 138.422  10
  -1   1   9 392.308 110.045   9
  -1  -1   9 456.769 92.0303   3
  -1   1   9 584.088 101.740   3
  -1  -1   8 243.522 74.0608   3
  -1   1   8 205.742 86.5525   9
  -1  -1   8 430.934 113.054  10
  -1   1   8 244.913 72.4640   3
  -1   1   8 362.926 116.866  10
   1  -1  -7 1329.98 110.991   5
  -1  -1   7 1486.93 117.647   3
  -1   1   7 1622.43 148.610  10
  -1  -1   7 1569.15 140.732  10
  -1   1   7 1433.74 135.402   9
  -1   1   7 1528.50 113.722   3
  -1  -1   6 3142.48 170.656  10
   1   1  -6 3040.67 126.521   5
  -1   1   6 3340.47 177.666   9
   1  -1  -6 3282.28 145.759   5
  -1  -1   6 3147.77 145.702   3
  -1   1   6 3151.89 140.607   3
  -1   1   6 3135.67 167.994  10
   1   1  -5 576.347 64.8124   5
  -1   1   5 543.895 112.056   2
  -1   1   5 560.147 79.0068  10
  -1   1   5 610.247 64.6068   3
  -1   1   5 532.448 80.2102   9
   1  -1  -5 651.470 76.4265   5
  -1  -1   5 592.280 112.977   2
  -1  -1   5 615.965 66.2055   3
  -1  -1   5 497.672 74.4089  10
  -1  -1   4 570.121 57.6440   3
   1   1  -4 638.681 62.6347   5
   1  -1  -4 515.942 66.3053   5
   1   1  -4 605.532 74.3039   6
  -1   1   4 563.114 52.4483   3
  -1   1   4 479.117 70.1983  10
   1  -1  -3 2568.86 109.714   5
  -1  -1   3 2656.11 91.7038   3
   1   1  -3 2507.04 109.674   6
   1   1  -3 2580.52 103.067   5
  -1   1   2 70631.0 515.304   9
   1   1  -2 70424.1 447.011   6
   1  -1  -2 70801.3 511.745   5
   1   1  -2 70863.0 534.461   7
   1   1  -2 71226.0 495.131   5
   1   1  -1 23881.0 280.262   5
  -1  -1   1 23366.9 279.882   4
   1  -1  -1 23684.2 289.010   5
  -1   1   1 24075.3 280.031   4
   1   1  -1 23603.7 275.815   7
   1  -1   0 206617. 822.727   5
   1   1   0 201255. 813.343   5
   1  -1   0 208244. 834.363  12
   1   1   0 205189. 709.607   7
   1  -1   0 203770. 785.424   8
   1   1   0 205266. 812.004   8
   1   1   1 6624.16 148.317  12
   1   1   1 6599.47 155.774   5
   1  -1   1 6733.60 160.522  12
   1  -1   1 6409.68 146.908  11
   1  -1   1 6634.66 149.133   5
   1  -1   2 348.059 50.6925   3
   1   1   2 315.366 55.0792   5
   1  -1   2 328.740 50.4587  11
   1  -1   2 247.202 47.6543   5
   1  -1   3 11959.7 201.553   5
   1  -1   3 11486.9 191.848  11
   1   1   3 11850.8 217.956   5
   1  -1   3 11644.7 236.057   3
   1   1   3 11424.4 243.717   3
   1  -1   4-6.48868 36.8358   5
   1   1   4-37.0840 53.7276   3
   1   1   4-46.2170 42.0958   9
   1  -1   4-14.7121 44.2774   3
   1   1   4-55.5206 45.3626   5
   1  -1   5 2405.53 142.100   3
   1   1   5 2445.33 109.301   9
   1   1   5 2228.99 140.361   3
   1   1   5 2283.54 113.836   5
   1  -1   5 2405.13 103.394   5
   1  -1   6 2784.69 166.071   3
   1   1   6 2863.26 131.184   5
   1  -1   6 2955.37 133.078   9
   1   1   6 2905.76 131.329   9
   1  -1   6 2968.05 119.596   5
   1   1   6 2818.37 167.197   3
   1  -1   7 56.7273 73.6735   3
   1  -1   7-29.1286 55.5127   9
   1   1   7 53.6853 55.1317   9
   1   1   7-17.8176 66.4884   3
   1   1   8 383.961 97.3021   3
   1  -1   8 491.878 109.432   3
   1   1   9 2331.83 188.593   3
   1  -1   9 2358.97 190.080   3
   1   1  10 152.235 104.587   3
   1  -1  10 247.674 101.433   3
   1   1  11 472.925 128.992   3
   1  -1  11 448.391 124.489   3
   1  -1  12 1069.66 169.937   3
   1   1  12 1086.20 171.510   3
   1   1  13 71.1472 104.086   3
   1  -1  13 40.1606 104.376   3
  -1  -2  13 32.3553 109.108   9
  -1   2  13 178.483 122.568   9
  -1   2  12 128.185 99.1665   9
  -1  -2  12-107.944 96.5785   9
  -1  -2  12 8.08058 84.4429   3
  -1   2  11 592.220 125.154   9
  -1  -2  11 407.957 118.957   9
  -1  -2  11 608.715 119.118   3
  -1   2  10 153.871 99.9035   9
  -1   2  10 121.547 77.9131   3
  -1  -2  10 91.2225 75.0495   3
  -1  -2   9 166.598 76.1056   3
  -1   2   9 136.443 71.7767   3
  -1   2   9 209.359 91.1649   9
  -1  -2   9 438.303 126.727  10
  -1   2   8 66.9439 62.2138   3
  -1   2   8 140.224 86.7018   9
  -1  -2   8 175.976 99.0772  10
  -1  -2   8 311.935 79.4685   3
  -1  -2   7 668.372 87.7305   3
  -1   2   7 546.960 102.560   9
  -1  -2   7 635.382 106.535  10
  -1   2   7 834.900 117.899  10
  -1   2   7 633.032 80.2172   3
   1  -2  -7 763.002 93.4855   5
   1  -2  -6 3518.14 152.624   5
  -1   2   6 3302.47 176.184   9
  -1   2   6 3617.75 182.311  10
  -1   2   6 3623.46 149.845   3
  -1  -2   6 3338.43 176.994  10
  -1  -2   6 3688.36 161.794   3
   1   2  -6 3398.64 126.391   5
  -1  -2   5 7569.33 322.367   2
  -1   2   5 7820.53 344.714   2
  -1  -2   5 7694.61 208.543   3
   1   2  -5 7458.38 225.046   6
  -1   2   5 7536.21 242.971   9
  -1   2   5 7830.33 192.916   3
   1  -2  -5 7649.38 209.703   5
   1   2  -5 7978.81 178.942   5
  -1   2   5 7687.31 233.030  10
  -1   2   4 5883.70 194.241   9
  -1  -2   4 5799.57 252.108   2
  -1   2   4 5681.70 183.787  10
  -1  -2   4 5791.94 161.952   3
  -1   2   4 5832.33 143.761   3
   1   2  -4 5714.31 181.029   6
   1  -2  -4 5801.41 174.087   5
   1   2  -4 5833.04 149.331   5
   1  -2  -3 9376.33 208.358   5
   1   2  -3 9297.05 202.014   6
  -1   2   3 9195.68 217.856   9
  -1  -2   3 9405.31 179.480   3
   1   2  -3 8871.76 220.145   7
   1   2  -3 9376.45 182.641   5
   1   2  -2 19702.7 290.735   7
   1   2  -2 20230.7 260.531   5
  -1  -2   2 20451.3 229.747   3
  -1   2   2 20045.3 281.063   9
   1  -2  -2 20480.3 288.225   5
   1   2  -2 20102.1 259.776   6
   1   2  -1 89442.8 544.565   5
  -1   2   1 88954.9 544.473   4
   1   2  -1 90587.3 487.968   6
  -1  -2   1 90219.5 541.812   4
  -1   2   1 89730.0 499.262   9
   1  -2  -1 89411.7 575.336   5
   1   2  -1 89991.9 554.721   7
   1  -2   0 8394.99 177.196  12
   1   2   0 8516.76 176.086   5
   1  -2   0 8326.14 172.980   5
   1  -2   0 8382.99 162.743   8
   1   2   0 8400.87 171.258   8
   1   2   1 40273.3 385.227   5
   1  -2   1 40045.6 365.376   5
   1  -2   1 39661.5 370.825  11
   1  -2   1 40197.5 388.132  12
   1   2   1 39764.9 345.234  12
   1  -2   2 24507.0 280.042   5
   1   2   2 24677.8 310.975   5
   1   2   2 24180.7 272.249  12
   1  -2   2 24657.4 298.185   3
   1  -2   2 23962.8 290.668  11
   1   2   3 5070.33 117.565   9
   1   2   3 4788.41 152.588   5
   1  -2   3 4888.63 158.341   3
   1  -2   3 5077.93 131.286   5
   1   2   4 44381.8 396.897   9
   1  -2   4 45175.5 384.367   5
   1   2   4 43626.4 526.737   3
   1   2   4 44290.6 465.004   5
   1  -2   4 43991.0 517.081   3
   1   2   5 30009.4 379.165   9
   1  -2   5 31164.1 329.840   5
   1   2   5 30225.8 480.936   3
   1   2   5 29924.2 405.075   5
   1  -2   5 30419.5 472.121   3
   1   2   6 2131.81 154.849   3
   1   2   6 2098.88 118.037   9
   1  -2   6 2191.63 146.940   3
   1   2   6 2315.37 125.320   5
   1   2   7 7757.33 239.589   9
   1   2   7 8168.81 295.438   3
   1  -2   7 7875.11 288.735   3
   1   2   7 8229.79 232.282   5
   1   2   8 1164.44 137.427   3
   1  -2   8 1311.38 141.518   3
   1  -2   9 1479.37 155.895   3
   1   2   9 1481.58 161.646   3
   1   2  10 2649.01 214.531   3
   1  -2  10 2586.42 211.654   3
   1   2  11 128.084 104.369   3
   1  -2  11 51.1530 92.8386   3
   1   2  12 33.1399 91.3668   3
   1  -2  12 98.5651 100.149   3
   1   2  13 249.036 119.727   3
   1  -2  13 239.463 115.910   3
  -1   3  13 93.8646 108.264   9
  -1  -3  13-89.3719 114.758   9
  -1  -3  12 11.2714 108.477   9
  -1   3  12 148.596 114.661   9
  -1  -3  12 309.677 101.481   3
  -1   3  11-2.69133 93.0319   9
  -1  -3  11 11.8631 75.3434   3
  -1   3  10 1262.54 156.406   9
  -1  -3  10 1307.34 163.153  10
  -1  -3  10 1031.69 132.945   3
  -1   3  10 1237.48 132.686   3
  -1  -3   9 951.780 146.448  10
  -1   3   9 684.114 101.032   3
  -1   3   9 622.093 124.277   9
  -1  -3   9 692.964 108.209   3
  -1   3   8 1381.36 121.907   3
  -1  -3   8 1410.70 150.813  10
  -1  -3   8 1401.06 130.555   3
  -1   3   8 1182.02 138.399   9
   1  -3  -7 2034.59 134.404   5
  -1  -3   7 1815.04 151.796  10
  -1   3   7 2151.68 160.311  10
  -1   3   7 1857.24 155.722   9
  -1   3   7 2098.47 129.862   3
  -1  -3   7 1872.77 135.245   3
  -1  -3   6 11366.9 283.268   3
  -1   3   6 11220.1 320.602   9
   1  -3  -6 11759.6 279.355   5
  -1  -3   6 11162.4 313.393  10
  -1  -3   6 11226.7 421.819   2
  -1   3   6 11413.6 304.311  10
   1   3  -6 10758.4 298.222   6
  -1   3   6 11606.2 262.201   3
   1   3  -5 9524.05 260.822   6
  -1   3   5 9905.52 277.442   9
  -1   3   5 9647.13 384.396   2
   1   3  -5 9758.87 191.027   5
  -1  -3   5 9851.31 241.277   3
  -1   3   5 9979.23 219.572   3
  -1  -3   5 9970.49 360.354   2
   1  -3  -5 10010.5 246.019   5
  -1   3   5 9657.19 258.003  10
   1   3  -4 2456.52 130.199   6
   1   3  -4 2760.19 102.113   5
  -1  -3   4 2394.93 166.724   2
  -1   3   4 2531.13 136.862   9
  -1   3   4 2540.37 125.020  10
  -1  -3   4 2507.55 115.511   3
   1  -3  -4 2536.15 127.542   5
   1   3  -4 2489.71 134.429   7
  -1   3   4 2589.26 99.8742   3
  -1   3   3 37.5695 49.1932   9
   1   3  -3 49.7066 53.5655   6
   1  -3  -3 1.40158 48.5141   5
   1   3  -3 1.20283 34.4132   5
   1   3  -3 8.78940 54.4572   7
  -1   3   3-32.8840 45.6236  10
  -1  -3   2 7220.61 157.850   3
   1  -3  -2 7315.67 184.977   5
   1   3  -2 7214.01 160.211   5
   1   3  -2 7294.52 174.835   6
   1   3  -2 6963.85 182.664   7
  -1   3   2 7348.30 179.483   9
   1  -3  -1 31975.8 358.929   5
  -1  -3   1 32309.6 327.150   4
  -1  -3   1 32346.4 309.295   3
   1   3  -1 31995.8 336.253   5
  -1   3   1 32171.7 322.082   9
  -1   3   1 31796.4 327.827   4
   1   3  -1 32585.3 335.340   6
   1  -3   0 22769.1 260.418   8
   1  -3   0 23739.1 306.202  11
   1   3   0 23076.4 288.930   8
   1   3   0 23548.9 293.744   5
   1  -3   0 23378.4 293.185   5
   1  -3   0 23010.6 294.560  12
   1  -3   1 1531.90 80.3531   5
   1  -3   1 1474.77 68.7822   3
   1  -3   1 1518.04 90.6771  11
   1   3   1 1655.25 95.0806   5
   1  -3   2 3273.49 124.556  11
   1  -3   2 3366.21 107.905   5
   1   3   2 3337.34 102.556  12
   1   3   2 3315.84 127.963   5
   1  -3   2 3181.74 114.594   3
   1  -3   3 2.47987 41.5700   3
   1  -3   3 10.0428 32.2976   5
   1   3   3-24.3421 54.3186   5
   1  -3   4 1785.90 112.104   3
   1  -3   4 1749.29 78.9412   5
   1   3   4 1764.78 93.7662   9
   1   3   4 1702.39 110.680   5
   1  -3   5 3017.31 158.773   3
   1   3   5 3122.98 143.164   5
   1   3   5 3032.37 129.933   9
   1   3   5 3023.18 163.848   3
   1  -3   5 3010.57 103.136   5
   1   3   6 3550.18 156.377   5
   1   3   6 3365.15 151.223   9
   1  -3   6 3215.27 175.355   3
   1   3   6 3299.73 180.178   3
   1  -3   7 1418.46 135.890   3
   1   3   7 1426.65 140.872   3
   1   3   7 1388.66 116.819   5
   1   3   7 1355.11 113.940   9
   1  -3   8 3120.90 203.963   3
   1   3   8 3352.37 210.258   3
   1   3   8 3248.79 178.018   9
   1  -3   9 2931.78 209.818   3
   1   3   9 3129.86 220.701   3
   1  -3  10 1987.66 189.147   3
   1   3  10 1877.41 185.168   3
   1  -3  11 247.497 109.033   3
   1   3  11 186.813 104.547   3
   1   3  12 45.8609 104.763   3
   1  -3  12-20.9304 98.7948   3
   1  -3  13 22.8512 107.233   3
   1   3  13 42.9613 106.519   3
  -1  -4  13 592.467 143.391   9
  -1   4  13 491.365 141.244   9
  -1   4  12 16.9484 105.465   9
  -1  -4  12 237.815 107.075   3
  -1   4  11 1674.18 190.314   9
  -1  -4  11 1469.58 160.707   3
  -1  -4  10 279.364 117.527  10
  -1   4  10 106.883 96.9172   9
  -1  -4  10 173.560 87.7631   3
  -1  -4   9 116.994 70.2129   3
  -1   4   9 189.267 74.3940   3
  -1  -4   9 273.307 112.589  10
  -1   4   9 201.591 95.6385   9
  -1  -4   8 584.154 119.257  10
  -1   4   8 444.258 111.406   9
  -1  -4   8 480.354 93.8588   3
  -1   4   8 502.835 89.4779   3
  -1  -4   7 146.721 64.3885   3
   1   4  -7 48.5297 84.2252   6
  -1   4   7 116.938 81.5951   9
  -1  -4   7 117.489 83.3482  10
   1  -4  -7 344.880 89.0749   5
  -1   4   7 166.372 62.2122   3
  -1  -4   6 181.813 59.9530   3
   1   4  -6 196.632 83.0482   6
  -1  -4   6 248.888 107.424   2
  -1  -4   6 71.4945 67.9981  10
  -1   4   6 120.381 48.3020   3
  -1   4   6 288.745 80.5156   9
   1  -4  -6 341.774 79.9529   5
  -1   4   6 341.627 88.5932  10
   1  -4  -5 4050.56 167.159   5
  -1  -4   5 3745.17 226.241   2
  -1   4   5 3799.11 167.750  10
  -1  -4   5 3946.43 162.688   3
   1   4  -5 3946.66 177.299   6
  -1   4   5 3634.31 249.704   2
  -1   4   5 3990.54 183.606   9
   1   4  -5 3938.86 120.839   5
  -1   4   5 3749.66 139.742   3
   1  -4  -4 2568.57 131.736   5
  -1   4   4 2684.63 141.247   9
  -1  -4   4 2627.22 172.739   2
  -1  -4   4 2638.32 122.629   3
  -1   4   4 2692.31 104.744   3
  -1   4   4 2659.77 128.584  10
   1   4  -4 2461.73 135.346   7
   1   4  -4 2576.92 136.319   6
   1   4  -4 2628.74 100.880   5
   1   4  -3 19.1043 48.4466   6
  -1  -4   3 28.2727 38.2410   3
  -1   4   3 58.1174 42.5756  10
   1  -4  -3 19.6597 52.5359   5
  -1   4   3-4.63238 51.9982   9
   1   4  -3-3.13534 60.2820   7
   1   4  -3 27.6718 36.3051   5
   1   4  -2 1376.21 96.9855   7
  -1   4   2 1289.81 72.4021  10
   1  -4  -2 1243.14 89.9569   5
   1   4  -2 1345.50 77.3435   5
  -1   4   2 1399.79 91.1656   9
  -1  -4   2 1266.95 79.9315   3
   1   4  -2 1452.22 91.7837   6
  -1   4   1 7633.20 164.707   4
  -1  -4   1 7908.44 171.161   3
  -1   4   1 7649.15 171.558   9
   1   4  -1 7806.09 171.420   5
  -1  -4   1 7802.85 162.437   4
   1  -4  -1 7348.91 174.749  12
   1  -4  -1 7680.17 187.841   5
   1   4  -1 7676.66 182.012   6
   1  -4   0 21382.2 293.853   5
  -1  -4   0 21520.0 295.419   3
   1   4   0 21942.7 295.117   5
   1  -4   0 21858.4 311.579  11
   1  -4   0 21679.8 291.797  12
   1  -4   0 21621.1 250.283   8
   1   4   0 21597.5 284.026   8
   1   4   1 19585.7 296.593   5
   1  -4   1 19547.5 267.288   5
   1  -4   1 19192.6 293.943  11
   1   4   1 19273.4 266.928   8
   1  -4   1 19362.5 242.370   3
   1  -4   2 2528.49 106.952   3
   1  -4   2 2671.48 99.2010   5
   1   4   2 2675.30 86.6077  12
  -1   4  -2 2471.76 91.2454   6
   1   4   2 2574.83 121.928   5
   1  -4   3 11412.6 190.729   5
   1   4   3 11164.2 180.486  12
   1   4   3 10738.1 245.188   5
   1  -4   3 11118.5 242.034   3
   1   4   4 7232.49 210.231   5
   1  -4   4 7284.31 218.195   3
   1  -4   4 7287.15 152.027   5
   1   4   5 2629.21 136.094   5
   1   4   5 2481.20 126.104   9
   1   4   5 2314.66 146.034   3
   1  -4   5 2333.73 145.017   3
   1   4   6 3498.96 158.846   9
   1  -4   6 3241.13 179.052   3
   1   4   6 3527.71 189.919   3
   1   4   6 3579.57 163.814   5
   1  -4   7 50.7481 69.1563   3
   1   4   7 107.579 74.7815   5
   1   4   7 140.761 66.8043   9
   1   4   7 66.9611 71.2976   3
   1  -4   8 2342.62 182.326   3
   1   4   8 2235.03 183.052   3
   1   4   8 2243.26 157.183   9
   1   4   9 539.670 118.223   3
   1  -4   9 695.428 127.694   3
   1   4  10 95.2708 81.6712   3
   1  -4  10 42.2761 86.2137   3
   1  -4  11 272.916 106.580   3
   1   4  11 386.276 122.564   3
   1  -4  12-8.42951 98.0442   3
   1   4  12 63.2838 106.144   3
   1   4  13 18.6092 106.327   3
   1  -4  13 50.5325 102.705   3
  -1  -5  13 168.804 106.423   3
  -1   5  13-90.9922 130.892   9
  -1   5  12-39.9956 103.702   9
  -1  -5  12 14.6485 90.5159   3
  -1  -5  11 830.599 140.271   3
  -1   5  11 724.580 136.706   9
  -1  -5  10 1966.27 196.783  10
  -1  -5  10 1642.39 165.949   3
  -1   5  10 1692.43 177.017   9
  -1  -5   9 241.959 106.592  10
  -1  -5   9 257.137 89.2594   3
  -1   5   9 103.176 100.057   9
  -1   5   9 294.888 81.2249   3
  -1   5   8 1110.09 137.976   9
  -1   5   8 1228.41 120.690   3
  -1  -5   8 1343.13 148.298  10
  -1  -5   8 1341.60 133.681   3
  -1  -5   7 863.356 103.836   3
   1   5  -7 753.166 124.496   6
  -1   5   7 620.843 105.432   9
  -1  -5   7 712.325 112.538  10
  -1   5   7 892.901 98.9561   3
   1  -5  -6 1536.85 127.142   5
  -1   5   6 1297.00 126.443   9
   1   5  -6 1393.18 134.419   6
  -1  -5   6 1500.66 117.785   3
  -1  -5   6 1193.24 118.915  10
  -1   5   6 1485.23 106.519   3
  -1  -5   6 1587.84 176.528   2
  -1  -5   5 179.642 60.3088   3
  -1  -5   5 190.654 84.2789   2
   1   5  -5 73.4267 68.8175   6
  -1   5   5 129.191 61.6185   9
  -1   5   5 380.976 76.8417  10
   1   5  -5 108.832 36.8193   5
   1  -5  -5 197.614 72.0996   5
   1   5  -5 134.030 64.0516   7
  -1   5   5 205.550 50.7475   3
  -1   5   4 748.638 87.5952   9
   1  -5  -4 987.457 98.9839   5
  -1  -5   4 709.531 103.530   2
  -1   5   4 944.788 86.8031  10
  -1  -5   4 769.365 81.1914   3
   1   5  -4 821.231 93.9058   7
   1   5  -4 809.665 61.7165   5
   1   5  -4 784.461 91.7588   6
   1   5  -3 59.0320 52.9317   6
  -1  -5   3 89.6013 44.1206   3
   1   5  -3 185.456 42.4556   5
  -1  -5   3 48.0208 47.1188   2
   1   5  -3 108.127 69.3200   7
  -1   5   3 102.567 45.1433  10
  -1   5   3 131.412 53.6863   9
   1  -5  -3 86.6544 59.1310   5
   1  -5  -2 5852.74 182.483   5
  -1   5   2 5815.04 177.608   9
   1   5  -2 6162.02 155.259   5
  -1  -5   2 6140.55 170.947   3
  -1   5   2 5980.29 138.018  10
   1   5  -2 6001.04 178.633   6
  -1  -5   1 21077.6 264.986   4
   1   5  -1 20378.8 313.282   6
   1  -5  -1 20384.8 316.562   5
   1   5  -1 20567.2 285.598   5
  -1  -5   1 21364.0 303.966   3
   1  -5  -1 20662.9 289.255  12
   1  -5  -1 21225.3 321.830  11
  -1   5   1 20684.0 267.294   4
   1  -5   0 8492.79 152.289   3
  -1  -5   0 8800.31 201.689   3
   1  -5   0 8428.90 205.193  11
   1   5   0 8649.14 197.499   5
   1   5   0 8473.89 179.476   8
   1  -5   0 8432.49 191.788  12
   1  -5   0 8667.61 158.487   8
   1  -5   0 8486.96 193.765   5
   1   5   1 16491.3 247.091   8
   1  -5   1 16818.2 258.715   5
   1   5   1 17048.9 287.460   5
   1  -5   1 16314.9 286.777  11
   1  -5   1 16768.0 242.245   3
  -1   5  -2 11487.0 200.615   6
   1  -5   2 11847.7 208.252   5
   1   5   2 11961.1 255.030   5
   1  -5   2 11853.2 230.092   3
  -1   5  -3 83.2499 52.3473   6
   1   5   3 91.9041 61.2927   5
   1  -5   3 44.0743 36.4749   5
   1  -5   3 43.2684 46.1170   3
   1   5   3 33.5574 31.4370  12
   1  -5   4 20297.8 249.929   5
   1   5   4 20067.1 249.703  12
   1  -5   4 20024.8 367.639   3
   1   5   4 20328.2 355.984   5
   1  -5   5 3256.42 166.407   3
   1   5   5 3147.21 158.638   5
   1   5   6 72.3514 74.8610   3
   1   5   6 80.4190 65.4917   9
   1   5   6 104.578 74.5019   5
   1  -5   6 72.0510 66.3800   3
   1   5   7 1202.21 119.862   5
   1   5   7 1084.82 134.712   3
   1  -5   7 1141.75 126.030   3
   1   5   7 1246.98 120.446   9
   1   5   8 3459.29 221.473   3
   1   5   8 3549.98 192.862   5
   1  -5   8 3345.09 215.837   3
   1   5   8 3384.40 190.982   9
   1  -5   9 5559.68 284.871   3
   1   5   9 5690.90 292.007   3
   1   5  10 150.311 101.099   3
   1  -5  10 194.634 94.2130   3
   1   5  11 51.3711 87.5980   3
   1  -5  11-91.8437 94.8882   3
   1   5  12 407.897 129.050   3
   1  -5  12 336.014 117.899   3
   1  -5  13 74.2987 108.810   3
   1   5  13 4.24244 115.805   3
  -1  -6  13 145.309 106.976   3
  -1   6  13 15.4044 109.858   9
  -1  -6  12 385.008 116.010   3
  -1   6  12 308.671 118.084   9
  -1  -6  11 756.977 158.178  10
  -1   6  11 522.698 126.736   9
  -1  -6  11 453.075 114.123   3
  -1  -6  10 355.038 103.864   3
  -1  -6  10 582.423 137.375  10
  -1   6  10 262.905 111.748   9
  -1  -6   9 27.7509 72.7939   3
  -1  -6   9 13.6684 96.7724  10
  -1   6   9 3.05019 91.9280   9
  -1   6   8 1373.50 127.334   3
  -1  -6   8 1278.71 144.939  10
  -1  -6   8 1517.63 140.609   3
  -1   6   8 1319.62 150.797   9
   1   6  -8 1317.08 154.258   6
   1   6  -7 1570.01 157.968   6
  -1  -6   7 1525.47 142.462  10
  -1   6   7 1468.25 147.198   9
  -1   6   7 1704.35 126.263   3
  -1  -6   7 1698.13 138.227   3
   1  -6  -6 10659.4 299.676   5
  -1   6   6 10063.6 324.861   9
  -1  -6   6 10448.5 296.809   3
   1   6  -6 10500.9 306.281   7
  -1   6   6 10454.8 265.474   3
  -1  -6   6 9794.79 355.620   1
   1   6  -6 10272.2 315.719   6
   1  -6  -5 2561.85 151.141   5
   1   6  -5 2355.10 147.498   7
  -1  -6   5 2633.98 190.427   2
  -1  -6   5 2481.18 143.745   3
  -1   6   5 2509.87 122.509   3
  -1   6   5 2367.13 155.015   9
   1   6  -5 2391.69 151.513   6
   1   6  -4 11794.4 204.414   5
  -1  -6   4 11558.6 277.291   3
   1  -6  -4 11990.8 287.022   5
  -1  -6   4 11707.3 338.883   2
   1   6  -4 11342.5 286.014   6
  -1   6   4 11816.2 302.144   9
   1   6  -4 11921.6 289.117   7
  -1   6   3 302.788 59.4256  10
   1   6  -3 260.530 71.9074   6
  -1  -6   3 279.802 59.7609   3
   1  -6  -3 312.992 76.2387   5
  -1   6   3 300.436 68.3591   9
   1   6  -3 194.594 42.3400   5
  -1  -6   3 223.197 57.8473   2
   1   6  -3 287.351 77.8562   7
   1   6  -2 16089.0 300.711   6
  -1  -6   2 16144.5 294.481   3
   1   6  -2 15726.2 254.060   5
  -1   6   2 16128.2 220.477  10
   1  -6  -2 16371.1 305.058   5
  -1   6   2 15849.3 302.146   9
  -1  -6   1 1828.64 82.1532   4
  -1   6   1 1635.71 83.2073   4
   1  -6  -1 1694.84 106.229   5
   1  -6  -1 1677.16 75.5914   3
  -1  -6   1 1535.54 99.3213   3
   1  -6  -1 1635.66 92.4397  12
   1  -6  -1 1772.22 108.217  11
   1   6  -1 1763.64 94.0881   5
   1   6  -1 1760.77 108.340   6
   1  -6   0 6155.38 133.132   8
   1  -6   0 6217.22 187.189  11
  -1  -6   0 6153.14 187.257   3
   1  -6   0 6189.23 146.047   3
   1   6   0 6019.12 176.753   5
   1  -6   0 6094.55 174.626   5
   1  -6   0 6371.97 173.994  12
   1  -6   1 9452.06 195.737   3
   1  -6   1 9534.95 205.406   5
   1   6   1 9331.53 190.846   8
   1   6   1 9211.72 226.435   5
  -1   6  -1 9541.39 166.574   6
   1  -6   2 23897.6 309.026   5
  -1   6  -2 24212.5 305.390   6
   1  -6   2 24277.4 343.473   3
   1   6   2 24097.5 372.977   5
   1  -6   3 1070.39 67.8049   5
  -1   6  -3 1175.05 89.7696   6
   1  -6   3 1156.99 93.0759   3
   1   6   3 1243.32 104.209   5
  -1   6  -4 34.8845 55.8613   6
   1  -6   4-56.0678 55.8777   3
   1   6   4 74.1983 37.9938  12
   1  -6   4 2.06732 31.1424   5
   1   6   4 105.360 70.7756   5
   1  -6   5 185.480 68.2972   3
   1   6   5 188.706 75.2067   5
   1   6   6 180.907 80.2071   5
   1  -6   6 98.9878 67.5204   3
   1   6   7 1351.43 130.449   9
   1  -6   7 1401.97 139.193   3
   1   6   7 1512.28 139.271   5
   1   6   7 1429.47 147.462   3
   1  -6   8 14396.0 424.890   3
   1   6   8 15311.0 387.221   5
   1   6   8 15149.0 443.362   3
   1   6   8 15527.5 396.033   9
   1  -6   9 794.604 131.657   3
   1   6   9 622.368 122.418   3
   1   6  10 1090.13 153.984   3
   1  -6  10 1265.81 161.492   3
   1   6  11 368.392 123.628   3
   1  -6  11 483.958 131.945   3
   1   6  12 64.6854 101.955   3
   1  -6  12 183.655 118.145   3
  -1  -7  13 275.666 119.577   3
  -1   7  13 327.029 144.842   9
  -1  -7  12 171.083 103.649   3
  -1   7  12 184.097 125.400   9
  -1   7  11-112.624 106.242   9
  -1  -7  11 37.9265 86.2044   3
  -1   7  10 44.0462 100.761   9
  -1  -7  10 265.980 121.129  10
  -1  -7  10 52.5245 77.3251   3
   1   7  -9 217.856 114.326   6
  -1  -7   9 81.1832 92.5879  10
  -1  -7   9 180.478 82.8295   3
  -1   7   9 1.46071 95.7962   9
   1   7  -8 107.820 100.970   6
  -1   7   8-82.3206 99.1170   9
  -1  -7   8-80.1708 87.5725  10
  -1  -7   8-32.8444 70.7118   3
  -1  -7   7 4217.30 212.235   3
  -1   7   7 4035.25 231.710   9
   1   7  -7 4096.95 228.781   6
  -1  -7   7 3946.99 217.436  10
  -1   7   7 4154.06 189.822   3
  -1   7   6 314.935 66.2657   3
  -1   7   6 264.249 90.2670   9
   1  -7  -6 463.594 103.814   5
   1   7  -6 289.691 92.0037   6
  -1  -7   6 361.323 105.644   1
  -1  -7   6 282.524 79.5905   3
   1   7  -6 323.235 87.1375   7
   1  -7  -5 1001.86 111.050   5
  -1  -7   5 941.392 99.2724   3
   1   7  -5 793.613 104.421   7
  -1  -7   5 850.383 133.324   1
  -1   7   5 1037.15 118.256   9
   1   7  -5 815.986 109.190   6
   1  -7  -4 3346.60 168.102   5
  -1  -7   4 3198.79 181.876   2
   1   7  -4 3196.32 114.348   5
  -1   7   4 3172.51 172.134   9
   1   7  -4 3296.02 167.276   7
  -1  -7   4 3122.85 156.382   3
   1   7  -4 3105.17 166.189   6
   1  -7  -3 503.211 81.5302   5
   1   7  -3 576.666 61.2792   5
  -1  -7   3 551.663 73.8423   2
  -1   7   3 666.549 91.5071   9
  -1  -7   3 547.931 76.5931   3
   1   7  -3 499.320 83.0504   6
  -1  -7   2 5045.18 140.206   4
   1  -7  -2 5142.18 189.180   5
   1   7  -2 5160.44 156.098   5
  -1  -7   2 5131.33 180.499   3
   1  -7  -2 4976.47 180.720  11
   1   7  -2 5016.53 186.036   6
   1  -7  -1 8362.04 223.473  11
   1  -7  -1 8288.44 218.771   5
  -1   7   1 8626.03 171.116   4
  -1  -7   1 8514.54 225.008   3
   1  -7  -1 8602.52 181.397   3
   1   7  -1 8371.13 203.494   5
  -1  -7   1 8262.29 161.826   4
   1  -7  -1 8299.75 194.752  12
   1   7  -1 8360.70 227.526   6
   1  -7   0 9763.77 201.100   3
   1  -7   0 9940.61 228.610   5
   1  -7   0 9676.10 216.181  12
  -1  -7   0 9902.90 247.565   3
   1  -7   0 9975.22 245.597  11
   1   7   0 9763.44 234.921   5
  -1   7   0 9602.18 173.009   6
   1  -7   0 9914.01 164.479   8
   1  -7   1 50039.4 486.043   5
   1  -7   1 50233.1 475.764   3
   1   7   1 50194.2 437.818   8
   1   7   1 49542.5 528.317   5
  -1   7  -1 49627.4 416.855   6
   1  -7   2 21797.6 304.111   5
  -1   7  -2 21106.7 303.270   6
   1  -7   2 21479.6 339.686   3
   1   7   2 21387.8 363.204   5
   1  -7   3 17432.3 261.775   5
   1  -7   3 17167.3 332.804   3
   1   7   3 17437.9 344.931   5
  -1   7  -3 17379.8 306.885   6
   1  -7   4 6773.23 154.181   5
  -1   7  -4 6694.65 212.667   6
   1  -7   4 6731.56 229.276   3
   1   7   4 6956.55 229.387   5
  -1   7  -5 1347.24 117.505   6
   1   7   5 1446.84 128.868   5
   1  -7   5 1280.90 117.407   3
   1   7   6 1797.12 144.120   5
   1  -7   6 1583.06 141.319   3
   1   7   7 112.644 85.4383   3
   1  -7   7 111.309 86.8237   3
   1   7   7 278.533 99.0767   5
   1   7   8 4985.86 232.274   5
   1  -7   8 4764.57 254.551   3
   1   7   8 4916.89 237.627   9
   1   7   8 4839.57 259.922   3
   1  -7   9 2401.26 201.818   3
   1   7   9 2238.60 196.662   3
   1  -7  10 65.1064 95.9678   3
   1   7  10 62.4306 87.9759   3
   1   7  11 22.0241 97.2005   3
   1  -7  11 50.9466 93.9740   3
   1  -7  12 116.197 111.585   3
   1   7  12 40.9651 99.5618   3
  -1  -8  13 52.3425 100.243   3
  -1   8  12-3.29982 116.288   9
  -1  -8  12 88.2718 94.3944   3
  -1   8  11 71.7495 104.147   9
  -1  -8  11 16.9711 81.0026   3
  -1  -8  10 36.7106 83.5959   3
  -1   8  10-79.8951 99.5190   9
  -1  -8  10 127.139 105.995  10
  -1  -8   9 179.343 95.7142  10
   1   8  -9 219.426 118.829   6
  -1  -8   9 179.387 87.0991   3
  -1   8   9 190.249 97.8506   9
   1   8  -8 1056.84 148.878   6
  -1  -8   8 754.659 123.044  10
  -1   8   8 894.035 141.002   9
  -1  -8   8 844.014 121.855   3
  -1  -8   7 333.599 89.6671   3
   1   8  -7 378.586 116.823   6
  -1   8   7 420.506 112.431   9
  -1  -8   7 240.767 88.0001  10
   1   8  -7 182.001 89.9945   7
  -1   8   7 361.832 79.5125   3
   1   8  -6 4456.72 229.754   6
  -1   8   6 4724.26 239.366   9
  -1  -8   6 4562.29 289.265   1
  -1  -8   6 4841.33 220.726   3
   1   8  -6 4477.52 215.828   7
   1  -8  -5 1573.79 137.314   5
  -1  -8   5 1289.89 168.323   1
  -1  -8   5 1469.52 124.473   3
  -1   8   5 1453.96 138.141   9
   1   8  -5 1405.34 131.251   7
   1   8  -5 1299.40 130.458   6
   1   8  -4 3460.62 122.616   5
   1  -8  -4 3701.37 181.936   5
  -1  -8   4 3676.84 247.235   1
   1   8  -4 3604.80 179.435   7
   1   8  -4 3427.13 179.112   6
  -1   8   4 3742.44 188.733   9
  -1  -8   4 3594.56 173.656   3
   1  -8  -3 30359.2 471.016   5
  -1  -8   3 31258.3 443.766   2
  -1  -8   3 30626.0 468.901   3
   1   8  -3 30580.3 365.453   5
   1   8  -3 30739.0 478.609   6
   1   8  -2 10104.9 269.404   6
  -1  -8   2 10338.9 196.942   4
  -1   8   2 10346.7 202.862   4
   1  -8  -2 9823.70 265.210   5
  -1  -8   2 10261.5 208.489   2
  -1  -8   2 9792.33 261.997   3
   1  -8  -2 10046.2 259.205  11
   1   8  -2 10054.5 222.677   5
   1  -8  -1 13976.9 256.248  12
  -1   8   1 14182.5 219.242   4
   1   8  -1 14032.1 309.506   6
   1  -8  -1 13554.0 296.104   5
  -1  -8   1 13856.4 208.055   4
   1   8  -1 14195.0 277.168   5
   1  -8  -1 14008.6 300.518  11
  -1  -8   1 14066.6 303.597   3
   1  -8  -1 14009.7 251.329   3
   1  -8   0 36171.2 304.955   8
   1  -8   0 35851.6 447.987   5
  -1   8   0 35989.7 363.323   6
  -1  -8   0 36159.5 493.569   3
   1  -8   0 36066.5 416.260   3
   1  -8   0 34520.2 423.375  12
   1   8   0 36069.9 454.282   5
   1  -8   0 35300.1 481.308  11
   1  -8   1 3295.77 137.427   5
   1   8   1 3566.19 155.690   5
   1   8   1 3250.21 120.011   8
   1  -8   1 3265.29 134.956   3
  -1   8  -1 3173.76 120.627   6
   1  -8   2 14317.2 259.418   5
   1   8   2 14313.9 248.984   8
   1  -8   2 14463.2 295.677   3
   1   8   2 13697.2 307.287   5
  -1   8  -2 14391.1 266.450   6
   1   8   3 86.0146 74.1232   5
  -1   8  -3 12.9203 54.8058   6
   1  -8   3 16.3483 41.4410   5
   1  -8   3 39.5315 51.2158   3
  -1   8  -4 2730.43 146.875   6
   1  -8   4 2672.19 150.735   3
   1   8   4 2705.79 159.809   5
  -1   8  -5 9900.60 286.730   6
   1   8   5 9856.83 297.407   5
   1  -8   5 9578.91 300.519   3
  -1  -8  -5 10410.2 397.442   2
   1  -8   6 1908.03 153.665   3
   1   8   6 2206.36 161.913   5
   1  -8   7 541.737 105.470   3
   1   8   7 568.006 114.622   5
   1   8   8 386.323 101.403   3
   1  -8   8 404.735 105.051   3
   1   8   8 597.844 119.727   5
   1  -8   9 1596.00 174.851   3
   1   8   9 1683.31 161.487   5
   1   8   9 1624.81 179.284   3
   1  -8  10 57.5246 94.8790   3
   1   8  10 63.0823 101.044   3
   1  -8  11 713.108 148.332   3
   1   8  11 452.794 133.960   3
   1   8  12 90.5577 111.472   3
   1  -8  12 185.393 109.680   3
  -1  -9  13 109.051 105.035   3
  -1   9  12 159.778 129.093   9
  -1  -9  12 159.460 108.249   3
  -1   9  11 66.0541 104.666   9
  -1  -9  11 36.1062 87.0175   3
  -1  -9  11 221.794 120.557  10
  -1  -9  10 159.180 110.653  10
  -1  -9  10-27.5916 80.5858   3
  -1   9  10 80.6222 101.443   9
  -1  -9   9 386.222 111.021  10
   1   9  -9 293.021 122.495   6
  -1   9   9 323.265 120.845   9
  -1  -9   9 289.762 96.2340   3
   1   9  -8 1146.11 155.948   6
  -1  -9   8 1156.48 139.717  10
  -1   9   8 1322.92 159.786   9
  -1  -9   8 1286.84 144.412   3
   1   9  -7 628.036 133.810   6
  -1   9   7 840.345 145.571   9
  -1  -9   7 815.967 119.136   3
  -1  -9   7 573.878 110.175  10
   1   9  -7 731.883 120.572   7
   1   9  -6 83.2905 95.5199   6
  -1   9   6 176.019 99.0390   9
  -1  -9   6 67.4506 70.0528   3
   1   9  -6 64.2507 83.8243   7
   1   9  -5 3.89395 79.8561   6
  -1  -9   5 63.6660 65.3780   3
  -1   9   5 60.5033 86.8276   9
   1   9  -5 54.9000 82.4287   7
  -1   9   5 29.8763 79.8571   1
   1   9  -4 218.013 88.5217   6
  -1  -9   4 151.715 67.7347   3
   1  -9  -4 304.694 91.9841   5
   1   9  -4 195.340 51.0558   5
  -1  -9   3 140.614 59.5807   3
   1   9  -3 106.445 72.3469   6
   1   9  -3 247.059 56.4927   5
   1  -9  -3 170.539 77.0743   5
   1   9  -2 11973.0 256.265   5
  -1  -9   2 11932.6 209.435   4
  -1   9   2 12119.5 218.334   4
   1  -9  -2 11702.0 240.959  12
   1   9  -2 11407.5 299.518   6
  -1  -9   2 11864.4 300.373   3
   1  -9  -2 11693.8 286.899  11
  -1  -9   2 11823.3 202.726   2
   1  -9  -2 11789.2 297.363   5
   1  -9  -1 1979.83 108.650  12
  -1   9   1 2212.73 90.4527   4
   1  -9  -1 2158.38 130.791   5
   1  -9  -1 2085.37 114.060   3
  -1  -9   1 2140.16 138.023   3
   1  -9  -1 2051.37 134.711  11
   1   9  -1 2238.79 121.577   5
   1   9  -1 2171.93 143.170   6
  -1   9   0 1747.61 95.2813   6
  -1  -9   0 1721.21 124.006   3
   1  -9   0 1670.75 117.899   5
   1  -9   0 1875.39 106.842   3
   1  -9   0 2010.60 116.753  12
   1  -9   0 1906.11 74.6786   8
   1   9   0 1805.62 117.485   5
   1  -9   0 1875.70 134.343  11
   1  -9   1 16133.8 302.427   5
   1  -9   1 16538.2 310.799   3
   1   9   1 16081.7 328.240   5
   1   9   1 16303.8 259.701   8
  -1   9  -1 15908.5 278.710   6
   1  -9   2 2049.70 123.157   3
   1  -9   2 2164.56 117.048   5
   1   9   2 2283.23 142.836   5
   1   9   2 2127.68 101.417   8
  -1   9  -2 2162.39 114.759   6
   1  -9   3 3008.71 129.390   5
   1   9   3 3414.79 178.403   5
   1  -9   3 3342.45 165.669   3
  -1  -9  -3 3493.14 190.815   2
  -1   9  -3 3121.31 148.894   6
   1  -9   4 2707.81 158.808   3
  -1  -9  -4 2836.36 197.084   2
   1   9   4 3075.20 177.253   5
  -1   9  -4 2874.71 155.581   6
  -1   9  -5 2165.15 152.017   6
  -1  -9  -5 1953.80 191.685   1
  -1  -9  -5 2371.53 207.389   2
   1   9   5 2358.68 169.884   5
   1  -9   5 2153.48 155.679   3
   1   9   6 262.651 107.385   5
  -1   9  -6 74.5849 86.4601   6
   1  -9   6 102.377 77.8444   3
   1   9   7 907.513 137.422   5
   1  -9   7 560.881 110.122   3
   1   9   8 2408.53 182.258   5
   1  -9   8 2133.35 183.537   3
   1   9   8 2107.41 185.135   3
   1  -9   9 34.5285 84.9458   3
   1   9   9 94.8703 94.3317   5
   1   9   9-14.0482 94.9457   3
   1  -9  10 733.268 141.722   3
   1   9  10 830.547 146.747   3
   1   9  11 287.036 121.717   3
   1  -9  11 305.766 111.197   3
   1   9  12 66.1789 112.785   3
   1  -9  12 125.180 118.884   3
  -1 -10  12 21.1132 87.0424   3
  -1  10  12 162.670 126.457   9
  -1 -10  11 151.902 110.785  10
  -1 -10  11 81.9626 91.8002   3
  -1  10  11 107.807 118.536   9
  -1 -10  10 1399.30 169.326   3
  -1 -10  10 1460.92 179.759  10
  -1  10  10 1472.85 187.162   9
   1  10 -10 1403.72 197.082   6
  -1 -10   9 583.201 121.790  10
   1  10  -9 647.845 138.831   6
  -1  10   9 856.025 153.021   9
  -1 -10   9 626.469 121.204   3
   1  10  -8 126.347 106.082   6
  -1 -10   8 91.4767 89.9825  10
  -1  10   8 165.747 112.683   9
  -1 -10   8 69.3505 78.7095   3
   1  10  -8 59.0079 92.0722   7
   1  10  -7 24.3235 100.257   6
  -1 -10   7-137.424 98.6324  10
  -1 -10   7 41.1476 76.6376   3
  -1  10   7 142.643 102.933   9
   1  10  -7 18.7188 82.0543   7
   1  10  -6 901.133 130.918   6
  -1  10   6 1045.40 146.086   9
  -1 -10   6 852.964 115.572   3
   1  10  -6 810.597 116.636   7
  -1 -10   5 1146.55 122.443   3
   1  10  -5 1292.46 144.171   6
  -1  10   5 940.797 145.966   1
   1  10  -5 1194.15 133.241   7
  -1 -10   4 5799.16 239.089   3
   1  10  -4 5819.34 245.792   6
   1 -10  -3 9075.92 284.893   5
   1  10  -3 9597.83 228.640   5
   1  10  -3 9373.79 293.185   6
  -1 -10   3 9225.27 288.571   3
   1 -10  -3 9244.23 272.037  11
   1  10  -2 441.744 93.8978   6
  -1  10   2 424.201 55.1217   4
   1 -10  -2 556.255 95.8215   5
  -1 -10   2 421.538 84.0477   3
   1 -10  -2 484.047 84.3247  11
   1 -10  -2 402.631 59.5854  12
   1  10  -2 446.888 72.3160   5
   1 -10  -1 1061.78 104.944   5
   1 -10  -1 914.379 86.5603   3
  -1 -10   1 821.152 97.1217   3
   1 -10  -1 1082.98 109.857  11
   1  10  -1 1008.75 93.8355   5
   1 -10  -1 1043.35 89.6881  12
   1  10  -1 891.167 110.180   6
  -1 -10   0 2900.54 163.825   3
   1 -10   0 3214.35 157.317   5
   1 -10   0 3148.69 145.095   3
  -1  10   0 3251.30 136.509   6
   1 -10   0 3275.55 174.172  11
   1 -10   0 3293.07 151.783  12
   1  10   0 3149.78 154.245   5
   1 -10   1 6115.88 201.416   5
   1 -10   1 6164.83 209.124   3
   1  10   1 6228.67 219.920   5
  -1  10  -1 6339.62 189.376   6
   1 -10   2 638.777 79.5964   5
   1 -10   2 684.956 83.0696   3
   1  10   2 587.767 63.0677   8
   1  10   2 724.574 103.861   5
  -1  10  -2 698.517 81.3358   6
   1 -10   3 6019.79 178.727   5
   1 -10   3 5942.81 224.292   3
   1  10   3 6530.02 246.275   5
  -1  10  -3 6358.42 212.083   6
   1  10   4 216.172 97.5774   5
  -1  10  -4 74.4521 73.6826   6
   1 -10   4 58.6620 64.4482   3
  -1  10  -5 17384.7 396.276   6
   1  10   5 17321.0 412.945   5
   1 -10   5 16781.9 413.978   3
  -1  10  -6 15944.1 403.926   6
   1  10   6 15086.9 409.289   5
   1 -10   6 15763.6 425.933   3
   1  10   7 7202.88 295.456   5
   1 -10   7 6763.47 300.999   3
   1  10   8 119.811 93.4827   5
   1 -10   8 16.8852 75.4576   3
   1  10   9 646.439 135.906   3
   1 -10   9 740.236 139.828   3
   1  10   9 735.097 136.551   5
   1 -10  10 5.41842 85.2188   3
   1  10  10 88.0452 93.1346   3
   1  10  11 204.589 111.154   3
   1 -10  11 270.622 114.579   3
   1  10  12-102.892 106.514   3
   1 -10  12 9.60369 108.550   3
  -1 -11  12 39.8050 98.7799   3
  -1  11  12 257.354 147.946   9
  -1 -11  11 233.065 127.170  10
  -1  11  11 330.480 140.477   9
  -1 -11  11 169.124 102.748   3
   1  11 -10 358.552 133.446   6
  -1 -11  10 317.324 127.638  10
  -1 -11  10 151.246 98.8670   3
  -1  11  10 471.660 141.453   9
   1  11  -9 1520.04 197.649   6
  -1 -11   9 1343.94 161.385  10
  -1 -11   9 1231.84 156.381   3
  -1  11   9 1705.91 197.852   9
  -1 -11   8 3068.65 211.016  10
  -1  11   8 3577.69 251.448   9
  -1 -11   8 3035.61 213.466   3
   1  11  -8 3255.52 217.046   7
   1  11  -8 3433.89 251.198   6
  -1 -11   7 1288.03 139.718  10
  -1 -11   7 1172.92 140.802   3
  -1  11   7 1540.61 177.337   9
   1  11  -7 1383.98 151.958   7
   1  11  -7 1309.96 163.310   6
   1  11  -6 59.8301 92.4564   7
   1  11  -6 4.59277 96.1217   6
  -1 -11   6 17.5713 74.1629   3
   1  11  -5 5888.31 268.125   6
  -1 -11   5 5854.08 261.311   3
   1  11  -5 6064.91 256.305   7
  -1 -11   4 3515.81 198.852   3
   1  11  -4 3490.91 201.819   6
   1  11  -3-31.8722 63.3405   5
   1 -11  -3-100.031 84.1520  11
   1  11  -3-61.6277 86.8401   6
  -1 -11   3-21.2416 66.5722   3
   1  11  -2 1891.89 152.144   6
  -1 -11   2 1981.88 146.294   3
   1  11  -2 2010.82 123.108   5
   1 -11  -2 1924.62 108.088  12
   1 -11  -2 2239.76 152.683   5
   1 -11  -2 2035.97 140.205  11
  -1 -11   1 1291.20 122.400   3
   1 -11  -1 1312.43 122.684   5
   1 -11  -1 1221.37 102.258   3
   1  11  -1 1223.40 126.755   6
   1 -11  -1 1278.24 98.8442  12
   1  11  -1 1404.02 111.747   5
   1 -11  -1 1271.35 123.537  11
   1 -11   0 125.869 57.3167   3
   1 -11   0 219.896 83.5625  12
   1 -11   0 182.645 74.5509   5
   1  11   0 112.075 72.0511   5
  -1  11   0 49.7644 51.7645   6
  -1 -11   0 63.2891 64.8104   3
   1  11   1 3718.86 179.122   5
   1 -11   1 3508.05 163.798   5
   1 -11   1 3384.34 164.934   3
  -1  11  -1 3674.06 156.798   6
   1 -11   2 1012.77 97.8482   5
   1  11   2 1205.38 127.137   5
   1 -11   2 1017.07 104.222   3
  -1  11  -2 1089.10 101.340   6
  -1  11  -3 1375.31 116.427   6
   1  11   3 1526.19 145.784   5
   1 -11   3 1333.44 122.007   3
   1  11   4 5504.84 246.352   5
   1 -11   4 5050.26 229.067   3
  -1  11  -4 5201.98 215.855   6
  -1  11  -5 424.843 98.6708   6
   1 -11   5 350.270 91.3981   3
   1  11   5 589.306 124.946   5
   1  11   6 2357.27 188.148   5
  -1  11  -6 2112.37 173.833   6
   1 -11   6 1981.78 169.286   3
  -1  11  -7 222.569 99.9257   6
   1  11   7 440.926 124.788   5
   1 -11   7 122.938 86.2578   3
   1  11   8 287.684 117.384   5
   1 -11   8 105.976 94.8707   3
   1  11   9 61.9916 102.401   5
   1  11   9 39.8772 91.5813   3
   1 -11   9 91.9629 101.602   3
   1 -11  10 137.757 106.463   3
   1  11  10 131.107 97.8185   3
   1  11  10 321.974 122.020   5
   1  11  11 160.902 108.919   3
   1 -11  11 61.0305 113.923   3
  -1 -12  12 83.1381 112.615   3
  -1 -12  11 23.7970 91.0135   3
  -1  12  11 311.324 151.544   9
   1  12 -10 730.630 162.452   6
  -1 -12  10 639.787 131.563   3
  -1 -12  10 696.319 138.145  10
  -1  12  10 931.991 168.660   9
  -1 -12   9 787.222 140.485   3
  -1 -12   9 744.379 134.390  10
  -1  12   9 1130.80 180.258   9
   1  12  -9 839.832 164.703   6
   1  12  -8-34.1995 102.304   6
  -1 -12   8-65.7227 89.8498  10
  -1 -12   8 72.0864 85.9895   3
   1  12  -8 50.2402 91.1720   7
   1  12  -7 93.8936 89.7898   7
  -1 -12   7 32.6891 71.9550   3
  -1 -12   7-91.5217 95.0244  10
   1  12  -7-30.5528 98.8899   6
   1  12  -6 69.9286 99.3147   6
  -1 -12   6 75.3159 78.9953   3
   1  12  -6 43.1620 86.7878   7
  -1 -12   5 52.0960 75.0206   3
   1  12  -5 22.3225 88.4704   6
   1  12  -5 205.377 103.771   7
   1  12  -4 396.273 107.699   6
  -1 -12   4 418.870 94.4872   3
  -1 -12   3 645.634 105.200   3
   1  12  -3 706.385 112.981   6
   1 -12  -3 579.454 97.4529  11
   1  12  -3 664.988 81.5842   5
   1  12  -2 3247.35 156.887   5
  -1 -12   2 3079.17 185.033   3
   1  12  -2 2841.14 186.373   6
   1 -12  -2 2962.69 179.015  11
  -1 -12   1 51.8682 66.0630   3
   1  12  -1 84.6027 87.0641   6
   1 -12  -1 116.802 65.1532  12
   1 -12  -1 242.782 97.8399  11
   1 -12  -1 62.3756 59.5220   3
  -1  12   1 62.7899 61.7247   6
   1  12  -1 113.469 73.0383   5
   1 -12   0 8468.54 260.507   5
  -1 -12   0 7721.41 289.274   3
   1  12   0 8624.94 261.302   5
   1 -12   0 8553.10 240.695  12
   1 -12   0 7989.12 251.862   3
  -1  12   0 8727.98 240.923   6
   1  12   1 382.244 98.3959   5
  -1  12  -1 214.721 68.4709   6
   1 -12   1 305.998 82.7885   5
   1 -12   1 225.561 70.1386   3
   1  12   2 7064.86 259.912   5
   1 -12   2 6911.43 247.837   3
  -1  12  -2 6901.16 230.914   6
   1 -12   3 2206.26 153.959   3
  -1  12  -3 2555.90 154.000   6
  -1  12  -4-90.0257 84.7130   6
   1 -12   4 31.7466 67.3572   3
   1 -12   5 3248.21 203.432   3
  -1  12  -5 3472.04 202.444   6
   1  12   6 216.310 115.446   5
  -1  12  -6 108.389 92.4651   6
   1 -12   6 8.50993 78.6209   3
  -1  12  -7 552.041 122.216   6
   1  12   7 547.872 129.884   5
   1 -12   7 490.553 115.092   3
   1  12   8 40.1938 103.784   5
   1 -12   8 104.080 98.9822   3
   1  12   9 331.093 123.363   5
   1 -12   9 317.216 115.535   3
   1  12  10 164.219 113.869   3
   1 -12  10 144.249 109.593   3
   1  12  10 184.384 110.946   5
   1 -12  11 130.710 110.901   3
   1  12  11 3.85996 98.0114   3
   1  13 -11 144.155 136.829   6
  -1 -13  11 25.4294 100.938   3
   1  13 -10 178.419 139.804   6
  -1 -13  10 5.33841 91.8365   3
  -1 -13   9 1297.50 165.666   3
   1  13  -9 1219.04 178.371   6
   1  13  -8 146.370 115.368   6
  -1 -13   8 163.908 88.7812   3
   1  13  -8 141.598 95.1697   7
   1  13  -7 288.532 109.799   6
  -1 -13   7 333.854 103.743   3
   1  13  -7 269.865 101.358   7
  -1 -13   7 286.862 91.3441  10
   1  13  -6 41.2270 91.0932   7
   1  13  -6-43.3823 95.5562   6
  -1 -13   6 53.7496 83.9545   3
   1  13  -5 558.241 117.059   6
  -1 -13   5 546.055 108.542   3
   1  13  -4 1538.95 162.212   6
  -1 -13   4 1674.37 155.159   3
  -1 -13   3 1315.08 138.512   3
   1  13  -3 1473.99 150.420   6
   1 -13  -3 1317.34 131.904  11
  -1 -13   2 1244.99 130.400   3
   1  13  -2 1301.18 114.470   5
   1 -13  -2 1055.53 122.463  11
   1  13  -2 1159.61 136.328   6
  -1 -13   1 557.881 100.666   3
   1 -13  -1 782.776 115.404  11
   1 -13  -1 683.728 97.4407   3
   1  13  -1 736.452 102.580   5
   1  13  -1 623.192 117.088   6
  -1  13   1 571.521 90.0686   6
  -1  13   0 195.514 70.5885   6
   1 -13   0 267.747 77.3726   3
   1  13   0 321.186 92.1249   5
   1  13   0 229.828 99.7526   6
  -1 -13   0 182.962 83.8043   3
   1 -13   1 516.154 90.2825   3
   1  13   1 715.328 117.080   5
  -1  13  -1 617.754 93.4162   6
   1 -13   2 995.835 113.760   3
  -1  13  -2 1118.84 115.762   6
  -1  13  -3 2538.64 161.027   6
   1 -13   3 2383.40 168.660   3
  -1  13  -4-15.2901 78.2607   6
   1 -13   4 17.0774 69.7899   3
   1 -13   5 6435.82 287.533   3
  -1  13  -5 6724.70 277.707   6
  -1  13  -6 1633.49 166.659   6
   1  13   6 1569.16 170.508   5
   1 -13   6 1560.89 158.674   3
   1  13   7 89.1322 107.722   5
  -1  13  -7 124.713 99.0140   6
   1 -13   7 19.0761 87.8851   3
   1  13   8 180.002 112.630   5
  -1  13  -8-45.0982 100.886   6
   1 -13   8 4.27847 92.4074   3
   1  13   9 113.381 114.632   5
   1 -13   9-22.4802 89.3929   3
   1 -13  10 144.525 116.720   3
   1  13  10 79.4229 100.857   3
   1  13  10 138.154 113.209   5
   1  13  11 299.358 131.759   3
   1 -13  11 151.596 106.000   3
  -1 -14  11 94.9626 98.7390   3
  -1 -14  10 168.288 98.3219   3
   1  14 -10 200.117 144.884   6
   1  14  -9 41.5895 123.227   6
  -1 -14   9 39.2861 87.6147   3
   1  14  -8 375.744 130.040   6
  -1 -14   8 500.040 123.268   3
   1  14  -8 351.078 121.706   7
   1  14  -7 169.902 114.492   6
  -1 -14   7 12.3128 84.3767   3
   1  14  -7 47.8716 95.6065   7
   1  14  -6 793.086 146.567   6
  -1 -14   6 789.160 130.858   3
   1  14  -6 699.773 126.730   7
  -1 -14   5 2145.06 183.843   3
   1  14  -5 2072.07 191.286   6
  -1 -14   4 10721.2 369.394   3
   1 -14  -4 10816.6 331.491  11
   1  14  -4 10790.9 372.883   6
  -1 -14   3 1724.31 165.403   3
   1 -14  -3 1645.56 148.479  11
   1  14  -3 1590.94 164.567   6
   1  14  -2 16.3030 90.4772   6
  -1 -14   2 79.2219 83.0061   3
   1 -14  -2 61.9786 83.5465  11
   1  14  -2-0.67077 73.6444   5
  -1 -14   1 147.175 85.2176   3
   1  14  -1 122.330 101.641   6
   1 -14  -1 270.371 114.583  11
  -1  14   1 64.6618 70.9455   6
   1 -14  -1 81.6420 71.8087   3
   1  14  -1 194.075 87.0497   5
   1 -14   0 369.319 84.1331   3
  -1 -14   0 448.062 109.455   3
  -1  14   0 422.333 89.6138   6
   1  14   0 533.443 121.090   6
   1  14   0 485.341 106.113   5
  -1  14  -1 106.955 75.9598   6
   1 -14   1 58.6233 68.1915   3
   1  14   1 228.680 99.4674   5
   1  14   2 249.412 111.518   5
  -1  14  -2 57.7755 76.1150   6
   1 -14   2 50.8188 71.5631   3
   1 -14   3 1503.32 147.328   3
  -1  14  -3 1507.24 136.264   6
  -1  14  -4 632.371 110.655   6
   1 -14   4 626.291 110.529   3
  -1  14  -5 516.051 115.562   6
   1 -14   5 601.621 112.410   3
   1  14   6 232.814 119.579   5
  -1  14  -6 92.2762 91.4136   6
   1 -14   6 119.974 93.2699   3
  -1  14  -7 4517.42 269.590   6
   1  14   7 4882.07 279.169   5
   1 -14   7 4936.16 282.234   3
  -1  14  -8 674.442 142.640   6
   1 -14   8 765.467 144.692   3
   1  14   8 759.730 147.096   5
   1  14   9 96.3976 113.655   5
   1 -14   9 80.3361 91.5531   3
   1  14  10-17.9079 94.1044   3
   1 -14  10 129.278 111.787   3
   1  14  10 272.308 132.541   5
   1  15 -10 187.830 147.959   6
  -1 -15  10 48.4841 95.6392   3
   1  15  -9 469.021 147.975   6
  -1 -15   9 455.836 130.652   3
   1  15  -8 340.905 134.724   6
  -1 -15   8 211.468 109.291   3
   1  15  -8 87.8230 96.8958   7
   1  15  -7 108.281 110.347   6
  -1 -15   7 234.576 97.6696   3
   1  15  -7 338.575 119.008   7
   1  15  -6 706.534 146.451   6
  -1 -15   6 655.130 125.499   3
   1  15  -6 696.964 131.853   7
  -1 -15   5 677.996 126.391   3
   1  15  -5 755.659 138.258   6
   1  15  -4 55.6028 94.1907   6
  -1 -15   4 163.573 96.5280   3
   1 -15  -4-1.73150 99.4132  11
   1 -15  -3 3069.83 190.384  11
  -1 -15   3 3087.91 214.033   3
   1  15  -3 2958.59 211.439   6
  -1 -15   2 993.051 144.017   3
   1  15  -2 993.333 116.907   5
   1 -15  -2 1166.21 137.427  11
   1  15  -2 933.979 143.171   6
   1  15  -1 80.2712 99.6933   6
   1 -15  -1 99.3413 77.3462   3
   1 -15  -1 287.091 115.768  11
   1  15  -1 155.161 89.9830   5
  -1 -15   1 67.1048 80.4804   3
  -1 -15   0 4010.52 241.476   3
   1 -15   0 3848.70 211.941   3
   1  15   0 4168.07 213.899   5
   1  15   0 4005.45 240.719   6
   1 -15   1 7070.40 278.963   3
   1  15   1 7409.21 283.101   5
  -1  15  -1 7335.89 263.920   6
   1 -15   2 9086.93 321.266   3
   1  15   2 9521.28 326.921   5
  -1  15  -2 9400.38 302.422   6
  -1  15  -3 514.874 101.385   6
   1 -15   3 537.662 105.266   3
  -1  15  -4 81.5269 88.5429   6
   1 -15   4 20.4411 74.0475   3
  -1  15  -5 31.3313 83.9025   6
   1 -15   5 25.8718 75.4261   3
   1  15   6 480.948 132.479   5
  -1  15  -6 423.658 116.954   6
   1 -15   6 370.259 105.020   3
   1  15   7 513.253 140.346   5
  -1  15  -7 516.911 130.820   6
   1 -15   7 529.135 121.066   3
   1  15   8 673.103 146.954   5
  -1  15  -8 438.676 132.856   6
   1 -15   8 334.265 115.278   3
   1  15   9 831.060 162.083   5
   1 -15   9 688.902 142.502   3
   1  15  10 46.5831 106.123   3
   1 -15  10 134.889 109.150   3
   1  15  10 127.994 134.546   5
   1  15  11 246.735 139.727   5
  -1 -16  10 135.170 115.906   3
   1  16  -9 110.296 134.186   6
  -1 -16   9 72.4889 94.6723   3
   1  16  -8-8.57304 122.029   6
  -1 -16   8 29.2590 95.5257   3
   1  16  -8-25.7250 98.4832   7
   1  16  -7 219.900 126.689   6
  -1 -16   7 208.632 95.3054   3
   1  16  -7 241.394 116.733   7
   1  16  -6 302.971 125.527   6
  -1 -16   6 275.562 109.680   3
   1  16  -6 265.518 110.520   7
  -1 -16   5 1596.54 174.418   3
   1  16  -5 1569.01 181.394   6
  -1 -16   4 5935.15 304.068   3
   1  16  -4 6202.93 308.172   6
   1  16  -3 475.335 125.226   6
  -1 -16   3 535.119 116.602   3
   1 -16  -3 500.410 104.492  11
  -1 -16   2 3466.04 228.384   3
   1 -16  -2 3462.49 215.867  11
   1  16  -2 3252.59 219.996   6
   1  16  -1-41.9933 109.729   6
   1 -16  -1 179.037 112.999  11
   1 -16  -1 50.8951 72.8763   3
   1  16  -1 218.375 94.0835   5
  -1 -16   1 39.8868 78.4493   3
  -1 -16   0 6651.93 306.073   3
   1 -16   0 6636.49 280.521   3
   1  16   0 6978.85 276.693   5
   1 -16   0 7405.50 310.546  11
   1  16   0 6785.98 305.652   6
   1 -16   1 7060.06 289.737   3
   1  16   1 7618.66 297.204   5
   1  16   2 566.964 122.568   5
   1 -16   2 385.785 99.3412   3
   1  16   3 307.899 120.423   5
   1 -16   3 202.175 88.5826   3
   1  16   4 540.422 131.312   5
   1 -16   4 300.824 101.634   3
  -1  16  -4 405.549 107.311   6
  -1  16  -5 12.3407 87.7700   6
   1 -16   5 108.614 89.2578   3
   1  16   6 153.177 120.073   5
  -1  16  -6 94.4534 100.386   6
   1 -16   6 34.0533 85.4136   3
   1  16   7 210.529 127.281   5
  -1  16  -7 88.6300 110.267   6
   1 -16   7-6.33330 80.4246   3
   1  16   8 337.558 133.176   5
  -1  16  -8 208.097 134.676   6
   1 -16   8 89.4784 95.0782   3
   1  16   9 293.918 139.197   5
  -1  16  -9 247.331 132.271   6
   1 -16   9 129.360 114.880   3
   1  16  10 152.985 133.819   5
   1  17  -9 111.958 145.046   6
  -1 -17   9-47.2228 92.9606   3
   1  17  -8 121.926 123.079   6
  -1 -17   8 48.6152 96.5983   3
   1  17  -7 148.762 114.923   6
  -1 -17   7 130.919 101.126   3
   1  17  -7 147.043 110.088   7
  -1 -17   6 464.679 118.414   3
   1  17  -6 522.095 132.284   7
   1  17  -6 523.171 137.090   6
   1  17  -5 439.766 135.757   6
  -1 -17   5 499.298 125.913   3
   1  17  -4 112.232 112.507   6
  -1 -17   4 114.295 95.5863   3
   1  17  -3 293.554 123.800   6
  -1 -17   3 154.545 98.7326   3
   1 -17  -3 298.066 101.113  11
  -1 -17   2 28.6725 81.9657   3
   1  17  -2-81.6117 103.542   6
   1 -17  -2 15.9716 95.6351  11
   1 -17  -1 3214.51 218.766  11
   1 -17  -1 2938.64 196.636   3
  -1 -17   1 2847.53 218.048   3
   1  17  -1 3140.37 194.235   5
   1  17  -1 3374.88 233.665   6
   1  17   0 3202.78 201.555   5
  -1 -17   0 2790.16 220.954   3
   1 -17   0 2866.58 200.427   3
   1 -17   0 3362.69 232.507  11
   1  17   0 3221.01 228.184   6
   1  17   1 646.600 122.139   5
   1 -17   1 371.739 99.5966   3
   1 -17   2 4605.31 251.043   3
   1  17   2 4540.92 252.080   5
   1  17   3 200.791 119.219   5
   1 -17   3 32.8530 78.1191   3
   1  17   4 173.422 113.695   5
   1 -17   4 23.4862 79.3572   3
   1  17   5 275.032 133.385   5
   1 -17   5 128.393 96.3560   3
   1  17   6 207.229 127.625   5
   1 -17   6 134.525 102.951   3
   1 -17   7 84.5715 97.8321   3
   1  17   7 213.182 135.303   5
   1  17   8 499.727 152.539   5
   1 -17   8 255.864 117.543   3
   1  17   9 312.813 145.076   5
  -1  17  -9-6.90628 121.797   6
   1 -17   9 38.8995 99.0419   3
   1  18  -8-92.3361 136.042   6
  -1 -18   8 13.7773 98.7439   3
   1  18  -7 160.654 130.382   6
  -1 -18   7 254.982 116.573   3
   1  18  -7 230.549 120.157   7
   1  18  -6 211.650 126.783   6
  -1 -18   6 28.4843 89.9892   3
   1  18  -6 246.202 121.387   7
   1  18  -5 526.981 143.525   6
  -1 -18   5 363.652 128.494   3
   1  18  -4 109.895 115.903   6
  -1 -18   4 140.696 96.9726   3
   1 -18  -3 2399.85 192.579  11
  -1 -18   3 2458.47 215.086   3
   1  18  -3 2594.39 219.639   6
  -1 -18   2 120.875 95.7754   3
   1  18  -2 55.3982 107.123   6
   1 -18  -2 1.19481 91.4901  11
   1 -18  -1 2722.39 207.912  11
   1 -18  -1 2396.45 188.594   3
  -1 -18   1 2346.28 213.399   3
   1  18  -1 2653.56 184.074   5
   1  18  -1 2532.52 214.551   6
   1  18   0 89.4346 119.258   6
  -1 -18   0 66.5600 99.7525   3
   1  18   0 80.3568 92.8539   5
   1 -18   0 17.4566 77.1763   3
   1 -18   1 631.745 116.374   3
   1  18   1 790.612 135.119   5
   1  18   1 805.673 143.790   6
   1  18   2 407.261 124.973   5
   1 -18   2 279.583 101.763   3
   1  18   3 519.207 134.630   5
   1 -18   3 468.725 117.241   3
   1  18   4 739.124 147.559   5
   1 -18   4 634.987 126.444   3
   1  18   5 270.828 131.002   5
   1 -18   5 133.737 87.2417   3
   1  18   6 342.978 137.529   5
   1 -18   6 183.859 104.081   3
   1  18   7 757.407 154.308   5
   1 -18   7 701.147 145.674   3
   1  18   8 390.161 145.012   5
   1 -18   8 298.787 122.575   3
   1  19  -8 3.65480 130.839   6
  -1 -19   8 90.9636 106.618   3
   1  19  -7-53.8816 131.401   6
  -1 -19   7 16.8394 102.531   3
   1  19  -7 111.145 123.555   7
  -1 -19   6 102.620 90.4066   3
   1  19  -6 147.957 128.169   6
   1  19  -5 429.897 135.506   6
  -1 -19   5 492.792 128.041   3
  -1 -19   4-39.6904 92.7367   3
   1  19  -4 105.850 116.512   6
  -1 -19   3 19.7032 98.4727   3
   1  19  -3 222.207 125.007   6
   1  19  -2 140.725 107.925   6
   1 -19  -2 188.639 107.416  11
  -1 -19   2 216.018 104.130   3
   1  19  -1-28.8019 105.887   6
   1 -19  -1 146.670 118.390  11
   1 -19  -1 35.3741 83.3876   3
  -1 -19   1 157.398 113.268   3
   1  19   0 430.808 141.934   6
   1 -19   0 640.642 157.012  11
  -1 -19   0 332.691 120.600   3
   1 -19   0 377.980 105.779   3
   1  19   0 413.062 119.350   5
   1 -19   1 1047.93 144.889   3
   1  19   1 1363.68 164.659   5
   1  19   1 1143.87 175.948   6
   1 -19   2 1066.51 146.004   3
   1  19   2 1534.81 179.179   5
   1  19   3 656.982 148.649   5
   1 -19   3 350.480 109.672   3
   1  19   4 264.900 130.011   5
   1 -19   4 25.4695 87.5687   3
   1  19   5 276.112 142.305   5
   1 -19   5-27.4806 98.0444   3
   1  19   6 179.534 126.506   5
   1 -19   6 12.7087 96.8979   3
   1  19   7 471.413 160.307   5
   1 -19   7 255.050 123.075   3
   1 -19   8 39.4311 115.736   3
   1  20  -7 98.7598 141.763   6
  -1 -20   7-45.6196 106.478   3
   1  20  -6 228.019 135.003   6
  -1 -20   6-79.2068 107.475   3
  -1 -20   5 103.957 94.9836   3
   1  20  -5 198.211 124.879   6
  -1 -20   4 0.35053 96.5821   3
   1  20  -4 121.212 115.924   6
  -1 -20   3 15.4926 85.2631   3
   1  20  -3 20.8187 109.125   6
   1  20  -2 38.9855 107.726   6
   1 -20  -2 220.243 109.660  11
  -1 -20   2 283.875 119.294   3
   1  20  -1 4.92918 106.517   6
   1 -20  -1 268.752 123.697  11
   1 -20  -1 66.7161 91.5335   3
  -1 -20   1-3.32989 96.3456   3
   1  20   0-39.0928 108.540   6
  -1 -20   0 74.5971 100.002   3
   1 -20   0 70.7415 94.7676   3
   1  20   0 158.917 105.390   5
   1 -20   1 390.977 117.913   3
   1  20   1 406.531 135.705   6
   1  20   1 588.174 140.182   5
   1  20   2 391.087 129.195   5
   1 -20   2 118.434 100.568   3
   1  20   3 629.151 147.173   5
   1 -20   3 736.457 141.652   3
   1  20   4 445.903 144.201   5
   1 -20   4-13.5367 95.2411   3
   1  20   5 677.868 162.367   5
   1 -20   5 342.148 115.660   3
   1  20   6 374.608 155.365   5
   1 -20   6-34.3075 95.8676   3
   1  20   7 407.404 153.225   5
   1 -20   7 142.054 112.044   3
  -1 -21   6 55.3436 103.950   3
   1  21  -6 57.4708 134.238   6
  -1 -21   5 241.204 126.333   3
   1  21  -5 184.991 126.972   6
  -1 -21   4 31.6336 94.4701   3
   1  21  -4-9.40415 121.232   6
  -1 -21   3 131.432 108.826   3
   1  21  -3 129.645 127.072   6
   1  21  -2 130.581 118.176   6
  -1 -21   2 21.4857 103.764   3
   1  21  -1 1.37587 108.056   6
   1 -21  -1 278.631 129.631  11
  -1 -21   1 39.4252 103.557   3
   1  21   0 113.580 124.117   6
   1 -21   0-6.80420 87.2392   3
   1  21   0 189.642 118.002   5
   1  21   1 108.472 122.847   6
   1  21   1 109.257 106.078   5
   1 -21   1 140.706 103.720   3
   1 -21   2 133.549 99.2991   3
   1  21   2 267.339 135.561   6
   1  21   2 273.394 128.960   5
   1  21   3 545.287 157.094   5
   1 -21   3 171.290 111.481   3
   1  21   4 207.438 123.643   5
   1 -21   4-57.5396 106.680   3
   1  21   5 160.806 129.807   5
   1 -21   5-5.00761 97.2314   3
   1  21   6 308.186 142.695   5
   1 -21   6 35.6727 99.3448   3
   1  22  -5-101.994 133.502   6
  -1 -22   4 126.868 123.516   3
   1  22  -4 65.7238 118.809   6
   1  22  -3 300.084 146.492   6
  -1 -22   3 218.060 110.674   3
   1  22  -2 100.217 134.540   6
  -1 -22   2 118.768 116.240   3
   1  22  -1 109.018 118.020   6
  -1 -22   1-4.67424 104.352   3
   1  22   0 468.554 152.863   6
   1 -22   0 996.016 182.897  11
   1  22   1 144.364 117.774   6
   1 -22   1 83.7021 99.8570   3
   1  22   1 210.108 124.934   5
   1  22   2 132.750 121.741   6
   1 -22   2 211.384 111.434   3
   1  22   2 260.170 130.339   5
   1 -22   3 43.4158 101.894   3
   1  22   3 14.3404 127.115   5
   1  22   4 271.695 145.882   5
   1 -22   4 116.063 117.304   3
   1  22   5 395.019 163.935   5
   1 -22   5 14.2069 110.411   3
   1  23  -3 376.846 145.204   6
  -1 -23   3 502.809 152.558   3
   1  23  -2-31.1038 130.912   6
  -1 -23   2 99.2362 101.363   3
  -1 -23   1 309.066 135.465   3
   1  23  -1 216.755 133.699   6
   1 -23  -1 434.540 147.937  11
   1  23   0 547.014 163.126   6
   1 -23   0 812.852 180.339  11
   1  23   1-36.2457 133.681   6
   1  23   1 177.512 130.272   5
   1 -23   2 3.14551 103.006   3
   1  23   2 167.720 146.155   6
   1  23   2 81.7217 124.021   5
   1 -23   3 191.539 120.915   3
   1  23   3 262.066 155.418   6
   1  23   3 413.685 142.499   5
   1 -23   4 173.780 118.023   3
   1 -24   0 1329.06 207.715  11
   1 -24   1 608.054 182.760  11
   1  24   2 168.619 138.146   5
   1 -24   3 386.191 139.007   3
  -2   0  12 268.596 130.098   9
  -2   0  11 309.055 126.709  10
  -2   0  11 135.158 105.977   9
  -2   0  10 0.13870 87.3961   9
  -2   0  10 167.584 111.110  10
  -2   0   9 59.4641 91.1398  10
  -2   0   9-92.9759 93.7260   9
  -2   0   8 115.260 87.4332   9
  -2   0   8 173.362 96.0342  10
  -2   0   7-97.1939 95.6400  10
   2   0  -7-18.3836 76.6474   5
  -2   0   7-102.717 90.9747   9
   2   0  -6 3.68978 73.1936   5
   2   0  -5 96.9757 70.6330   5
   2   0  -4 43537.7 460.089   6
   2   0  -4 43949.0 570.296   5
   2   0  -3 32.2793 45.0083   6
  -2   0   3 39.4623 68.1258   4
   2   0  -3 33.1909 59.2789   5
  -2   0   2 5640.99 210.195   4
   2   0  -2 5532.01 206.653   5
   2   0  -2 5599.62 132.777   6
   2   0  -1-8.91007 32.2438   6
  -2   0   1 79.2653 66.8704   4
   2   0  -1 18.7649 56.5877   5
   2   0   0 1683.04 73.2901   3
   2   0   0 1651.39 119.270   5
  -2   0   0 1688.00 71.5298   9
   2   0   0 1720.77 120.146   8
   2   0   1-69.2651 77.2224  12
   2   0   1 27.5565 59.2788   5
   2   0   1 3.27239 59.6882   8
   2   0   1-10.8009 33.6414   3
   2   0   1-21.5112 43.8410   7
   2   0   2 23871.7 348.480   3
   2   0   2 23116.0 405.897   5
   2   0   2 23562.2 402.818  12
   2   0   2 24362.1 270.876   7
   2   0   3 28.5578 47.3380   3
   2   0   3 60.7474 74.1786  12
   2   0   3 31.8638 52.4686   5
   2   0   4 1657.49 120.107   5
   2   0   4 1774.05 125.911   3
   2   0   5-22.7736 64.8537   3
   2   0   5-59.8943 68.2861   5
   2   0   6 2115.42 137.148   5
   2   0   6 2115.31 159.491   3
   2   0   7-7.92916 75.2033   3
   2   0   8 131.279 80.8423   3
   2   0   9-71.8964 90.7521   3
   2   0  10 121.457 103.976   3
   2   0  11 92.1590 99.6320   3
   2   0  12 34.9036 104.483   3
  -2  -1  12 372.513 143.914  10
  -2  -1  12-37.9069 105.083   9
  -2   1  12 169.675 119.323   9
  -2  -1  11 39.9902 96.5181   9
  -2  -1  11 173.402 129.961  10
  -2   1  11 302.528 134.843  10
  -2   1  11 23.3217 103.218   9
  -2  -1  10 59.3094 108.927  10
  -2  -1  10 77.1871 88.5618   9
  -2   1  10-72.5336 93.9699   9
  -2   1  10 205.187 116.863  10
  -2  -1   9 127.436 97.6111  10
  -2   1   9 258.238 107.371  10
  -2  -1   9 49.1597 83.3304   9
  -2   1   9 285.691 106.130   9
  -2  -1   8 102.030 89.1136  10
  -2   1   8 240.864 100.983  10
  -2   1   8 152.618 77.4127   9
  -2  -1   7-7.08237 94.1471  10
   2  -1  -7 205.214 86.9679   5
  -2   1   7 129.685 85.8829  10
  -2   1   7 120.653 78.3110   9
   2   1  -7 182.496 75.7966   5
  -2   1   6 3.12645 74.6053   9
   2  -1  -6 16.7908 71.2335   5
   2   1  -6 215.445 76.5616   5
   2   1  -5 1522.46 118.673   6
   2  -1  -5 1509.55 130.093   5
   2   1  -5 1381.15 119.863   5
  -2   1   5 1345.12 121.269   9
   2   1  -4 17831.8 314.162   6
   2  -1  -4 17183.8 365.363   5
   2   1  -4 17537.3 360.371   5
  -2   1   4 17081.1 369.902   9
  -2  -1   3 16964.6 358.476   4
  -2   1   3 16879.3 358.860   4
   2  -1  -3 17165.9 357.475   5
   2   1  -3 17093.2 350.328   5
  -2   1   3 17158.8 333.987   9
   2   1  -3 17265.2 278.138   6
  -2  -1   2 72698.8 709.782   4
  -2   1   2 70690.4 710.070   4
   2  -1  -2 71532.8 707.621   5
   2   1  -2 70343.8 702.343   5
  -2   1   2 72024.9 603.778   9
   2   1  -2 72335.2 502.055   6
  -2  -1   1 7519.20 223.513   4
  -2   1   1 7342.26 222.018   4
   2  -1  -1 7231.24 235.554   5
   2   1  -1 7264.20 229.669   5
  -2   1   1 7365.83 171.184   9
   2   1  -1 7588.12 213.631   7
   2   1  -1 7749.38 159.745   6
   2  -1   0 813.341 91.6511   5
   2   1   0 718.340 88.8246   5
   2  -1   0 750.795 90.8201   8
   2   1   0 716.997 89.4635   8
   2   1   0 882.776 79.8680   7
   2  -1   1 5229.50 140.663   3
   2  -1   1 5407.18 196.118   5
   2   1   1 5235.56 198.782   5
   2  -1   1 5292.05 196.062  12
   2  -1   1 5329.26 195.043   8
   2   1   1 5203.89 198.164   8
   2   1   1 5395.98 154.412   7
   2  -1   2 568.772 64.8540   3
   2  -1   2 593.660 80.4592   5
   2   1   2 688.929 89.0997   5
   2  -1   2 732.390 93.7707  12
   2   1   2 552.432 81.0487  12
   2   1   2 686.474 63.3944   7
   2   1   2 614.918 67.1874   3
   2   1   3 4596.80 186.795  12
   2  -1   3 4360.18 179.417   5
   2   1   3 4128.07 178.756   5
   2  -1   3 4426.60 167.995   3
   2  -1   3 4519.47 189.755  12
   2   1   3 4390.27 176.789   3
   2  -1   4 836.255 93.7234   5
   2   1   4 795.818 92.8452   5
   2   1   4 1053.06 112.466  12
   2  -1   4 819.532 94.1951   3
   2   1   4 765.838 97.3166   3
   2  -1   5 2999.12 156.524   5
   2   1   5 2634.08 154.467   5
   2  -1   5 2897.61 169.808   3
   2   1   5 3359.86 180.523  12
   2   1   5 2891.20 170.278   3
   2  -1   6-6.66689 70.4746   3
   2   1   6-49.7351 66.1056   5
   2  -1   6 6.42122 56.5377   5
   2   1   6-32.6129 79.2709   3
   2  -1   7 335.820 94.9124   3
   2   1   7 381.047 95.2016   3
   2  -1   8 1312.64 154.054   3
   2   1   8 1165.62 143.467   3
   2   1   9 1129.19 157.493   3
   2  -1   9 1057.55 152.771   3
   2   1  10 1466.34 179.026   3
   2  -1  10 1687.68 188.569   3
   2  -1  11-8.91703 101.199   3
   2   1  11-36.5984 100.003   3
   2  -1  12-90.5890 116.708   3
   2   1  12 94.6732 111.557   3
  -2  -2  12-44.3254 109.354   9
  -2   2  12 24.9817 109.540   9
  -2   2  11-86.8263 97.1416   9
  -2  -2  11 228.727 124.504  10
  -2   2  11 307.512 127.601  10
  -2  -2  11-112.761 119.211   9
  -2  -2  10 28.7142 99.4912  10
  -2  -2  10 21.1372 93.6049   9
  -2   2  10 56.4175 92.9042   9
  -2  -2   9 68.0431 93.3418  10
  -2   2   9 178.631 101.510  10
  -2   2   9 143.782 99.1539   9
   2  -2  -8 800.469 120.969   5
  -2   2   8 742.809 127.238  10
  -2   2   8 805.061 131.347   9
  -2  -2   8 571.812 109.214  10
   2  -2  -7 506.453 100.690   5
  -2   2   7 543.576 107.306   9
  -2   2   7 534.281 106.194  10
   2   2  -6 59.7326 73.8212   6
  -2   2   6-97.7754 84.1110  10
   2   2  -6 162.962 72.1894   5
  -2   2   6 33.3651 68.1600   9
   2  -2  -6-45.3326 81.2670   5
   2   2  -5 744.604 96.4929   6
   2  -2  -5 745.028 99.9303   5
   2   2  -5 774.302 99.4060   5
  -2   2   5 745.241 99.8909   9
   2  -2  -4 2126.13 146.460   5
   2   2  -4 2117.18 133.487   5
  -2   2   4 2122.21 142.248   9
   2   2  -4 2086.80 123.529   6
  -2  -2   3 20384.6 388.457   4
  -2   2   3 19906.6 387.549   4
   2  -2  -3 20488.7 396.277   5
   2   2  -3 20172.7 380.864   5
  -2   2   3 20063.5 360.934   9
   2   2  -3 20678.6 322.809   6
  -2  -2   2 4435.32 185.544   4
  -2   2   2 4701.41 190.224   4
  -2  -2   2 4223.56 123.635   3
   2  -2  -2 4484.07 190.952   5
   2   2  -2 4719.68 188.817   5
  -2   2   2 4404.26 155.241   9
   2   2  -2 4758.17 191.070   7
   2   2  -2 4668.47 147.050   6
  -2  -2   1 5599.51 199.276   4
  -2   2   1 5923.80 200.000   4
   2  -2  -1 5371.34 207.922   5
   2   2  -1 5712.69 201.505   5
  -2   2   1 5751.49 154.726   9
   2  -2  -1 5691.27 200.633   8
   2   2  -1 5620.83 187.976   7
   2   2  -1 6104.09 158.945   6
  -2   2   0 5303.48 125.100   9
   2  -2   0 5273.36 201.660   5
   2   2   0 5053.16 199.641   5
   2  -2   0 5345.60 189.924   8
   2   2   0 5296.53 195.720   8
   2  -2   0 5401.31 202.683  12
   2   2   0 5246.75 170.704   7
   2  -2   1 649.273 85.0298   5
   2   2   1 676.258 85.8166   5
   2  -2   1 596.591 86.5700  12
   2  -2   1 679.695 57.1852   3
   2  -2   1 680.179 91.7704   8
   2   2   1 638.823 87.7944   8
   2   2   1 632.123 71.9557   7
   2  -2   2 14143.0 312.551   5
   2   2   2 13781.0 317.830   5
   2  -2   2 14396.7 323.562  12
   2   2   2 15050.1 310.933  12
   2  -2   2 14014.4 261.420   3
   2   2   3 6042.14 207.117   3
   2   2   3 6217.86 207.962  12
   2  -2   3 6299.50 211.453   5
   2   2   3 6059.80 219.484   5
   2  -2   3 6484.71 201.984   3
   2  -2   3 6305.18 228.057  12
   2  -2   4 1643.17 117.492   5
   2   2   4 1499.58 120.778   5
   2  -2   4 1635.39 119.902   3
   2  -2   4 1371.16 104.987  11
   2  -2   4 1764.47 150.800  12
   2   2   4 1445.01 124.616   3
   2   2   4 1775.65 129.292  12
   2  -2   5 4945.58 192.099   5
   2   2   5 5011.79 210.335   5
   2   2   5 5517.42 210.254  12
   2  -2   5 4962.38 216.288   3
   2   2   5 4703.83 221.282   3
   2  -2   6-35.5428 72.0438   3
   2   2   6-44.2721 68.5842   5
   2   2   6-19.2521 78.2059   3
   2   2   7 4107.25 203.011   5
   2  -2   7 3988.10 227.136   3
   2   2   7 3934.62 229.351   3
   2  -2   8 3943.70 241.092   3
   2   2   8 3604.55 234.460   3
   2  -2   9 671.461 128.666   3
   2   2   9 594.239 128.721   3
   2  -2  10 47.5408 101.452   3
   2   2  10 66.7293 96.6274   3
   2  -2  11 286.623 110.511   3
   2   2  11 359.407 124.375   3
   2  -2  12 41.5311 97.3399   3
   2   2  12-66.9072 108.103   3
  -2  -3  12 166.624 123.385   9
  -2   3  12 238.789 123.238   9
  -2  -3  11 181.360 118.048  10
  -2   3  11 39.9599 89.2100   9
  -2  -3  10 150.931 107.776  10
  -2   3  10 369.959 128.750  10
  -2   3  10 286.852 112.710   9
  -2  -3   9 608.400 126.222  10
  -2   3   9 605.879 128.878   9
  -2   3   9 879.113 142.807  10
   2  -3  -8 1244.08 140.014   5
  -2  -3   8 897.499 141.098  10
  -2   3   8 1377.54 150.170  10
  -2   3   8 1164.01 146.982   9
   2   3  -7 1084.31 132.057   6
   2  -3  -7 1148.38 129.787   5
  -2   3   7 974.469 133.134  10
  -2   3   7 1122.32 137.645   9
   2   3  -6 123.856 85.9006   6
  -2   3   6 74.8771 76.2740   9
   2  -3  -6 83.1983 84.8705   5
  -2   3   6-32.5649 78.9924  10
   2   3  -6 106.625 69.3110   5
   2  -3  -5 1916.13 148.324   5
   2   3  -5 1759.36 128.173   5
  -2   3   5 1786.06 139.645   9
   2   3  -5 2042.47 140.658   6
   2  -3  -4 1343.47 122.700   5
   2   3  -4 1429.83 114.157   5
  -2   3   4 1358.37 115.597   9
   2   3  -4 1555.56 113.300   6
  -2  -3   3 44.6045 35.7214   3
   2   3  -3 18.6415 58.3114   6
  -2  -3   3 32.8500 63.0632   4
  -2   3   3 63.0143 61.9041   4
   2  -3  -3 77.4321 68.9145   5
  -2   3   3-41.4779 54.6060   9
   2   3  -3 90.5001 60.8964   5
   2   3  -3 94.9792 79.2764   7
   2   3  -2 208.890 56.3623   6
  -2  -3   2 179.308 41.9619   3
  -2  -3   2 228.855 68.5473   4
  -2   3   2 225.703 71.3115   4
  -2   3   2 127.934 46.7357   9
   2  -3  -2 156.871 63.3380   5
   2   3  -2 199.333 60.5911   5
   2   3  -2 217.604 74.1067   7
   2   3  -1 249.329 56.6078   6
  -2  -3   1 290.005 73.1565   4
  -2   3   1 254.274 71.7091   4
   2  -3  -1 165.456 68.1744   5
  -2   3   1 206.842 46.7762   9
   2   3  -1 236.309 67.8656   5
   2  -3  -1 229.427 61.5553   8
   2   3  -1 253.838 64.7919   7
   2  -3   0-30.7545 76.8237  12
   2  -3   0 18.2687 58.9323   5
  -2   3   0 136.012 40.2906   9
   2   3   0 71.2726 56.6226   5
   2  -3   0 3.25099 55.8385   8
   2   3   0-23.2826 65.1775   8
   2   3   0 58.0017 52.5630   7
   2  -3   1 2282.22 137.974   5
   2   3   1 2310.09 138.438   5
   2  -3   1 2402.67 146.286  12
   2  -3   1 2427.67 96.4509   3
   2  -3   1 2618.99 143.173   8
   2   3   1 2341.22 139.396   8
   2  -3   2-22.4316 40.3371   3
   2  -3   2 71.3346 76.7184  12
   2  -3   2-9.75233 55.0069   5
   2   3   2-42.6211 62.6065   5
   2  -3   3 4628.93 181.362   5
   2   3   3 4614.22 198.309   5
   2  -3   3 5162.40 211.151  12
   2   3   3 4649.79 178.983  12
   2  -3   3 4675.46 173.342   3
   2  -3   3 4610.90 185.227  11
   2  -3   4 906.665 92.3458   5
   2   3   4 900.615 106.411   5
   2   3   4 1028.74 100.685  12
   2  -3   4 786.699 89.0581  11
   2  -3   4 868.802 93.9915   3
   2   3   4 940.580 107.078   3
   2  -3   5 84.3323 66.5484   3
   2  -3   5 70.3338 65.2896  11
   2  -3   5 82.7915 58.2856   5
   2   3   5 359.949 83.3706  12
   2   3   5 124.692 68.8921   5
   2   3   5 174.212 81.2119   3
   2   3   6 1019.12 116.951   5
   2  -3   6 936.471 118.651   3
   2   3   6 981.624 130.616   3
   2   3   7 894.211 114.954   5
   2  -3   7 746.748 119.652   3
   2   3   7 801.949 128.196   3
   2  -3   8 4312.29 249.897   3
   2   3   8 4233.22 253.809   3
   2  -3   9 160.256 96.0221   3
   2   3   9 229.742 114.857   3
   2  -3  10 34.1260 92.4798   3
   2   3  10 59.6577 94.1388   3
   2  -3  11 160.883 104.808   3
   2   3  11 127.658 115.695   3
   2   3  12 86.2046 120.663   3
   2  -3  12 145.897 121.072   3
  -2   4  12-68.0770 109.401   9
  -2  -4  12 125.710 127.503  10
  -2  -4  12-106.191 125.691   9
  -2  -4  11 265.985 130.596  10
  -2   4  11 74.9493 107.411   9
  -2  -4  10 59.9945 104.692  10
  -2   4  10 197.961 115.071   9
  -2  -4   9-120.078 100.065  10
  -2   4   9 214.722 104.317  10
  -2   4   9 49.6629 92.4883   9
  -2  -4   8 254.661 94.9841  10
   2  -4  -8 559.341 112.111   5
  -2   4   8 501.323 112.327  10
  -2   4   8 568.631 122.365   9
   2   4  -7-43.8011 81.9683   6
  -2   4   7 41.0624 84.5599   9
  -2   4   7 8.68355 79.3131  10
   2  -4  -7 59.0685 87.9273   5
   2   4  -6 136.805 90.2526   6
   2  -4  -6 30.1799 80.9786   5
  -2   4   6 123.539 78.4787  10
  -2   4   6 166.523 79.2968   9
   2   4  -5 405.542 91.3440   6
   2  -4  -5 401.822 100.820   5
  -2   4   5 333.639 79.6977  10
   2   4  -5 374.784 78.9763   5
  -2   4   5 443.730 91.2996   9
   2   4  -4 164.244 70.5839   6
  -2  -4   4 160.292 49.6589   3
  -2   4   4 129.628 67.4828   9
   2  -4  -4 53.0388 76.2172   5
   2   4  -4 218.593 67.3373   5
   2   4  -4 118.560 81.2495   7
  -2  -4   3 4683.90 193.846   4
  -2   4   3 4810.28 198.654   4
  -2   4   3 4741.88 189.537   9
   2  -4  -3 4844.86 207.498   5
   2   4  -3 4618.85 186.162   5
  -2  -4   3 4681.51 156.838   3
   2   4  -3 4727.70 204.142   7
   2   4  -3 5045.50 182.501   6
  -2  -4   2 584.349 85.1050   4
  -2   4   2 644.200 88.6177   4
   2  -4  -2 547.748 91.3023   5
  -2  -4   2 538.783 67.9672   3
   2   4  -2 647.281 82.9038   5
  -2   4   2 617.791 74.7075   9
   2   4  -2 607.121 93.8935   7
   2   4  -2 520.240 72.9924   6
   2   4  -1 309.277 65.6836   6
  -2  -4   1 523.767 85.4253   4
  -2   4   1 577.025 85.7592   4
   2  -4  -1 359.564 76.2660   5
  -2   4   1 484.686 63.5334   9
   2   4  -1 270.240 63.8712   5
   2  -4  -1 368.346 70.3532   8
   2   4  -1 352.468 73.5018   7
   2   4   0 373.429 73.5883   5
   2  -4   0 395.813 75.2971   5
   2  -4   0 250.883 72.5219  12
   2  -4   0 385.642 71.5083   8
   2   4   0 316.114 71.0447   8
   2  -4   1 1393.01 112.200   5
   2   4   1 1461.41 118.180   5
   2  -4   1 1752.47 128.823  12
   2  -4   1 1521.01 79.7788   3
   2  -4   1 1610.57 118.815   8
   2   4   1 1439.71 116.284   8
   2  -4   2 2593.31 143.483   5
   2  -4   2 2802.82 164.464  12
   2   4   2 2686.77 155.170   5
   2  -4   2 2675.68 119.144   3
   2  -4   2 2391.26 143.260  11
   2   4   2 2605.36 153.180   8
   2  -4   3 9107.90 253.568   5
   2   4   3 9229.71 279.544   5
   2  -4   3 9425.07 290.620  12
   2   4   3 9403.06 241.942  12
   2  -4   3 9342.26 244.075   3
   2  -4   3 8955.97 260.918  11
   2  -4   4 6237.75 219.592  11
   2  -4   4 6417.29 215.009   5
   2   4   4 6107.20 235.092   5
   2   4   4 6622.12 208.521  12
   2  -4   4 6278.39 221.918   3
   2  -4   5 145.470 71.6380   3
   2   4   5 185.319 79.5419   3
   2  -4   5 267.500 86.6977  11
   2  -4   5 105.336 57.8494   5
   2   4   5 201.724 78.9092  12
   2   4   5 117.015 76.7675   5
   2  -4   6 319.261 88.5840   3
   2   4   6 344.447 95.1967   5
   2   4   6 254.411 89.9350   3
   2   4   7 1021.88 125.831   5
   2  -4   7 744.706 116.128   3
   2   4   7 743.685 122.923   3
   2  -4   8 678.265 117.360   3
   2   4   8 680.397 128.112   3
   2  -4   9 58.9470 85.3158   3
   2   4   9 25.2852 82.8797   3
   2   4  10 156.819 102.148   3
   2  -4  10 74.2716 101.085   3
   2   4  11 154.889 120.322   3
   2  -4  11 66.4814 105.646   3
   2  -4  12 159.323 114.442   3
   2   4  12 118.881 109.566   3
  -2  -5  12 733.721 172.726  10
  -2   5  12 246.763 138.197   9
  -2   5  11-48.4424 118.838   9
  -2  -5  11 40.6170 113.719  10
  -2  -5  10 57.6048 99.7059  10
  -2   5  10-71.7868 113.195   9
  -2   5   9 211.520 103.012  10
  -2  -5   9-50.3982 99.1371  10
  -2   5   9-134.018 112.100   9
   2   5  -8 368.223 108.051   6
  -2  -5   8 255.379 96.8805  10
   2  -5  -8 531.234 115.515   5
  -2   5   8 521.079 111.820  10
  -2   5   8 333.916 98.2528   9
   2   5  -7 104.456 95.2524   6
  -2   5   7 128.758 88.4361  10
  -2   5   7-103.914 99.1142   9
   2  -5  -7 163.666 94.0774   5
   2  -5  -6 775.912 119.304   5
  -2   5   6 711.273 104.843  10
  -2   5   6 778.727 107.288   9
   2   5  -6 768.114 117.566   6
   2   5  -5-36.4296 74.0272   6
  -2  -5   5 2.62223 50.3305   3
   2  -5  -5-14.9419 80.3280   5
  -2   5   5 22.0923 62.8642  10
  -2   5   5-209.701 95.1171   9
   2   5  -5-21.4790 56.9675   5
   2   5  -5 20.7779 81.0512   7
  -2  -5   4 729.968 95.8665   4
   2  -5  -4 676.340 107.189   5
   2   5  -4 787.698 92.6381   5
  -2  -5   4 715.120 84.8849   3
  -2   5   4 671.950 85.1905  10
  -2   5   4 689.546 97.1648   9
   2   5  -4 748.693 112.374   7
   2   5  -4 767.950 98.7839   6
  -2  -5   3 3282.58 166.099   4
  -2   5   3 3104.11 164.395   4
   2  -5  -3 3067.05 172.174   5
   2   5  -3 3168.39 160.796   5
  -2  -5   3 3095.89 138.037   3
  -2   5   3 3236.48 163.106   9
   2   5  -3 3205.41 177.874   7
   2   5  -3 3268.71 159.114   6
   2   5  -2 64.1888 59.0651   6
  -2  -5   2 66.9276 63.4275   4
  -2   5   2 38.9280 64.2675   4
   2  -5  -2 137.838 73.0861   5
  -2   5   2 114.916 56.2625   9
   2   5  -2 35.0801 55.0153   5
   2   5  -2 20.8866 68.5265   7
  -2  -5   2 97.2366 49.7504   3
  -2   5   1 6343.83 207.653   4
   2  -5  -1 6021.93 225.502   5
   2   5  -1 6054.81 213.835   5
  -2   5   1 6406.16 188.037   9
   2  -5  -1 6338.98 201.582   8
   2   5  -1 6167.62 214.785   7
   2   5  -1 6380.79 205.869   6
   2  -5   0 90.9267 69.1485  12
   2  -5   0 192.617 68.3134   5
   2  -5   0 223.929 63.4246   8
   2   5   0 112.443 63.3056   8
   2   5   0 84.6844 61.3513   5
   2  -5   1 4707.14 191.213   5
   2   5   1 4520.10 196.328   5
   2  -5   1 4971.68 201.950  12
   2  -5   1 4865.96 139.199   3
   2  -5   1 5049.49 188.392   8
   2  -5   1 4730.73 200.585  11
   2   5   1 4778.23 191.559   8
   2  -5   2 2463.57 140.133   5
   2   5   2 2543.54 156.561   5
   2  -5   2 2700.41 162.758  12
   2   5   2 2519.26 152.579   8
   2  -5   2 2350.09 149.046  11
   2  -5   2 2530.72 118.656   3
   2  -5   3 125.415 58.3310   5
   2  -5   3 99.1974 65.8938  11
   2  -5   3 121.301 52.5121   3
   2   5   3 197.455 75.3371   5
   2   5   4 54.4695 64.6183  12
   2  -5   4 194.332 82.2634  11
   2  -5   4 66.4555 57.1143   5
   2   5   4 289.563 92.8349   5
   2  -5   4 112.976 59.9026   3
   2   5   5 1069.66 123.416   5
   2  -5   5 909.112 110.631   3
   2  -5   5 1071.35 119.365  11
   2   5   6 6870.08 269.923   5
   2  -5   6 7292.36 258.460  11
   2  -5   6 6660.30 270.453   3
   2   5   6 6384.22 282.256   3
   2   5   7 5221.97 242.815   5
   2  -5   7 4836.89 248.484   3
   2   5   7 4752.80 259.709   3
   2   5   8 1747.67 158.168   5
   2  -5   8 1667.73 168.166   3
   2   5   8 1394.56 162.185   3
   2  -5   9-46.7760 93.2779   3
   2   5   9 119.021 102.233   3
   2  -5  10 977.048 156.396   3
   2   5  10 996.248 158.612   3
   2   5  11 116.949 97.7213   3
   2  -5  11 30.7346 104.247   3
   2   5  12 222.072 125.008   3
   2  -5  12 165.077 122.454   3
  -2  -6  12 227.354 139.452  10
  -2   6  12-24.6296 118.297   9
  -2   6  11-45.3798 112.362   9
  -2  -6  11 43.6713 108.545  10
  -2  -6  10 154.034 111.433  10
  -2   6  10 79.6031 101.298   9
   2   6  -9 346.154 121.217   6
  -2  -6   9 138.481 94.0383  10
  -2   6   9 45.1294 99.7292   9
   2  -6  -9 277.290 112.878   5
   2   6  -8 616.811 132.128   6
   2  -6  -8 550.861 119.085   5
  -2   6   8 585.683 124.314  10
  -2   6   8 296.248 110.415   9
   2   6  -7 1351.98 154.760   6
   2  -6  -7 1425.62 156.110   5
  -2   6   7 1559.55 151.423  10
  -2   6   7 1188.01 139.771   9
   2  -6  -6 2293.54 178.269   5
  -2   6   6 2046.26 155.596  10
  -2   6   6 2000.52 167.605   9
   2   6  -6 1952.43 164.357   6
   2   6  -5-45.9929 84.3233   6
  -2  -6   5 75.3448 57.9370   3
   2  -6  -5 22.0320 82.9569   5
  -2   6   5-8.71575 62.3342  10
   2   6  -5-3.49400 57.0535   5
  -2   6   5-56.4466 77.7675   9
   2   6  -5 83.4222 82.3185   7
  -2  -6   4 3699.29 182.822   4
  -2   6   4 3618.83 181.784   4
   2  -6  -4 3622.25 203.417   5
   2   6  -4 3592.79 168.312   5
  -2  -6   4 3818.29 168.278   3
  -2   6   4 3688.79 167.153  10
  -2   6   4 3557.62 192.124   9
   2   6  -4 3736.58 200.640   7
   2   6  -4 3735.84 185.274   6
  -2  -6   3 897.900 102.343   4
  -2   6   3 1025.28 108.301   4
   2  -6  -3 840.890 113.496   5
   2   6  -3 919.154 98.1317   5
  -2  -6   3 822.115 87.6514   3
  -2   6   3 915.182 102.362   9
   2   6  -3 896.255 111.179   7
   2   6  -3 866.761 102.789   6
  -2  -6   2 1210.14 103.915   4
  -2   6   2 1112.40 107.866   4
   2  -6  -2 1163.76 114.258   5
  -2  -6   2 988.551 97.7419   3
   2   6  -2 1064.67 103.851   5
  -2   6   2 1125.65 104.199   9
   2   6  -2 1267.42 124.605   7
   2   6  -2 1158.10 106.904   6
   2  -6  -1 2419.10 158.247   5
   2   6  -1 2384.16 144.362   5
   2  -6  -1 2363.21 147.020  12
   2   6  -1 2795.93 147.499   6
   2  -6   0 1648.85 125.516   5
   2   6   0 1302.71 114.972   5
   2  -6   0 1436.90 123.233  12
   2  -6   0 1442.15 104.540   8
   2   6   0 1405.53 115.666   8
   2  -6   1 3221.80 164.605   5
   2   6   1 2891.67 166.024   5
   2  -6   1 3433.52 173.892  12
   2  -6   1 2985.69 172.936  11
   2  -6   1 3161.88 119.820   3
   2  -6   1 3288.19 157.186   8
   2   6   1 3245.23 162.037   8
   2  -6   2 1309.83 111.196   5
   2   6   2 1272.48 123.363   5
   2  -6   2 1135.18 112.125  11
   2  -6   2 1500.85 135.172  12
   2  -6   2 1329.47 92.9475   3
   2   6   2 1326.59 117.558   8
   2  -6   3 276.930 86.1076  11
   2  -6   3 247.220 68.3179   5
   2  -6   3 272.878 63.5164   3
   2   6   3 371.848 93.7814   5
   2  -6   4 1399.36 109.382   5
   2   6   4 1532.01 143.153   5
   2  -6   4 1438.28 132.307  11
   2  -6   4 1465.04 120.886   3
   2   6   5 576.536 110.251   5
   2  -6   5 447.994 91.7852   3
   2   6   6 7386.16 288.652   5
   2  -6   6 7753.84 283.521  11
   2  -6   6 7183.99 283.403   3
   2   6   6 7049.84 298.551   3
   2  -6   7 266.313 92.0173   3
   2   6   7 311.254 106.605   5
   2   6   7 326.009 103.215   3
   2   6   8 603.772 112.367   5
   2   6   8 446.596 118.453   3
   2  -6   8 431.991 109.854   3
   2  -6   9 1403.30 173.234   3
   2   6   9 1322.85 169.233   3
   2   6  10 64.6535 104.896   3
   2  -6  10 7.21575 90.1042   3
   2   6  11 21.7185 92.1191   3
   2  -6  11 59.6066 101.566   3
   2  -6  12 111.736 121.365   3
  -2  -7  12 138.928 129.595  10
  -2   7  12 3.84416 115.311   9
  -2  -7  11 122.173 117.216  10
  -2   7  11-48.3711 116.815   9
  -2   7  10-40.7089 107.046   9
  -2  -7  10-73.9580 108.950  10
   2   7  -9 437.455 130.720   6
  -2  -7   9 328.998 111.450  10
  -2   7   9 336.867 119.285   9
   2  -7  -9 724.160 137.012   5
   2   7  -8 23.9617 92.7264   6
   2  -7  -8 105.586 99.1565   5
  -2   7   8 23.9440 85.9731   9
   2   7  -7-27.6369 88.1538   6
   2  -7  -7 56.4470 95.0638   5
  -2   7   7 211.163 94.2395  10
  -2   7   7-50.2868 90.4269   9
   2  -7  -6 1587.02 162.477   5
  -2  -7   6 1571.62 132.307   3
  -2   7   6 1786.15 149.678  10
  -2   7   6 1429.52 150.758   9
   2   7  -6 1436.90 157.427   7
   2   7  -6 1592.80 155.434   6
   2   7  -5 66.3657 81.8890   6
  -2  -7   5 41.6659 56.4667   3
   2  -7  -5 38.4871 89.4105   5
   2   7  -5 35.2109 60.4081   5
  -2   7   5 20.6961 74.2908   9
  -2   7   5 64.2257 70.3292  10
   2   7  -5-18.7693 86.9108   7
  -2   7   4 666.863 95.8266   4
  -2  -7   4 581.771 89.7899   4
   2   7  -4 690.971 91.2484   5
  -2  -7   4 637.171 87.1922   3
   2  -7  -4 647.339 113.799   5
  -2   7   4 689.530 85.7854  10
  -2   7   4 670.396 106.694   9
   2   7  -4 704.555 115.249   7
   2   7  -4 742.076 112.168   6
  -2   7   3 1544.20 105.212  10
  -2  -7   3 1586.36 120.457   4
  -2   7   3 1672.90 126.783   4
   2  -7  -3 1633.15 145.152   5
   2   7  -3 1687.06 126.804   5
  -2  -7   3 1514.89 118.555   3
  -2   7   3 1879.20 141.922   9
   2   7  -3 1659.18 143.923   7
   2   7  -3 1588.41 134.325   6
  -2  -7   2 5323.29 197.888   4
  -2   7   2 5419.40 199.448   4
   2  -7  -2 5284.93 225.842   5
  -2  -7   2 5350.64 197.622   3
   2   7  -2 4992.95 198.903   5
   2   7  -2 5142.32 222.543   7
   2   7  -2 5021.81 205.142   6
   2  -7  -1 18310.5 398.759   5
  -2  -7   1 18287.7 365.818   3
   2   7  -1 18197.0 379.386   5
   2  -7  -1 18339.6 387.585  12
   2   7  -1 18445.7 375.269   6
   2  -7   0 1250.92 116.632   5
   2   7   0 1240.56 117.559   5
   2  -7   0 1169.74 114.246  12
   2  -7   0 972.774 109.904  11
   2  -7   0 1208.32 97.9969   8
   2  -7   1 3647.99 177.204   5
   2   7   1 3801.41 189.116   5
   2  -7   1 3406.06 179.904  12
   2  -7   1 3298.39 179.870  11
   2  -7   1 3602.64 161.439   8
   2   7   1 3520.87 171.580   8
   2  -7   2 6726.66 249.948  11
   2  -7   2 6779.70 200.759   3
   2  -7   2 6723.23 231.076   5
   2   7   2 6571.17 251.294   5
   2  -7   2 6889.06 252.234  12
   2   7   2 6526.36 229.193   8
   2  -7   3 1117.30 109.763   5
   2   7   3 1094.49 126.900   5
   2  -7   3 1129.73 123.080  11
   2  -7   3 1051.81 98.1469   3
   2   7   3 1127.39 125.564   8
   2  -7   4 321.550 99.8831  11
   2  -7   4 146.109 64.2525   5
   2  -7   4 135.907 66.2206   3
   2   7   4 194.643 93.6511   5
   2  -7   5 239.273 79.5064   3
   2   7   5 401.940 109.478   5
   2   7   6 8036.38 301.439   5
   2  -7   6 8057.26 307.404   3
   2   7   7 2780.98 213.056   3
   2   7   7 3064.11 199.559   5
   2  -7   7 3040.67 209.476   3
   2   7   8 2047.52 177.128   5
   2  -7   8 2222.04 193.462   3
   2   7   8 2176.42 200.498   3
   2   7   9 114.364 102.232   3
   2  -7   9 195.999 95.3229   3
   2   7  10 33.9379 102.330   3
   2  -7  10 65.6431 100.328   3
   2   7  11 55.7387 106.326   3
   2  -7  11-43.1683 99.5102   3
  -2  -8  12 86.9684 130.591  10
  -2  -8  11 63.1619 115.965  10
  -2   8  11-41.1857 112.553   9
   2   8 -10 356.951 137.338   6
  -2  -8  10 49.5012 106.088  10
  -2   8  10 79.0033 107.640   9
   2   8  -9 59.6006 111.588   6
  -2  -8   9-36.9670 109.370  10
  -2   8   9 46.1624 102.124   9
   2  -8  -9 115.184 108.788   5
   2   8  -8-27.0934 95.1864   6
   2  -8  -8 168.621 109.128   5
  -2   8   8 60.4759 95.1928   9
   2   8  -7 101.609 102.416   6
   2  -8  -7 67.7044 98.6042   5
  -2   8   7 236.341 105.866   9
   2   8  -6 305.087 107.226   6
  -2  -8   6 405.586 87.6839   3
  -2   8   6 492.398 110.564  10
   2  -8  -6 530.124 123.580   5
  -2   8   6 423.114 108.574   9
   2   8  -6 406.920 120.583   7
   2  -8  -5 1759.64 166.512   5
  -2   8   5 1998.95 169.649   9
  -2  -8   5 1722.71 142.176   3
   2   8  -5 1967.12 177.032   7
   2   8  -5 1706.31 157.730   6
   2   8  -4-8.90077 82.7641   6
  -2  -8   4 19.2667 57.9107   3
  -2  -8   4 30.1512 72.7975   4
  -2   8   4-71.4251 71.9375   4
   2  -8  -4 148.961 93.8819   5
  -2   8   4 125.866 89.0579   9
   2   8  -4 56.0365 67.2321   5
   2   8  -4-32.8399 96.2132   7
  -2  -8   3 360.149 74.2707   3
   2   8  -3 250.211 88.9140   6
  -2  -8   3 294.271 78.4753   4
  -2   8   3 343.884 79.2339   4
   2  -8  -3 378.761 104.772   5
  -2   8   3 516.313 97.7329   9
   2   8  -3 240.343 73.0277   5
   2   8  -3 289.666 97.7437   7
  -2  -8   2 2310.54 137.214   4
  -2   8   2 2143.47 134.799   4
   2  -8  -2 2118.13 162.435   5
  -2  -8   2 2285.35 140.358   3
   2   8  -2 2012.09 139.365   5
   2   8  -2 2058.01 146.822   6
   2  -8  -1 1517.26 137.764   5
  -2  -8   1 1623.97 127.008   3
   2   8  -1 1501.93 126.712   5
   2  -8  -1 1408.64 121.906  12
   2   8  -1 1664.88 136.963   6
   2  -8   0 1409.78 124.328   5
   2   8   0 1448.25 130.639   5
   2  -8   0 1384.97 125.759  12
   2  -8   0 1076.40 119.023  11
   2  -8   0 1286.68 101.194   8
   2  -8   1 1137.37 114.433   5
   2   8   1 1220.12 127.939   5
   2  -8   1 1324.84 130.362  12
   2  -8   1 1126.56 123.773  11
   2   8   1 1111.68 109.451   8
   2  -8   1 1260.50 108.386   8
   2  -8   2 4719.48 199.081   5
   2   8   2 4816.96 221.196   5
   2  -8   2 5312.64 228.533  12
   2  -8   2 4828.90 228.989  11
   2  -8   2 4822.85 179.214   3
   2   8   2 4943.51 202.077   8
   2  -8   3 7100.31 233.685   5
   2   8   3 6724.04 266.689   5
   2  -8   3 7068.60 268.484  11
   2  -8   3 6953.55 231.098   3
   2   8   3 7162.48 247.420   8
   2   8   4 4258.57 220.635   5
   2  -8   4 4447.33 201.903   3
   2  -8   4 4799.67 229.499  11
   2  -8   5 322.626 86.6975   3
   2   8   5 116.079 100.585   5
   2  -8   6 18.6620 72.5370   3
   2   8   6-65.7795 102.454   5
   2  -8   7 957.613 131.685   3
   2   8   7 918.625 130.145   5
   2   8   7 1011.74 144.654   3
   2   8   8-15.0992 88.7763   3
   2  -8   8 128.140 92.6448   3
   2   8   8-147.670 109.283   5
   2  -8   9 514.866 125.347   3
   2   8   9 500.619 136.041   3
   2   8  10 79.1355 113.843   3
   2  -8  10 29.4692 93.5977   3
   2   8  11 228.548 120.941   3
   2  -8  11 31.7090 103.180   3
  -2  -9  11-62.7632 118.851  10
  -2   9  11-15.7608 115.955   9
   2   9 -10 132.970 119.106   6
  -2   9  10 304.835 131.910   9
  -2  -9  10 89.5284 104.574  10
   2   9  -9 147.698 115.645   6
   2  -9  -9 387.538 137.442   5
  -2  -9   9 67.7336 100.473  10
  -2   9   9 270.264 114.451   9
   2   9  -8 97.8658 108.878   6
   2  -9  -8 204.589 115.257   5
  -2   9   8 10.4992 97.0696   9
   2   9  -7-12.1462 94.1191   6
  -2  -9   7-0.02366 66.6186   3
   2  -9  -7 29.9286 97.3849   5
  -2   9   7 13.6079 86.4501   9
   2   9  -7-75.5545 94.7027   7
   2   9  -6-1.04321 89.7270   6
  -2  -9   6 44.8951 71.9623   3
   2  -9  -6 105.318 99.9055   5
  -2   9   6 104.477 98.8607   9
   2   9  -6-32.6294 92.5548   7
   2   9  -5 215.288 103.378   6
  -2  -9   5 176.265 73.0310   3
  -2  -9   5 58.9824 70.5479   4
   2  -9  -5 340.718 114.609   5
  -2   9   5 195.023 100.009   9
   2   9  -5 144.328 99.0714   7
  -2  -9   4 4563.80 196.264   4
  -2   9   4 4298.63 199.199   4
   2  -9  -4 4428.10 238.675   5
   2   9  -4 4373.17 193.973   5
  -2  -9   4 4627.66 213.143   3
  -2   9   4 4735.26 235.101   9
   2   9  -4 4339.16 234.795   7
   2   9  -4 4345.22 227.358   6
   2   9  -3 327.691 99.9832   6
  -2  -9   3 415.257 85.7007   4
  -2   9   3 424.345 85.8021   4
  -2  -9   3 483.606 87.3295   3
   2  -9  -3 484.772 110.323   5
   2   9  -3 349.213 79.7874   5
   2   9  -3 407.375 102.213   7
  -2  -9   2 2186.89 135.489   4
  -2   9   2 2101.54 133.595   4
   2  -9  -2 1942.06 160.060   5
  -2  -9   2 2041.13 142.500   3
   2   9  -2 1857.86 137.820   5
   2   9  -2 2081.31 153.757   6
   2  -9  -1 4174.14 212.530   5
  -2  -9   1 4415.89 206.432   3
   2   9  -1 4390.25 203.579   5
   2  -9  -1 4368.96 201.400  12
   2   9  -1 4450.60 212.200   6
   2  -9   0 914.617 115.560   5
   2   9   0 1026.61 118.612   5
   2  -9   0 942.151 112.782  12
   2  -9   0 660.916 102.730  11
   2  -9   0 845.647 88.4913   8
   2  -9   1 3543.63 185.383   5
   2   9   1 3671.37 196.604   5
   2  -9   1 3631.98 206.674  11
   2  -9   1 3700.33 197.339  12
   2  -9   1 3956.78 166.907   8
   2   9   1 3780.73 179.418   8
   2  -9   2 296.029 119.740  12
   2  -9   2 257.265 103.631  11
   2  -9   2 134.732 67.4878   5
   2  -9   2 177.707 62.7062   3
   2   9   2 118.535 68.8811   8
   2   9   2 226.577 94.2524   5
   2  -9   3 1442.03 121.614   5
   2   9   3 1317.19 138.931   5
   2  -9   3 1508.12 120.329   3
   2   9   3 1518.35 132.685   8
   2  -9   3 1774.86 166.995  11
   2  -9   4 768.764 102.208   3
   2   9   4 614.066 117.873   5
   2  -9   5 6883.77 274.101   3
   2   9   5 6565.92 287.190   5
   2   9   6 3836.60 225.965   5
   2  -9   6 3594.42 217.910   3
   2  -9   7 54.1949 77.9894   3
   2   9   7 62.7474 96.9608   5
   2   9   8 1053.22 143.226   5
   2  -9   8 1355.14 157.011   3
   2   9   8 1440.18 176.447   3
   2  -9   9 856.352 146.029   3
   2   9   9 951.658 160.632   3
   2   9   9 801.747 138.201   5
   2  -9  10 222.586 111.197   3
   2   9  10 200.394 120.416   3
   2   9  11 97.6917 115.298   3
   2  -9  11-87.7695 110.496   3
  -2 -10  11-35.2354 113.602  10
  -2  10  11 38.2573 125.358   9
   2  10 -10 125.095 124.773   6
  -2 -10  10 172.242 114.015  10
  -2  10  10 185.967 126.533   9
   2  10  -9 148.294 123.940   6
  -2 -10   9 67.1668 102.859  10
  -2  10   9 253.516 117.976   9
   2  10  -8 389.149 131.028   6
   2 -10  -8 336.260 118.941   5
  -2  10   8 325.927 121.540   9
   2  10  -7 54.8557 98.1873   6
  -2 -10   7 60.7280 72.6673   3
  -2  10   7 162.693 101.884   9
   2 -10  -7 86.4344 104.626   5
   2  10  -7 102.610 97.5820   7
   2 -10  -6 1083.48 157.134   5
  -2 -10   6 1004.07 124.933   3
  -2  10   6 1229.11 153.624   9
   2  10  -6 1006.65 145.844   7
   2  10  -6 1007.50 145.231   6
  -2 -10   5 992.695 114.160   4
  -2  10   5 876.433 108.059   4
   2 -10  -5 1258.43 155.957   5
  -2 -10   5 1075.35 123.136   3
  -2  10   5 1234.45 152.544   9
   2  10  -5 996.441 143.696   7
   2  10  -5 997.774 138.006   6
   2 -10  -4 581.360 131.050   5
   2  10  -4 431.570 112.456   6
  -2 -10   4 344.708 88.2461   3
  -2 -10   4 391.420 83.5813   4
  -2  10   4 291.319 77.2171   4
   2  10  -4 447.544 89.9595   5
   2  10  -4 454.426 120.508   7
  -2 -10   3 986.556 105.076   4
  -2  10   3 991.284 107.117   4
   2 -10  -3 977.730 138.244   5
  -2 -10   3 838.116 112.029   3
   2  10  -3 869.407 105.761   5
   2  10  -3 856.942 120.028   6
   2  10  -2 204.370 88.2768   6
  -2  10   2 256.874 81.2515   4
   2 -10  -2 189.071 98.0786   5
   2  10  -2 172.466 78.1360   5
  -2 -10   2 213.864 77.3565   3
   2 -10  -1 3972.00 212.564   5
  -2 -10   1 3887.92 206.276   3
   2  10  -1 4017.65 200.574   5
   2 -10  -1 4268.97 201.868  12
   2 -10  -1 3951.21 213.056  11
   2  10  -1 4381.02 214.341   6
   2 -10   0 96.1254 80.2372  12
   2 -10   0-113.151 102.411  11
   2 -10   0-40.3334 74.6722   5
   2  10   0 85.3636 80.8141   5
   2 -10   1 2529.89 185.079  11
   2 -10   1 2514.76 164.700   5
   2  10   1 2617.62 175.966   5
   2 -10   1 2713.92 173.606  12
   2 -10   2 161.397 98.9620  11
   2 -10   2-5.32812 73.0171   5
   2 -10   2 286.496 109.961  12
   2  10   2-8.20282 75.5798   8
   2  10   2-133.865 105.119   5
   2 -10   3 5929.26 228.060   5
   2  10   3 5846.09 261.170   5
   2 -10   3 6149.35 230.751   3
   2 -10   3 6541.26 279.604  11
   2  10   3 6133.11 232.872   8
   2 -10   4 10982.5 326.473   3
   2  10   4 10747.2 359.882   5
   2 -10   4 11313.6 365.102  11
   2  10   4 10775.4 317.590   8
   2 -10   5 2295.93 169.733   3
   2  10   5 2068.71 177.716   5
   2 -10   6 138.103 83.2751   3
   2  10   6-40.7949 106.188   5
   2  10   7 1414.28 167.652   5
   2 -10   7 1577.12 160.725   3
   2  10   8 12.1121 93.4951   3
   2 -10   8-8.29851 81.9292   3
   2  10   8-104.093 109.987   5
   2  10   9 127.974 101.717   3
   2 -10   9 70.5967 97.5051   3
   2  10   9-27.7396 103.955   5
   2 -10  10 47.4397 98.7710   3
   2  10  10 75.9177 105.384   3
   2 -10  11 429.679 138.421   3
   2  11 -11 212.129 134.551   6
  -2 -11  11 147.340 123.502  10
  -2  11  11 258.164 147.279   9
   2  11 -10 1017.12 184.421   6
  -2 -11  10 871.702 165.420  10
  -2  11  10 1397.68 207.197   9
   2  11  -9 444.710 141.160   6
  -2 -11   9 482.172 128.280  10
  -2  11   9 523.058 143.263   9
   2  11  -8-52.4583 104.237   6
   2 -11  -8 51.4662 111.772   5
  -2 -11   8-32.4154 72.1069   3
  -2  11   8 156.350 113.425   9
   2  11  -8-62.4921 109.962   7
   2  11  -7 565.792 131.223   6
   2 -11  -7 764.738 150.761   5
  -2 -11   7 636.100 113.921   3
  -2  11   7 750.855 147.527   9
   2  11  -7 397.348 118.862   7
   2  11  -6 503.248 126.374   6
  -2 -11   6 405.406 96.5190   3
   2 -11  -6 500.578 129.845   5
  -2  11   6 652.909 134.391   9
   2  11  -6 512.266 126.774   7
   2  11  -5 406.798 110.414   6
  -2 -11   5 254.845 90.6179   3
   2 -11  -5 486.875 119.811   5
   2  11  -5 414.543 120.457   7
   2  11  -4 369.544 110.962   6
  -2 -11   4 256.029 84.8772   3
   2 -11  -4 323.612 116.350   5
   2  11  -4 348.844 120.029   7
   2  11  -3 637.242 120.957   6
   2 -11  -3 780.158 135.479   5
  -2 -11   3 632.125 104.324   3
   2  11  -3 594.028 96.8632   5
   2  11  -2 222.538 95.1641   6
   2 -11  -2 421.204 116.202   5
   2  11  -2 218.954 83.0789   5
  -2 -11   2 230.180 83.0030   3
   2  11  -1 572.081 117.900   6
   2 -11  -1 724.055 116.808   5
  -2 -11   1 603.951 105.237   3
   2 -11  -1 576.033 99.6990  12
   2 -11  -1 377.052 94.8683  11
   2  11  -1 615.029 103.500   5
   2 -11   0-7.14889 77.1630  12
   2 -11   0 6.06108 81.5749   5
   2 -11   0-56.5873 95.6487  11
   2  11   0 185.552 93.6633   5
   2 -11   1 207.865 104.699  12
   2 -11   1 173.025 82.3854   5
   2 -11   1 125.044 96.6783  11
   2  11   1 330.692 100.502   5
   2  11   2 1397.82 142.927   5
   2 -11   2 1511.09 135.479   5
   2 -11   2 1807.64 168.426  11
   2  11   2 1540.08 126.478   8
   2 -11   3 1412.51 125.153   3
   2 -11   3 1604.69 169.854  11
   2  11   3 1296.46 152.924   5
   2 -11   4 2372.17 165.423   3
   2  11   4 2176.04 184.738   5
   2 -11   5 512.485 99.5146   3
   2  11   5 376.408 113.787   5
   2 -11   6 152.996 89.9085   3
   2  11   6-78.7069 107.087   5
   2 -11   7 134.855 89.0262   3
   2  11   7-58.6418 109.291   5
   2 -11   8 417.920 112.258   3
   2  11   8 263.447 113.261   5
   2  11   9 7.86338 103.047   3
   2 -11   9-16.0338 92.9349   3
   2  11   9-117.320 115.077   5
   2 -11  10 59.8112 97.4859   3
   2  11  10 149.346 121.932   3
   2 -11  11 38.5968 104.480   3
   2  12 -11 178.905 143.106   6
  -2 -12  11 132.679 118.942  10
   2  12 -10 147.072 140.492   6
  -2 -12  10-6.08226 105.912  10
  -2  12  10 199.239 134.502   9
   2  12  -9 70.1957 125.554   6
  -2  12   9 279.098 133.076   9
   2  12  -8 190.617 115.438   6
  -2 -12   8 153.550 90.4293   3
  -2  12   8 471.462 139.025   9
   2  12  -8 115.151 101.758   7
   2  12  -7 99.6443 110.232   6
   2 -12  -7 215.218 123.990   5
  -2 -12   7 28.8326 78.2603   3
   2  12  -7-89.0528 114.017   7
   2  12  -6 77.5863 97.0694   6
  -2 -12   6 25.0936 71.5352   3
   2 -12  -6 278.266 118.820   5
   2  12  -6 92.2389 108.114   7
   2  12  -5-35.1900 86.6443   6
  -2 -12   5 123.334 80.1036   3
   2 -12  -5 52.9675 106.183   5
   2  12  -5 125.152 100.948   7
   2  12  -4 99.1064 98.4548   6
  -2 -12   4 150.645 82.2442   3
   2 -12  -4 93.9633 96.8510   5
   2  12  -4 136.197 96.5257   7
  -2 -12   3 175.917 81.7965   3
   2  12  -3 188.726 97.9023   6
   2 -12  -3 146.616 107.878   5
   2  12  -3 234.656 82.7264   5
   2  12  -2 426.306 106.137   6
   2 -12  -2 571.637 127.995   5
   2  12  -2 438.747 99.1037   5
  -2 -12   2 435.491 105.462   3
   2  12  -1 95.6104 99.0220   6
   2 -12  -1-59.9765 90.1686  12
   2 -12  -1 116.503 98.0581   5
   2 -12  -1-130.130 108.530  11
   2  12  -1 212.214 95.9799   5
  -2 -12   1 52.2495 73.8260   3
   2 -12   0 3085.99 194.409   5
   2  12   0 3007.69 192.031   5
   2 -12   0 2945.45 185.495  12
   2 -12   0 2532.55 196.157  11
   2  12   0 3209.01 206.622   6
   2 -12   1 1461.25 144.252   5
   2  12   1 1256.51 140.800   5
   2 -12   1 1661.02 154.887  12
   2 -12   1 1468.57 157.549  11
   2 -12   2 596.557 122.092  12
   2 -12   2 446.203 129.716  11
   2 -12   2 338.242 92.5174   5
   2  12   2 214.219 93.5737   5
   2 -12   3 484.183 133.149  11
   2  12   3-66.7643 112.275   5
   2 -12   4 870.038 117.310   3
   2  12   4 719.707 131.545   5
   2  12   5 1425.47 161.310   5
   2 -12   5 1953.01 194.684  11
   2 -12   5 1541.80 153.692   3
   2 -12   6 1410.13 151.995   3
   2  12   6 1134.84 161.708   5
   2 -12   7 748.097 133.160   3
   2  12   7 647.101 138.154   5
   2 -12   8 168.555 102.173   3
   2  12   8 157.997 108.877   5
   2  12   9 219.622 112.007   3
   2 -12   9 130.738 100.287   3
   2  12   9-55.1339 110.177   5
   2 -12  10 152.982 110.693   3
   2  12  10 121.966 111.236   5
   2  12  10 384.014 136.996   3
  -2 -13  11-10.0297 115.278  10
   2  13 -10 224.242 145.199   6
  -2 -13  10 143.186 115.971  10
  -2  13  10 587.635 163.457   9
   2  13  -9 63.6222 127.031   6
  -2 -13   9-43.1134 109.147  10
   2  13  -8 150.783 117.139   6
  -2 -13   8 16.7906 81.8066   3
   2  13  -8 10.0974 114.575   7
   2  13  -7 72.2329 120.061   6
  -2 -13   7 124.568 90.3200   3
   2  13  -7 26.8888 96.1439   7
   2  13  -6 50.3303 103.405   6
  -2 -13   6-12.3994 78.2137   3
   2 -13  -6 83.3160 113.058   5
   2  13  -6 5.80067 103.052   7
   2 -13  -5 1642.58 181.337   5
  -2 -13   5 1431.83 155.327   3
   2  13  -5 1311.26 170.942   7
   2  13  -5 1438.65 175.143   6
  -2 -13   4 16.5375 70.5934   3
   2  13  -4 27.9120 92.5378   6
   2 -13  -4 181.110 116.118   5
   2  13  -4 31.2885 100.712   7
   2  13  -3 685.871 125.129   6
   2 -13  -3 850.454 141.990   5
  -2 -13   3 751.173 120.163   3
   2  13  -3 778.268 110.256   5
   2  13  -2 279.088 107.465   6
   2 -13  -2-12.3368 115.168  11
   2 -13  -2 198.388 100.986   5
   2  13  -2 307.278 95.1045   5
  -2 -13   2 368.110 99.3362   3
   2 -13  -1 880.708 136.127   5
  -2 -13   1 701.672 126.060   3
   2  13  -1 950.858 128.278   5
   2 -13  -1 811.484 112.941  12
   2  13  -1 917.061 137.820   6
   2  13   0 139.358 109.142   6
   2 -13   0-21.9801 87.8929  12
   2 -13   0 26.6728 93.5928   5
   2 -13   0-45.2525 102.800  11
   2  13   0 137.271 88.5549   5
   2 -13   1 1989.00 163.677   5
   2  13   1 1834.58 162.431   5
   2 -13   1 1953.29 181.106  11
   2 -13   1 2115.75 169.261  12
   2 -13   2 243.568 90.5081   5
   2 -13   2 241.186 113.835  11
   2  13   2 31.8250 102.105   5
   2  13   3 1764.79 168.849   5
   2 -13   3 2118.14 193.390  11
   2 -13   4 193.448 83.6959   3
   2  13   4 115.396 106.132   5
   2 -13   5 80.8000 78.4256   3
   2  13   5 231.560 101.065   5
   2 -13   6-0.55517 83.6192   3
   2  13   6-36.8454 107.456   5
   2 -13   7 67.9181 86.7740   3
   2  13   7 38.3672 105.358   5
   2 -13   8 365.788 123.388   3
   2  13   8 214.385 121.313   5
   2  13   9 113.485 103.756   3
   2 -13   9 49.3863 98.3679   3
   2  13   9 1.91608 109.801   5
   2 -13  10 381.669 134.110   3
   2  13  10 251.862 126.467   5
   2  14 -10 126.693 138.995   6
  -2 -14  10 63.0949 114.766  10
   2  14  -9 205.631 143.299   6
  -2 -14   9 127.250 103.366   3
  -2 -14   9 109.120 106.848  10
   2  14  -9 174.966 124.094   7
   2  14  -8 163.770 125.615   6
  -2 -14   8 161.322 96.7892   3
   2  14  -8-86.1798 123.175   7
   2  14  -7 813.235 159.929   6
  -2 -14   7 841.525 141.685   3
   2  14  -7 717.934 156.520   7
  -2 -14   6 2497.38 206.488   3
   2  14  -6 2904.60 229.176   7
   2  14  -6 2724.26 236.099   6
   2  14  -5 713.597 141.305   6
   2 -14  -5 757.594 147.601   5
  -2 -14   5 777.424 129.330   3
   2  14  -5 991.889 159.725   7
  -2 -14   4 137.170 92.9678   3
   2  14  -4 121.283 102.072   6
   2 -14  -4 134.889 108.795   5
  -2 -14   3 52.9682 84.3430   3
   2  14  -3 55.0061 96.3406   6
   2 -14  -3 107.962 98.4970   5
   2  14  -2 0.13676 93.8473   6
   2 -14  -2 100.224 103.651   5
   2 -14  -2-150.427 116.195  11
   2  14  -2 41.1093 75.7618   5
  -2 -14   2-7.45807 78.4296   3
   2  14  -1 253.210 118.079   6
   2 -14  -1-20.7776 87.1636  12
   2 -14  -1 46.7794 87.8421   5
   2 -14  -1-87.0606 105.711  11
   2  14  -1 337.192 103.225   5
  -2 -14   1 111.277 88.5604   3
   2 -14   0 1164.94 140.951   5
   2 -14   0 1104.43 132.805  12
   2 -14   0 1234.73 152.978  11
   2  14   0 1120.88 137.707   5
   2  14   0 1309.18 162.977   6
   2 -14   1 979.344 128.958   5
   2 -14   1 1012.77 133.069  12
   2 -14   1 874.583 151.591  11
   2  14   1 572.387 122.094   5
   2 -14   2 352.326 123.604  12
   2 -14   2 229.020 125.154  11
   2  14   2-74.0299 109.083   5
   2 -14   3 364.829 126.721  11
   2  14   3 142.470 90.9654   5
   2 -14   4 264.379 130.451  11
   2  14   4 60.6528 93.0960   5
   2  14   5 3205.16 240.274   5
   2 -14   5 3703.65 258.655  11
   2 -14   5 3385.28 221.108   3
   2 -14   6 122.050 91.4887   3
   2  14   6 266.221 106.892   5
   2 -14   7 23.3577 86.3206   3
   2  14   7 119.328 118.422   5
   2 -14   8 67.1319 96.7431   3
   2  14   8-41.4895 112.710   5
   2 -14   9 635.563 145.823   3
   2  14   9 398.575 139.271   5
   2 -14  10 143.930 122.432   3
   2  14  10-152.694 136.249   5
   2  15  -9 73.9063 126.546   6
  -2 -15   9 3.82776 92.0210   3
   2  15  -9 25.5619 126.352   7
   2  15  -8 236.106 135.510   6
  -2 -15   8 151.479 98.2750   3
   2  15  -8 219.624 121.444   7
   2  15  -7-7.16300 106.635   6
  -2 -15   7 28.5205 94.7191   3
   2  15  -7 13.9611 114.243   7
   2  15  -6 789.811 148.485   6
  -2 -15   6 754.089 133.164   3
   2  15  -6 765.104 144.040   7
  -2 -15   5 1989.33 194.350   3
   2  15  -5 2299.20 213.215   7
   2  15  -5 1961.38 206.627   6
   2 -15  -4 1669.44 184.782   5
  -2 -15   4 1286.02 156.250   3
   2  15  -4 1450.40 176.416   6
  -2 -15   3 182.283 93.2188   3
   2  15  -3 130.661 100.891   6
   2 -15  -3 352.227 117.594   5
   2 -15  -2 1996.33 189.657   5
  -2 -15   2 1688.98 176.213   3
   2  15  -2 2096.26 168.362   5
   2 -15  -2 1519.13 168.850  11
   2  15  -2 1825.88 183.249   6
   2 -15  -1 1460.86 161.928   5
  -2 -15   1 1394.93 163.109   3
   2  15  -1 1682.50 158.211   5
   2 -15  -1 1260.30 156.148  11
   2  15  -1 1518.49 172.464   6
   2 -15   0 3256.16 214.558   5
   2  15   0 3085.72 206.381   5
   2 -15   0 3357.73 203.487  12
   2 -15   0 3142.94 224.676  11
   2  15   0 3604.66 241.227   6
   2 -15   1 481.927 114.118  12
   2 -15   1 467.747 107.864   5
   2 -15   1 563.715 137.549  11
   2  15   1 333.762 104.947   5
   2 -15   2 419.223 119.688  12
   2 -15   2 262.400 124.431  11
   2  15   2-1.44564 91.6931   5
   2 -15   3 436.078 142.332  11
   2  15   3 107.870 106.756   5
   2 -15   4 470.621 146.959  11
   2  15   4 30.2459 106.893   5
   2  15   5 1163.04 163.844   5
   2 -15   5 1636.98 200.541  11
   2  15   6 1204.22 171.513   5
   2 -15   6 1031.89 145.535   3
   2 -15   7 268.132 116.644   3
   2  15   7 200.598 115.408   5
   2 -15   8 268.427 123.516   3
   2  15   8 219.573 136.387   5
   2 -15   9-19.1132 102.908   3
   2  15   9-36.4030 120.346   5
   2  16  -9 42.7107 121.926   6
  -2 -16   9-38.5787 105.398   3
   2  16  -9-41.8653 131.609   7
   2  16  -8 36.4653 127.088   6
  -2 -16   8-38.9443 95.2239   3
   2  16  -8-47.0155 112.566   7
   2  16  -7 107.100 126.116   6
  -2 -16   7 57.9880 92.3233   3
   2  16  -7 110.291 124.668   7
  -2 -16   6 949.873 153.659   3
   2  16  -6 1136.97 171.565   7
   2  16  -6 1126.27 181.135   6
  -2 -16   5 48.8012 83.3885   3
   2  16  -5 110.651 115.669   6
   2  16  -5 214.527 127.343   7
  -2 -16   4 351.926 107.421   3
   2  16  -4 470.484 137.837   6
   2  16  -3 234.665 116.284   6
   2 -16  -3 312.043 118.317   5
  -2 -16   3 131.015 92.4572   3
   2 -16  -2 1116.29 156.981   5
  -2 -16   2 1082.88 147.039   3
   2  16  -2 1118.24 139.766   5
   2 -16  -2 840.969 139.006  11
   2  16  -2 1099.84 161.700   6
   2  16  -1 415.971 128.475   6
  -2 -16   1 537.696 127.717   3
   2  16  -1 594.752 122.442   5
   2 -16  -1 327.158 111.505  11
   2 -16  -1 571.362 128.015   5
   2 -16   0 2882.45 209.014   5
   2  16   0 2706.48 200.857   5
   2 -16   0 2625.12 221.474  11
   2  16   0 2855.29 231.269   6
   2 -16   1 303.254 110.062   5
   2 -16   1 454.593 134.291  11
   2 -16   1 431.819 113.015  12
   2  16   1 206.080 106.842   5
   2 -16   2 2225.78 193.397  12
   2 -16   2 2046.60 201.103  11
   2 -16   3 579.689 146.515  11
   2  16   3 362.096 114.503   5
   2 -16   4 569.315 155.614  11
   2  16   4-20.7090 117.217   5
   2 -16   5 532.853 161.976  11
   2  16   5-39.7640 111.527   5
   2 -16   6 62.1349 85.9872   3
   2  16   6 158.110 131.793   5
   2 -16   7 144.696 107.484   3
   2  16   7-131.941 126.360   5
   2 -16   8 155.551 108.672   3
   2  16   8 108.265 118.720   5
   2 -16   9 22.0674 109.056   3
  -2 -17   9 9.25739 107.869   3
   2  17  -8-3.66124 127.403   6
  -2 -17   8 158.629 114.228   3
   2  17  -8 188.153 134.508   7
  -2 -17   7 53.8037 100.199   3
   2  17  -7 31.4340 112.347   6
   2  17  -7 135.589 129.161   7
  -2 -17   6 27.3416 87.7738   3
   2  17  -6-57.8796 113.421   6
   2  17  -6 177.428 123.975   7
  -2 -17   5 107.107 103.131   3
   2  17  -5 119.405 110.027   6
   2  17  -5-4.60497 109.545   7
  -2 -17   4 23.1542 85.7472   3
   2  17  -4 5.82176 103.731   6
  -2 -17   3 890.455 144.053   3
   2  17  -3 1079.39 170.332   6
  -2 -17   2 1771.46 191.143   3
   2 -17  -2 1603.87 179.566  11
   2  17  -2 2092.14 208.216   6
   2 -17  -1 887.556 144.184   5
  -2 -17   1 859.878 149.473   3
   2  17  -1 989.181 141.284   5
   2 -17  -1 526.651 126.193  11
   2  17  -1 880.989 158.136   6
   2 -17   0 3226.17 223.707   5
   2  17   0 3112.89 220.639   5
   2 -17   0 3280.49 243.014  11
   2  17   0 3364.23 256.482   6
   2 -17   1 1019.82 165.256  11
   2  17   1 832.512 143.177   5
   2  17   1 938.198 162.256   6
   2 -17   2 195.562 131.380  11
   2  17   2-44.4082 106.667   5
   2 -17   3 615.588 142.190  12
   2 -17   3 376.413 141.251  11
   2 -17   4 553.194 157.819  11
   2  17   4-53.0076 103.015   5
   2 -17   5 761.993 177.814  11
   2  17   5 78.3040 115.859   5
   2 -17   6 1200.43 195.661  11
   2  17   6 656.189 161.310   5
   2 -17   7 143.256 99.3677   3
   2  17   7-49.9760 128.861   5
   2 -17   8 47.7412 96.9405   3
  -2 -18   8 74.7612 109.938   3
  -2 -18   7 347.733 129.820   3
   2  18  -7 558.680 163.842   6
   2  18  -7 242.046 133.722   7
  -2 -18   6-16.7804 97.3685   3
   2  18  -6 179.760 130.977   6
   2  18  -6 194.557 140.902   7
  -2 -18   5 804.499 146.271   3
   2  18  -5 892.068 164.413   7
   2  18  -5 1045.24 173.646   6
  -2 -18   4 2.40336 89.8128   3
   2  18  -4 19.8204 111.385   6
   2  18  -3 725.425 148.866   6
  -2 -18   3 636.156 140.876   3
   2  18  -2-13.4800 110.013   6
   2 -18  -2-147.076 122.730  11
  -2 -18   2 83.2579 97.2514   3
   2  18  -1 282.604 126.164   6
  -2 -18   1 204.928 103.373   3
   2 -18  -1 80.9141 112.291  11
   2  18  -1 262.962 97.8835   5
   2  18   0 59.1957 113.558   6
   2 -18   0-5.82512 107.932  11
   2  18   0-16.1152 102.299   5
   2  18   1 203.678 117.403   6
   2 -18   1 157.401 124.476  11
   2  18   1-9.83963 102.178   5
   2 -18   2 307.751 137.927  11
   2  18   2 116.121 100.022   5
   2 -18   3 835.184 164.461  12
   2 -18   3 955.349 178.518  11
   2 -18   4 675.643 169.228  11
   2  18   4 29.1985 111.509   5
   2 -18   5 913.464 188.271  11
   2  18   5 387.873 142.765   5
   2 -18   6 494.534 175.997  11
   2  18   6 75.7850 124.659   5
   2 -18   8 36.0950 88.1717   3
  -2 -19   7 70.2834 112.805   3
  -2 -19   6-52.5467 98.3254   3
   2  19  -6 63.2171 122.618   6
   2  19  -6-98.0229 117.684   7
  -2 -19   5-23.4451 90.3869   3
   2  19  -5 41.8024 124.543   6
   2  19  -5 36.4248 121.585   7
   2  19  -4 139.012 128.221   6
  -2 -19   4 200.080 117.949   3
   2  19  -3 9.63455 123.170   6
  -2 -19   3 50.9009 105.674   3
   2  19  -2-5.45802 118.728   6
   2 -19  -2-79.0325 111.232  11
  -2 -19   2 113.584 107.710   3
   2  19  -1 223.801 129.976   6
   2 -19  -1-58.8744 123.132  11
   2  19   0 410.678 136.644   6
   2 -19   0 272.400 120.839  11
   2  19   0 233.447 102.327   5
   2  19   1 39.2479 128.323   6
   2 -19   1-54.3656 110.829  11
   2  19   1-113.401 117.326   5
   2 -19   2 245.808 138.016  11
   2  19   2-57.6673 108.655   5
   2 -19   3 367.359 150.688  11
   2  19   3 21.4589 105.404   5
   2 -19   4 413.117 160.442  11
   2  19   4-34.0768 111.198   5
   2 -19   5 896.463 193.843  11
   2  19   5 433.278 149.243   5
   2 -19   6 851.853 192.648  11
   2  19   6 48.0976 128.324   5
  -2 -20   6 89.0777 112.518   3
  -2 -20   5 285.557 130.995   3
   2  20  -5-28.2927 133.880   6
   2  20  -5 139.777 135.946   7
   2  20  -4 143.782 131.672   6
  -2 -20   4 55.9398 108.712   3
   2  20  -3 95.6418 119.956   6
  -2 -20   3 38.0393 106.457   3
   2  20  -2 61.0332 116.732   6
   2 -20  -2-244.166 135.405  11
  -2 -20   2 60.7719 107.919   3
   2  20  -1 49.7390 120.876   6
   2 -20  -1-57.5032 124.829  11
   2  20   0 683.532 157.741   6
   2 -20   0 720.635 152.058  11
   2  20   0 357.205 118.463   5
   2  20   1 73.3182 127.171   6
   2 -20   1 212.319 141.013  11
   2  20   1 79.3390 110.290   5
   2 -20   2 264.085 145.719  11
   2  20   2 141.736 140.603   6
   2  20   2-150.526 120.275   5
   2 -20   3 324.555 144.781  11
   2  20   3 135.586 121.517   5
   2 -20   4 594.420 174.080  11
   2  20   4-43.0895 120.070   5
   2  20   5-95.3109 140.755   5
  -2 -21   4 108.263 109.161   3
   2  21  -3 51.5918 130.751   6
  -2 -21   3-4.05656 107.078   3
   2  21  -2 60.4019 119.087   6
   2 -21  -2-222.934 146.805  11
  -2 -21   2-29.2142 97.1686   3
   2  21  -1 105.962 134.616   6
   2 -21  -1-90.1710 130.547  11
   2  21   0 11.7305 130.128   6
   2 -21   0-155.112 134.670  11
   2  21   0-166.023 127.854   5
   2  21   1-31.7307 119.689   6
   2 -21   1 40.4306 126.403  11
   2  21   1-78.1525 112.280   5
   2  21   2 67.9330 127.048   6
   2 -21   2 146.456 142.867  11
   2  21   2-64.8520 128.644   5
   2 -21   3 348.634 166.154  11
   2  21   3-165.299 135.049   5
   2 -22  -2-167.011 148.022  11
   2 -22  -1-265.534 148.591  11
   2 -22   0-16.0560 124.217  11
   2 -22   1 186.636 138.903  11
   2  22   1-24.7225 128.985   5
   2  22   2-64.6795 136.298   5
   2  23   1-5.73074 125.928   5
  -3   0  11 103.654 118.663  10
  -3   0  11-52.9807 109.522   9
  -3   0  10-44.4801 100.635  10
  -3   0  10 16.7660 93.2794   9
  -3   0   9 50.2838 93.9215  10
  -3   0   9 3.23743 87.4145   9
  -3   0   8-211.918 107.068  10
  -3   0   8 88.1931 83.8259   9
  -3   0   7-6.30735 90.8720   4
   3   0  -7-66.5503 90.8562   5
  -3   0   7-0.81279 75.6176   9
  -3   0   6 858.640 132.743   4
   3   0  -6 825.735 130.185   5
  -3   0   6 833.223 119.740   9
  -3   0   5 28.0478 85.6348   4
   3   0  -5 86.7867 89.9552   5
  -3   0   5-40.0951 79.4185   9
  -3   0   4 7134.32 296.984   4
   3   0  -4 6501.08 290.457   5
  -3   0   3 19.3991 88.9301   4
   3   0  -3 38.0840 87.2763   5
  -3   0   2 450.757 110.738   4
   3   0  -2 17.2005 90.1728   5
   3   0  -1-38.7901 78.5956   5
   3   0   0 4135.77 230.298   5
   3   0   0 4039.41 219.880   8
   3   0   1-18.0303 82.9317   5
   3   0   1-67.9700 87.2910   8
   3   0   2 650.114 113.811   5
   3   0   2 650.055 120.430   8
   3   0   3 29.0168 82.9947   5
   3   0   3 143.972 106.574   8
   3   0   3-197.202 103.105  12
   3   0   4 1502.70 149.449   5
   3   0   4 1612.19 154.432  12
   3   0   5 24.6795 85.8224  12
   3   0   5 45.1516 76.3874   5
   3   0   6 626.312 126.942  12
   3   0   6 470.682 102.031   5
   3   0   7 68.8719 83.7578   3
   3   0   7 174.938 100.482  12
   3   0   8 89.3935 98.6434   3
   3   0   9 29.9773 98.4870   3
   3   0  10 105.134 116.895   3
   3   0  11 80.8030 114.843   3
  -3  -1  11-97.4362 107.949  10
  -3   1  11 18.9739 108.091  10
  -3  -1  11 45.8783 106.109   9
  -3   1  11 32.3233 107.862   9
  -3  -1  10-17.3523 101.445  10
  -3   1  10 77.3821 103.736  10
  -3  -1  10-76.4700 109.537   9
  -3   1  10 0.31764 88.3281   9
  -3  -1   9-75.7481 108.791  10
  -3   1   9-4.33734 91.6805  10
  -3  -1   9 18.8458 90.6122   9
  -3   1   9 106.149 90.3998   9
  -3   1   8-117.491 98.0777  10
  -3  -1   8-37.2607 85.9603   9
  -3   1   8-9.42993 77.1865   9
  -3  -1   7 132.596 90.9429   4
  -3   1   7 142.835 91.8173   4
   3  -1  -7 191.504 99.1537   5
   3   1  -7 272.226 102.100   5
  -3  -1   7 63.7011 80.9753   9
  -3   1   7 216.436 98.8689   9
  -3  -1   6 1566.07 169.890   4
  -3   1   6 1548.58 161.602   4
   3  -1  -6 1491.89 167.929   5
   3   1  -6 1525.62 164.444   5
  -3  -1   6 1383.72 147.001   9
  -3   1   6 1406.12 151.109   9
  -3  -1   5 3140.13 212.458   4
  -3   1   5 2946.13 205.108   4
   3  -1  -5 2965.31 210.711   5
   3   1  -5 2741.13 201.763   5
  -3  -1   5 2783.65 187.212   9
  -3   1   5 2783.07 189.733   9
  -3  -1   4 6602.23 288.638   4
  -3   1   4 6634.39 287.880   4
   3  -1  -4 5773.93 276.919   5
   3   1  -4 6064.88 274.602   5
  -3  -1   3 1986.68 167.562   4
  -3   1   3 1987.65 166.149   4
   3  -1  -3 1558.64 159.262   5
   3   1  -3 1763.48 162.497   5
  -3  -1   2 395.635 109.141   4
  -3   1   2 252.338 99.7902   4
   3  -1  -2 9.24921 81.8498   5
   3   1  -2 57.7048 85.4415   5
   3  -1  -1 744.379 118.446   5
   3   1  -1 719.817 121.640   5
   3  -1   0-19.7853 80.1682   5
   3   1   0 34.8935 80.7958   5
   3  -1   0-89.1590 93.0144   8
   3   1   0 80.5091 85.6679   8
   3  -1   1 858.545 126.866   5
   3   1   1 892.429 126.447   5
   3  -1   1 877.365 122.855   8
   3   1   1 752.016 116.885   8
   3  -1   2 3642.69 215.761   5
   3   1   2 3543.45 216.607   5
   3  -1   2 3562.73 209.345  12
   3  -1   2 3941.53 220.677   8
   3   1   2 3521.63 216.695   8
   3  -1   3 1102.91 134.762   5
   3   1   3 1083.22 138.109   5
   3  -1   3 1033.58 130.544  12
   3   1   3 1000.98 123.393  12
   3  -1   3 1371.80 155.276   8
   3   1   3 1334.26 156.138   8
   3   1   4 249.826 91.0534  12
   3  -1   4 470.918 111.509  12
   3  -1   4 366.158 96.2029   5
   3   1   4 410.927 105.680   5
   3  -1   5 71.7320 93.0709  12
   3   1   5 59.7784 82.1425  12
   3  -1   5 22.4742 71.1017   5
   3   1   5 28.2878 76.6147   5
   3   1   6 833.899 126.031   5
   3  -1   6 1099.58 147.467  12
   3   1   6 979.182 135.429  12
   3   1   6 767.296 121.530   3
   3  -1   7 539.751 115.428   3
   3   1   7 511.590 116.551   3
   3   1   8 608.019 130.138   3
   3  -1   8 1012.95 152.630  12
   3  -1   8 765.197 136.670   3
   3  -1   9 25.0015 96.9238   3
   3   1   9-92.4094 92.3588   3
   3  -1  10 9.18201 105.902   3
   3   1  10 88.4773 109.420   3
   3  -1  11 162.931 120.722   3
   3   1  11 91.0175 124.350   3
  -3  -2  11 26.1716 110.674  10
  -3   2  11 141.391 125.723  10
  -3  -2  11-145.590 110.203   9
  -3   2  11 96.9918 109.064   9
  -3  -2  10 84.0809 107.144  10
  -3   2  10 203.320 114.758  10
  -3  -2  10 149.083 100.658   9
  -3   2  10 229.529 119.373   9
  -3   2   9 39.8730 93.2494  10
  -3  -2   9 0.95432 92.6386   9
  -3   2   9 133.339 100.187   9
  -3  -2   9 47.0264 99.5893  10
   3  -2  -8 49.8773 99.7917   5
  -3   2   8-38.4972 101.494  10
  -3  -2   8-3.87621 89.6949   9
  -3   2   8 73.3484 87.6535   9
  -3  -2   7-118.506 97.8196   4
  -3   2   7-67.1982 96.4615   4
  -3   2   7-84.3997 93.7670  10
   3  -2  -7 4.52253 96.4931   5
  -3   2   7 47.0793 83.5941   9
  -3  -2   6 233.752 95.0224   4
  -3   2   6 110.819 85.7541   4
   3  -2  -6 96.4081 96.5920   5
   3   2  -6 104.640 88.0832   5
  -3   2   6 154.075 85.8431   9
  -3  -2   5 563.381 119.116   4
  -3   2   5 551.536 119.433   4
   3  -2  -5 498.072 118.600   5
   3   2  -5 489.163 106.445   5
  -3   2   5 393.759 92.4127   9
  -3  -2   4 1760.77 164.742   4
  -3   2   4 1775.98 167.653   4
   3  -2  -4 1576.62 164.017   5
   3   2  -4 1523.16 156.890   5
  -3  -2   3 2018.90 174.764   4
  -3   2   3 1891.18 165.707   4
   3  -2  -3 1768.78 169.264   5
   3   2  -3 1873.91 170.471   5
   3  -2  -2-27.8736 84.1632   5
   3   2  -2 59.6179 91.2993   5
   3  -2  -1 47.4298 87.1054   5
   3   2  -1 53.7010 84.9279   5
   3  -2   0 1261.83 143.341   5
   3   2   0 1580.02 154.324   5
   3  -2   0 1440.78 141.586   8
   3   2   0 1344.63 141.336   8
   3  -2   1 185.898 94.5055   5
   3   2   1 51.2681 78.4533   5
   3  -2   1 98.4193 82.5378   8
   3   2   1 37.0555 91.4759   8
   3  -2   2-206.185 118.707  12
   3  -2   2-2.36143 76.4311   5
   3   2   2 30.0546 85.0269   5
   3  -2   2 42.3863 90.1283   8
   3   2   2 39.4566 90.0433   8
   3  -2   3-25.3006 90.7461  12
   3  -2   3 76.2782 80.9920   5
   3  -2   3 141.032 106.988   8
   3   2   3-93.5865 85.1835   5
   3   2   3 152.974 101.776   8
   3  -2   4 0.04976 87.7942  12
   3   2   4-43.3247 93.6049  12
   3  -2   4 93.4266 78.3787   5
   3   2   4 69.7411 89.4803   5
   3  -2   5 1040.71 128.528   5
   3   2   5 935.134 129.074   5
   3  -2   5 1174.49 148.583  12
   3   2   5 998.973 125.034  12
   3   2   6 767.816 123.748   5
   3  -2   6 971.310 150.524  12
   3   2   6 731.958 120.738   3
   3  -2   7 1476.65 168.462  12
   3   2   7 1049.13 145.848   3
   3  -2   8 61.4668 88.9339   3
   3   2   8 66.0446 89.8092   3
   3  -2   9 547.059 134.660   3
   3   2   9 402.338 125.009   3
   3  -2  10 22.3607 101.056   3
   3   2  10 171.006 123.752   3
   3  -2  11-15.8349 109.831   3
   3   2  11-72.0290 106.918   3
  -3  -3  11 55.6955 120.123  10
  -3   3  11 178.241 122.800  10
  -3  -3  11-147.235 124.670   9
  -3   3  11 178.553 127.580   9
  -3  -3  10 28.9617 108.107  10
  -3   3  10 113.134 114.590  10
  -3  -3  10-240.996 125.892   9
  -3   3  10 120.623 106.926   9
  -3  -3   9 1.61889 103.187  10
  -3   3   9 88.8024 97.2543  10
  -3   3   9 110.418 100.185   9
   3  -3  -8 65.7994 100.335   5
  -3   3   8 71.9772 95.4886  10
  -3   3   8 55.8125 83.4503   9
  -3  -3   7 90.0310 87.5486   4
  -3   3   7 86.6806 89.7340   4
  -3   3   7 73.7630 90.5743  10
   3  -3  -7 143.704 96.7547   5
  -3   3   7 340.787 99.1088   9
  -3  -3   6-179.651 102.426   4
  -3   3   6-56.7522 84.9621   4
   3  -3  -6-101.325 102.185   5
   3   3  -6 50.8313 78.3952   5
  -3   3   6-67.2602 79.0629   9
  -3  -3   5 1033.84 141.687   4
  -3   3   5 914.412 134.788   4
   3  -3  -5 857.967 138.338   5
   3   3  -5 829.975 125.421   5
  -3   3   5 1019.42 125.935   9
  -3  -3   4 419.211 110.339   4
  -3   3   4 463.102 110.296   4
   3  -3  -4 302.831 109.378   5
   3   3  -4 140.681 89.5627   5
  -3  -3   3 703.353 124.017   4
  -3   3   3 697.975 128.753   4
   3  -3  -3 597.220 120.269   5
   3   3  -3 571.520 114.068   5
   3  -3  -2-92.4331 96.5973   5
   3   3  -2-59.8560 88.9161   5
   3  -3  -1 734.284 122.413   5
   3   3  -1 954.222 131.693   5
   3   3  -1 829.341 115.583   7
   3  -3   0 66.7129 78.5811   5
   3   3   0 75.3388 84.1061   5
   3  -3   0 74.8831 80.0156   8
   3   3   0-0.36712 87.4195   8
   3   3   0 64.4927 76.2731   7
   3  -3   1 244.258 93.4524  12
   3  -3   1 430.355 104.796   5
   3   3   1 368.398 101.218   5
   3  -3   1 532.413 112.725   8
   3   3   1 505.080 109.702   8
   3  -3   2 37.9267 77.1506   5
   3   3   2 250.274 98.4799   5
   3  -3   2 221.421 97.8201   8
   3   3   2 133.850 91.1665   8
   3  -3   3 16.0001 98.7349  12
   3  -3   3 170.918 89.6813   5
   3  -3   3 340.591 112.204   8
   3   3   3 68.4734 86.7132   5
   3   3   3 176.148 94.9683   8
   3  -3   4 6.90358 97.5804  12
   3   3   4-189.441 99.6851  12
   3  -3   4 30.3142 73.7217   5
   3   3   4 34.7669 85.1961   5
   3  -3   5 245.141 104.193  12
   3   3   5 34.7438 87.0643  12
   3  -3   5 110.724 80.1507   5
   3   3   5 92.5767 81.9933   3
   3   3   5 134.957 88.6554   5
   3   3   6 3191.90 217.700   5
   3  -3   6 3662.10 230.592  12
   3   3   6 3370.37 223.629   3
   3   3   7-57.0990 85.1962   3
   3   3   7 54.3521 83.1194   5
   3  -3   8 478.876 136.840  12
   3   3   8 20.9221 89.5966   3
   3  -3   9-4.97656 96.3254   3
   3   3   9 35.5085 103.955   3
   3  -3  10 230.475 113.826   3
   3   3  10 142.719 124.004   3
   3  -3  11 261.424 129.266   3
  -3  -4  11-191.507 129.676   9
  -3   4  11-109.796 118.550   9
  -3  -4  10 110.237 115.241  10
  -3   4  10 217.740 114.730  10
  -3   4  10-51.2303 106.827   9
  -3  -4   9-74.9336 122.165  10
  -3   4   9 2.89084 91.1239  10
  -3   4   9 1.93943 95.5003   9
   3  -4  -8 173.399 107.722   5
  -3   4   8 77.2800 90.8795  10
  -3   4   8 103.734 92.5139   9
  -3  -4   7 75.0497 93.1272   4
  -3   4   7 51.5862 90.0476   4
   3  -4  -7 110.965 97.8519   5
  -3   4   7 67.9393 85.1708  10
  -3   4   7 136.682 92.0849   9
  -3  -4   6 29.7229 88.8472   4
  -3   4   6 70.8002 90.2306   4
   3  -4  -6-56.5130 94.4941   5
   3   4  -6-26.3835 78.7532   5
  -3   4   6-21.3031 78.3448   9
  -3  -4   5 403.464 113.853   4
  -3   4   5 437.606 109.783   4
   3  -4  -5 341.855 109.351   5
   3   4  -5 413.080 100.631   5
  -3   4   5 402.149 94.3423   9
  -3  -4   4 126.963 94.3356   4
  -3   4   4 131.928 99.3450   4
   3  -4  -4 18.9151 85.9581   5
   3   4  -4 69.7754 82.6810   5
  -3  -4   3 638.993 125.086   4
  -3   4   3 740.006 124.583   4
   3  -4  -3 568.459 125.198   5
   3   4  -3 504.964 110.550   5
   3  -4  -2 61.9076 89.3155   5
   3   4  -2-17.6963 85.6124   5
   3   4  -2-19.6462 81.9469   7
   3  -4  -1 166.761 92.7709   5
   3   4  -1 138.372 89.4159   5
   3   4  -1 151.325 91.2064   7
   3  -4   0 134.616 94.0682   5
   3   4   0 102.808 81.2787   5
   3  -4   0 16.7851 80.0449   8
   3   4   0 0.90581 96.8043   8
   3   4   0 145.292 82.9006   7
   3  -4   1 1207.28 135.002   5
   3   4   1 1375.83 153.513   5
   3  -4   1 1341.24 143.749  12
   3  -4   1 1427.22 147.328   8
   3   4   1 1253.69 140.759   8
   3  -4   2 1336.14 143.443   5
   3   4   2 1395.50 154.186   5
   3  -4   2 1346.96 147.377  12
   3  -4   2 1488.33 146.664   8
   3   4   2 1304.53 145.633   8
   3  -4   3 532.029 117.619  12
   3  -4   3 396.105 100.054   5
   3   4   3 406.190 117.188   8
   3   4   3 392.757 108.324   5
   3  -4   4 76.2609 97.7135  12
   3  -4   4 6.18048 75.1794   5
   3   4   4 146.380 103.337   8
   3   4   4-38.3942 86.5873   5
   3   4   4 14.3475 73.6282   3
   3   4   5 864.836 130.283   5
   3  -4   5 1331.39 158.852  12
   3   4   5 1188.79 138.914   3
   3   4   6 888.717 128.456   5
   3   4   6 876.892 133.601   3
   3   4   7 471.593 113.641   3
   3   4   7 417.667 109.113   5
   3   4   8 113.145 98.1058   3
   3  -4   8 523.703 142.415  12
   3   4   9 45.0903 98.6873   3
   3  -4   9 103.513 107.017   3
   3   4  10 206.472 122.552   3
   3  -4  10 215.453 121.193   3
   3  -4  11 165.335 120.585   3
  -3   5  11 389.711 141.930  10
  -3   5  11-119.098 135.174   9
  -3  -5  10-146.630 122.244  10
  -3   5  10 149.684 113.625  10
  -3   5  10-33.7498 109.202   9
   3  -5  -9 214.730 118.304   5
  -3   5   9 165.504 105.810  10
  -3   5   9-1.45637 100.545   9
  -3  -5   8 263.300 113.828   4
   3  -5  -8 561.696 138.650   5
  -3   5   8 367.640 113.615  10
  -3   5   8 274.600 110.549   9
  -3  -5   7 85.4176 90.5589   4
  -3   5   7 82.6963 93.6505   4
   3  -5  -7 49.5957 107.627   5
  -3   5   7 100.190 85.9293  10
  -3   5   7 49.2030 81.6294   9
  -3  -5   6-76.1549 90.6494   4
  -3   5   6 16.6508 90.2656   4
  -3   5   6-80.4302 86.2945  10
   3  -5  -6-94.4393 103.711   5
  -3   5   6-15.3215 76.1139   9
  -3  -5   5 157.636 91.8200   4
  -3   5   5 117.855 94.8365   4
   3  -5  -5-1.73523 104.968   5
   3   5  -5 26.3529 76.2196   5
  -3   5   5 203.074 84.5527   9
  -3  -5   4 134.690 91.1750   4
  -3   5   4 95.1171 89.6025   4
   3  -5  -4-31.3183 87.0387   5
   3   5  -4 64.3211 81.2490   5
  -3  -5   3 259.266 102.735   4
  -3   5   3 242.428 103.069   4
   3  -5  -3 105.254 100.510   5
   3   5  -3 66.2376 77.1955   5
   3   5  -3 70.5615 92.8175   7
   3  -5  -2 268.365 109.029   5
   3   5  -2 81.6093 88.3262   5
   3   5  -2 122.177 90.5975   7
   3  -5  -1 1153.55 144.082   5
   3   5  -1 1301.59 146.133   5
   3   5  -1 1416.00 145.487   7
   3  -5   0 162.055 89.2173   5
   3   5   0 244.891 103.223   5
   3  -5   0 100.399 79.3529   8
   3   5   0 173.763 91.0407   7
   3  -5   1 135.921 92.1317  12
   3  -5   1 289.550 100.851   5
   3   5   1 378.408 110.541   5
   3  -5   1 211.050 93.1953   8
   3   5   1 59.5892 86.3256   8
   3  -5   2-5.14236 94.2347  12
   3  -5   2 253.279 101.629   5
   3  -5   2 289.736 100.351   8
   3   5   2 107.570 86.5239   8
   3   5   2 127.085 88.0646   5
   3  -5   3 82.3213 95.1939  12
   3  -5   3 18.6422 74.0694   5
   3   5   3 116.440 92.0000   8
   3   5   3-26.7647 86.1203   5
   3  -5   4 2141.92 165.802   5
   3   5   4 2010.12 174.994   5
   3  -5   4 2355.30 191.014  12
   3   5   4 2483.67 196.381   8
   3   5   4 2040.61 162.846   3
   3  -5   5 1014.30 150.502  12
   3   5   5 716.870 121.682   5
   3   5   5 856.831 125.677   3
   3   5   6 1091.87 147.238   5
   3   5   6 954.243 147.180   3
   3   5   7 197.125 102.038   3
   3   5   7 50.5436 88.5698   5
   3  -5   8 1546.77 192.947  12
   3   5   8 785.118 143.922   3
   3  -5   9 352.041 150.330  12
   3   5   9 0.23671 99.7337   3
   3   5  10 243.924 136.832   3
   3  -5  10 127.217 116.275   3
   3  -5  11 202.622 112.105   3
  -3  -6  10-95.4212 126.358  10
  -3   6  10 290.433 128.975  10
  -3   6  10-34.5967 113.656   9
   3  -6  -9 332.270 135.286   5
  -3   6   9 22.4206 102.186   9
  -3  -6   8 54.5359 98.4073   4
  -3   6   8 101.665 97.4868   4
   3  -6  -8 50.2503 111.726   5
  -3   6   8 93.5061 87.7116   9
  -3  -6   7-26.2842 92.8648   4
  -3   6   7-111.704 100.978   4
   3  -6  -7 117.770 110.508   5
  -3   6   7-41.6726 90.0605   9
  -3  -6   6 48.1823 89.5188   4
  -3   6   6-33.6347 89.1900   4
   3  -6  -6 147.959 97.0904   5
  -3   6   6 97.9862 82.9609   9
  -3  -6   5 160.919 98.1388   4
  -3   6   5 39.0412 88.1211   4
   3  -6  -5 6.93950 92.2896   5
   3   6  -5 146.660 82.7602   5
  -3   6   5 242.825 88.0350   9
  -3  -6   4 110.800 97.2115   4
  -3   6   4 57.8690 85.0929   4
   3  -6  -4-33.0498 96.1620   5
   3   6  -4-7.28357 77.5387   5
   3   6  -4 89.1454 95.0559   7
  -3  -6   3 386.574 110.283   4
  -3   6   3 319.843 104.305   4
   3  -6  -3 304.071 112.037   5
   3   6  -3 147.247 88.3786   5
   3   6  -3 263.366 111.808   7
   3  -6  -2 488.211 121.371   5
   3   6  -2 505.067 107.951   5
   3   6  -2 431.292 108.057   7
   3  -6  -1 997.765 143.561   5
   3   6  -1 913.428 132.305   5
   3   6  -1 828.557 124.519   7
   3  -6   0 680.329 124.163   5
   3   6   0 793.985 124.750   5
   3  -6   0 767.390 116.509   8
   3   6   0 725.570 120.231   7
   3  -6   1-190.394 114.671  12
   3  -6   1-5.98144 84.9667   5
   3  -6   1 2.36448 82.7263   8
   3   6   1-103.813 97.2107   5
   3   6   1-72.8565 101.723   8
   3   6   1 76.5089 81.2508   7
   3  -6   2-8.73881 92.8828  12
   3  -6   2 54.9680 87.0500   5
   3  -6   2 149.019 86.9758   8
   3   6   2 16.5595 89.5165   8
   3   6   2 30.1233 94.1726   5
   3  -6   3 129.391 104.293  12
   3  -6   3 52.5517 73.8319   5
   3   6   3 193.587 97.2956   8
   3   6   3-54.7941 99.2416   5
   3  -6   4 684.365 110.691   5
   3   6   4 826.619 140.075   8
   3   6   4 604.795 115.982   5
   3   6   5 28.0843 81.7992   3
   3   6   5-57.1425 93.7444   5
   3   6   6 470.833 117.901   5
   3   6   6 518.259 121.045   3
   3   6   7 1494.04 171.428   5
   3   6   7 1413.41 175.880   3
   3   6   8-120.748 94.2186   3
   3   6   8 0.80524 88.4569   5
   3  -6   9 568.115 162.839  12
   3   6   9-120.061 116.841   3
   3   6  10 5.91710 112.744   3
  -3  -7  10-77.3705 121.081  10
  -3   7  10-76.3286 126.645   9
   3  -7  -9 259.741 139.021   5
  -3   7   9-10.0084 100.658   9
  -3  -7   8 89.5750 98.7170   4
  -3   7   8-71.9130 105.051   4
  -3   7   8 156.137 105.977   9
  -3  -7   7 18.7576 97.7563   4
  -3   7   7-43.9948 98.1286   4
   3  -7  -7 83.4545 106.667   5
  -3   7   7-8.77339 84.4055   9
  -3  -7   6-39.5262 87.3848   4
  -3   7   6 10.1823 85.6716   4
   3  -7  -6 40.3235 106.233   5
  -3   7   6 63.7749 87.8946   9
  -3  -7   5 152.872 92.7577   4
  -3   7   5 82.1017 92.4556   4
   3  -7  -5 115.194 96.4942   5
   3   7  -5 171.616 88.3451   5
  -3   7   5 107.091 82.7130   9
   3   7  -5 162.565 100.490   7
  -3  -7   4 514.163 118.911   4
  -3   7   4 517.517 111.665   4
   3  -7  -4 305.243 112.844   5
   3   7  -4 451.240 106.900   5
   3   7  -4 492.345 127.792   7
  -3  -7   3 1752.03 163.284   4
  -3   7   3 1716.80 162.381   4
   3  -7  -3 1623.49 173.080   5
   3   7  -3 1458.73 151.941   5
   3   7  -3 1793.11 173.476   7
   3  -7  -2-55.8632 91.8846   5
   3   7  -2 55.5063 81.6842   5
   3   7  -2 27.7711 87.6211   7
   3  -7  -1 97.6974 95.8771   5
   3   7  -1 7.04811 80.6768   5
   3   7  -1-35.6010 83.6878   7
   3  -7   0 55.9476 98.0620  12
   3  -7   0 366.027 112.831   5
   3   7   0 443.904 112.968   5
   3  -7   0 314.001 90.0145   8
   3   7   0 468.338 107.823   7
   3  -7   1 736.400 123.676   5
   3  -7   1 516.820 112.027  12
   3  -7   1 715.683 108.184   8
   3   7   1 482.245 107.011   5
   3   7   1 568.419 106.984   8
   3   7   1 747.008 121.704   7
   3  -7   2-82.5211 100.367  12
   3  -7   2 59.0181 83.5374   5
   3  -7   2 134.448 94.4521   8
   3   7   2-46.7796 87.6301   8
   3   7   2-55.0047 94.2872   5
   3  -7   3 658.532 112.803   5
   3  -7   3 647.952 131.382  12
   3  -7   3 868.249 127.952   8
   3   7   3 645.187 119.598   8
   3   7   3 584.594 124.797   5
   3   7   4 1565.05 165.914   5
   3  -7   4 2069.87 192.749  12
   3   7   4 1964.29 177.273   8
   3   7   5 2029.16 185.229   5
   3  -7   5 2644.64 211.245  12
   3  -7   5 1956.83 168.984  11
   3   7   5 2275.28 194.915   8
   3   7   6 3003.74 224.155   5
   3  -7   6 3602.54 253.182  12
   3   7   6 2983.71 225.390   3
   3   7   7 61.1906 89.3970   5
   3   7   7 81.1898 99.7083   3
   3   7   8 70.4324 98.1486   3
   3   7   8 79.6609 100.711   5
   3   7   9-50.9821 112.208   3
   3   7  10 126.806 128.038   3
  -3  -8  10-64.9574 124.830  10
  -3   8  10 35.4140 114.912   9
  -3  -8   9-95.1069 111.698   4
   3  -8  -9-64.7510 123.205   5
  -3   8   9 81.5884 110.545   9
  -3  -8   8 89.6452 103.537   4
  -3   8   8-58.9496 97.7098   4
   3  -8  -8 181.963 135.351   5
  -3   8   8 96.9687 101.242   9
  -3  -8   7-81.9622 104.384   4
  -3   8   7-58.5537 95.0543   4
   3  -8  -7 59.2999 107.770   5
  -3   8   7 100.477 98.2330   9
   3  -8  -6 40.0546 107.633   5
  -3  -8   6 99.1402 92.5538   4
  -3   8   6 117.578 93.0256   4
  -3   8   6 64.1826 89.6439   9
  -3  -8   5 12.8722 85.1083   4
  -3   8   5-15.6727 86.1666   4
   3  -8  -5-22.8959 104.518   5
   3   8  -5 26.0209 99.2724   7
  -3  -8   4 142.016 91.4768   4
  -3   8   4 105.512 90.6325   4
   3  -8  -4-2.43248 101.028   5
   3   8  -4 106.650 79.7365   5
   3   8  -4 84.1704 97.7038   7
  -3  -8   3 1514.89 157.250   4
  -3   8   3 1562.46 156.256   4
   3  -8  -3 1320.16 165.837   5
   3   8  -3 1345.19 147.592   5
   3   8  -3 1330.87 163.410   7
   3  -8  -2 80.5798 97.1154   5
   3   8  -2 332.035 104.634   5
   3   8  -2 191.502 106.170   7
   3  -8  -1 1666.95 168.360   5
   3   8  -1 1612.07 160.772   5
   3   8  -1 1880.05 167.182   7
   3  -8   0 2086.31 183.219   5
   3   8   0 1882.51 174.266   5
   3  -8   0 1782.36 168.792  12
   3  -8   0 2065.90 159.232   8
   3   8   0 2237.25 172.132   7
   3  -8   1 2295.13 186.180   5
   3   8   1 2163.48 182.731   5
   3  -8   1 2034.56 179.032  12
   3  -8   1 2187.14 164.395   8
   3   8   1 2347.76 179.184   8
   3  -8   2 1542.54 153.313   5
   3   8   2 1326.48 155.231   5
   3  -8   2 1487.12 164.316  12
   3  -8   2 1501.60 144.408   8
   3   8   2 1417.06 152.645   8
   3  -8   3 427.842 119.581  12
   3  -8   3 343.759 100.915   5
   3  -8   3 486.085 111.733   8
   3   8   3 234.706 92.4206   8
   3   8   3 355.451 113.684   5
   3  -8   4 167.625 115.762  12
   3  -8   4-243.445 115.922  11
   3   8   4 2.25351 89.4048   8
   3   8   4-38.3440 88.6661   5
   3   8   5 794.767 134.326   5
   3  -8   5 1117.97 177.260  12
   3  -8   5 689.478 128.399  11
   3   8   5 1002.43 151.045   8
   3   8   6 184.924 108.858   3
   3   8   6-6.76086 94.8044   5
   3   8   7 289.460 113.422   5
   3   8   7 372.234 121.226   3
   3   8   8-5.58584 103.069   3
   3   8   8 38.1779 102.139   5
   3   8   9-46.6010 115.707   3
   3  -9 -10 85.2750 125.733   5
  -3   9  10 203.181 123.354   9
  -3  -9   9-152.141 119.574   4
  -3   9   9-141.697 117.255   4
   3  -9  -9-83.5213 112.628   5
  -3   9   9 186.291 125.684   9
  -3  -9   8-35.4700 105.502   4
  -3   9   8-10.4810 106.016   4
   3  -9  -8 108.534 124.710   5
  -3   9   8 70.8710 105.975   9
  -3  -9   7-44.9142 107.579   4
  -3   9   7-14.0333 94.3752   4
   3  -9  -7 132.540 121.444   5
  -3   9   7 151.234 111.881   9
  -3  -9   6 289.515 109.086   4
  -3   9   6 304.328 103.610   4
   3  -9  -6 330.669 118.124   5
  -3   9   6 590.412 128.549   9
   3   9  -6 360.096 134.655   7
  -3  -9   5 200.342 102.614   4
  -3   9   5 296.352 107.960   4
   3  -9  -5 385.806 123.239   5
   3   9  -5 245.133 121.814   7
  -3  -9   4 356.561 104.615   4
  -3   9   4 220.614 96.6425   4
   3  -9  -4 128.436 106.068   5
   3   9  -4 225.676 96.2161   5
   3   9  -4 67.5878 97.8517   7
  -3   9   3 277.725 100.098   4
   3  -9  -3-47.4149 105.651   5
   3   9  -3 109.870 86.9289   5
   3   9  -3 119.837 103.790   7
   3   9  -2 262.552 95.5820   6
   3  -9  -2 110.708 97.4115   5
   3   9  -2 222.521 98.7892   5
   3   9  -2 243.458 112.788   7
   3   9  -1 347.267 106.927   6
   3  -9  -1 121.288 92.8536   5
   3   9  -1 269.984 92.4057   5
   3   9  -1 436.212 118.105   7
   3   9   0 6.63800 86.6343   6
   3  -9   0-152.001 103.892  12
   3  -9   0-96.2528 97.0213   5
   3   9   0 13.8542 86.5803   5
   3  -9   1 233.197 99.4653  12
   3  -9   1 242.157 97.2610   5
   3  -9   1 365.701 92.3947   8
   3   9   1 354.079 100.952   5
   3  -9   2 770.173 125.566   5
   3   9   2 862.506 142.986   5
   3  -9   2 828.015 142.560  12
   3  -9   2 971.123 128.349   8
   3   9   2 716.494 120.116   8
   3  -9   3 6185.60 277.883   5
   3   9   3 6060.39 300.269   5
   3  -9   3 6030.60 297.801  12
   3  -9   3 5963.50 290.441  11
   3  -9   3 5893.42 269.730   8
   3   9   3 5944.00 276.652   8
   3   9   4 2759.94 217.852   5
   3  -9   4 3246.37 229.832  12
   3  -9   4 3018.64 213.754  11
   3   9   4 2785.55 206.406   8
   3  -9   5 385.245 111.961  11
   3   9   5 522.282 120.324   8
   3   9   5 534.923 132.638   5
   3  -9   6 938.030 171.617  12
   3   9   6 821.588 150.974   8
   3   9   6 589.090 134.280   5
   3   9   7 352.642 114.748   3
   3   9   7 330.909 122.442   5
   3   9   8 39.9293 101.874   5
   3   9   8 143.290 116.730   3
   3   9   9 89.2620 118.887   3
   3 -10 -10 137.486 148.947   5
  -3  10   9-26.9568 107.919   4
   3 -10  -9 76.8352 122.139   5
  -3  10   9 125.964 125.019   9
  -3  10   8 37.3272 98.2739   4
   3 -10  -8 282.986 133.719   5
  -3  10   8 242.569 119.663   9
  -3  10   7-5.49233 93.7519   4
   3 -10  -7 157.136 126.494   5
  -3  10   7 212.681 111.826   9
  -3  10   6 220.059 105.801   4
   3 -10  -6 314.857 130.682   5
  -3  10   6 243.819 109.297   9
   3  10  -6 168.816 123.562   7
  -3  10   5 89.3492 91.6418   4
   3 -10  -5 117.169 113.745   5
   3  10  -5 134.027 106.873   7
   3  10  -4 20.2650 88.3364   6
  -3 -10   4 39.4231 91.7503   4
  -3  10   4 194.140 91.8791   4
   3 -10  -4 88.5682 103.319   5
   3  10  -4 101.913 88.1088   5
   3  10  -4 77.4074 101.495   7
   3  10  -3 333.547 103.736   6
   3 -10  -3 224.543 105.978   5
   3  10  -3 328.455 96.6811   5
   3  10  -3 376.859 125.553   7
   3  10  -2-7.06890 89.6221   6
   3 -10  -2 21.2414 94.0911   5
   3  10  -2-14.3597 83.5311   5
   3  10  -2 0.61916 99.5177   7
   3  10  -1 62.2945 95.9356   6
   3 -10  -1 12.7883 91.3678   5
   3  10  -1 105.717 79.7843   5
   3  10  -1 202.876 107.012   7
   3  10   0-41.8000 85.5077   6
   3 -10   0-130.067 113.512  12
   3 -10   0-82.0743 97.1580   5
   3  10   0-23.3430 83.3886   5
   3 -10   1 1006.38 138.297   5
   3  10   1 1309.93 152.757   5
   3 -10   1 1155.46 147.151  12
   3 -10   2 1817.53 165.136   5
   3  10   2 1755.43 179.375   5
   3 -10   2 2094.87 196.403  12
   3  10   2 1827.36 165.461   8
   3 -10   3 163.623 111.400  12
   3 -10   3-140.844 122.066  11
   3  10   3-30.4002 88.0907   8
   3  10   3 108.525 95.8863   5
   3 -10   4 612.626 143.183  12
   3 -10   4 300.516 108.066  11
   3  10   4 384.944 111.666   8
   3  10   4 252.828 107.440   5
   3 -10   5 75.8608 97.7997  11
   3  10   5 284.317 109.908   8
   3  10   5 155.149 104.242   5
   3 -10   6-37.1390 109.671  11
   3  10   6 128.211 110.739   8
   3  10   6-37.3515 104.138   5
   3  10   7 45.8544 102.542   3
   3  10   7-19.5679 94.7405   5
   3  10   8 217.499 123.918   5
   3  10   8 302.261 127.917   3
   3  10   9 2.68272 114.746   3
   3  10   9 103.328 113.113   5
   3 -11 -10 288.789 153.437   5
   3 -11  -9 91.1578 138.524   5
  -3  11   9 154.968 123.546   9
   3 -11  -8-28.3097 123.639   5
  -3  11   8 188.455 116.710   9
   3 -11  -7 103.718 129.251   5
  -3  11   7 344.221 130.602   9
   3  11  -7 60.6302 118.734   7
   3  11  -6 136.171 107.679   6
   3 -11  -6 154.539 134.343   5
   3  11  -6 58.2222 110.907   7
   3  11  -5 435.641 120.243   6
   3 -11  -5 437.150 135.678   5
   3  11  -5 402.259 133.044   7
   3  11  -4 77.5692 101.711   6
   3 -11  -4 52.7062 108.845   5
   3  11  -4-25.5894 111.883   7
   3  11  -3 353.804 110.270   6
   3 -11  -3 283.480 115.056   5
   3  11  -3 352.725 104.974   5
   3  11  -3 442.609 130.039   7
   3  11  -2 65.8074 95.2381   6
   3 -11  -2 70.0602 97.1650   5
   3  11  -2 64.5150 82.9125   5
   3  11  -2 42.9291 101.557   7
   3  11  -1 29.2357 93.1601   6
   3 -11  -1 14.3538 85.8659   5
   3  11  -1-119.475 96.0451   5
   3  11  -1 44.9325 89.0003   7
   3  11   0 145.955 100.503   6
   3 -11   0-62.2140 99.9921  12
   3 -11   0 7.42317 86.1061   5
   3  11   0 68.3558 89.9020   5
   3 -11   1 140.408 95.1671  12
   3 -11   1 170.088 98.2327   5
   3  11   1 124.673 98.8934   5
   3 -11   2 940.641 135.670   5
   3  11   2 849.475 146.881   5
   3 -11   2 822.673 143.508  12
   3 -11   2 686.383 121.663  11
   3  11   2 709.260 118.931   8
   3 -11   3 613.565 138.375  12
   3  11   3 278.697 99.3995   8
   3  11   3 443.751 126.953   5
   3 -11   4 222.139 132.099  12
   3  11   4-9.72371 88.1872   8
   3  11   4 126.201 112.518   5
   3 -11   5-40.3064 113.970  11
   3  11   5 206.379 117.720   5
   3 -11   6-49.8358 109.029  11
   3  11   6 94.6049 107.204   5
   3 -11   7 565.719 173.586  12
   3  11   7 90.1870 106.181   5
   3  11   8 110.489 121.183   3
   3  11   8 180.733 119.841   5
   3  11   9 286.496 139.497   5
   3 -12  -9 215.438 156.571   5
  -3  12   9 328.224 146.189   9
   3  12  -8 130.514 131.738   6
   3 -12  -8 115.353 143.254   5
   3  12  -7 150.571 127.701   6
   3 -12  -7 280.011 142.491   5
   3  12  -7 165.374 133.872   7
   3  12  -6 336.412 132.976   6
   3 -12  -6 248.470 132.423   5
   3  12  -6 40.7686 121.119   7
   3  12  -5 156.857 104.768   6
   3 -12  -5 165.337 124.205   5
   3  12  -5 27.1737 115.229   7
   3  12  -4-19.6300 99.1037   6
   3 -12  -4 44.0688 100.016   5
   3  12  -4 36.2197 107.090   7
   3  12  -3 153.564 107.476   6
   3 -12  -3 53.7745 105.084   5
   3  12  -3 118.447 90.4646   5
   3  12  -3 3.61100 104.668   7
   3  12  -2 97.3892 104.001   6
   3 -12  -2 199.354 116.284   5
   3  12  -2 3.75357 84.9201   5
   3  12  -2 132.304 116.582   7
   3  12  -1 54.2537 101.758   6
   3 -12  -1 153.696 100.889   5
   3  12  -1 27.2839 85.0338   5
   3  12   0 292.067 112.563   6
   3 -12   0 70.4189 100.703  12
   3 -12   0 72.8750 93.0067   5
   3  12   0 34.7907 88.4327   5
   3 -12   1-84.7282 101.942  12
   3 -12   1-44.3897 88.1297   5
   3  12   1-68.4906 97.2579   5
   3 -12   2 417.202 123.227  12
   3 -12   2 79.3629 108.112  11
   3 -12   2 283.314 102.292   5
   3  12   2 459.181 120.288   5
   3  12   3 1343.36 172.219   5
   3 -12   3 1490.06 180.528  12
   3 -12   3 1049.21 158.908  11
   3  12   4 1325.86 174.560   5
   3 -12   4 1013.63 162.998  11
   3 -12   5 372.587 121.244  11
   3  12   5 582.453 141.273   5
   3 -12   6-67.0273 111.808  11
   3  12   6-12.5759 95.6806   5
   3 -12   7 627.506 176.794  12
   3  12   7 194.520 114.610   5
   3  12   8 35.3674 101.229   3
   3  12   8 92.9248 107.315   5
   3  13  -9-7.30590 121.369   6
   3  13  -8 15.8024 119.758   6
   3 -13  -8 353.294 164.889   5
   3  13  -8 89.0549 138.321   7
   3  13  -7 611.054 156.353   6
   3 -13  -7 633.624 168.996   5
   3  13  -7 548.530 148.705   7
   3  13  -6 200.070 116.250   6
   3 -13  -6 232.009 131.724   5
   3  13  -6 258.284 133.188   7
   3  13  -5 455.865 134.702   6
   3 -13  -5 526.209 150.017   5
   3  13  -5 526.557 155.454   7
   3  13  -4 113.520 115.277   6
   3 -13  -4 342.940 137.288   5
   3  13  -4 41.1096 108.927   7
   3  13  -3 84.6296 103.933   6
   3 -13  -3 285.642 125.835   5
   3  13  -3 63.5486 84.5955   5
   3  13  -3 76.1320 106.577   7
   3  13  -2 15.4345 96.4756   6
   3 -13  -2 230.770 121.356   5
   3  13  -2 31.4511 88.2604   5
   3  13  -2 174.220 122.225   7
   3  13  -1 591.792 138.262   6
   3 -13  -1 524.617 127.903   5
   3  13  -1 299.087 112.070   5
   3  13   0 132.206 114.278   6
   3 -13   0-141.261 115.591  12
   3 -13   0-24.5485 94.8569   5
   3  13   0-14.3918 98.2352   5
   3 -13   1 35.5538 106.498  12
   3 -13   1 26.4875 91.2547   5
   3  13   1 162.601 100.581   5
   3 -13   2 35.2797 103.428  12
   3 -13   2-270.847 138.527  11
   3  13   2 49.6484 96.6242   5
   3 -13   3 511.200 136.046  12
   3 -13   3 226.720 111.859  11
   3  13   3 319.364 121.666   5
   3 -13   4-51.6087 114.142  11
   3  13   4 148.161 115.470   5
   3 -13   5-37.2922 116.203  11
   3  13   5 109.434 116.736   5
   3 -13   6 147.600 114.655  11
   3  13   6 263.625 119.722   5
   3 -13   7-98.3773 113.319  11
   3  13   7 2.01540 109.751   5
   3  13   8 388.589 147.360   3
   3  14  -8 253.373 146.338   6
   3  14  -7 117.486 133.106   6
   3 -14  -7 199.404 147.981   5
   3  14  -7 142.197 133.267   7
   3  14  -6 63.0709 123.946   6
   3 -14  -6 268.516 143.836   5
   3  14  -6 130.957 117.535   7
   3  14  -5 178.612 118.712   6
   3 -14  -5 259.221 129.391   5
   3  14  -5 256.148 137.412   7
   3  14  -4 136.436 117.241   6
   3 -14  -4 145.686 113.526   5
   3  14  -4 29.9146 119.020   7
   3  14  -3-67.8273 107.665   6
   3 -14  -3 161.572 116.394   5
   3  14  -3 38.1606 101.141   7
   3  14  -2 606.731 139.234   6
   3 -14  -2 704.559 148.897   5
   3  14  -2 498.971 118.238   5
   3  14  -2 699.704 156.043   7
   3  14  -1 58.9956 98.2862   6
   3 -14  -1 91.4433 99.2456   5
   3  14  -1-75.0082 98.7938   5
   3  14   0 125.091 117.426   6
   3 -14   0-220.571 124.454  12
   3 -14   0 171.308 110.925   5
   3  14   0 76.8611 100.597   5
   3 -14   1-83.8235 114.426  12
   3 -14   1-20.7132 87.5529   5
   3 -14   1-337.212 143.279  11
   3  14   1 121.650 103.806   5
   3  14   1 13.5783 105.675   6
   3 -14   2 33.8586 103.309  12
   3  14   2 97.3745 103.372   5
   3 -14   3 665.901 145.816  12
   3  14   3 530.667 138.548   5
   3 -14   4 285.769 147.150  12
   3  14   4 150.593 126.945   5
   3 -14   5-30.5712 117.567  11
   3  14   5 148.087 127.371   5
   3 -14   6 583.381 169.165  12
   3 -14   6 124.084 120.763  11
   3  14   6 282.697 142.232   5
   3 -14   7 301.427 137.092  11
   3  14   7 429.806 145.228   5
   3  15  -8 372.345 159.131   6
   3  15  -7 293.254 145.278   6
   3 -15  -7 457.427 166.457   5
   3  15  -6 265.917 129.179   6
   3 -15  -6 689.184 177.096   5
   3  15  -6 399.657 140.047   7
   3  15  -5 112.838 117.704   6
   3 -15  -5 151.490 135.052   5
   3  15  -5 111.021 127.397   7
   3  15  -4 329.132 133.151   6
   3 -15  -4 316.845 138.031   5
   3  15  -4 408.012 147.329   7
   3  15  -3-41.7366 101.919   6
   3 -15  -3 136.887 119.417   5
   3  15  -3 36.6058 106.107   7
   3  15  -2 403.209 134.439   6
   3 -15  -2 340.954 131.579   5
   3  15  -2 106.180 96.7582   5
   3  15  -1 131.397 115.054   6
   3 -15  -1 106.186 111.290   5
   3  15  -1-12.8634 96.6873   5
   3  15   0 98.8303 107.293   6
   3 -15   0-39.9656 115.957  12
   3 -15   0 295.180 116.561   5
   3  15   0 139.466 108.295   5
   3  15   1 70.3495 121.493   6
   3 -15   1-198.988 118.793  12
   3 -15   1 136.724 108.714   5
   3  15   1 89.9460 106.692   5
   3 -15   2 163.782 117.409  12
   3 -15   2-146.453 131.227  11
   3  15   2 99.1292 110.045   5
   3 -15   3 542.196 141.058  12
   3 -15   3 265.005 125.553  11
   3  15   3 584.207 144.828   5
   3 -15   4 956.049 168.954  12
   3  15   4 788.738 158.019   5
   3 -15   5 506.803 156.655  12
   3 -15   5 156.798 118.142  11
   3  15   5 214.590 124.460   5
   3 -15   6 498.493 151.878  11
   3  15   6 548.109 159.467   5
   3 -15   7 98.7464 126.379  11
   3  16  -7-20.0963 124.385   6
   3  16  -6 119.746 135.791   6
   3 -16  -6 219.620 154.654   5
   3  16  -6 4.42709 118.746   7
   3  16  -5 20.4815 120.738   6
   3 -16  -5 139.711 139.807   5
   3  16  -5 47.6440 130.149   7
   3  16  -4-6.12226 117.595   6
   3 -16  -4 121.773 122.186   5
   3  16  -4 19.8799 111.585   7
   3  16  -3 11.2093 112.677   6
   3 -16  -3 172.204 121.657   5
   3  16  -3 236.727 135.772   7
   3 -16  -2 1992.47 213.117   5
   3  16  -2 1787.75 189.548   5
   3  16  -2 2106.16 216.836   6
   3  16  -1 317.822 124.923   6
   3 -16  -1 465.166 141.024   5
   3  16  -1 340.926 123.506   5
   3 -16   0 1206.99 170.781   5
   3  16   0 1096.41 167.287   5
   3 -16   0 1064.19 156.358  12
   3  16   0 1233.17 178.780   6
   3  16   1 181.511 130.137   6
   3 -16   1-297.518 118.941  12
   3 -16   1-265.711 155.563  11
   3  16   1 35.3689 109.218   5
   3 -16   2 13.1409 102.507  12
   3  16   2 249.114 122.290   5
   3 -16   3 100.673 114.980  12
   3 -16   3-118.919 139.388  11
   3  16   3 196.163 127.728   5
   3 -16   4 308.581 138.183  12
   3 -16   4-123.816 140.434  11
   3  16   4 189.564 135.952   5
   3 -16   5 426.626 162.095  12
   3 -16   5 205.297 138.847  11
   3  16   5 318.347 146.566   5
   3 -16   6 194.194 140.105  11
   3  17  -6 39.7252 137.043   6
   3  17  -5 105.492 135.937   6
   3 -17  -5 198.828 149.152   5
   3  17  -5 196.779 142.338   7
   3  17  -4 503.383 158.687   6
   3 -17  -4 380.890 144.154   5
   3  17  -4 329.813 139.484   7
   3  17  -3 110.958 123.785   6
   3 -17  -3 166.574 137.384   5
   3  17  -3 251.710 142.682   7
   3  17  -2 673.406 160.024   6
   3 -17  -2 667.953 163.483   5
   3  17  -1 439.611 147.416   6
   3 -17  -1 613.679 157.256   5
   3  17  -1 567.866 132.786   5
   3  17   0 141.197 123.401   6
   3 -17   0 149.245 111.095   5
   3  17   0 83.8270 99.7074   5
   3  17   1 4.84862 120.895   6
   3 -17   1-119.006 117.147  12
   3  17   1 137.707 113.028   5
   3 -17   2 26.2988 106.728  12
   3  17   2 45.0686 107.860   5
   3 -17   3 187.261 118.372  12
   3 -17   3-105.539 141.310  11
   3  17   3 84.3609 117.376   5
   3 -17   4 501.369 159.979  12
   3 -17   4 37.1413 123.704  11
   3  17   4 478.961 152.994   5
   3 -17   5 671.428 175.091  12
   3  18  -5 102.890 129.821   6
   3  18  -4 39.5133 131.332   6
   3 -18  -4 139.430 140.991   5
   3  18  -3 21.4720 127.326   6
   3 -18  -3 185.697 131.038   5
   3  18  -3 167.179 129.751   7
   3  18  -2 102.627 124.275   6
   3 -18  -2 178.965 129.737   5
   3  18  -1 151.928 133.323   6
   3 -18  -1 170.095 120.822   5
   3  18  -1 87.4318 106.962   5
   3  18   0-125.744 142.510   6
   3  18   0 86.9833 113.636   5
   3  18   1 212.343 142.756   6
   3  18   1 14.3302 115.101   5
   3 -18   2-85.7909 117.820  12
   3 -18   2-222.619 148.907  11
   3  18   2 83.2254 120.587   5
   3  18   2 16.6538 126.105   6
   3 -18   3 110.675 118.786  12
   3 -18   3-246.778 152.120  11
   3  18   3 49.0323 130.222   5
   3 -18   4 375.556 150.760  12
   3  19  -3-50.2613 118.828   6
   3  19  -2 100.582 138.193   6
   3 -19  -2 117.385 130.019   5
   3  19  -1 40.9106 123.280   6
   3 -19  -1 288.122 136.263   5
   3  19   0 78.9602 147.917   6
   3  19   0-35.5594 114.990   5
   3  19   1 268.542 157.482   6
   3  19   1-24.9526 110.782   5
   3  19   2 96.1257 144.867   6
   3  19   2 241.082 146.351   5
   3 -19   3 221.129 134.495  12
   3 -20  -1-38.4444 122.034   5
   3  20   0 122.972 115.928   5
  -4   0   8 32.3503 110.361   4
  -4   0   7 181.520 117.009   4
   4   0  -7 131.147 122.983   5
  -4   0   6 1133.81 173.236   4
   4   0  -6 1112.93 174.839   5
  -4   0   5 273.298 124.278   4
   4   0  -5-107.327 104.279   5
  -4   0   4 322.833 122.341   4
   4   0  -4 238.526 118.861   5
   4   0  -3-32.6706 104.121   5
   4   0  -2 532.216 133.539   5
   4   0  -1-52.2007 106.649   5
   4   0   0 87.0323 101.672   5
   4   0   1 62.3799 93.2322   5
   4   0   1-74.2105 101.755   8
   4   0   2 63.9977 85.6655   5
   4   0   2 2.08638 99.3317   8
   4   0   3-33.1473 98.8960   5
   4   0   3 55.3539 96.1027   8
   4   0   4 115.471 99.0598   5
   4   0   4 258.653 126.887   8
   4   0   5 95.7029 102.346   5
   4   0   5 92.9327 116.997   8
   4   0   6-167.320 121.426  12
   4   0   6 321.587 140.998   8
  -4  -1   8 75.7405 113.722   4
  -4   1   8 175.668 120.713   4
  -4   1   8 64.7693 104.720  10
  -4  -1   7 310.176 137.108   4
  -4   1   7 280.888 124.806   4
   4  -1  -7 75.7654 109.879   5
   4   1  -7 381.523 137.875   5
  -4  -1   6 202.472 121.578   4
  -4   1   6 275.694 126.241   4
   4  -1  -6 318.086 130.785   5
   4   1  -6 280.070 119.885   5
  -4  -1   5 235.842 117.948   4
  -4   1   5 319.205 125.536   4
   4  -1  -5 62.8603 109.697   5
   4   1  -5 127.673 106.610   5
  -4  -1   4 595.655 141.244   4
  -4   1   4 438.362 130.137   4
   4  -1  -4 117.396 102.948   5
   4   1  -4 15.8314 103.113   5
   4  -1  -3 153.103 108.265   5
   4   1  -3 163.493 103.423   5
   4  -1  -2 109.927 96.0239   5
   4   1  -2-118.478 102.242   5
   4  -1  -1 51.2926 89.3909   5
   4   1  -1 32.1463 90.8577   5
   4  -1   0 1103.81 166.429   5
   4   1   0 1217.21 174.934   5
   4  -1   1-111.810 108.288   5
   4   1   1-4.90785 99.6499   5
   4  -1   1 13.5773 95.3845   8
   4   1   1-175.141 118.138   8
   4  -1   2 217.160 109.483   5
   4   1   2 253.781 115.836   5
   4  -1   2 236.758 108.841   8
   4   1   2 254.720 116.218   8
   4  -1   3 51.5857 90.5486   5
   4   1   3-129.160 97.7728   5
   4  -1   3-105.466 106.621   8
   4   1   3 75.4684 102.596   8
   4  -1   4-19.8218 95.7689   5
   4   1   4 39.7532 99.6920   5
   4  -1   4 34.2617 107.995   8
   4   1   4-52.1578 101.627   8
   4  -1   5-250.013 127.126  12
   4  -1   5 53.5212 94.4879   5
   4   1   5 107.878 101.516   5
   4  -1   5 74.0777 113.966   8
   4   1   5 196.050 126.496   8
   4  -1   6 8.23083 110.993  12
   4   1   6 221.708 113.429   5
   4  -1   6 397.026 143.115   8
   4   1   6 247.708 132.315   8
   4  -1   7-220.695 133.521  12
  -4   2   9-2.31930 111.579  10
  -4  -2   8-19.4165 112.719   4
  -4   2   8-73.6198 110.105   4
  -4   2   8 6.69059 105.100  10
   4  -2  -8 110.605 128.609   5
  -4  -2   7-30.6866 105.866   4
  -4   2   7 56.1150 114.069   4
   4  -2  -7-156.394 129.289   5
  -4  -2   6 671.890 151.125   4
  -4   2   6 398.864 132.066   4
   4  -2  -6 459.310 143.929   5
   4   2  -6 222.621 117.520   5
  -4  -2   5 868.459 163.200   4
  -4   2   5 890.389 160.566   4
   4  -2  -5 681.012 152.872   5
   4   2  -5 678.373 141.300   5
  -4   2   4 528.904 135.544   4
   4  -2  -4 228.975 123.050   5
   4   2  -4 251.245 114.727   5
   4  -2  -3 37.6486 100.193   5
   4   2  -3-105.795 104.784   5
   4  -2  -2 182.592 114.647   5
   4   2  -2 30.2006 101.871   5
   4  -2  -1 20.7654 97.1679   5
   4   2  -1-92.1301 98.4808   5
   4  -2   0 4.77798 95.7829   5
   4   2   0 76.9870 91.6000   5
   4  -2   1 104.607 98.4357   5
   4   2   1 43.3541 90.4065   5
   4  -2   1 82.2195 100.251   8
   4   2   1-13.9455 109.453   8
   4  -2   2-86.3149 103.714   5
   4   2   2-32.2148 91.4329   5
   4  -2   2-61.3175 105.021   8
   4   2   2-51.8106 100.481   8
   4  -2   3-47.4851 93.6049   5
   4   2   3 82.1945 97.6858   5
   4  -2   3 20.3544 103.591   8
   4   2   3 107.289 112.069   8
   4  -2   4-281.585 138.600  12
   4  -2   4-22.6724 92.7689   5
   4   2   4 96.1983 101.819   5
   4  -2   4 124.232 107.452   8
   4   2   4 65.6891 108.109   8
   4  -2   5 27.5922 122.883  12
   4  -2   5 206.386 112.253   5
   4   2   5 365.673 123.273   5
   4  -2   5 373.235 136.847   8
   4   2   5 400.900 135.623   8
   4  -2   6-51.4149 113.442  12
   4   2   6 236.691 117.917   5
   4  -2   6 317.961 150.255   8
   4   2   6 327.447 143.002   8
   4  -2   7 67.5355 112.521  12
   4   2   7 561.613 163.570   8
  -4  -3   8-121.639 121.030   4
  -4   3   8 152.557 121.761   4
   4  -3  -8 65.1440 115.342   5
  -4  -3   7 58.7354 106.861   4
  -4   3   7 231.146 125.072   4
   4  -3  -7 80.9335 120.888   5
  -4  -3   6 160.596 113.101   4
  -4   3   6 373.971 129.459   4
   4  -3  -6 65.0353 119.403   5
   4   3  -6 247.005 119.819   5
  -4  -3   5 373.345 131.000   4
  -4   3   5 327.160 133.989   4
   4  -3  -5 147.593 117.483   5
   4   3  -5 127.786 109.849   5
  -4   3   4 124.569 111.555   4
   4  -3  -4 32.4333 109.233   5
   4   3  -4-80.6072 97.8877   5
   4  -3  -3 157.533 109.780   5
   4   3  -3-60.6558 113.571   5
   4  -3  -2 38.5525 91.4145   5
   4   3  -2 43.8698 97.4785   5
   4  -3  -1 58.6931 108.690   5
   4   3  -1-93.0293 108.625   5
   4  -3   0-13.4919 89.6799   5
   4   3   0 14.0226 97.2637   5
   4  -3   1-25.7387 90.7582   5
   4   3   1 34.4796 98.7827   5
   4  -3   1-58.3123 98.2840   8
   4   3   1-119.900 114.296   8
   4  -3   2 79.4047 98.1473   5
   4   3   2 4.36603 99.1285   5
   4  -3   2-5.29577 102.051   8
   4   3   2-47.8813 115.010   8
   4  -3   3 8.59606 96.9165   5
   4   3   3 55.9977 90.5820   5
   4  -3   3 98.9707 97.7467   8
   4   3   3 58.6595 100.337   8
   4   3   4 1006.40 161.995   5
   4  -3   4 813.536 155.721  12
   4  -3   4 758.370 142.196   5
   4  -3   4 1142.55 175.878   8
   4   3   4 901.429 155.347   8
   4  -3   5 156.855 109.604  12
   4   3   5 250.881 103.566   5
   4  -3   5 370.621 135.827   8
   4   3   5 440.440 136.936   8
   4  -3   6-182.666 136.205  12
   4  -3   6 244.408 135.503   8
   4   3   6-60.0346 96.7503   5
   4   3   6 128.339 120.330   8
   4  -3   7-113.272 130.024  12
   4   3   7 91.5199 127.285   8
   4  -3   8-130.342 129.357  12
  -4  -4   8-22.6129 120.918   4
   4  -4  -8 4.77552 119.487   5
  -4  -4   7 82.5112 111.196   4
  -4   4   7-103.427 106.473   4
   4  -4  -7 60.3714 124.076   5
  -4  -4   6 37.8159 110.272   4
  -4   4   6 127.916 107.910   4
   4  -4  -6-94.5475 129.593   5
   4   4  -6-58.7040 102.366   5
  -4  -4   5 154.059 111.591   4
  -4   4   5 154.883 110.768   4
   4  -4  -5 38.0105 110.159   5
   4   4  -5-31.5333 99.9420   5
   4  -4  -4 146.898 115.490   5
   4   4  -4-48.4367 100.224   5
   4  -4  -3 79.1490 108.279   5
   4   4  -3 29.7394 98.9324   5
   4  -4  -2 103.520 111.978   5
   4   4  -2-39.6760 97.4138   5
   4  -4  -1-49.2412 92.2559   5
   4   4  -1 8.77578 100.226   5
   4  -4   0 72.1865 97.3398   5
   4   4   0 108.292 109.704   5
   4  -4   1 8.19498 99.3084   5
   4   4   1-22.4213 100.402   5
   4  -4   1-26.0996 99.8862   8
   4   4   1 48.9680 98.6243   8
   4  -4   2-30.4958 97.3421   5
   4   4   2-53.1625 104.495   5
   4  -4   2 6.93866 101.797   8
   4   4   2 24.0805 103.699   8
   4  -4   3-52.3561 121.269  12
   4  -4   3 31.5905 93.8204   5
   4   4   3 183.233 105.778   5
   4  -4   3 70.7170 100.403   8
   4   4   3 82.0840 103.944   8
   4  -4   4 10.7375 107.078  12
   4  -4   4 65.5699 94.1129   5
   4   4   4 346.902 124.729   5
   4  -4   4 293.629 118.277   8
   4   4   4 250.707 117.319   8
   4  -4   5-57.9628 117.909  12
   4   4   5 162.096 110.052   5
   4   4   5 54.7788 119.188   8
   4  -4   6 30.7254 117.231  12
   4  -4   6 300.853 138.109   8
   4   4   6 91.8584 104.880   5
   4   4   6 279.066 135.048   8
   4  -4   7 20.3410 127.744  12
   4   4   7 264.680 146.758   8
  -4  -5   8 182.237 137.232   4
   4  -5  -8 8.13480 120.459   5
  -4  -5   7 85.2678 115.248   4
  -4   5   7-5.18526 107.402   4
   4  -5  -7-79.9209 135.975   5
  -4  -5   6 210.186 122.545   4
  -4   5   6-35.9769 96.5927   4
   4  -5  -6-5.63357 113.016   5
  -4  -5   5 224.786 122.956   4
  -4   5   5 136.636 107.100   4
   4  -5  -5-46.4837 119.707   5
   4   5  -5 46.7647 98.0801   5
   4  -5  -4 116.269 117.941   5
   4   5  -4-184.544 115.207   5
   4  -5  -3 79.7891 111.912   5
   4   5  -3 115.113 109.030   5
   4  -5  -2 102.266 111.300   5
   4   5  -2 8.88964 90.4574   5
   4  -5  -1 83.3719 103.219   5
   4   5  -1 67.0467 94.4154   5
   4  -5   0 83.2125 106.261   5
   4   5   0-5.38982 96.5085   5
   4  -5   1-86.1714 107.440   5
   4   5   1 132.750 106.374   5
   4  -5   1 2.47632 98.0491   8
   4  -5   2 95.0100 95.7697   5
   4   5   2 330.968 124.739   5
   4  -5   2 145.733 105.841   8
   4   5   2 156.499 98.9892   8
   4  -5   3-189.887 125.842  12
   4  -5   3 38.9619 97.3945   5
   4   5   3-55.8590 97.6080   5
   4  -5   3-11.7582 96.8215   8
   4   5   3 6.70601 107.332   8
   4  -5   4-107.431 125.499  12
   4  -5   4 84.9241 94.0377   5
   4   5   4 130.713 113.945   5
   4  -5   4 253.160 121.885   8
   4   5   4 153.766 118.646   8
   4  -5   5 523.697 148.150  12
   4  -5   5 789.104 161.003   8
   4   5   5 540.058 145.459   5
   4   5   5 586.969 151.573   8
   4  -5   6 21.6803 117.626  12
   4   5   6 29.8085 96.0618   5
   4   5   6 130.510 120.569   8
   4  -5   7-91.7834 132.402  12
   4   5   7 39.8122 105.058   5
  -4  -6   8 111.052 116.814   4
   4  -6  -8-7.29875 129.822   5
  -4  -6   7 128.324 125.710   4
  -4   6   7 41.5180 105.463   4
   4  -6  -7 25.3227 117.629   5
  -4  -6   6 290.645 130.540   4
  -4   6   6 61.6125 107.638   4
   4  -6  -6 43.7498 116.119   5
  -4  -6   5 199.485 123.903   4
  -4   6   5 148.334 124.947   4
   4  -6  -5-102.784 118.492   5
   4   6  -5-33.4946 99.9365   5
   4  -6  -4 90.0442 100.970   5
   4   6  -4 142.900 99.7060   5
   4  -6  -3 141.762 115.939   5
   4   6  -3 46.8147 111.291   5
   4  -6  -2 153.606 117.068   5
   4   6  -2-19.3206 92.8590   5
   4  -6  -1 134.503 121.296   5
   4   6  -1 75.8511 98.3665   5
   4  -6   0 81.4693 113.231   5
   4   6   0 61.8503 102.680   5
   4  -6   1-80.0349 113.612   5
   4   6   1-79.3099 106.430   5
   4  -6   1-58.8574 108.623   8
   4  -6   2-0.97251 88.9921   5
   4   6   2 99.1809 109.197   5
   4  -6   2-10.1097 99.6431   8
   4   6   2 43.2262 103.192   8
   4  -6   3-48.2217 121.890  12
   4  -6   3 139.868 100.366   5
   4   6   3 267.739 118.882   5
   4  -6   3 174.785 113.637   8
   4   6   3 139.900 106.811   8
   4  -6   4 597.797 135.981  12
   4  -6   4 855.126 160.344   8
   4   6   4 738.813 155.941   5
   4   6   4 760.849 149.369   8
   4  -6   5 386.891 135.350  12
   4  -6   5 944.924 169.417   8
   4   6   5 617.722 151.085   5
   4   6   5 830.931 160.959   8
   4  -6   6 141.233 122.183  12
   4  -6   6 554.887 154.893   8
   4   6   6 215.800 116.116   5
   4   6   6 308.706 136.763   8
   4   6   7-61.2269 103.653   5
  -4  -7   8-41.9270 122.543   4
   4  -7  -8 125.308 146.898   5
  -4  -7   7 104.918 121.101   4
  -4   7   7 17.6479 108.553   4
   4  -7  -7-60.6877 122.621   5
  -4  -7   6 229.648 125.016   4
  -4   7   6 163.100 115.509   4
   4  -7  -6-16.3464 118.303   5
  -4  -7   5 149.619 120.508   4
  -4   7   5 229.417 118.613   4
   4  -7  -5 57.6258 111.054   5
   4   7  -5-24.8306 101.059   5
   4  -7  -4 14.5443 116.345   5
   4   7  -4 94.7386 106.538   5
   4  -7  -3 188.706 120.136   5
   4   7  -3 117.499 105.787   5
   4  -7  -2 65.3892 108.460   5
   4   7  -2 39.8040 99.7917   5
   4   7  -2-3.54550 100.842   7
   4  -7  -1 370.576 124.730   5
   4   7  -1 336.727 126.302   5
   4  -7   0 2.16950 101.521   5
   4   7   0 14.1757 96.0675   5
   4  -7   1 530.585 141.345   5
   4   7   1 474.554 138.906   5
   4  -7   1 304.760 105.893   8
   4  -7   2 45.7403 100.061   5
   4   7   2 181.570 121.546   5
   4  -7   2-51.4822 104.558   8
   4   7   2 25.5382 101.326   8
   4  -7   3 692.086 142.333   5
   4   7   3 723.004 152.038   5
   4  -7   3 379.407 136.963  12
   4  -7   3 586.364 137.981   8
   4   7   3 589.400 141.123   8
   4  -7   4 636.326 153.788  12
   4   7   4 687.639 151.977   5
   4  -7   4 689.672 148.098   8
   4   7   4 467.708 137.610   8
   4  -7   5-105.194 130.866  12
   4  -7   5 182.899 124.925   8
   4   7   5 75.0610 109.130   5
   4   7   5-19.9109 111.179   8
   4  -7   6 7.55717 120.659  12
   4  -7   6 261.479 142.028   8
   4   7   6 168.283 118.645   5
   4   7   6 20.4468 120.384   8
   4   7   7-19.3101 104.300   5
  -4  -8   7 165.120 128.562   4
  -4   8   7-56.9917 104.624   4
   4  -8  -7 10.7285 125.581   5
  -4  -8   6 245.379 127.609   4
  -4   8   6 187.127 123.442   4
   4  -8  -6-21.9488 124.791   5
  -4  -8   5 631.159 145.005   4
  -4   8   5 472.915 141.058   4
   4  -8  -4-117.151 123.449   5
   4   8  -4-5.50530 102.524   5
   4  -8  -3 276.213 126.023   5
   4   8  -3 434.410 124.490   5
   4   8  -3 229.077 129.772   7
   4  -8  -2 85.7216 104.773   5
   4   8  -2 278.635 119.413   5
   4   8  -2 237.119 125.813   7
   4  -8  -1 411.170 132.459   5
   4   8  -1 249.192 121.629   5
   4  -8   0 210.030 114.002   5
   4   8   0 338.113 118.997   5
   4  -8   1 158.241 112.438   5
   4   8   1 190.589 121.208   5
   4  -8   1 201.615 105.264   8
   4  -8   2-50.8108 128.840  12
   4  -8   2 229.689 110.105   5
   4   8   2 175.454 108.212   5
   4  -8   2 127.260 106.169   8
   4   8   2-60.6117 106.917   8
   4  -8   3 816.710 149.012   5
   4   8   3 882.971 167.553   5
   4  -8   3 608.910 148.646  12
   4  -8   3 846.815 152.126   8
   4   8   3 758.376 152.828   8
   4  -8   4-29.6924 114.709  12
   4  -8   4 67.5720 105.330   8
   4   8   4 62.9615 106.015   5
   4   8   4-33.5858 113.862   8
   4  -8   5 209.224 126.309  12
   4  -8   5 367.851 134.152   8
   4   8   5 437.686 141.023   5
   4   8   5 360.653 132.168   8
   4   8   6 20.8891 112.231   8
   4   8   6-88.8221 114.198   5
  -4  -9   7 160.164 128.187   4
  -4   9   7 78.8840 111.361   4
  -4  -9   6 241.489 133.899   4
  -4   9   6 96.1480 119.824   4
   4  -9  -6 55.4408 134.130   5
  -4   9   5 155.825 121.707   4
   4  -9  -5 7.66566 121.577   5
   4  -9  -4 8.55278 106.667   5
   4   9  -4-13.6495 92.6473   5
   4   9  -4 1.46624 115.471   7
   4  -9  -3 20.2811 114.928   5
   4   9  -3 14.2105 96.2097   5
   4   9  -3 67.6854 124.176   7
   4  -9  -2-161.605 128.127   5
   4   9  -2-1.30172 92.7174   5
   4   9  -2 30.1197 110.818   7
   4  -9  -1 32.4945 111.076   5
   4   9  -1 253.288 110.400   5
   4  -9   0 109.965 112.510   5
   4   9   0 210.667 128.725   5
   4  -9   1 1592.63 196.387   5
   4   9   1 1440.07 191.676   5
   4  -9   2 673.767 147.447   5
   4  -9   2 379.901 138.392  12
   4   9   2 559.063 152.323   5
   4  -9   3-115.395 129.731  12
   4   9   3 147.923 123.728   5
   4  -9   3-13.8092 96.8046   8
   4   9   3 70.2834 103.138   8
   4  -9   4 12.2265 120.104  12
   4  -9   4-20.0460 100.137   8
   4   9   4-25.3570 109.875   5
   4   9   4 109.678 114.789   8
   4  -9   5-89.1855 129.244  12
   4  -9   5 95.8357 125.915   8
   4   9   5 38.7686 108.187   8
   4   9   5-46.1270 122.754   5
   4  -9   6 239.667 145.022   8
   4   9   6-51.4095 122.077   8
  -4  10   7 166.509 127.211   4
  -4  10   6 73.0218 126.740   4
   4 -10  -5 103.027 125.659   5
   4 -10  -4 1.07167 123.423   5
   4  10  -4 34.9228 104.996   5
   4  10  -4 19.8557 121.017   7
   4 -10  -3-116.616 125.309   5
   4  10  -3 33.1549 104.221   5
   4  10  -3-32.3652 116.705   7
   4 -10  -2-16.9000 117.743   5
   4  10  -2 29.1755 101.485   5
   4  10  -2 48.7349 106.629   7
   4 -10  -1 215.944 129.489   5
   4  10  -1 318.030 129.082   5
   4 -10   0-68.3138 119.214   5
   4  10   0 95.2037 109.938   5
   4 -10   1 173.055 116.221   5
   4  10   1 627.810 150.429   5
   4 -10   2 53.4788 121.983  12
   4 -10   2 54.5359 103.301   5
   4 -10   3-88.2322 128.048  12
   4  10   3 14.3859 115.774   5
   4  10   3 49.0532 109.783   8
   4 -10   4-67.9669 129.691  12
   4  10   4-21.4973 118.767   5
   4  10   4-134.545 121.762   8
   4  10   5-41.3751 118.142   8
   4  10   5-91.2682 126.634   5
   4  10   6 72.7399 115.259   8
   4 -11  -5 47.1169 131.463   5
   4  11  -5 47.9761 123.806   7
   4 -11  -4-3.50490 114.119   5
   4  11  -4-19.2482 117.617   7
   4 -11  -3 16.9646 117.651   5
   4  11  -3-31.3156 99.1776   5
   4  11  -3-1.97248 108.042   7
   4 -11  -2-117.265 116.795   5
   4  11  -2 25.0026 96.4413   5
   4  11  -2 122.087 123.144   7
   4 -11  -1-43.3734 116.890   5
   4  11  -1 34.3122 96.9159   5
   4  11  -1 73.2993 119.539   7
   4 -11   0-48.0821 123.129   5
   4  11   0 80.7583 110.835   5
   4 -11   1-36.0590 111.904   5
   4  11   1 80.0668 111.546   5
   4 -11   2-76.4226 130.507  12
   4 -11   2-42.6256 114.644   5
   4  11   2 284.656 134.091   5
   4 -11   3-265.019 143.938  12
   4  11   3-101.923 116.227   5
   4  11   3-109.764 124.269   8
   4 -11   4 24.5931 123.525  12
   4  11   4 106.496 102.493   5
   4  11   4-96.5566 119.979   8
   4  11   5-97.3605 125.816   8
   4 -12  -4 52.4101 126.707   5
   4  12  -4 94.2550 137.237   7
   4 -12  -3 153.576 131.894   5
   4  12  -3 93.8370 102.234   5
   4  12  -3 180.323 138.080   7
   4 -12  -2-56.0135 121.635   5
   4  12  -2 141.752 116.185   5
   4  12  -2 28.4260 119.018   7
   4 -12  -1-59.7995 122.102   5
   4  12  -1-30.1173 103.349   5
   4  12  -1 93.6738 118.994   7
   4 -12   0-58.3439 122.623   5
   4  12   0 121.193 125.390   5
   4 -12   1 184.606 122.122   5
   4  12   1 209.257 116.783   5
   4 -12   2-119.625 141.704  12
   4  12   2 141.308 119.070   5
   4 -12   3-164.943 143.348  12
   4  12   3 40.0276 103.946   5
   4  13  -4 62.9532 123.850   7
   4 -13  -3 94.7820 134.640   5
   4  13  -3-5.47244 102.891   5
   4  13  -3 99.2669 134.200   7
   4 -13  -2 120.959 119.776   5
   4  13  -2 81.2683 116.070   5
   4  13  -2-7.00450 126.432   7
   4 -13  -1-157.077 132.534   5
   4  13  -1-125.027 117.398   5
   4  13  -1-36.8014 116.802   7
   4 -13   0-2.39436 117.797   5
   4  13   0-15.6381 105.714   5
   4 -13   1 63.3461 111.822   5
   4  13   1 127.215 122.882   5
   4 -13   2-198.597 155.895  12
   4  13   2-18.6743 128.146   5
   4  14  -3 0.41699 126.135   7
   4  14  -2 95.5796 122.982   5
   4  14  -2-60.1483 131.117   7
   4 -14  -1-25.3830 114.437   5
   4  14  -1 50.8195 116.180   5
   4  14  -1-33.5755 126.113   7
   4 -14   0 109.399 118.085   5
   4  14   0 99.3970 120.056   5
   4  15  -2 302.879 146.081   5
   4  15  -1 2.29798 117.253   5
   4  15  -1-42.8342 132.334   7
   4 -15   0-33.2528 117.683   5
   0   0   0    0.00    0.00   0
;
_shelx_hkl_checksum              19450
_shelx_res_file
;
    MONOMER.res created by SHELXL-2014/7
TITL MONOMER P 1 21/c 1
CELL 0.71073 3.8856 19.2920 10.9859 90.0 92.221 90.0
ZERR 4       0.0003  0.0011  0.0006  0.0  0.006  0.0
LATT 1
SYMM x, 0.5-y, 0.5+z
SFAC C H F O
UNIT 36 24 8 8
OMIT -2 52
L.S. 6
BOND $H
FMAP 2
PLAN -20
ACTA
WGHT    0.045200    0.020600
FVAR       5.13434
C1    1    0.608883    0.688498    0.314544    11.00000    0.05458    0.05477 =
         0.05474    0.00265   -0.00370   -0.00116
C2    1    0.547223    0.620267    0.286775    11.00000    0.06780    0.06451 =
         0.07189   -0.01598   -0.00876   -0.01127
C3    1    0.645800    0.570583    0.370660    11.00000    0.07600    0.04736 =
         0.09637   -0.01037   -0.00175   -0.00682
C4    1    0.805655    0.589044    0.479145    11.00000    0.07264    0.04610 =
         0.07964    0.00286   -0.00049    0.00207
C5    1    0.866797    0.658011    0.501360    11.00000    0.05652    0.05028 =
         0.05549   -0.00477   -0.00118    0.00272
C6    1    0.771888    0.711531    0.422289    11.00000    0.04696    0.04391 =
         0.05192   -0.00107    0.00308   -0.00123
C7    1    0.848819    0.783740    0.453762    11.00000    0.05804    0.04690 =
         0.05021   -0.00131   -0.00354    0.00004
C8    1    0.770312    0.840727    0.392125    11.00000    0.07117    0.05052 =
         0.05599    0.00188   -0.00823   -0.00026
C9    1    0.872879    0.909053    0.438977    11.00000    0.07150    0.04449 =
         0.05877    0.00536   -0.00855    0.00425
F1    3    0.502207    0.736619    0.231800    11.00000    0.10529    0.07150 =
         0.06605    0.00656   -0.02650   -0.00697
F2    3    1.033452    0.675185    0.607697    11.00000    0.10422    0.05992 =
         0.06199    0.00284   -0.01967    0.00621
O1    4    0.779945    0.960570    0.366780    11.00000    0.13650    0.04628 =
         0.08117    0.01114   -0.04214   -0.00140
O2    4    1.032230    0.918047    0.535499    11.00000    0.11108    0.04351 =
         0.07083    0.00539   -0.03048   -0.00050
H2    2    0.438567    0.611047    0.214532    11.00000    0.07216
H3    2    0.603783    0.523176    0.351079    11.00000    0.07730
H4    2    0.871176    0.558393    0.538771    11.00000    0.08732
HO1   2    0.850232    1.001984    0.403517    11.00000    0.13226
H7    2    0.971204    0.788493    0.528604    11.00000    0.06041
H8    2    0.639634    0.839643    0.315403    11.00000    0.07070
HKLF 4
REM  MONOMER P 1 21/c 1
REM R1 =  0.0408 for    1000 Fo > 4sig(Fo)  and  0.0825 for all    1619 data
REM    142 parameters refined using      0 restraints
END
WGHT      0.0452      0.0141
REM Highest difference peak  0.118,  deepest hole -0.156,  1-sigma level  0.029
Q1    1   0.6557  0.9591  0.4312  11.00000  0.05    0.12
Q2    1   1.1501  0.9158  0.4605  11.00000  0.05    0.11
Q3    1   0.8406  0.9293  0.5148  11.00000  0.05    0.10
Q4    1   0.6907  0.6510  0.6080  11.00000  0.05    0.10
Q5    1   0.6297  0.8117  0.4384  11.00000  0.05    0.09
Q6    1   0.6994  0.7465  0.4482  11.00000  0.05    0.09
Q7    1   0.8592  0.8387  0.2906  11.00000  0.05    0.09
Q8    1   0.7179  0.6494  0.2860  11.00000  0.05    0.09
Q9    1   0.7411  0.5388  0.5636  11.00000  0.05    0.09
Q10   1   0.9017  0.5258  0.3010  11.00000  0.05    0.08
Q11   1   0.6841  0.9614  0.6415  11.00000  0.05    0.08
Q12   1   0.6983  0.6990  0.3715  11.00000  0.05    0.08
Q13   1   0.7087  0.6194  0.5144  11.00000  0.05    0.08
Q14   1   0.6804  0.6942  0.4793  11.00000  0.05    0.08
Q15   1   0.6053  0.7098  0.1164  11.00000  0.05    0.08
Q16   1   1.2760  0.7797  0.5309  11.00000  0.05    0.08
Q17   1   0.0982  0.7714  0.2577  11.00000  0.05    0.08
Q18   1   0.9755  0.7813  0.6659  11.00000  0.05    0.08
Q19   1   0.7494  0.7034  0.2273  11.00000  0.05    0.07
Q20   1   1.0359  0.9964  0.3693  11.00000  0.05    0.07
;
_shelx_res_checksum              82506
loop_
_space_group_symop_operation_xyz
'x, y, z'
'x, -y+1/2, z+1/2'
'-x, -y, -z'
'-x, y-1/2, -z-1/2'
loop_
_atom_site_type_symbol
_atom_site_label
_atom_site_fract_x
_atom_site_fract_y
_atom_site_fract_z
_atom_site_U_iso_or_equiv
_atom_site_adp_type
_atom_site_calc_flag
_atom_site_occupancy
C C1 0.6089(5) 0.68850(11) 0.31454(17) 0.0548(5) Uani d 1
C C2 0.5472(6) 0.62027(13) 0.2868(2) 0.0684(6) Uani d 1
C C3 0.6458(6) 0.57058(13) 0.3707(2) 0.0734(6) Uani d 1
C C4 0.8057(6) 0.58904(12) 0.4791(2) 0.0662(6) Uani d 1
C C5 0.8668(5) 0.65801(10) 0.50136(18) 0.0542(5) Uani d 1
C C6 0.7719(4) 0.71153(9) 0.42229(16) 0.0476(4) Uani d 1
C C7 0.8488(5) 0.78374(10) 0.45376(18) 0.0519(5) Uani d 1
C C8 0.7703(5) 0.84073(10) 0.3921(2) 0.0595(5) Uani d 1
C C9 0.8729(5) 0.90905(10) 0.43898(19) 0.0585(5) Uani d 1
F F1 0.5022(3) 0.73662(6) 0.23180(10) 0.0817(4) Uani d 1
F F2 1.0335(3) 0.67519(6) 0.60770(10) 0.0760(4) Uani d 1
O O1 0.7799(4) 0.96057(9) 0.36678(15) 0.0892(5) Uani d 1
O O2 1.0322(4) 0.91805(7) 0.53550(13) 0.0760(5) Uani d 1
H H2 0.439(5) 0.6110(11) 0.2145(18) 0.072(6) Uiso d 1
H H3 0.604(5) 0.5232(12) 0.3511(18) 0.077(6) Uiso d 1
H H4 0.871(6) 0.5584(12) 0.539(2) 0.087(7) Uiso d 1
H HO1 0.850(7) 1.0020(16) 0.404(2) 0.132(11) Uiso d 1
H H7 0.971(4) 0.7885(10) 0.5286(16) 0.060(5) Uiso d 1
H H8 0.640(5) 0.8396(10) 0.3154(19) 0.071(6) Uiso d 1
loop_
_atom_site_aniso_label
_atom_site_aniso_U_11
_atom_site_aniso_U_22
_atom_site_aniso_U_33
_atom_site_aniso_U_12
_atom_site_aniso_U_13
_atom_site_aniso_U_23
C1 0.0546(11) 0.0548(13) 0.0547(12) -0.0012(9) -0.0037(9) 0.0027(10)
C2 0.0678(14) 0.0645(16) 0.0719(15) -0.0113(11) -0.0088(12) -0.0160(13)
C3 0.0760(15) 0.0474(14) 0.0964(18) -0.0068(11) -0.0017(13) -0.0104(14)
C4 0.0726(14) 0.0461(13) 0.0796(16) 0.0021(11) -0.0005(12) 0.0029(12)
C5 0.0565(11) 0.0503(12) 0.0555(11) 0.0027(9) -0.0012(9) -0.0048(10)
C6 0.0470(10) 0.0439(11) 0.0519(11) -0.0012(8) 0.0031(8) -0.0011(9)
C7 0.0580(11) 0.0469(12) 0.0502(11) 0.0000(9) -0.0035(9) -0.0013(10)
C8 0.0712(13) 0.0505(13) 0.0560(13) -0.0003(10) -0.0082(10) 0.0019(10)
C9 0.0715(13) 0.0445(12) 0.0588(12) 0.0043(10) -0.0086(10) 0.0054(11)
F1 0.1053(9) 0.0715(9) 0.0661(8) -0.0070(7) -0.0265(7) 0.0066(6)
F2 0.1042(9) 0.0599(8) 0.0620(7) 0.0062(6) -0.0197(6) 0.0028(6)
O1 0.1365(14) 0.0463(9) 0.0812(10) -0.0014(9) -0.0421(9) 0.0111(8)
O2 0.1111(12) 0.0435(9) 0.0708(10) -0.0005(7) -0.0305(9) 0.0054(7)
loop_
_atom_type_symbol
_atom_type_description
_atom_type_scat_dispersion_real
_atom_type_scat_dispersion_imag
_atom_type_scat_source
C C 0.0033 0.0016 'International Tables Vol C Tables 4.2.6.8 and 6.1.1.4'
H H 0.0000 0.0000 'International Tables Vol C Tables 4.2.6.8 and 6.1.1.4'
F F 0.0171 0.0103 'International Tables Vol C Tables 4.2.6.8 and 6.1.1.4'
O O 0.0106 0.0060 'International Tables Vol C Tables 4.2.6.8 and 6.1.1.4'
loop_
_geom_angle_atom_site_label_1
_geom_angle_atom_site_label_2
_geom_angle_atom_site_label_3
_geom_angle
F1 C1 C2 117.59(18)
F1 C1 C6 117.99(17)
C2 C1 C6 124.4(2)
C1 C2 C3 118.6(2)
C1 C2 H2 117.2(14)
C3 C2 H2 124.2(14)
C4 C3 C2 120.5(2)
C4 C3 H3 121.0(13)
C2 C3 H3 118.5(13)
C3 C4 C5 118.5(2)
C3 C4 H4 124.1(14)
C5 C4 H4 117.4(14)
F2 C5 C4 117.67(19)
F2 C5 C6 117.62(16)
C4 C5 C6 124.71(19)
C5 C6 C1 113.26(16)
C5 C6 C7 120.84(16)
C1 C6 C7 125.89(17)
C8 C7 C6 129.07(19)
C8 C7 H7 117.8(12)
C6 C7 H7 113.1(12)
C7 C8 C9 120.98(19)
C7 C8 H8 122.1(12)
C9 C8 H8 116.9(12)
O2 C9 O1 122.40(18)
O2 C9 C8 123.76(19)
O1 C9 C8 113.83(19)
C9 O1 HO1 108.6(17)
loop_
_geom_bond_atom_site_label_1
_geom_bond_atom_site_label_2
_geom_bond_distance
C1 F1 1.353(2)
C1 C2 1.370(3)
C1 C6 1.393(2)
C2 C3 1.374(3)
C2 H2 0.90(2)
C3 C4 1.370(3)
C3 H3 0.95(2)
C4 C5 1.372(3)
C4 H4 0.91(2)
C5 F2 1.355(2)
C5 C6 1.390(2)
C6 C7 1.463(2)
C7 C8 1.321(3)
C7 H7 0.938(18)
C8 C9 1.465(3)
C8 H8 0.97(2)
C9 O2 1.219(2)
C9 O1 1.313(2)
O1 HO1 0.93(3)

_cod_database_fobs_code 2020544
