#------------------------------------------------------------------------------
#$Date: 2017-07-25 12:08:08 +0300 (Tue, 25 Jul 2017) $
#$Revision: 199094 $
#$URL: file:///home/coder/svn-repositories/cod/cif/2/02/08/2020808.cif $
#------------------------------------------------------------------------------
#
# This file is available in the Crystallography Open Database (COD),
# http://www.crystallography.net/. The original data for this entry
# were provided by IUCr Journals, http://journals.iucr.org/.
#
# The file may be used within the scientific community so long as
# proper attribution is given to the journal article from which the
# data were obtained.
#
data_2020808
loop_
_publ_author_name
'Mohana, Marimuthu'
'Thomas Muthiah, Packianathan'
'McMillen, Colin D.'
_publ_section_title
;
 Supramolecular architectures in two 1:1 cocrystals of 5-fluorouracil with
 5-bromothiophene-2-carboxylic acid and thiophene-2-carboxylic acid
;
_journal_coeditor_code           OV3090
_journal_issue                   6
_journal_name_full               'Acta Crystallographica Section C'
_journal_page_first              481
_journal_page_last               485
_journal_paper_doi               10.1107/S2053229617007550
_journal_volume                  73
_journal_year                    2017
_chemical_formula_iupac          'C5 H3 Br O2 S, C4 H3 F N2 O2'
_chemical_formula_moiety         'C5 H3 Br O2 S, C4 H3 F N2 O2'
_chemical_formula_sum            'C9 H6 Br F N2 O4 S'
_chemical_formula_weight         337.13
_chemical_name_common
;
5-Fluorouracil--5-bromothiophene-2-carboxylic acid (1/1)
;
_chemical_name_systematic
;
5-Fluoro-1,3-dihydropyrimidine-2,4-dione--5-bromothiophene-2-carboxylic acid
(1/1)
;
_space_group_crystal_system      triclinic
_space_group_IT_number           2
_space_group_name_Hall           '-P 1'
_space_group_name_H-M_alt        'P -1'
_symmetry_space_group_name_Hall  '-P 1'
_symmetry_space_group_name_H-M   'P -1'
_atom_sites_solution_hydrogens   mixed
_atom_sites_solution_primary     dual
_atom_sites_solution_secondary   difmap
_audit_creation_method           SHELXL-2016/6
_cell_angle_alpha                73.608(2)
_cell_angle_beta                 87.634(2)
_cell_angle_gamma                69.969(2)
_cell_formula_units_Z            2
_cell_length_a                   6.8884(4)
_cell_length_b                   9.5036(6)
_cell_length_c                   9.6180(6)
_cell_measurement_reflns_used    15925
_cell_measurement_temperature    100(2)
_cell_measurement_theta_max      26.4
_cell_measurement_theta_min      2.2
_cell_volume                     566.43(6)
_computing_cell_refinement
;
SAINT (Bruker, 2015)
;
_computing_data_collection
;
APEX3 (Bruker, 2015)
;
_computing_data_reduction
;
SAINT (Bruker, 2015)
;
_computing_molecular_graphics
;
PLATON (Spek, 2009), Mercury (Macrae <i>et al.</i>, 2008)
and POVRay (Cason, 2004)
;
_computing_publication_material
;
PLATON (Spek, 2009) and publCIF (Westrip, 2010)
;
_computing_structure_refinement
;
SHELXL2016 (Sheldrick, 2015b)
;
_computing_structure_solution
;
SHELXT2014 (Sheldrick, 2015a)
;
_diffrn_ambient_temperature      100(2)
_diffrn_measured_fraction_theta_full 0.998
_diffrn_measured_fraction_theta_max 0.995
_diffrn_measurement_device_type  'Bruker D8 Venture Photon 100'
_diffrn_measurement_method       '\f and \w scans'
_diffrn_radiation_type           MoK\a
_diffrn_radiation_wavelength     0.71073
_diffrn_reflns_av_R_equivalents  0.0319
_diffrn_reflns_limit_h_max       8
_diffrn_reflns_limit_h_min       -8
_diffrn_reflns_limit_k_max       11
_diffrn_reflns_limit_k_min       -11
_diffrn_reflns_limit_l_max       12
_diffrn_reflns_limit_l_min       -12
_diffrn_reflns_number            15925
_diffrn_reflns_theta_full        25.242
_diffrn_reflns_theta_max         26.419
_diffrn_reflns_theta_min         2.211
_exptl_absorpt_coefficient_mu    3.834
_exptl_absorpt_correction_T_max  1.0000
_exptl_absorpt_correction_T_min  0.7448
_exptl_absorpt_correction_type   multi-scan
_exptl_absorpt_process_details
;
(SADABS; Krause <i>et al.</i>, 2015)
;
_exptl_crystal_colour            colourless
_exptl_crystal_density_diffrn    1.977
_exptl_crystal_description       column
_exptl_crystal_F_000             332
_exptl_crystal_size_max          0.328
_exptl_crystal_size_mid          0.084
_exptl_crystal_size_min          0.067
_refine_diff_density_max         0.324
_refine_diff_density_min         -0.395
_refine_ls_extinction_method     none
_refine_ls_goodness_of_fit_ref   1.061
_refine_ls_hydrogen_treatment    mixed
_refine_ls_matrix_type           full
_refine_ls_number_parameters     175
_refine_ls_number_reflns         2317
_refine_ls_number_restraints     0
_refine_ls_restrained_S_all      1.061
_refine_ls_R_factor_all          0.0210
_refine_ls_R_factor_gt           0.0191
_refine_ls_shift/su_max          0.001
_refine_ls_shift/su_mean         0.000
_refine_ls_structure_factor_coef Fsqd
_refine_ls_weighting_details
'w=1/[\s^2^(Fo^2^)+(0.0276P)^2^+0.2836P] where P=(Fo^2^+2Fc^2^)/3'
_refine_ls_weighting_scheme      calc
_refine_ls_wR_factor_gt          0.0497
_refine_ls_wR_factor_ref         0.0508
_reflns_number_gt                2194
_reflns_number_total             2317
_reflns_threshold_expression     'I > 2\s(I)'
_cod_data_source_file            ov3090sup1.cif
_cod_data_source_block           I
_cod_database_code               2020808
_shelx_space_group_comment
;
The symmetry employed for this shelxl refinement is uniquely defined
by the following loop, which should always be used as a source of
symmetry information in preference to the above space-group names.
They are only intended as comments.
;
_shelx_estimated_absorpt_t_min   0.366
_shelx_estimated_absorpt_t_max   0.783
_shelx_hkl_file
;
  -1   0   0   91.79    4.50
  -1   0   0  103.99    4.60
  -1   0   0  108.39    4.60
  -1   0   0  110.49    4.50
  -1   0   0  100.99    4.40
   1   0   0  108.59    4.60
   1   0   0  107.79    4.50
   1   0   0  106.29    4.60
  -2   0   0  191.18    8.10
  -2   0   0  186.08    8.40
  -2   0   0  177.58    7.80
  -2   0   0  190.28    8.40
  -2   0   0  187.68    8.10
   2   0   0  189.98    8.30
   2   0   0  178.58    8.30
   2   0   0  186.78    8.00
   2   0   0  189.08    8.10
  -3   0   0 2107.79   86.19
  -3   0   0 2103.79   86.49
  -3   0   0 2084.69   86.59
  -3   0   0 2221.38   86.19
   3   0   0 2147.39   86.39
   3   0   0 2112.19   86.09
   3   0   0 2096.29   86.39
   3   0   0 2148.49   86.09
  -4   0   0  440.56   19.10
  -4   0   0  444.76   19.80
   4   0   0  451.55   19.50
   4   0   0  437.46   19.00
   4   0   0  459.75   19.10
   4   0   0  434.66   19.00
   4   0   0  446.26   19.60
  -5   0   0 1065.09   46.60
  -5   0   0 1120.39   45.90
   5   0   0 1088.29   45.70
   5   0   0 1106.69   46.30
   5   0   0 1131.39   45.80
   5   0   0 1128.19   45.80
   5   0   0 1105.99   46.50
  -6   0   0  480.35   25.40
   6   0   0  581.84   25.40
   6   0   0  583.74   24.40
   6   0   0  600.04   25.30
   6   0   0  493.75   24.30
   6   0   0  611.74   24.60
  -7   0   0  721.13   34.10
   7   0   0  741.83   33.20
   7   0   0  756.62   32.40
   7   0   0  706.83   31.20
   7   0   0  758.02   32.30
   7   0   0  788.62   32.40
  -8   0   0   -5.40    7.60
   8   0   0    4.10    5.80
   8   0   0    4.30    3.80
   8   0   0   -2.10    5.30
   7  -1   0  416.16   18.60
   7  -1   0  413.16   19.60
   7  -1   0  420.56   19.70
  -7   1   0  396.66   21.60
   6  -1   0   34.30    5.80
   6  -1   0   26.70    5.40
   6  -1   0   36.70    6.10
  -6   1   0   32.10    7.40
   5  -1   0  146.19    7.70
   5  -1   0  136.59    7.80
   5  -1   0  133.79    7.00
   5  -1   0  134.69    8.70
  -5   1   0  140.89    9.10
  -5   1   0  121.69    6.90
  -5   1   0  136.49    7.00
   4  -1   0 1357.56   53.49
   4  -1   0 1300.97   53.39
   4  -1   0 1308.27   53.39
   4  -1   0 1311.87   53.79
   4  -1   0 1321.17   54.09
  -4   1   0 1297.47   53.39
  -4   1   0 1308.97   53.49
  -4   1   0 1271.77   54.39
  -4   1   0 1318.87   53.59
   3  -1   0 1722.43   67.19
   3  -1   0 1663.53   67.19
   3  -1   0 1729.93   67.69
   3  -1   0 1633.14   67.39
   3  -1   0 1683.43   67.29
   3  -1   0 1674.23   67.79
  -3   1   0 1676.13   67.89
  -3   1   0 1716.23   67.29
  -3   1   0 1632.94   67.89
  -3   1   0 1460.05   67.19
   2  -1   0 2834.02  109.19
   2  -1   0 2617.84  109.39
   2  -1   0 2783.72  109.39
   2  -1   0 2661.93  109.19
   2  -1   0 2637.14  109.09
  -2   1   0 2676.63  109.49
  -2   1   0 2790.12  109.29
  -2   1   0 2706.03  109.19
  -2   1   0 2656.83  109.49
   1  -1   0  231.08    9.80
   1  -1   0  227.18    9.80
   1  -1   0  242.08    9.70
   1  -1   0  229.58    9.90
   1  -1   0  229.38    9.80
  -1   1   0  222.78    9.90
  -1   1   0  245.88    9.80
  -1   1   0  234.98    9.80
  -1   1   0  230.58    9.80
  -1   1   0  244.98    9.90
   0  -1   0   47.60    2.40
   0  -1   0   49.40    2.30
   0  -1   0   53.59    2.40
   0   1   0   51.79    2.20
   0   1   0   51.19    2.40
   0   1   0   48.70    2.30
   0   1   0   50.49    2.40
  -1  -1   0 1310.17   47.50
  -1  -1   0 1184.48   47.50
  -1  -1   0 1116.39   47.40
  -1  -1   0 1138.49   47.30
   1   1   0 1116.99   47.30
   1   1   0 1162.38   47.40
   1   1   0 1203.68   47.50
  -2  -1   0 1525.75   63.89
  -2  -1   0 1627.14   63.79
   2   1   0 1545.05   63.89
   2   1   0 1561.44   63.89
   2   1   0 1555.04   63.79
   2   1   0 1618.54   63.59
   2   1   0 1605.74   63.99
  -3  -1   0 2846.52  116.69
  -3  -1   0 2868.01  116.89
  -3  -1   0 2996.60  116.59
   3   1   0 2849.11  116.69
   3   1   0 2950.40  116.79
   3   1   0 2900.01  116.49
   3   1   0 2803.92  116.29
   3   1   0 2867.01  116.59
  -4  -1   0  471.75   20.90
  -4  -1   0  491.85   20.40
   4   1   0  470.75   20.70
   4   1   0  478.85   20.70
   4   1   0  470.35   20.30
   4   1   0  488.55   20.50
   4   1   0  467.45   20.10
  -5  -1   0 1133.19   47.80
  -5  -1   0 1137.39   47.00
   5   1   0 1155.88   47.10
   5   1   0 1169.18   47.50
   5   1   0 1018.60   47.30
   5   1   0 1181.18   46.80
   5   1   0 1153.98   47.00
   5   1   0 1135.69   46.40
  -6  -1   0  230.58   12.00
  -6  -1   0  230.28   13.00
   6   1   0  234.38   12.00
   6   1   0  253.67   12.20
   6   1   0  222.78   12.70
   6   1   0  215.98   10.80
   6   1   0  237.78   12.80
   6   1   0  235.88   11.60
  -7  -1   0  260.27   14.00
   7   1   0  252.57   12.30
   7   1   0  255.67   13.80
   7   1   0  248.78   14.80
   7   1   0  279.47   13.50
   7   1   0  265.47   15.20
   7   1   0  253.07   13.80
   8   1   0  314.97   17.40
   8   1   0  336.27   16.90
   8   1   0  301.07   17.30
   8   1   0  322.97   15.00
   7  -2   0  169.88   10.30
   7  -2   0  189.08   11.90
   7  -2   0  194.68   11.90
  -7   2   0  163.38   14.00
   6  -2   0   84.39    7.20
   6  -2   0   83.69    6.70
   6  -2   0   83.69    6.70
   6  -2   0   84.09    7.70
   6  -2   0   95.39    6.70
  -6   2   0   92.59    6.90
  -6   2   0   86.59    9.10
  -6   2   0   87.59    6.60
   5  -2   0 1083.99   44.30
   5  -2   0 1030.90   45.20
   5  -2   0 1057.69   44.30
   5  -2   0 1089.09   44.60
   5  -2   0 1060.29   44.00
  -5   2   0 1086.99   44.30
  -5   2   0 1076.39   45.70
   4  -2   0 1442.76   58.39
   4  -2   0 1439.86   58.39
   4  -2   0 1411.36   58.49
   4  -2   0 1414.56   58.09
   4  -2   0 1369.96   58.99
  -4   2   0 1440.56   58.49
  -4   2   0 1462.05   58.39
  -4   2   0 1423.56   59.29
   3  -2   0   19.30    3.10
   3  -2   0   23.50    3.00
   3  -2   0   23.30    3.30
   3  -2   0   19.40    3.00
   3  -2   0   25.00    3.80
  -3   2   0   26.10    3.90
  -3   2   0   21.90    3.70
  -3   2   0   24.50    3.10
  -3   2   0   20.10    3.00
   2  -2   0 1897.61   76.09
   2  -2   0 1861.51   76.29
   2  -2   0 1930.31   76.39
   2  -2   0 1832.42   76.29
   2  -2   0 1858.81   76.49
  -2   2   0 1832.42   76.49
  -2   2   0 1930.41   76.39
  -2   2   0 1931.01   76.39
  -2   2   0 1907.81   76.39
  -2   2   0 1845.42   76.59
   0  -2   0  742.53   30.00
   0  -2   0  730.03   29.80
   0  -2   0  736.13   29.90
   0  -2   0  769.12   30.00
   0   2   0  742.83   29.90
   0   2   0  677.43   29.70
   0   2   0  753.92   30.00
   0   2   0  736.53   30.00
   0   2   0  728.23   29.80
  -1  -2   0 1222.58   50.79
  -1  -2   0 1250.37   50.79
  -1  -2   0 1248.28   50.79
  -1  -2   0 1425.46   50.79
  -1  -2   0 1201.68   50.69
   1   2   0 1262.57   50.79
   1   2   0 1188.08   50.79
   1   2   0 1204.18   50.79
   1   2   0 1301.77   50.79
  -2  -2   0  501.15   18.90
  -2  -2   0  457.95   18.90
  -2  -2   0  438.96   18.50
  -2  -2   0  438.86   18.70
   2   2   0  456.95   19.10
   2   2   0  444.16   18.70
   2   2   0  457.95   18.90
   2   2   0  441.66   18.70
  -3  -2   0  785.22   31.20
  -3  -2   0  757.32   31.30
   3   2   0  753.52   31.20
   3   2   0  744.63   31.40
   3   2   0  740.83   30.90
   3   2   0  775.52   31.50
   3   2   0  734.33   31.20
  -4  -2   0 3600.24  139.69
   4   2   0 3432.66  139.29
   4   2   0 3503.55  139.99
   4   2   0 3419.06  139.59
   4   2   0 3431.66  139.79
   4   2   0 3328.97  139.19
   4   2   0 3457.75  139.79
  -5  -2   0  228.18   10.90
   5   2   0  220.08   10.30
   5   2   0  181.18   11.00
   5   2   0  227.78   11.10
   5   2   0  238.28   11.50
   5   2   0  221.48   10.00
   5   2   0  225.38   10.80
  -6  -2   0 1232.78   51.79
   6   2   0 1234.28   52.09
   6   2   0 1276.97   51.79
   6   2   0 1235.78   51.79
   6   2   0 1268.37   51.29
   6   2   0 1242.88   52.19
   6   2   0 1211.88   50.89
  -7  -2   0   51.69    7.50
   7   2   0   59.69    8.60
   7   2   0   66.39    9.10
   7   2   0   63.89    8.10
   7   2   0   55.59    7.70
   7   2   0   56.19    6.90
   7   2   0   65.89    6.00
  -8  -2   0  238.78   14.60
   8   2   0  237.78   15.10
   8   2   0  262.07   14.10
   8   2   0  252.27   16.60
   8   2   0  248.58   12.50
   8   2   0  247.08   15.40
   7  -3   0    8.00    5.20
   7  -3   0    1.90    4.80
   7  -3   0   -1.40    4.40
  -7   3   0    4.70    8.00
  -7   3   0    2.90    4.60
   6  -3   0   45.60    6.50
   6  -3   0   50.59    6.90
   6  -3   0   61.79    6.20
   6  -3   0   56.19    7.30
   6  -3   0   52.69    8.10
  -6   3   0   41.80    8.90
  -6   3   0   67.09    7.90
  -6   3   0   51.49    6.30
   5  -3   0  468.65   20.40
   5  -3   0  472.25   21.10
   5  -3   0  472.85   21.10
  -5   3   0  466.45   21.00
  -5   3   0  484.65   22.50
   4  -3   0  250.87   12.00
   4  -3   0  244.38   11.80
   4  -3   0  250.87   11.30
   4  -3   0  239.88   12.30
   4  -3   0  246.68   11.90
  -4   3   0  250.87   12.80
  -4   3   0  249.97   11.90
  -4   3   0  238.38   12.10
   3  -3   0 3212.98  125.39
   3  -3   0 3011.70  125.09
   3  -3   0 2991.60  125.39
   3  -3   0 3042.90  124.79
   3  -3   0 3067.79  125.29
  -3   3   0 3100.19  125.29
  -3   3   0 3046.90  125.69
  -3   3   0 3253.17  125.39
   2  -3   0  825.32   33.40
   2  -3   0  783.72   33.80
   2  -3   0  833.92   33.90
   2  -3   0  781.42   33.80
   2  -3   0  804.82   33.60
  -2   3   0  779.42   33.90
  -2   3   0  839.12   33.90
  -2   3   0  845.22   33.80
  -2   3   0  842.12   33.90
   1  -3   0  364.46   14.80
   1  -3   0  333.97   15.10
   1  -3   0  363.46   15.20
   1  -3   0  330.57   14.80
   1  -3   0  352.86   14.80
  -1   3   0  349.37   15.10
  -1   3   0  332.27   14.90
  -1   3   0  356.46   14.80
  -1   3   0  363.86   15.10
  -1   3   0  353.26   14.80
   0  -3   0  601.64   25.30
   0  -3   0  615.64   25.30
   0  -3   0  603.94   25.00
   0  -3   0  594.24   24.90
   0   3   0  625.84   25.30
   0   3   0  604.14   25.00
   0   3   0  626.84   25.30
   0   3   0  600.34   24.90
  -1  -3   0   31.70    2.40
  -1  -3   0   29.40    2.30
  -1  -3   0   33.50    1.90
  -1  -3   0   27.30    2.40
  -1  -3   0   29.20    2.50
   1   3   0   31.20    2.40
   1   3   0   30.00    2.40
   1   3   0   28.10    2.40
   1   3   0   28.70    2.50
  -2  -3   0 1673.43   74.79
  -2  -3   0 2075.79   75.09
  -2  -3   0 1882.61   74.89
  -2  -3   0 1879.71   75.09
  -2  -3   0 1895.91   74.89
   2   3   0 1788.62   74.79
   2   3   0 1798.42   74.79
   2   3   0 1924.91   75.09
   2   3   0 1749.82   74.79
  -3  -3   0 2950.80  114.69
  -3  -3   0 2820.52  114.39
  -3  -3   0 2879.51  114.79
   3   3   0 2760.12  114.39
   3   3   0 2860.71  114.69
   3   3   0 2737.13  114.39
   3   3   0 2839.62  114.99
  -4  -3   0 2156.68   86.99
  -4  -3   0 2087.59   86.99
   4   3   0 2132.79   86.39
   4   3   0 2077.29   86.49
   4   3   0 2166.78   86.99
   4   3   0 2229.68   87.49
   4   3   0 2145.99   87.29
   4   3   0 2112.49   86.89
  -5  -3   0   91.89    6.40
   5   3   0   95.09    5.50
   5   3   0   89.39    6.60
   5   3   0   94.69    6.40
   5   3   0   70.79    6.60
   5   3   0  103.09    7.20
   5   3   0   99.09    5.40
  -6  -3   0  589.14   26.00
   6   3   0  567.64   25.00
   6   3   0  594.94   26.30
   6   3   0  584.34   26.20
   6   3   0  601.94   25.20
   6   3   0  594.84   26.00
   6   3   0  622.84   26.70
  -7  -3   0   94.19    8.70
   7   3   0   96.19    7.40
   7   3   0   90.89    8.90
   7   3   0   91.19    8.80
   7   3   0   82.19    6.80
   7   3   0   93.29    9.70
   7   3   0  103.99    9.40
  -8  -3   0   46.60    9.20
   8   3   0   35.10    6.90
   8   3   0   41.60    8.70
   8   3   0   35.80    6.80
   8   3   0   37.20    9.70
   8   3   0   45.50   10.60
   8   3   0   37.70    7.90
   6  -4   0  361.06   16.90
   6  -4   0  371.86   18.00
   6  -4   0  369.26   18.20
   6  -4   0  343.07   17.80
  -6   4   0  372.16   17.80
  -6   4   0  386.66   20.30
  -6   4   0  345.67   17.80
   5  -4   0  560.94   24.50
   5  -4   0  497.15   24.70
   5  -4   0  534.45   23.40
   5  -4   0  538.75   24.10
   5  -4   0  564.94   24.40
  -5   4   0  553.64   25.70
  -5   4   0  555.74   24.30
   4  -4   0    3.50    2.80
   4  -4   0    6.90    3.10
   4  -4   0    7.30    2.70
   4  -4   0    3.30    2.80
   4  -4   0    7.30    3.40
  -4   4   0    6.00    4.10
  -4   4   0    4.30    2.70
  -4   4   0    8.00    3.30
   3  -4   0   59.49    5.60
   3  -4   0   46.20    5.00
   3  -4   0   53.09    5.20
   3  -4   0   53.79    4.60
   3  -4   0   55.39    4.90
  -3   4   0   48.40    5.00
  -3   4   0   52.99    5.10
  -3   4   0   50.79    5.50
  -3   4   0   59.29    5.50
   2  -4   0  484.65   22.20
   2  -4   0  523.95   21.90
   2  -4   0  508.55   22.00
   2  -4   0  526.55   22.60
   2  -4   0  541.65   22.50
  -2   4   0  518.05   22.20
  -2   4   0  533.25   22.50
  -2   4   0  527.05   22.50
   1  -4   0 1210.98   51.79
   1  -4   0 1370.56   52.29
   1  -4   0 1260.67   52.19
   1  -4   0 1274.67   51.69
   1  -4   0 1251.57   51.79
  -1   4   0 1238.88   51.79
  -1   4   0 1135.89   51.79
  -1   4   0 1266.37   51.79
  -1   4   0 1372.06   52.29
  -1   4   0 1315.17   52.19
   0  -4   0 3999.20  160.88
   0  -4   0 3842.52  160.38
   0  -4   0 4069.69  160.88
   0  -4   0 3945.01  160.58
   0   4   0 3990.20  160.58
   0   4   0 4134.59  160.98
   0   4   0 3860.71  160.48
   0   4   0 4035.00  160.88
  -1  -4   0  509.15   22.10
  -1  -4   0  530.75   21.90
  -1  -4   0  500.45   22.00
  -1  -4   0  523.55   21.80
  -1  -4   0  563.84   21.50
   1   4   0  506.65   22.10
   1   4   0  520.15   21.80
   1   4   0  523.75   22.10
   1   4   0  542.75   21.50
  -2  -4   0  907.41   37.50
  -2  -4   0  897.71   37.40
  -2  -4   0  916.31   37.60
  -2  -4   0  873.31   37.50
  -2  -4   0  993.90   37.60
   2   4   0  914.41   37.40
   2   4   0  876.81   37.50
   2   4   0  881.71   37.40
   2   4   0  952.40   37.50
  -3  -4   0 1068.99   42.50
  -3  -4   0 1008.20   42.10
  -3  -4   0  987.00   42.00
  -3  -4   0 1120.09   42.40
   3   4   0 1065.59   42.80
   3   4   0  999.30   42.10
   3   4   0  983.00   42.00
   3   4   0 1052.89   42.40
   3   4   0  982.60   42.00
  -4  -4   0  157.48    8.10
  -4  -4   0  154.68    8.20
  -4  -4   0  150.98    7.70
   4   4   0  154.18    7.60
   4   4   0  155.88    7.70
   4   4   0  157.18    8.20
   4   4   0  147.69    8.60
  -5  -4   0 1283.67   54.19
   5   4   0 1271.17   53.89
   5   4   0 1274.57   53.49
   5   4   0 1306.87   53.29
   5   4   0 1370.06   54.79
   5   4   0 1318.97   54.59
   5   4   0 1342.57   54.19
  -6  -4   0  119.09    8.30
   6   4   0  113.19    7.20
   6   4   0  123.09    9.50
   6   4   0  127.09    7.00
   6   4   0  117.99    8.20
   6   4   0  121.09    8.40
   6   4   0  119.89    8.90
  -7  -4   0  535.05   25.10
   7   4   0  579.14   23.90
   7   4   0  545.45   25.20
   7   4   0  542.95   23.80
   7   4   0  553.74   25.20
   7   4   0  558.84   25.90
   7   4   0  536.95   25.50
  -8  -4   0   -8.10    4.90
   8   4   0   -1.10    4.10
   8   4   0   -4.80    6.70
   8   4   0    3.60    6.90
   8   4   0    1.10    7.80
   8   4   0    2.80    4.30
   8   4   0    0.80    6.20
   5  -5   0  233.68   13.50
   5  -5   0  256.47   14.20
   5  -5   0  255.67   13.90
   5  -5   0  248.58   12.70
   5  -5   0  235.18   14.30
  -5   5   0  253.87   15.10
  -5   5   0  258.77   13.70
   4  -5   0 1391.86   55.49
   4  -5   0 1322.57   54.99
   4  -5   0 1381.46   55.59
   4  -5   0 1124.49   55.09
   4  -5   0 1330.87   54.49
  -4   5   0 1317.37   56.09
  -4   5   0 1392.56   55.49
   3  -5   0   33.30    4.90
   3  -5   0   24.30    4.60
   3  -5   0   24.50    4.00
   3  -5   0   19.20    3.60
   3  -5   0   30.80    4.70
  -3   5   0   26.70    5.80
  -3   5   0   20.50    5.50
  -3   5   0   20.80    3.50
   2  -5   0 2312.47   98.59
   2  -5   0 2402.86   98.99
   2  -5   0 2378.76   98.39
   2  -5   0 2532.25   99.19
   2  -5   0 2411.06   98.59
  -2   5   0 2501.05   99.19
  -2   5   0 2468.65   98.69
  -2   5   0 2401.16   98.99
   1  -5   0    9.60    2.00
   1  -5   0    7.20    2.10
   1  -5   0    9.30    2.10
   1  -5   0    7.80    2.30
   1  -5   0    7.70    2.60
  -1   5   0    7.50    2.40
  -1   5   0    8.00    2.00
  -1   5   0    7.40    2.30
  -1   5   0    4.60    2.10
   0  -5   0 1781.12   70.59
   0  -5   0 1696.53   69.89
   0  -5   0 1700.83   70.09
   0  -5   0 1724.63   70.59
   0  -5   0 1650.43   69.99
   0   5   0 1806.02   70.69
   0   5   0 1626.94   69.89
   0   5   0 1731.63   70.09
   0   5   0 1800.02   70.59
  -1  -5   0 5414.36  214.08
  -1  -5   0 5386.16  214.28
  -1  -5   0 5384.56  213.98
  -1  -5   0 5293.77  213.58
  -1  -5   0 5286.47  214.28
   1   5   0 5180.28  214.28
   1   5   0 5063.39  214.28
   1   5   0 5379.46  213.98
   1   5   0 5411.86  213.68
  -2  -5   0  256.47   11.90
  -2  -5   0  280.67   11.80
  -2  -5   0  259.17   11.90
  -2  -5   0  262.27   11.90
  -2  -5   0  258.27   11.60
   2   5   0  271.57   11.80
   2   5   0  232.38   11.70
   2   5   0  268.37   11.70
   2   5   0  255.77   11.90
  -3  -5   0 2008.10   82.19
  -3  -5   0 1980.90   82.29
  -3  -5   0 2020.80   82.29
  -3  -5   0 2013.10   82.59
  -3  -5   0 2110.39   82.49
   3   5   0 2002.50   82.29
   3   5   0 2073.59   82.49
   3   5   0 1968.20   82.19
   3   5   0 2058.29   82.29
  -4  -5   0   41.20    4.30
  -4  -5   0   36.30    3.90
  -4  -5   0   39.30    4.70
  -4  -5   0   37.80    3.70
  -4  -5   0   49.90    4.80
   4   5   0   37.00    3.60
   4   5   0   38.50    4.40
   4   5   0   42.10    5.50
   4   5   0   33.90    3.60
   4   5   0   34.50    4.70
  -5  -5   0  773.02   33.90
  -5  -5   0  808.72   34.10
   5   5   0  817.22   34.50
   5   5   0  799.32   33.90
   5   5   0  764.62   33.30
   5   5   0  787.22   33.30
   5   5   0  841.62   34.70
  -6  -5   0  279.37   14.90
   6   5   0  291.97   14.00
   6   5   0  321.87   16.10
   6   5   0  299.87   15.00
   6   5   0  299.27   15.60
  -7  -5   0   24.80    5.00
   7   5   0   26.90    6.10
   7   5   0   32.40    7.40
   7   5   0   27.20    7.00
   7   5   0   25.30    6.30
   7   5   0   29.40    5.40
   7   5   0   23.60    5.30
  -8  -5   0  624.14   30.30
   8   5   0  703.03   28.60
   8   5   0  639.34   30.50
   8   5   0  660.23   32.00
   8   5   0  676.93   28.80
   5  -6   0  226.18   14.70
   5  -6   0  215.68   14.10
   5  -6   0  217.38   13.20
   5  -6   0  211.98   12.50
  -5   6   0  225.98   15.40
  -5   6   0  229.68   13.60
   4  -6   0  356.26   16.60
   4  -6   0  353.66   17.10
   4  -6   0  346.47   17.70
   4  -6   0  368.06   18.40
  -4   6   0  358.26   17.70
  -4   6   0  341.07   18.10
  -4   6   0  349.07   18.50
   3  -6   0   16.90    3.50
   3  -6   0   16.60    3.60
   3  -6   0   24.90    5.30
   3  -6   0   15.60    3.90
   3  -6   0   20.60    4.20
  -3   6   0   26.90    6.00
  -3   6   0   18.60    4.50
   2  -6   0  441.26   22.50
   2  -6   0  506.35   21.80
   2  -6   0  501.25   21.60
   2  -6   0  482.45   21.80
  -2   6   0  479.05   21.90
  -2   6   0  534.15   22.90
  -2   6   0  522.65   22.00
  -2   6   0  534.55   22.60
   1  -6   0 1797.82   77.19
   1  -6   0 1738.63   77.99
   1  -6   0 1854.71   77.99
   1  -6   0 1902.11   77.39
   1  -6   0 1917.11   77.29
  -1   6   0 1945.31   77.49
  -1   6   0 2066.09   78.29
  -1   6   0 2032.20   78.19
  -1   6   0 1834.22   77.39
   0  -6   0  813.12   34.60
   0  -6   0  862.51   35.60
   0  -6   0  879.51   35.60
   0  -6   0  798.92   34.80
   0  -6   0  791.42   34.80
   0   6   0  878.71   35.50
   0   6   0  836.22   34.90
   0   6   0  878.21   35.60
   0   6   0  806.12   34.60
  -1  -6   0  968.80   39.30
  -1  -6   0  962.30   40.20
  -1  -6   0  989.30   39.80
  -1  -6   0  935.91   40.20
  -1  -6   0  967.10   39.90
   1   6   0  955.80   39.30
   1   6   0  948.81   40.30
   1   6   0  970.90   39.80
   1   6   0  952.30   40.20
  -2  -6   0   30.50    4.20
  -2  -6   0   27.40    4.30
  -2  -6   0   35.10    4.10
  -2  -6   0   34.40    4.40
  -2  -6   0   30.00    4.30
   2   6   0   30.10    4.40
   2   6   0   34.50    4.20
   2   6   0   36.30    4.60
  -3  -6   0   25.30    4.70
  -3  -6   0   18.10    4.30
  -3  -6   0   30.40    4.30
  -3  -6   0   26.90    4.40
  -3  -6   0   19.60    4.00
   3   6   0   30.20    4.50
   3   6   0   20.40    4.40
   3   6   0   25.30    4.50
   3   6   0   23.90    4.10
  -4  -6   0  927.01   38.60
  -4  -6   0  906.31   38.40
  -4  -6   0  910.31   38.00
  -4  -6   0  895.31   37.90
   4   6   0  933.41   39.00
   4   6   0  926.11   38.30
   4   6   0  900.11   38.00
   4   6   0  923.91   38.00
   4   6   0  901.51   37.90
  -5  -6   0   40.20    4.40
  -5  -6   0   38.20    6.10
  -5  -6   0   46.50    6.30
  -5  -6   0   46.10    5.60
   5   6   0   42.40    4.30
   5   6   0   46.70    6.20
   5   6   0   48.90    7.10
   5   6   0   51.59    4.30
   5   6   0   42.40    5.90
  -6  -6   0  820.72   35.80
  -6  -6   0  808.12   35.70
   6   6   0  838.62   34.80
   6   6   0  830.12   35.60
   6   6   0  826.22   34.80
   6   6   0  830.52   36.60
   6   6   0  818.42   36.30
  -7  -6   0   64.19    8.50
   7   6   0   73.59    9.50
   7   6   0   66.89   10.60
   7   6   0   51.69   10.80
   7   6   0   71.99    8.20
   7   6   0   44.20    7.60
  -8  -6   0  204.08   14.10
   8   6   0  215.68   12.60
   8   6   0  206.48   14.10
   8   6   0  198.48   17.10
   4  -7   0  157.78   10.70
   4  -7   0  167.38   10.90
   4  -7   0  161.28   11.30
   4  -7   0  174.88   13.60
   4  -7   0  157.58   11.90
  -4   7   0  146.39   11.60
  -4   7   0  150.68   12.60
   3  -7   0 1233.18   52.49
   3  -7   0 1219.28   51.29
   3  -7   0 1263.87   51.59
   3  -7   0 1240.48   52.69
   3  -7   0 1193.28   51.69
  -3   7   0 1185.78   52.49
  -3   7   0 1296.27   52.49
   2  -7   0  328.77   16.00
   2  -7   0  361.86   17.50
   2  -7   0  353.26   16.20
   2  -7   0  333.67   16.00
   2  -7   0  326.37   17.10
  -2   7   0  350.76   16.50
  -2   7   0  377.66   17.20
   1  -7   0    4.20    2.60
   1  -7   0    8.10    2.90
   1  -7   0    5.60    3.30
   1  -7   0    2.50    3.50
   1  -7   0    8.20    2.90
   1  -7   0    5.30    2.60
  -1   7   0    7.10    3.00
  -1   7   0    3.70    3.20
  -1   7   0   11.20    3.60
  -1   7   0    4.80    2.70
   0  -7   0   27.30    4.80
   0  -7   0   35.10    5.70
   0  -7   0   34.90    4.30
   0  -7   0   37.80    5.10
   0  -7   0   38.20    6.30
   0   7   0   38.90    5.80
   0   7   0   34.90    4.40
   0   7   0   36.00    5.90
   0   7   0   35.60    5.90
  -1  -7   0   36.20    4.90
  -1  -7   0   34.20    5.50
  -1  -7   0   33.00    5.50
  -1  -7   0   34.40    3.80
  -1  -7   0   30.60    4.90
   1   7   0   30.00    3.60
   1   7   0   31.10    5.10
   1   7   0   32.80    5.50
   1   7   0   35.70    5.60
  -2  -7   0 1291.27   52.29
  -2  -7   0 1264.37   52.49
  -2  -7   0 1248.48   52.79
  -2  -7   0 1277.27   52.49
  -2  -7   0 1267.07   52.79
  -2  -7   0 1314.87   51.69
   2   7   0 1270.27   52.29
   2   7   0 1259.27   52.79
   2   7   0 1222.68   52.69
  -3  -7   0 1144.89   47.00
  -3  -7   0 1115.49   46.60
  -3  -7   0 1158.98   47.00
  -3  -7   0 1164.18   47.00
  -3  -7   0 1111.79   47.00
   3   7   0 1073.89   46.80
   3   7   0 1125.89   47.00
   3   7   0 1109.09   46.60
  -4  -7   0 1188.68   49.40
  -4  -7   0 1168.98   49.30
  -4  -7   0 1216.58   49.10
  -4  -7   0 1165.58   49.00
  -4  -7   0 1164.78   48.90
   4   7   0 1173.18   48.90
   4   7   0 1187.98   49.20
   4   7   0 1155.98   49.00
   4   7   0 1168.78   48.90
   4   7   0 1203.28   49.90
  -5  -7   0  314.67   15.30
  -5  -7   0  335.87   16.50
  -5  -7   0  343.37   15.50
  -5  -7   0  341.07   15.70
  -5  -7   0  329.57   16.30
   5   7   0  333.17   15.70
   5   7   0  333.57   15.30
  -6  -7   0   12.10    4.20
  -6  -7   0   16.50    3.40
  -6  -7   0   20.20    5.20
  -6  -7   0    8.40    4.60
   6   7   0   15.20    4.50
  -7  -7   0  142.79   11.40
   7   7   0  145.19   14.00
   7   7   0  151.08   10.00
   7   7   0  168.98   10.60
   7   7   0  120.29   12.80
  -8  -7   0   45.90    9.90
   8   7   0   45.30    9.20
   8   7   0   32.60    7.40
   8   7   0   30.10   10.40
   3  -8   0    5.30    4.70
   3  -8   0    0.50    5.00
   3  -8   0    1.20    5.80
   3  -8   0    4.30    4.40
  -3   8   0    8.30    5.90
  -3   8   0   -5.30    4.30
   2  -8   0  433.66   20.40
   2  -8   0  448.76   20.80
   2  -8   0  462.45   20.50
   2  -8   0  461.95   20.80
   2  -8   0  460.75   22.40
   2  -8   0  443.46   22.00
  -2   8   0  439.76   22.40
  -2   8   0  476.65   21.90
   1  -8   0  312.17   15.40
   1  -8   0  324.17   15.70
   1  -8   0  328.17   17.20
   1  -8   0  346.77   15.50
   1  -8   0  318.47   16.80
  -1   8   0  345.67   17.30
  -1   8   0  329.97   16.10
  -1   8   0  311.37   15.60
  -1   8   0  337.47   16.70
   0  -8   0  952.70   42.70
   0  -8   0 1080.19   44.00
   0  -8   0 1041.80   43.70
   0  -8   0 1005.20   42.40
   0  -8   0  984.00   42.80
   0   8   0 1045.60   43.70
   0   8   0  975.20   42.50
   0   8   0 1098.99   44.00
   0   8   0 1016.40   43.00
  -1  -8   0   11.90    4.20
  -1  -8   0   13.60    3.40
  -1  -8   0   26.00    4.20
  -1  -8   0   16.40    3.90
  -1  -8   0   11.70    3.70
   1   8   0   12.70    3.50
   1   8   0   13.60    4.40
   1   8   0   12.20    3.80
   1   8   0   13.00    2.60
  -2  -8   0  255.87   11.30
  -2  -8   0  232.08   12.90
  -2  -8   0  247.78   12.50
  -2  -8   0  246.88   12.50
   2   8   0  247.88   12.80
   2   8   0  262.17   12.60
   2   8   0  201.68   12.90
  -3  -8   0   -1.40    3.10
  -3  -8   0   -1.00    3.30
  -3  -8   0    1.00    3.30
  -3  -8   0   -2.50    3.50
  -3  -8   0   -1.10    3.30
   3   8   0    0.90    2.90
   3   8   0   -1.20    3.70
   3   8   0    1.10    3.40
  -4  -8   0   33.90    6.20
  -4  -8   0   34.80    6.70
  -4  -8   0   41.10    6.30
  -4  -8   0   35.00    6.80
  -4  -8   0   32.30    6.80
   4   8   0   34.10    6.60
   4   8   0   43.10    6.80
   4   8   0   38.90    7.90
   4   8   0   43.10    6.00
  -5  -8   0  543.65   24.10
  -5  -8   0  554.34   24.80
  -5  -8   0  534.15   23.90
  -5  -8   0  533.95   24.70
   5   8   0  538.55   23.90
   5   8   0  528.15   23.80
  -6  -8   0  326.07   15.40
  -6  -8   0  340.47   17.00
  -6  -8   0  287.17   15.10
  -6  -8   0  313.37   16.80
   6   8   0  318.17   15.10
   6   8   0  322.67   15.90
   6   8   0  287.77   14.90
   6   8   0  308.57   16.50
  -7  -8   0  262.37   15.90
   7   8   0  248.78   18.40
   7   8   0  258.87   14.50
   2  -9   0  302.47   17.90
   2  -9   0  315.27   19.10
   2  -9   0  330.07   16.10
   2  -9   0  304.17   15.70
  -2   9   0  319.47   17.50
  -2   9   0  302.87   17.10
   1  -9   0   39.80    8.80
   1  -9   0   46.50    8.20
   1  -9   0   31.70    7.40
   1  -9   0   44.20   10.10
   1  -9   0   34.10    6.80
  -1   9   0   43.40    8.20
  -1   9   0   58.99   10.10
  -1   9   0   37.20    8.30
   0  -9   0  208.78   12.30
   0  -9   0  218.58   14.10
   0  -9   0  191.18   12.00
   0  -9   0  224.28   11.40
   0  -9   0  223.98   13.50
   0   9   0  219.98   12.90
   0   9   0  230.28   14.00
   0   9   0  206.18   11.50
   0   9   0  220.68   12.70
  -1  -9   0  771.22   33.00
  -1  -9   0  837.12   35.00
  -1  -9   0  767.52   33.90
  -1  -9   0  764.22   33.80
  -1  -9   0  783.42   34.90
   1   9   0  790.92   34.90
   1   9   0  778.92   34.00
   1   9   0  780.32   33.10
   1   9   0  803.72   34.60
  -2  -9   0  356.66   18.00
  -2  -9   0  353.56   17.20
  -2  -9   0  362.96   15.90
  -2  -9   0  352.86   17.30
   2   9   0  340.67   15.60
   2   9   0  360.86   17.40
   2   9   0  349.96   18.10
   2   9   0  350.86   17.50
  -3  -9   0  843.32   36.30
  -3  -9   0  838.02   35.90
  -3  -9   0  800.82   35.90
   3   9   0  838.82   35.60
   3   9   0  790.32   36.30
   3   9   0  861.81   36.40
   3   9   0  830.72   36.00
  -4  -9   0    3.00    4.30
  -4  -9   0    2.20    4.30
  -4  -9   0   12.20    4.40
  -4  -9   0    1.20    4.60
  -4  -9   0    2.40    4.40
   4   9   0    7.20    4.40
   4   9   0    6.30    3.80
   4   9   0    1.80    4.20
  -5  -9   0  141.39   10.40
  -5  -9   0  150.58   11.00
  -5  -9   0  153.38   11.30
  -5  -9   0  152.48   10.90
  -5  -9   0  136.29   11.30
   5   9   0  162.08   10.80
   5   9   0  150.28   10.10
   5   9   0  162.58   13.10
  -6  -9   0   45.60    9.20
  -6  -9   0   47.70    7.30
  -6  -9   0   43.80    9.50
  -6  -9   0   38.60    8.90
  -6  -9   0   48.10    9.70
   6   9   0   41.30    6.50
   6   9   0   41.80    7.30
   6   9   0   41.20    7.90
  -7  -9   0    1.50    6.20
  -7  -9   0    5.10    6.30
   7   9   0   -1.10    6.40
   1 -10   0  447.66   22.60
   1 -10   0  417.06   20.40
   1 -10   0  411.16   20.20
  -1  10   0  449.86   22.30
  -1  10   0  396.86   21.20
   0 -10   0  110.29   11.50
   0 -10   0  106.49    8.80
   0 -10   0  108.79    9.70
   0  10   0  111.19   10.80
   0  10   0  126.69   10.90
  -1 -10   0  966.10   41.50
  -1 -10   0  892.31   40.10
  -1 -10   0  932.81   39.20
   1  10   0  929.71   41.80
   1  10   0  934.21   41.10
   1  10   0  903.51   39.30
   1  10   0  982.10   40.60
  -2 -10   0    4.10    5.00
  -2 -10   0    5.70    3.60
  -2 -10   0    9.80    5.10
  -2 -10   0    6.40    4.90
  -2 -10   0   -3.80    4.30
  -2 -10   0    4.00    4.80
   2  10   0   -4.70    4.80
   2  10   0    4.30    4.50
   2  10   0    4.90    5.30
   2  10   0    0.90    3.10
   2  10   0   12.60    5.50
  -3 -10   0   27.00    5.90
  -3 -10   0    8.40    5.10
  -3 -10   0   20.90    5.20
  -3 -10   0   19.10    5.50
  -3 -10   0   27.80    5.80
   3  10   0   32.20    6.80
   3  10   0   36.90    9.70
   3  10   0   30.40    5.90
   3  10   0   23.70    5.10
  -4 -10   0  518.15   24.60
  -4 -10   0  500.15   24.60
  -4 -10   0  517.65   24.70
   4  10   0  517.65   25.80
   4  10   0  505.75   24.40
   4  10   0  537.55   25.20
   4  10   0  523.15   24.20
  -5 -10   0   45.70    9.00
  -5 -10   0   38.40    6.90
  -5 -10   0   45.50    9.70
   5  10   0   27.80    5.60
   5  10   0   40.10    7.00
  -6 -10   0  746.43   34.40
  -6 -10   0  730.33   34.40
  -6 -10   0  755.62   33.00
   6  10   0  728.23   33.10
   6  10   0  769.42   33.40
  -1 -11   0   20.60    4.70
  -1 -11   0   14.20    6.00
  -1 -11   0   27.10    7.10
   1  11   0   27.90    6.90
   1  11   0   18.00    6.10
  -2 -11   0  496.45   21.60
  -2 -11   0  498.95   23.90
  -2 -11   0  492.25   23.70
  -2 -11   0  490.45   24.60
   2  11   0  457.55   25.80
   2  11   0  474.05   24.30
   2  11   0  460.25   24.10
   2  11   0  470.65   23.80
  -3 -11   0   16.20    6.40
  -3 -11   0   23.50    6.40
  -3 -11   0   19.00    6.00
   3  11   0   12.60    5.70
   3  11   0   14.80    7.60
   3  11   0   14.20    6.70
   3  11   0   36.90    7.90
  -4 -11   0  409.26   23.10
  -4 -11   0  455.25   22.90
  -4 -11   0  457.85   22.70
   4  11   0  433.56   22.50
   4  11   0  450.35   24.10
   4  11   0  435.56   22.10
  -5 -11   0    1.00    6.30
  -5 -11   0    2.10    6.80
   5  11   0    2.80    5.70
   5  11   0    1.80    6.90
   3  11  -1   56.89   10.70
   3  11  -1   71.89   12.70
   3  11  -1   47.10   11.40
  -3 -11   1   69.49   11.20
  -3 -11   1   78.69   11.80
  -3 -11   1   81.79   11.60
   2  11  -1   96.69   11.50
   2  11  -1   88.69   12.50
  -2 -11   1  100.89   13.10
  -2 -11   1  122.09   12.00
   6  10  -1   12.60    7.20
   6  10  -1   -2.60    5.20
  -6 -10   1   11.10    6.70
  -6 -10   1   -7.00    6.60
   5  10  -1  155.68   11.90
   5  10  -1  167.88   12.80
   5  10  -1  146.49   13.50
  -5 -10   1  159.28   13.10
  -5 -10   1  176.78   13.40
  -5 -10   1  162.28   12.00
   4  10  -1  173.68   12.20
   4  10  -1  140.59   12.90
   4  10  -1  170.48   14.40
   4  10  -1  191.68   12.70
  -4 -10   1  177.48   13.00
  -4 -10   1  179.38   13.00
  -4 -10   1  191.38   13.10
   3  10  -1  222.08   14.90
   3  10  -1  207.78   13.10
   3  10  -1  222.78   13.70
  -3 -10   1  167.88   14.00
  -3 -10   1  220.58   13.50
  -3 -10   1  206.88   13.40
   2  10  -1  787.62   36.60
   2  10  -1  835.92   36.10
  -2 -10   1  824.02   36.20
  -2 -10   1  859.81   37.10
  -2 -10   1  802.82   36.20
   1  10  -1   31.80    6.00
   1  10  -1   40.50    6.90
   1  10  -1   39.40    7.80
   1  10  -1   44.10    9.20
  -1 -10   1   31.30    6.10
  -1 -10   1   37.90    8.70
  -1 -10   1   59.49   10.20
   0  10  -1   65.59   10.20
   0  10  -1   60.99   10.40
   0 -10   1   56.29    9.50
   0 -10   1   62.69    7.60
   0 -10   1   85.69   11.10
   7   9  -1   43.80    7.80
  -7  -9   1   42.20    9.80
  -7  -9   1   42.70    7.60
  -7  -9   1   49.60   11.70
   6   9  -1  291.67   15.90
   6   9  -1  253.47   14.90
   6   9  -1  258.77   14.30
  -6  -9   1  267.17   16.20
  -6  -9   1  266.57   16.00
  -6  -9   1  266.77   14.20
  -6  -9   1  279.07   15.70
   5   9  -1  243.98   13.60
   5   9  -1  234.88   13.40
   5   9  -1  207.88   12.40
   5   9  -1  184.38   15.20
  -5  -9   1  230.78   13.70
  -5  -9   1  217.88   13.70
  -5  -9   1  213.08   12.80
  -5  -9   1  208.98   13.90
  -5  -9   1  216.88   13.20
   4   9  -1  251.67   13.50
   4   9  -1  229.48   14.90
   4   9  -1  235.28   13.70
  -4  -9   1  240.38   14.00
  -4  -9   1  240.78   13.90
  -4  -9   1  242.28   14.10
  -4  -9   1  243.08   14.50
   3   9  -1    8.10    4.10
   3   9  -1    6.00    4.60
   3   9  -1   22.80    5.10
  -3  -9   1    4.50    3.80
  -3  -9   1   12.10    4.60
  -3  -9   1   16.00    4.70
  -3  -9   1   12.70    4.80
   2   9  -1   10.60    4.90
   2   9  -1    7.80    4.90
   2   9  -1    8.80    4.10
   2   9  -1   11.50    5.00
  -2  -9   1    8.80    4.60
  -2  -9   1    7.20    4.00
  -2  -9   1    4.80    4.30
  -2  -9   1   15.60    4.70
   1   9  -1 1239.78   52.39
   1   9  -1 1283.97   52.89
   1   9  -1 1186.08   51.59
   1   9  -1 1216.98   51.59
  -1  -9   1 1218.18   51.69
  -1  -9   1 1218.08   50.59
  -1  -9   1 1245.18   52.69
  -1  -9   1 1182.08   51.49
  -1  -9   1 1271.37   52.59
   0   9  -1  435.06   21.10
   0   9  -1  444.36   20.70
   0   9  -1  427.46   22.10
   0  -9   1  425.36   19.40
   0  -9   1  419.06   20.20
   0  -9   1  454.45   21.50
   0  -9   1  428.26   22.00
   0  -9   1  412.46   20.30
  -1   9  -1  972.70   43.20
  -1   9  -1 1060.09   44.40
   1  -9   1  970.50   43.00
   1  -9   1 1103.99   44.70
   1  -9   1  911.21   43.00
   1  -9   1 1039.80   45.00
   1  -9   1 1047.10   42.80
  -2   9  -1   15.30    5.30
   2  -9   1   11.00    5.70
   2  -9   1    6.50    4.80
   2  -9   1   14.70    6.60
   2  -9   1    7.90    5.10
   7   8  -1   40.70    9.70
   7   8  -1   22.10   10.30
  -7  -8   1   42.80    9.60
  -7  -8   1   48.90   10.30
   6   8  -1   48.80    6.60
   6   8  -1   56.89    9.00
   6   8  -1   78.79   10.90
   6   8  -1   55.29    7.30
   6   8  -1   54.29    8.40
  -6  -8   1   59.69    9.20
  -6  -8   1   58.49    6.90
  -6  -8   1   46.10    9.20
  -6  -8   1   78.39    9.00
   5   8  -1    2.70    4.60
   5   8  -1    4.70    4.00
   5   8  -1    9.70    5.80
   5   8  -1    6.50    3.50
  -5  -8   1    5.70    4.20
  -5  -8   1   -0.10    3.60
  -5  -8   1   -1.30    4.50
  -5  -8   1    2.30    4.50
   4   8  -1  977.40   41.70
   4   8  -1 1005.20   41.70
  -4  -8   1 1012.10   42.00
  -4  -8   1  967.80   42.10
  -4  -8   1  970.10   42.10
   3   8  -1 1307.37   53.69
   3   8  -1 1332.47   54.39
   3   8  -1 1245.88   53.89
   3   8  -1 1294.47   54.29
  -3  -8   1 1305.47   54.19
  -3  -8   1 1298.87   54.09
  -3  -8   1 1272.37   53.99
  -3  -8   1 1262.07   53.89
   2   8  -1  190.08   10.60
   2   8  -1  196.48   11.10
   2   8  -1  182.78   10.80
   2   8  -1  193.18   11.40
  -2  -8   1  149.79   10.30
  -2  -8   1  185.68   11.20
   1   8  -1   81.69    7.60
   1   8  -1   94.99    8.20
   1   8  -1   87.79    8.60
   1   8  -1   72.39    7.70
  -1  -8   1  103.29    8.70
  -1  -8   1   88.19    7.40
  -1  -8   1   88.49    7.60
  -1  -8   1   98.09    8.20
  -1  -8   1   88.09    6.00
   0   8  -1  134.79   10.30
   0   8  -1  141.59    9.30
   0   8  -1  129.59    9.60
   0   8  -1  114.79    8.40
   0  -8   1  139.19   10.10
   0  -8   1  139.99   10.20
   0  -8   1  127.79    7.70
   0  -8   1  119.89    8.70
   0  -8   1  126.39    8.80
  -1   8  -1   48.10    7.70
  -1   8  -1   52.39    8.90
  -1   8  -1   46.90    7.20
   1  -8   1   50.59    6.30
   1  -8   1   40.60    8.80
   1  -8   1   46.60    7.00
   1  -8   1   47.20    6.80
   1  -8   1   52.89    7.60
  -2   8  -1 1086.39   46.40
  -2   8  -1 1073.99   45.40
   2  -8   1 1039.00   46.40
   2  -8   1 1120.79   47.00
   2  -8   1  998.10   45.00
   2  -8   1 1113.29   45.20
  -3   8  -1  271.57   16.40
  -3   8  -1  270.17   16.00
   3  -8   1  292.97   17.70
   3  -8   1  277.67   16.30
   3  -8   1  257.47   14.70
   3  -8   1  271.67   14.70
   8   7  -1   40.90    7.10
   8   7  -1   47.20   11.10
  -8  -7   1   44.90   10.00
   7   7  -1  157.18   15.00
   7   7  -1  126.19   10.80
   7   7  -1  149.39   10.10
  -7  -7   1  146.69   12.10
  -7  -7   1  125.39   11.40
   6   7  -1  117.69    9.40
   6   7  -1  117.09    9.80
  -6  -7   1  121.39    9.90
  -6  -7   1  101.09    9.60
  -6  -7   1  115.39    8.30
   5   7  -1 1243.78   51.49
   5   7  -1 1218.18   51.59
   5   7  -1 1290.17   51.89
  -5  -7   1 1228.88   51.79
  -5  -7   1 1243.48   51.59
  -5  -7   1 1261.57   52.49
  -5  -7   1 1272.57   51.69
  -5  -7   1 1202.48   52.19
   4   7  -1   96.39    7.10
   4   7  -1  111.39    8.90
   4   7  -1  108.99    8.00
   4   7  -1   90.79    7.10
  -4  -7   1   98.99    7.80
  -4  -7   1  100.19    7.50
  -4  -7   1  101.99    7.90
  -4  -7   1  111.79    7.60
  -4  -7   1   97.79    7.20
   3   7  -1  680.73   29.00
   3   7  -1  668.43   28.80
   3   7  -1  674.63   28.40
   3   7  -1  659.73   28.50
  -3  -7   1  658.83   28.70
  -3  -7   1  658.23   28.60
  -3  -7   1  660.63   28.60
  -3  -7   1  642.94   28.60
  -3  -7   1  647.34   28.20
   2   7  -1 2139.89   88.59
   2   7  -1 2173.28   87.99
   2   7  -1 2101.79   88.39
   2   7  -1 2221.88   88.49
  -2  -7   1 2146.59   88.39
  -2  -7   1 2141.89   87.99
  -2  -7   1 2187.48   88.49
  -2  -7   1 2141.09   88.19
   1   7  -1  279.67   13.80
   1   7  -1  277.77   14.10
   1   7  -1  272.47   13.40
   1   7  -1  275.97   13.40
   1   7  -1  255.07   12.40
  -1  -7   1  295.77   13.90
  -1  -7   1  278.97   13.30
  -1  -7   1  288.07   14.10
  -1  -7   1  278.77   13.20
  -1  -7   1  280.27   12.30
   0   7  -1 1628.64   65.59
   0   7  -1 1557.44   64.59
   0   7  -1 1583.24   65.29
   0  -7   1 1596.94   65.29
   0  -7   1 1610.14   65.39
   0  -7   1 1539.15   64.49
   0  -7   1 1510.85   64.59
   0  -7   1 1552.24   64.19
  -1   7  -1  119.19    8.20
  -1   7  -1  114.59    8.60
  -1   7  -1  102.79    9.10
   1  -7   1  113.59    7.50
   1  -7   1  128.79    9.20
   1  -7   1  109.69    8.70
   1  -7   1  114.29    7.20
  -2   7  -1  923.81   40.40
  -2   7  -1  923.91   41.50
  -2   7  -1  999.80   41.50
   2  -7   1  949.11   40.30
   2  -7   1  940.01   41.30
   2  -7   1 1051.79   41.90
   2  -7   1  932.91   40.20
  -3   7  -1  130.39   10.10
  -3   7  -1  121.49   10.10
   3  -7   1  119.09   11.10
   3  -7   1  116.99    8.80
   3  -7   1  109.09    9.90
   3  -7   1  114.89    8.40
  -4   7  -1   18.50    5.20
  -4   7  -1   20.00    6.50
   4  -7   1   25.60    6.70
   4  -7   1   32.90    8.20
   4  -7   1   22.10    5.00
   4  -7   1   34.20    7.70
   4  -7   1   28.90    5.80
   8   6  -1  196.08   12.80
   8   6  -1  217.48   14.60
  -8  -6   1  191.18   13.60
   7   6  -1  220.98   12.60
   7   6  -1  242.98   12.80
   7   6  -1  199.28   14.90
   7   6  -1  230.08   13.80
   7   6  -1  193.28   15.50
  -7  -6   1  218.08   13.20
   6   6  -1   -1.50    3.60
   6   6  -1    5.00    4.00
   6   6  -1   -0.20    5.70
   6   6  -1   -3.60    3.80
  -6  -6   1    3.40    4.00
  -6  -6   1   -5.50    3.60
   5   6  -1  114.09    7.70
   5   6  -1  106.49    7.80
   5   6  -1  100.89    6.70
   5   6  -1  107.69    6.40
  -5  -6   1  105.29    7.60
  -5  -6   1  100.69    8.00
  -5  -6   1  105.69    7.80
  -5  -6   1  116.19    7.00
  -5  -6   1  103.59    6.60
   4   6  -1 1298.57   53.39
   4   6  -1 1287.97   53.29
   4   6  -1 1338.37   53.69
   4   6  -1 1254.37   53.19
   4   6  -1 1318.77   54.29
  -4  -6   1 1314.47   53.39
  -4  -6   1 1300.27   53.39
  -4  -6   1 1269.57   53.69
  -4  -6   1 1290.67   53.29
  -4  -6   1 1277.97   53.79
   3   6  -1  754.22   31.70
   3   6  -1  758.52   31.10
   3   6  -1  725.93   31.20
   3   6  -1  735.93   31.40
  -3  -6   1  726.93   31.00
  -3  -6   1  732.73   31.40
  -3  -6   1  762.42   31.30
  -3  -6   1  733.33   31.30
  -3  -6   1  719.23   31.20
   2   6  -1  921.41   38.60
   2   6  -1  927.51   38.30
   2   6  -1  926.01   38.70
   2   6  -1  908.71   38.70
  -2  -6   1  928.71   38.30
  -2  -6   1  914.01   38.60
  -2  -6   1  908.01   38.60
  -2  -6   1  933.41   38.50
   1   6  -1  298.67   14.20
   1   6  -1  305.17   14.40
   1   6  -1  296.77   13.00
   1   6  -1  312.87   13.80
  -1  -6   1  288.77   12.90
  -1  -6   1  307.17   13.70
  -1  -6   1  296.27   14.10
  -1  -6   1  307.37   13.80
  -1  -6   1  305.07   14.30
   0   6  -1   83.59    6.30
   0   6  -1   75.59    6.60
   0   6  -1   69.79    5.10
   0   6  -1   82.79    6.10
   0  -6   1   85.09    5.80
   0  -6   1   83.99    5.70
   0  -6   1   76.39    4.90
   0  -6   1   90.49    6.40
   0  -6   1   85.69    6.50
  -1   6  -1 1239.18   51.39
  -1   6  -1 1063.19   51.19
  -1   6  -1 1251.97   52.09
  -1   6  -1 1286.67   52.39
   1  -6   1 1268.57   51.29
   1  -6   1 1266.67   52.09
   1  -6   1 1289.57   51.39
   1  -6   1 1315.97   52.29
  -2   6  -1  139.49    9.20
  -2   6  -1  133.79    8.50
  -2   6  -1  143.09    8.50
   2  -6   1  149.59    8.20
   2  -6   1  138.59    8.20
   2  -6   1  151.78    8.20
   2  -6   1  153.98    9.40
   2  -6   1  148.99    9.60
  -3   6  -1 1308.57   54.09
  -3   6  -1 1238.78   54.09
   3  -6   1 1239.28   53.49
   3  -6   1 1267.67   52.89
   3  -6   1 1265.77   53.29
   3  -6   1 1255.57   53.99
   3  -6   1 1401.96   54.49
  -4   6  -1  270.17   15.70
  -4   6  -1  293.07   15.20
   4  -6   1  278.37   15.20
   4  -6   1  275.77   14.30
   4  -6   1  281.07   13.60
   4  -6   1  259.47   14.70
   4  -6   1  290.87   15.80
  -5   6  -1  172.18   12.00
  -5   6  -1  148.79   14.10
   5  -6   1  164.88   11.60
   5  -6   1  162.88   10.50
   5  -6   1  161.08   12.20
   8   5  -1  109.39    9.70
   8   5  -1  112.19   12.40
   8   5  -1  105.19   14.00
  -8  -5   1  113.89   11.00
   7   5  -1  634.04   31.30
   7   5  -1  662.43   30.70
   7   5  -1  698.83   28.90
   7   5  -1  687.93   29.90
   7   5  -1  673.63   29.60
  -7  -5   1  635.74   29.50
   6   5  -1  969.40   42.50
   6   5  -1 1008.20   41.80
   6   5  -1 1028.30   41.60
   6   5  -1  998.20   43.10
   6   5  -1  977.70   41.20
  -6  -5   1  935.81   41.80
  -6  -5   1  987.70   42.00
   5   5  -1  717.73   29.90
   5   5  -1  670.13   29.40
   5   5  -1  689.23   29.50
   5   5  -1  716.93   30.60
  -5  -5   1  684.93   29.80
  -5  -5   1  699.83   30.10
   4   5  -1    2.20    2.60
   4   5  -1    5.10    2.10
   4   5  -1    3.00    2.60
   4   5  -1    5.10    3.10
   4   5  -1    4.70    2.00
  -4  -5   1    5.20    2.20
  -4  -5   1    4.70    2.60
  -4  -5   1    5.40    2.80
  -4  -5   1    7.50    2.20
  -4  -5   1    6.30    2.70
   3   5  -1    1.30    2.20
   3   5  -1    1.00    1.80
   3   5  -1   -0.60    2.10
   3   5  -1    1.00    2.60
  -3  -5   1    1.30    2.00
  -3  -5   1    3.90    2.30
  -3  -5   1    0.00    2.10
  -3  -5   1    2.00    2.00
  -3  -5   1    0.30    1.80
   2   5  -1    5.60    2.50
   2   5  -1    6.30    2.30
   2   5  -1    6.00    2.00
   2   5  -1    6.50    2.20
  -2  -5   1    7.10    2.20
  -2  -5   1    7.20    2.20
  -2  -5   1    3.80    1.90
  -2  -5   1    3.70    2.10
  -2  -5   1    4.50    2.10
   1   5  -1 1651.53   66.39
   1   5  -1 1661.83   66.89
   1   5  -1 1584.44   65.99
   1   5  -1 1573.84   66.69
  -1  -5   1 1575.44   66.69
  -1  -5   1 1667.23   66.79
  -1  -5   1 1697.13   66.39
  -1  -5   1 1655.83   66.49
  -1  -5   1 1607.24   65.89
   0   5  -1 2353.06  102.19
   0   5  -1 2614.54  103.09
   0   5  -1 2422.66  102.89
   0   5  -1 2544.55  102.39
   0  -5   1 2580.04  102.99
   0  -5   1 2569.74  102.49
   0  -5   1 2662.13  103.09
   0  -5   1 2490.95  102.19
  -1   5  -1 3051.19  117.99
  -1   5  -1 3043.60  117.79
  -1   5  -1 2865.11  117.19
  -1   5  -1 2555.64  117.19
   1  -5   1 2959.10  117.19
   1  -5   1 2741.53  117.09
   1  -5   1 3099.39  117.89
   1  -5   1 2779.02  117.09
   1  -5   1 2969.80  117.79
  -2   5  -1  109.89    6.60
  -2   5  -1  105.69    7.50
  -2   5  -1  102.49    7.10
  -2   5  -1  100.09    6.90
   2  -5   1   95.69    6.40
   2  -5   1  106.19    6.20
   2  -5   1  101.99    6.40
   2  -5   1  102.99    7.10
   2  -5   1  100.59    7.40
  -3   5  -1    1.70    3.40
  -3   5  -1    5.00    3.60
  -3   5  -1    8.80    3.10
   3  -5   1    6.00    3.10
   3  -5   1    7.00    2.90
   3  -5   1    5.00    3.10
   3  -5   1   10.90    3.30
   3  -5   1    6.30    2.60
  -4   5  -1  335.47   17.40
  -4   5  -1  337.77   16.70
   4  -5   1  341.37   16.20
   4  -5   1  328.87   16.60
   4  -5   1  348.87   17.10
   4  -5   1  337.67   15.40
  -5   5  -1   42.90    7.40
  -5   5  -1   41.30    9.60
   5  -5   1   40.30    7.40
   5  -5   1   39.90    8.70
   5  -5   1   53.09    8.20
   5  -5   1   36.10    6.20
   5  -5   1   38.00    7.00
   8   4  -1  208.28   11.60
   8   4  -1  170.58   16.00
   8   4  -1  204.38   14.70
   8   4  -1  197.68   14.10
   8   4  -1  176.38   14.50
   8   4  -1  197.48   11.10
  -8  -4   1  181.38   12.90
   7   4  -1  325.17   15.70
   7   4  -1  332.17   18.30
   7   4  -1  346.17   17.20
   7   4  -1  312.67   17.30
   7   4  -1  331.27   16.80
   7   4  -1  334.97   15.00
  -7  -4   1  316.37   16.50
   6   4  -1   12.50    3.70
   6   4  -1   10.50    4.40
   6   4  -1    5.70    3.90
   6   4  -1    6.00    2.40
   6   4  -1    4.00    3.20
   6   4  -1   15.60    5.60
  -6  -4   1    8.00    3.50
   5   4  -1  331.17   15.30
   5   4  -1  329.97   15.20
   5   4  -1  333.17   16.30
   5   4  -1  324.27   14.80
   5   4  -1  328.67   15.90
  -5  -4   1  332.67   15.40
  -5  -4   1  320.07   15.20
   4   4  -1 1416.66   58.09
   4   4  -1 1374.76   57.29
   4   4  -1 1422.46   57.69
   4   4  -1 1407.76   57.39
  -4  -4   1 1417.06   57.09
  -4  -4   1 1393.36   57.79
  -4  -4   1 1392.06   57.59
   3   4  -1 1177.68   47.10
   3   4  -1 1104.99   46.80
   3   4  -1 1154.28   46.90
   3   4  -1 1147.49   46.80
   3   4  -1 1157.38   47.50
  -3  -4   1 1152.08   47.20
  -3  -4   1 1133.59   46.80
  -3  -4   1 1160.38   46.90
  -3  -4   1 1159.88   47.10
  -3  -4   1 1111.79   46.80
   2   4  -1  251.87   11.70
   2   4  -1  256.97   11.30
   2   4  -1  244.28   11.30
   2   4  -1  243.08   11.40
  -2  -4   1  245.78   11.30
  -2  -4   1  264.87   11.50
  -2  -4   1  238.58   11.30
  -2  -4   1  284.57   11.40
  -2  -4   1  260.27   11.30
   1   4  -1  899.41   38.00
   1   4  -1  944.31   37.60
   1   4  -1  885.01   37.80
  -1  -4   1  918.61   37.90
  -1  -4   1  892.31   37.90
  -1  -4   1  951.00   37.80
  -1  -4   1  930.61   37.60
   0   4  -1  151.68    7.80
   0   4  -1  154.48    7.90
   0   4  -1  145.39    7.20
   0   4  -1  148.79    7.20
   0   4  -1  162.18    7.50
   0  -4   1  165.18    7.40
   0  -4   1  162.18    7.90
   0  -4   1  167.48    7.90
   0  -4   1  159.68    7.10
  -1   4  -1   27.20    3.70
  -1   4  -1   24.70    3.40
  -1   4  -1   32.60    4.00
  -1   4  -1   29.10    3.50
   1  -4   1   32.90    3.10
   1  -4   1   27.20    3.10
   1  -4   1   31.70    3.20
   1  -4   1   32.30    3.70
   1  -4   1   30.40    3.80
  -2   4  -1 1544.15   62.79
  -2   4  -1 1665.83   63.09
  -2   4  -1 1422.06   62.19
  -2   4  -1 1430.06   62.59
   2  -4   1 1511.55   62.39
   2  -4   1 1513.95   62.79
   2  -4   1 1519.15   62.09
   2  -4   1 1505.85   62.49
   2  -4   1 1634.04   62.99
  -3   4  -1 1337.97   54.89
  -3   4  -1 1290.87   54.99
  -3   4  -1 1341.97   54.99
  -3   4  -1 1349.56   55.19
   3  -4   1 1289.27   54.69
   3  -4   1 1357.96   54.99
   3  -4   1 1299.77   54.79
   3  -4   1 1326.97   53.99
   3  -4   1 1312.37   54.49
  -4   4  -1  819.22   34.50
  -4   4  -1  713.23   34.10
  -4   4  -1  832.42   33.90
   4  -4   1  804.22   32.70
   4  -4   1  803.92   33.90
   4  -4   1  785.52   33.40
   4  -4   1  761.92   33.90
   4  -4   1  778.22   33.70
  -5   4  -1   15.90    5.50
  -5   4  -1    7.50    3.70
  -5   4  -1   12.40    3.60
   5  -4   1   13.10    2.90
   5  -4   1   10.60    3.90
   5  -4   1   12.40    4.90
   5  -4   1    8.30    3.60
   5  -4   1    9.10    3.80
  -6   4  -1   12.20    3.90
  -6   4  -1   21.00    7.50
   6  -4   1   15.70    3.70
   6  -4   1    9.90    4.50
   6  -4   1   14.00    4.80
   8   3  -1  196.08   16.50
   8   3  -1  227.98   15.80
   8   3  -1  263.77   13.10
   8   3  -1  242.58   13.10
   8   3  -1  252.07   15.30
  -8  -3   1  254.67   14.40
   7   3  -1  105.49    8.90
   7   3  -1   80.09    7.20
   7   3  -1   83.59    7.00
   7   3  -1   90.19    9.60
   7   3  -1   94.19   10.50
   7   3  -1   78.19    9.40
  -7  -3   1   76.89    8.30
   6   3  -1  144.59    8.50
   6   3  -1  162.88    8.10
   6   3  -1  150.68    9.80
   6   3  -1  158.08    9.90
   6   3  -1  140.69   10.60
   6   3  -1  163.98    9.50
  -6  -3   1  149.88    9.30
   5   3  -1  839.42   35.90
   5   3  -1  853.31   35.10
   5   3  -1  842.02   35.20
   5   3  -1  811.52   34.30
   5   3  -1  828.32   34.70
   5   3  -1  838.92   35.50
  -5  -3   1  836.32   35.20
  -5  -3   1  831.92   35.10
   4   3  -1 1083.99   46.40
   4   3  -1 1138.79   46.70
   4   3  -1 1189.78   47.50
   4   3  -1 1121.69   46.70
   4   3  -1 1117.99   47.10
  -4  -3   1 1142.69   46.80
  -4  -3   1 1142.49   46.70
   3   3  -1   38.30    2.70
   3   3  -1   37.80    3.30
   3   3  -1   38.10    3.40
   3   3  -1   39.30    3.60
   3   3  -1   40.20    4.00
   3   3  -1   38.90    2.80
  -3  -3   1   41.70    3.60
  -3  -3   1   34.00    3.40
  -3  -3   1   38.80    2.90
  -3  -3   1   42.30    3.30
   2   3  -1 1551.54   59.59
   2   3  -1 1457.85   59.49
   2   3  -1 1389.76   59.39
   2   3  -1 1460.25   59.79
  -2  -3   1 1417.16   59.39
  -2  -3   1 1602.74   59.49
  -2  -3   1 1484.05   59.59
  -2  -3   1 1458.35   59.49
  -2  -3   1 1366.66   59.39
   1   3  -1 2525.95  102.69
   1   3  -1 2483.95  102.69
   1   3  -1 2607.14  102.49
   1   3  -1 2547.34  102.69
  -1  -3   1 2481.05  102.69
  -1  -3   1 2546.15  102.49
  -1  -3   1 2644.24  102.59
  -1  -3   1 2486.25  102.69
   0   3  -1 3174.48  127.39
   0   3  -1 3162.08  127.79
   0   3  -1 2990.60  127.29
   0   3  -1 2958.40  127.29
   0   3  -1 3087.89  127.69
   0  -3   1 3120.19  127.29
   0  -3   1 3354.86  127.79
   0  -3   1 3227.78  127.39
   0  -3   1 3380.26  127.79
  -1   3  -1 1242.98   50.79
  -1   3  -1 1341.37   51.29
  -1   3  -1 1209.98   51.29
  -1   3  -1 1159.68   50.99
   1  -3   1 1232.28   50.89
   1  -3   1 1259.37   50.79
   1  -3   1 1229.08   51.19
   1  -3   1 1238.38   50.89
   1  -3   1 1338.77   51.29
  -2   3  -1  168.68    8.30
  -2   3  -1  152.98    8.00
  -2   3  -1  172.28    8.40
  -2   3  -1  156.48    7.60
   2  -3   1  167.88    7.50
   2  -3   1  165.18    8.10
   2  -3   1  159.88    7.80
   2  -3   1  158.88    8.00
   2  -3   1  161.28    8.20
  -3   3  -1  502.75   21.40
  -3   3  -1  475.05   20.90
  -3   3  -1  487.05   21.40
  -3   3  -1  477.65   21.20
   3  -3   1  481.15   20.80
   3  -3   1  501.65   21.10
   3  -3   1  480.95   21.10
   3  -3   1  462.55   20.90
   3  -3   1  482.15   20.30
  -4   3  -1    4.60    3.50
  -4   3  -1    4.40    2.40
  -4   3  -1    1.80    3.40
   4  -3   1    3.50    3.10
   4  -3   1    1.90    2.00
   4  -3   1    4.90    2.50
   4  -3   1    7.10    2.60
   4  -3   1    5.30    2.70
  -5   3  -1  611.94   25.90
  -5   3  -1  610.84   27.10
  -5   3  -1  565.34   25.90
   5  -3   1  604.94   25.90
   5  -3   1  577.04   24.90
   5  -3   1  593.24   25.90
   5  -3   1  577.94   26.00
  -6   3  -1  136.59   10.00
  -6   3  -1  145.89    9.10
  -6   3  -1  149.69   12.10
   6  -3   1  137.29    8.20
   6  -3   1  135.49    9.30
   6  -3   1  149.88    9.90
   6  -3   1  152.18   10.00
   8   2  -1  556.34   27.80
   8   2  -1  536.35   25.60
   8   2  -1  613.94   27.40
   8   2  -1  617.24   26.10
  -8  -2   1  597.44   26.70
   7   2  -1   81.49    9.00
   7   2  -1   83.99   10.40
   7   2  -1  106.19    7.60
   7   2  -1   93.89    8.70
   7   2  -1   93.29    9.90
   7   2  -1   93.29    7.20
  -7  -2   1  102.99    8.50
   6   2  -1  195.88    9.80
   6   2  -1  194.68   11.80
   6   2  -1  207.98   11.30
   6   2  -1  182.68   11.40
   6   2  -1  190.18    9.80
   6   2  -1  199.68   10.60
  -6  -2   1  182.78   10.50
   5   2  -1   90.59    7.50
   5   2  -1  120.49    6.60
   5   2  -1  122.89    6.30
   5   2  -1  113.49    7.50
   5   2  -1  125.19    8.20
   5   2  -1  121.39    7.10
  -5  -2   1  126.29    7.10
   4   2  -1 1063.79   43.40
   4   2  -1 1046.10   43.00
   4   2  -1 1043.80   42.70
   4   2  -1 1021.60   42.40
   4   2  -1 1003.60   42.20
   4   2  -1 1045.10   43.00
  -4  -2   1 1037.30   42.80
  -4  -2   1 1029.40   42.60
   3   2  -1  133.89    6.50
   3   2  -1  130.09    6.80
   3   2  -1  132.79    6.60
   3   2  -1  140.59    7.20
   3   2  -1  131.39    6.30
   3   2  -1  122.79    5.80
  -3  -2   1  132.29    6.50
  -3  -2   1  127.99    6.90
  -3  -2   1  136.49    6.40
   2   2  -1 4405.96  177.08
   2   2  -1 4507.65  176.88
   2   2  -1 4298.77  176.68
   2   2  -1 4186.68  176.58
   2   2  -1 4353.46  176.68
  -2  -2   1 4431.76  176.88
  -2  -2   1 4704.23  176.78
  -2  -2   1 4337.57  177.08
  -2  -2   1 4356.96  176.68
  -2  -2   1 4340.77  176.78
   1   2  -1  145.29    6.70
   1   2  -1  151.48    6.90
   1   2  -1  155.68    6.70
  -1  -2   1  158.08    6.80
  -1  -2   1  158.18    6.70
  -1  -2   1  149.59    6.80
  -1  -2   1  148.79    6.80
   0   2  -1    1.10    1.00
   0   2  -1    0.30    0.80
   0   2  -1    0.60    0.80
   0   2  -1   -0.10    0.90
   0   2  -1    1.10    1.00
   0  -2   1    0.30    0.80
   0  -2   1    0.70    0.80
   0  -2   1    0.80    1.00
   0  -2   1    0.70    0.70
  -1   2  -1 2040.20   84.39
  -1   2  -1 2187.38   84.79
  -1   2  -1 2045.00   84.69
  -1   2  -1 2039.80   84.79
   1  -2   1 2147.39   84.79
   1  -2   1 2090.29   84.69
   1  -2   1 2098.19   84.39
   1  -2   1 2081.99   84.59
   1  -2   1 2111.99   84.79
  -2   2  -1  238.18   10.90
  -2   2  -1  243.88   11.20
  -2   2  -1  252.47   11.10
   2  -2   1  247.18   10.80
   2  -2   1  241.88   11.00
   2  -2   1  248.18   10.40
   2  -2   1  234.78   10.90
   2  -2   1  255.57   11.00
  -3   2  -1 2653.03  107.09
  -3   2  -1 2639.54  106.69
  -3   2  -1 2676.73  107.19
   3  -2   1 2565.94  106.69
   3  -2   1 2597.34  106.99
   3  -2   1 2718.03  106.79
   3  -2   1 2603.64  106.69
   3  -2   1 2608.24  106.19
  -4   2  -1   67.49    5.00
  -4   2  -1   76.09    5.30
  -4   2  -1   73.79    6.30
  -4   2  -1   66.89    6.50
   4  -2   1   71.79    5.10
   4  -2   1   67.19    5.40
   4  -2   1   65.59    5.30
   4  -2   1   76.09    4.50
   4  -2   1   67.19    5.90
  -5   2  -1  669.73   29.80
  -5   2  -1  673.83   28.40
  -5   2  -1  664.73   29.70
  -5   2  -1  691.63   28.70
   5  -2   1  632.34   29.20
   5  -2   1  671.03   28.70
   5  -2   1  681.93   28.40
   5  -2   1  669.93   28.50
   5  -2   1  650.93   27.70
  -6   2  -1  298.27   14.10
  -6   2  -1  305.07   16.30
   6  -2   1  294.97   14.00
   6  -2   1  290.07   13.30
   6  -2   1  280.47   14.30
   6  -2   1  302.87   14.80
  -7   2  -1   50.39   11.40
  -7   2  -1   29.60    7.90
   7  -2   1   31.60    6.20
   7  -2   1   27.50    5.40
   7  -2   1   43.60    9.10
   8   1  -1   18.10    4.50
   8   1  -1   16.90    6.10
   8   1  -1   10.20    6.10
   8   1  -1   12.60    5.20
   7   1  -1  234.78   15.00
   7   1  -1  251.67   12.90
   7   1  -1  259.27   13.40
   7   1  -1  235.48   14.90
   7   1  -1  247.38   13.90
   7   1  -1  254.17   12.40
  -7  -1   1  257.87   13.50
   6   1  -1  748.03   31.40
   6   1  -1  772.12   32.80
   6   1  -1  712.03   31.20
   6   1  -1  750.92   32.70
   6   1  -1  761.62   32.00
   6   1  -1  741.03   31.70
  -6  -1   1  729.43   31.70
   5   1  -1  698.43   30.60
   5   1  -1  747.73   30.40
   5   1  -1  699.43   30.70
   5   1  -1  726.43   29.70
   5   1  -1  709.23   29.90
  -5  -1   1  717.03   29.90
  -5  -1   1  676.83   30.90
   4   1  -1  148.79    7.10
   4   1  -1  146.89    8.20
   4   1  -1  150.58    7.90
   4   1  -1  149.69    8.10
   4   1  -1  146.39    7.40
  -4  -1   1  153.88    8.00
  -4  -1   1  147.19    8.30
  -4  -1   1  150.48    7.40
   3   1  -1    0.30    1.80
   3   1  -1    0.80    1.00
   3   1  -1    1.00    1.20
   3   1  -1    0.80    1.70
   3   1  -1    2.10    2.00
  -3  -1   1    0.80    1.30
  -3  -1   1   -0.80    1.60
  -3  -1   1    0.70    1.30
   2   1  -1  519.95   21.10
   2   1  -1  540.25   21.50
   2   1  -1  515.65   21.30
   2   1  -1  483.75   20.80
  -2  -1   1  498.85   20.80
  -2  -1   1  509.75   21.30
  -2  -1   1  515.15   21.00
  -2  -1   1  506.95   21.10
   0   1  -1  166.68    7.10
   0   1  -1  167.68    7.30
   0   1  -1  163.18    7.30
   0  -1   1  171.88    7.10
   0  -1   1  185.08    7.40
  -1   1  -1  778.42   32.20
  -1   1  -1  815.92   32.60
  -1   1  -1  775.82   32.50
   1  -1   1  786.72   32.60
   1  -1   1  823.02   32.60
   1  -1   1  818.72   32.20
   1  -1   1  786.32   32.60
  -2   1  -1  273.77   11.80
  -2   1  -1  257.97   11.50
  -2   1  -1  275.87   11.70
   2  -1   1  270.97   11.10
   2  -1   1  256.97   11.50
   2  -1   1  262.97   11.50
   2  -1   1  266.17   11.70
   2  -1   1  271.87   11.50
  -3   1  -1  840.32   35.30
  -3   1  -1  863.61   35.20
  -3   1  -1  838.92   34.70
  -3   1  -1  857.31   34.70
   3  -1   1  829.52   35.10
   3  -1   1  854.81   34.80
   3  -1   1  843.12   34.90
   3  -1   1  834.42   34.70
   3  -1   1  837.72   34.30
  -4   1  -1  221.38   11.30
  -4   1  -1  222.78   10.20
  -4   1  -1  215.08   10.10
  -4   1  -1  217.48   11.10
   4  -1   1  214.18    9.60
   4  -1   1  220.58   10.20
   4  -1   1  219.18   10.40
   4  -1   1  217.98   10.00
   4  -1   1  220.48   10.90
  -5   1  -1  838.02   35.40
  -5   1  -1  826.92   34.20
  -5   1  -1  860.31   35.60
  -5   1  -1  691.33   33.90
   5  -1   1  846.32   34.00
   5  -1   1  818.12   33.60
   5  -1   1  795.52   34.10
   5  -1   1  867.81   34.60
   5  -1   1  823.92   35.10
  -6   1  -1  866.01   38.70
  -6   1  -1  884.91   36.70
  -6   1  -1  900.01   37.00
   6  -1   1  922.91   37.50
   6  -1   1  841.92   36.80
   6  -1   1  865.31   36.30
  -7   1  -1   46.70    9.70
   7  -1   1   37.50    7.60
   7  -1   1   49.20    8.40
   8   0  -1   61.69   10.50
   8   0  -1   40.10    9.50
   8   0  -1   43.10    7.80
   7   0  -1  236.78   15.40
   7   0  -1  253.77   15.80
   7   0  -1  257.57   13.60
   7   0  -1  277.87   13.50
  -7   0   1  248.78   15.70
   6   0  -1   85.89    6.80
   6   0  -1   82.79    7.10
   6   0  -1   98.59    6.90
   6   0  -1   81.59    8.50
   6   0  -1   78.59    8.70
  -6   0   1   83.59    8.60
   5   0  -1   56.59    5.40
   5   0  -1   60.79    4.80
   5   0  -1   42.00    6.10
   5   0  -1   48.50    4.90
   5   0  -1   45.70    6.20
  -5   0   1   46.90    6.10
  -5   0   1   52.19    5.30
  -5   0   1   43.70    5.10
   4   0  -1 1788.42   74.09
   4   0  -1 1828.12   74.79
   4   0  -1 1839.12   74.89
   4   0  -1 1863.41   74.39
   4   0  -1 1809.72   74.09
  -4   0   1 1837.22   74.49
  -4   0   1 1825.22   74.19
  -4   0   1 1811.22   75.09
   3   0  -1   99.69    5.60
   3   0  -1   95.59    4.80
   3   0  -1   92.69    4.80
   3   0  -1   94.49    5.60
   3   0  -1   97.99    5.20
  -3   0   1   90.59    4.90
  -3   0   1   90.99    5.20
  -3   0   1   90.39    5.50
  -3   0   1   93.49    4.80
   2   0  -1 1683.93   71.39
   2   0  -1 1701.73   70.99
   2   0  -1 1890.91   70.99
   2   0  -1 1823.22   71.29
   2   0  -1 1721.23   70.99
  -2   0   1 1709.93   71.49
  -2   0   1 1759.02   70.99
  -2   0   1 1766.32   71.29
  -2   0   1 1778.52   70.99
   1   0  -1  724.23   28.30
   1   0  -1  677.83   28.40
   1   0  -1  675.53   28.10
   1   0  -1  740.43   28.30
   1   0  -1  697.33   28.30
   1   0  -1  681.13   28.10
  -1   0   1  654.03   28.10
  -1   0   1  772.32   28.30
  -1   0   1  710.63   28.10
  -1   0   1  670.93   28.30
  -1   0   1  660.53   28.40
  -1   0   1  684.73   28.10
   0   0  -1   35.10    2.30
   0   0  -1   46.50    2.20
   0   0   1   41.80    2.50
  -1   0  -1 1408.26   55.29
  -1   0  -1 1324.97   55.39
  -1   0  -1 1361.36   55.29
  -1   0  -1 1327.97   55.29
  -1   0  -1 1369.26   55.19
   1   0   1 1464.05   55.39
   1   0   1 1355.86   55.39
   1   0   1 1345.47   55.29
  -2   0  -1 2758.42  113.49
  -2   0  -1 2831.72  113.69
  -2   0  -1 2747.12  113.29
  -2   0  -1 2924.91  113.49
  -2   0  -1 2780.22  113.29
   2   0   1 2729.73  113.29
   2   0   1 2781.22  113.59
   2   0   1 2899.31  113.29
   2   0   1 2861.11  113.39
  -3   0  -1  666.63   28.00
  -3   0  -1  664.33   28.50
  -3   0  -1  693.43   28.30
  -3   0  -1  684.73   28.60
   3   0   1  666.33   27.90
   3   0   1  661.33   28.50
   3   0   1  677.43   28.20
   3   0   1  703.03   28.00
   3   0   1  709.13   28.30
  -4   0  -1 1448.66   59.29
  -4   0  -1 1455.75   58.39
  -4   0  -1 1438.76   58.79
  -4   0  -1 1426.96   59.19
   4   0   1 1428.86   58.49
   4   0   1 1412.96   58.19
   4   0   1 1439.66   58.39
   4   0   1 1471.75   58.89
   4   0   1 1434.36   58.69
   4   0   1 1394.76   59.09
  -5   0  -1   12.20    3.80
  -5   0  -1   13.30    3.70
  -5   0  -1   19.00    3.40
   5   0   1   10.40    3.40
   5   0   1   12.40    3.50
   5   0   1   15.10    2.90
   5   0   1   13.90    2.90
  -6   0  -1   11.00    4.70
   6   0   1   17.70    3.70
   6   0   1   16.60    3.60
   6   0   1   17.20    3.60
  -7   0  -1  329.17   17.90
   7   0   1  334.57   16.70
   7   0   1  346.27   16.40
   7   0   1  300.57   17.30
  -8   0  -1    0.00    7.70
   8   0   1   12.60    5.50
   8   0   1   -4.50    6.10
   7  -1  -1   55.39    7.90
   7  -1  -1   76.59    8.10
  -7   1   1   52.59   10.20
   6  -1  -1  887.71   38.80
   6  -1  -1  895.91   37.70
   6  -1  -1  917.51   38.00
  -6   1   1  890.21   39.50
   5  -1  -1  164.58    8.70
   5  -1  -1  155.38    7.80
   5  -1  -1  156.08    8.40
   5  -1  -1  172.58    9.90
   5  -1  -1  166.38    9.90
  -5   1   1  148.09    9.90
  -5   1   1  162.38    8.80
  -5   1   1  164.28    8.00
   4  -1  -1  425.96   18.10
   4  -1  -1  438.06   18.90
   4  -1  -1  377.96   18.70
   4  -1  -1  427.56   17.80
   4  -1  -1  420.66   17.80
   4  -1  -1  425.16   17.90
  -4   1   1  422.56   19.10
  -4   1   1  427.56   17.80
  -4   1   1  416.26   17.80
  -4   1   1  422.26   18.30
   3  -1  -1   48.90    3.30
   3  -1  -1   48.30    4.20
   3  -1  -1   54.49    3.50
   3  -1  -1   52.29    3.30
   3  -1  -1   45.90    4.30
   3  -1  -1   46.60    3.20
  -3   1   1   45.90    3.70
  -3   1   1   48.70    3.20
  -3   1   1   51.59    4.20
  -3   1   1   49.99    3.60
  -3   1   1   50.49    3.20
   2  -1  -1 2911.11  115.49
   2  -1  -1 2777.32  115.19
   2  -1  -1 2809.42  115.19
   2  -1  -1 2821.12  115.09
  -2   1   1 2875.21  115.19
  -2   1   1 2883.91  115.29
  -2   1   1 3080.79  115.19
  -2   1   1 2860.31  115.09
  -2   1   1 2693.93  115.59
   1  -1  -1  578.74   24.30
   1  -1  -1  608.84   24.50
   1  -1  -1  586.94   24.30
   1  -1  -1  582.54   24.30
  -1   1   1  595.84   24.50
  -1   1   1  594.54   24.30
  -1   1   1  623.14   24.30
   0  -1  -1  506.45   20.80
   0  -1  -1  506.55   20.80
   0  -1  -1  480.05   20.60
   0   1   1  531.15   20.80
   0   1   1  482.45   20.60
   0   1   1  545.55   20.80
  -1  -1  -1  725.33   27.80
  -1  -1  -1  629.84   27.70
  -1  -1  -1  709.63   27.80
  -1  -1  -1  646.74   27.50
  -1  -1  -1  672.53   27.80
   1   1   1  742.83   27.90
   1   1   1  710.63   27.80
   1   1   1  631.34   27.50
  -2  -1  -1 2444.46  101.19
  -2  -1  -1 2589.54  101.09
  -2  -1  -1 2461.35  101.09
  -2  -1  -1 2667.53  100.89
   2   1   1 2468.65  100.99
   2   1   1 2473.35  100.79
   2   1   1 2430.56  101.09
  -3  -1  -1  201.38    9.00
  -3  -1  -1  195.68    9.00
  -3  -1  -1  194.68    9.20
   3   1   1  194.48    8.90
   3   1   1  192.38    8.20
   3   1   1  200.68    8.90
   3   1   1  187.68    9.00
  -4  -1  -1  384.76   17.00
  -4  -1  -1  385.06   16.60
  -4  -1  -1  376.66   16.90
   4   1   1  380.16   16.30
   4   1   1  382.66   16.60
   4   1   1  376.46   15.70
   4   1   1  367.96   16.70
   4   1   1  370.66   16.40
   4   1   1  381.76   16.60
  -5  -1  -1 1582.94   63.69
  -5  -1  -1 1524.65   63.09
  -5  -1  -1 1498.85   63.59
   5   1   1 1509.05   62.09
   5   1   1 1533.75   62.89
   5   1   1 1549.05   62.89
   5   1   1 1597.84   63.09
   5   1   1 1471.25   63.29
   5   1   1 1542.35   63.09
  -6  -1  -1   15.00    3.70
  -6  -1  -1   14.70    4.90
   6   1   1   17.60    3.80
   6   1   1   15.10    4.20
   6   1   1   12.90    4.40
   6   1   1   12.80    3.70
   6   1   1   10.20    3.30
   6   1   1   15.00    3.50
  -7  -1  -1  436.86   22.40
   7   1   1  459.05   21.60
   7   1   1  461.35   20.90
   7   1   1  497.05   21.20
   7   1   1  455.15   21.40
   7   1   1  432.36   22.20
   8   1   1   12.90    6.70
   8   1   1   17.90    5.40
   8   1   1   17.60    6.10
   7  -2  -1   -0.10    4.50
   7  -2  -1    2.30    4.50
   7  -2  -1    3.20    4.40
  -7   2   1    1.30    6.90
   6  -2  -1   12.00    3.70
   6  -2  -1   11.70    3.40
   6  -2  -1   12.00    3.00
   6  -2  -1   11.90    3.40
   6  -2  -1   10.60    3.70
  -6   2   1   12.40    5.20
  -6   2   1    9.80    3.10
   5  -2  -1   45.80    4.70
   5  -2  -1   45.40    4.70
   5  -2  -1   38.40    6.80
   5  -2  -1   51.29    5.40
   5  -2  -1   50.39    5.60
   5  -2  -1   40.10    4.90
  -5   2   1   36.40    6.60
  -5   2   1   40.10    5.30
  -5   2   1   44.80    4.90
  -5   2   1   37.20    4.90
   4  -2  -1  519.95   21.60
   4  -2  -1  521.25   21.50
   4  -2  -1  500.75   21.70
   4  -2  -1  487.45   22.40
  -4   2   1  493.25   22.50
  -4   2   1  490.05   21.60
  -4   2   1  499.95   21.50
  -4   2   1  508.75   21.50
  -4   2   1  522.15   21.90
   3  -2  -1 1452.55   60.69
   3  -2  -1 1468.05   60.29
   3  -2  -1 1514.25   60.19
   3  -2  -1 1466.05   60.19
  -3   2   1 1480.15   60.29
  -3   2   1 1460.45   60.89
  -3   2   1 1486.95   60.19
  -3   2   1 1462.85   60.19
  -3   2   1 1506.85   60.39
   2  -2  -1  284.57   12.10
   2  -2  -1  283.87   12.10
   2  -2  -1  273.77   12.00
   2  -2  -1  264.47   12.30
  -2   2   1  287.67   12.00
  -2   2   1  281.97   12.50
  -2   2   1  278.37   12.10
  -2   2   1  273.37   12.00
  -2   2   1  278.77   12.10
   1  -2  -1  657.93   27.70
   1  -2  -1  661.03   27.70
   1  -2  -1  650.23   27.60
   1  -2  -1  668.03   27.50
   1  -2  -1  675.13   27.50
  -1   2   1  673.73   27.70
  -1   2   1  705.73   27.70
  -1   2   1  678.33   27.50
  -1   2   1  685.93   27.70
   0  -2  -1    2.70    0.90
   0  -2  -1    4.10    0.80
   0  -2  -1    4.00    0.90
   0  -2  -1    5.50    1.40
   0  -2  -1    3.80    0.90
   0   2   1    2.20    0.80
   0   2   1    2.40    0.80
   0   2   1    5.50    1.20
   0   2   1    3.20    0.80
   0   2   1    4.20    0.70
  -1  -2  -1   14.70    1.40
  -1  -2  -1   13.70    1.50
  -1  -2  -1   17.30    1.50
  -1  -2  -1   14.50    1.50
  -1  -2  -1   15.10    1.50
   1   2   1   14.00    1.50
   1   2   1   14.20    1.50
   1   2   1   13.30    1.40
   1   2   1   14.90    1.50
   1   2   1   17.60    1.40
  -2  -2  -1 1791.92   71.49
  -2  -2  -1 1755.32   71.39
  -2  -2  -1 1800.32   71.69
  -2  -2  -1 1788.52   71.59
   2   2   1 1726.43   71.39
   2   2   1 1754.72   71.79
   2   2   1 1773.72   71.59
   2   2   1 1841.42   71.59
   2   2   1 1717.13   71.39
  -3  -2  -1 2662.93  104.39
  -3  -2  -1 2620.14  104.39
   3   2   1 2512.05  104.29
   3   2   1 2632.54  104.39
   3   2   1 2594.94  104.39
   3   2   1 2456.45  103.89
  -4  -2  -1  219.28   10.50
  -4  -2  -1  218.48   10.30
   4   2   1  207.58   10.20
   4   2   1  216.38    9.30
   4   2   1  212.98   10.20
   4   2   1  220.28   10.30
   4   2   1  210.68   10.20
  -5  -2  -1   10.40    2.80
  -5  -2  -1    6.80    3.30
   5   2   1    6.30    1.80
   5   2   1   11.30    3.30
   5   2   1    7.80    2.40
   5   2   1    5.50    2.50
   5   2   1    7.10    2.80
   5   2   1    8.40    3.00
  -6  -2  -1   -1.80    3.40
   6   2   1    3.60    3.90
   6   2   1    5.80    2.20
   6   2   1    0.00    3.10
   6   2   1   -4.80    3.20
   6   2   1   -0.70    2.80
   6   2   1    1.80    3.60
  -7  -2  -1    0.90    4.20
   7   2   1    7.50    4.50
   7   2   1   11.60    2.80
   7   2   1    6.60    5.10
   7   2   1    9.00    5.20
   7   2   1   10.80    3.90
   7   2   1    7.60    4.40
  -8  -2  -1  339.57   18.40
   8   2   1  338.27   18.80
   8   2   1  358.06   19.30
   8   2   1  341.87   18.30
   8   2   1  356.56   17.80
   7  -3  -1  297.87   15.60
   7  -3  -1  298.47   15.30
   7  -3  -1  311.67   16.40
  -7   3   1  287.67   15.20
  -7   3   1  293.37   18.90
   6  -3  -1  202.58   11.10
   6  -3  -1  188.98   10.90
   6  -3  -1  199.28   11.70
   6  -3  -1  167.98   12.70
   6  -3  -1  204.68   11.10
   6  -3  -1  208.08   10.80
  -6   3   1  202.58   10.90
  -6   3   1  199.08   13.60
   5  -3  -1  228.18   11.40
   5  -3  -1  223.68   11.40
   5  -3  -1  217.88   11.20
   5  -3  -1  219.18   11.50
  -5   3   1  214.78   11.50
  -5   3   1  220.98   12.90
  -5   3   1  223.58   11.30
   4  -3  -1  337.97   15.30
   4  -3  -1  324.37   16.00
   4  -3  -1  324.67   15.20
   4  -3  -1  328.77   15.30
   4  -3  -1  331.87   15.00
  -4   3   1  342.47   15.30
  -4   3   1  332.27   14.90
  -4   3   1  350.56   16.40
  -4   3   1  342.87   15.60
  -4   3   1  343.97   15.30
   3  -3  -1   36.70    4.10
   3  -3  -1   28.40    4.30
   3  -3  -1   46.40    3.90
   3  -3  -1   31.90    4.60
   3  -3  -1   32.90    4.00
  -3   3   1   34.80    3.90
  -3   3   1   30.60    4.50
  -3   3   1   33.40    3.80
  -3   3   1   28.30    3.90
   2  -3  -1  261.47   11.60
   2  -3  -1  256.17   11.50
   2  -3  -1  258.57   11.40
   2  -3  -1  247.18   11.60
   2  -3  -1  253.97   11.30
  -2   3   1  250.97   11.70
  -2   3   1  254.67   11.40
  -2   3   1  267.07   11.60
  -2   3   1  252.27   11.50
   1  -3  -1 1570.84   66.99
   1  -3  -1 1667.43   66.89
   1  -3  -1 1534.45   67.09
   1  -3  -1 1806.72   67.19
   1  -3  -1 1626.24   66.89
  -1   3   1 1654.23   66.89
  -1   3   1 1730.83   67.19
  -1   3   1 1617.24   67.09
   0  -3  -1 1341.07   57.59
   0  -3  -1 1370.06   57.49
   0  -3  -1 1459.45   57.89
   0  -3  -1 1414.76   57.89
   0  -3  -1 1330.57   57.49
   0   3   1 1433.86   57.59
   0   3   1 1533.55   57.89
   0   3   1 1403.96   57.69
   0   3   1 1524.65   57.89
  -1  -3  -1 2588.14   95.99
  -1  -3  -1 2335.87   96.19
  -1  -3  -1 2317.27   95.99
  -1  -3  -1 2342.97   96.09
  -1  -3  -1 2327.57   96.19
  -1  -3  -1 2583.44   96.19
   1   3   1 2291.87   95.99
   1   3   1 2370.96   96.19
   1   3   1 2416.46   96.09
   1   3   1 2248.48   96.19
  -2  -3  -1 1152.68   46.60
  -2  -3  -1 1134.59   46.30
  -2  -3  -1 1187.08   46.40
  -2  -3  -1 1132.29   46.30
   2   3   1 1157.28   46.50
   2   3   1 1159.08   46.40
   2   3   1 1081.39   46.30
   2   3   1 1125.29   46.30
  -3  -3  -1  523.15   22.30
  -3  -3  -1  543.55   22.60
  -3  -3  -1  530.45   22.20
  -3  -3  -1  572.14   22.80
   3   3   1  519.85   22.20
   3   3   1  528.25   22.40
   3   3   1  580.54   22.30
   3   3   1  527.95   22.70
  -4  -3  -1  231.28   10.90
  -4  -3  -1  246.78   11.00
   4   3   1  212.88   10.00
   4   3   1  224.78   10.60
   4   3   1  232.58   10.90
   4   3   1  238.68   11.00
   4   3   1  227.58   11.00
  -5  -3  -1   38.60    5.20
  -5  -3  -1   38.00    5.10
   5   3   1   29.00    4.70
   5   3   1   38.20    5.10
   5   3   1   37.50    5.10
   5   3   1   35.60    3.50
   5   3   1   40.40    5.00
  -6  -3  -1 2410.26  100.59
   6   3   1 2454.95  100.59
   6   3   1 2407.96   99.49
   6   3   1 2548.15   99.99
   6   3   1 2485.85  100.69
   6   3   1 2463.65  100.49
   6   3   1 2440.76  100.59
  -7  -3  -1  103.19    9.30
   7   3   1   96.89    9.00
   7   3   1  100.79    6.50
   7   3   1  105.59    7.90
   7   3   1   90.79    9.00
   7   3   1   93.79    9.30
   7   3   1  103.69    9.30
  -8  -3  -1  165.18   12.30
   8   3   1  163.88    9.60
   8   3   1  176.88   13.30
   8   3   1  181.38   13.10
   8   3   1  189.08   13.80
   8   3   1  194.18   11.60
   6  -4  -1    9.40    4.40
   6  -4  -1    0.60    4.30
   6  -4  -1    8.70    3.80
   6  -4  -1    6.80    4.20
   6  -4  -1   11.40    4.50
  -6   4   1    9.70    3.80
  -6   4   1   12.70    7.00
   5  -4  -1   29.50    7.50
   5  -4  -1   53.09    6.90
   5  -4  -1   44.70    6.50
   5  -4  -1   47.20    6.50
   5  -4  -1   43.20    6.10
  -5   4   1   48.70    8.00
  -5   4   1   49.30    6.10
   4  -4  -1  172.48    9.90
   4  -4  -1  189.08   10.20
   4  -4  -1  199.28   10.30
   4  -4  -1  174.28   10.60
   4  -4  -1  190.78    9.60
  -4   4   1  194.98   10.20
  -4   4   1  178.38   10.90
  -4   4   1  197.38   10.20
   3  -4  -1  592.74   25.20
   3  -4  -1  576.14   25.20
   3  -4  -1  592.24   24.90
   3  -4  -1  576.94   24.70
   3  -4  -1  586.24   25.30
  -3   4   1  572.64   25.50
  -3   4   1  577.14   25.10
  -3   4   1  593.44   25.20
  -3   4   1  585.04   25.00
   2  -4  -1  941.81   40.20
   2  -4  -1 1000.20   40.60
   2  -4  -1  943.51   40.50
   2  -4  -1 1013.20   40.60
   2  -4  -1  962.40   40.10
  -2   4   1 1024.80   40.60
  -2   4   1  989.80   40.30
  -2   4   1  957.20   40.70
  -2   4   1  953.10   40.50
   1  -4  -1 1801.62   72.89
   1  -4  -1 1781.42   73.29
   1  -4  -1 1777.92   73.19
   1  -4  -1 1683.03   72.89
   1  -4  -1 1802.42   72.89
  -1   4   1 1819.62   72.99
  -1   4   1 1913.41   73.29
  -1   4   1 1786.12   73.19
   0  -4  -1  506.15   21.00
   0  -4  -1  508.25   21.50
   0  -4  -1  489.25   20.90
   0  -4  -1  506.75   21.40
   0  -4  -1  482.55   21.10
   0   4   1  535.45   21.50
   0   4   1  513.45   21.00
   0   4   1  532.35   21.50
   0   4   1  483.35   21.10
  -1  -4  -1   62.09    3.30
  -1  -4  -1   52.09    3.60
  -1  -4  -1   55.69    3.90
  -1  -4  -1   52.69    3.70
  -1  -4  -1   53.69    3.50
   1   4   1   57.09    3.70
   1   4   1   55.99    3.70
   1   4   1   65.79    3.20
   1   4   1   64.59    3.50
   1   4   1   51.79    3.80
  -2  -4  -1  739.43   32.20
  -2  -4  -1  848.82   32.50
  -2  -4  -1  779.82   32.40
  -2  -4  -1  775.12   32.50
  -2  -4  -1  776.22   32.50
   2   4   1  767.12   32.40
   2   4   1  871.81   32.10
   2   4   1  746.93   32.40
   2   4   1  804.12   32.50
   2   4   1  758.82   32.30
  -3  -4  -1 1590.94   63.99
  -3  -4  -1 1572.74   63.99
  -3  -4  -1 1606.44   64.49
   3   4   1 1517.75   63.99
   3   4   1 1583.74   63.99
   3   4   1 1608.64   64.39
   3   4   1 1572.44   64.09
  -4  -4  -1  252.07   11.20
  -4  -4  -1  247.78   11.40
  -4  -4  -1  254.57   11.80
   4   4   1  243.28   11.10
   4   4   1  251.57   11.80
   4   4   1  244.08   11.30
   4   4   1  268.17   12.10
  -5  -4  -1   99.69    7.00
   5   4   1   89.49    7.20
   5   4   1  108.99    7.20
   5   4   1   95.89    5.70
   5   4   1   99.59    6.50
   5   4   1  100.49    6.90
  -6  -4  -1   27.20    4.40
   6   4   1   28.40    5.10
   6   4   1   24.10    5.90
   6   4   1   20.30    3.10
   6   4   1   25.00    4.70
   6   4   1   30.90    5.90
   6   4   1   21.50    4.50
  -7  -4  -1   85.59    9.00
   7   4   1   89.89    6.50
   7   4   1   95.69    7.40
   7   4   1   84.99    9.00
   7   4   1   86.79    8.70
   7   4   1   95.79    9.40
   7   4   1   87.09    9.20
  -8  -4  -1   31.10    6.30
   8   4   1   33.00    6.70
   8   4   1   39.30   10.50
   8   4   1   48.30    7.70
   8   4   1   37.50    6.10
   8   4   1   33.90    6.90
   8   4   1   34.90    7.80
   6  -5  -1  584.64   26.80
   6  -5  -1  615.64   27.20
   6  -5  -1  614.24   26.30
  -6   5   1  593.14   29.00
  -6   5   1  509.55   27.50
   5  -5  -1  194.98   12.30
   5  -5  -1  184.08   12.70
   5  -5  -1  200.18   11.20
   5  -5  -1  196.78   11.40
   5  -5  -1  196.18   12.00
  -5   5   1  197.68   12.40
  -5   5   1  200.08   13.40
  -5   5   1  207.38   11.70
   4  -5  -1 1085.89   45.50
   4  -5  -1 1071.89   46.20
   4  -5  -1 1111.89   45.90
   4  -5  -1 1032.40   46.20
   4  -5  -1 1157.58   46.40
  -4   5   1 1109.19   46.30
   3  -5  -1  836.12   35.50
   3  -5  -1  837.82   35.00
   3  -5  -1  841.12   35.50
   3  -5  -1  786.92   35.30
   3  -5  -1  837.92   34.80
  -3   5   1  852.31   35.50
  -3   5   1  847.92   35.50
  -3   5   1  812.82   35.80
  -3   5   1  840.92   35.20
   2  -5  -1   45.00    4.40
   2  -5  -1   45.90    5.50
   2  -5  -1   42.40    4.50
   2  -5  -1   43.30    4.60
   2  -5  -1   42.20    5.00
  -2   5   1   40.10    4.80
  -2   5   1   41.20    4.90
  -2   5   1   45.10    4.40
  -2   5   1   40.60    4.90
   1  -5  -1  482.75   20.40
   1  -5  -1  447.06   20.40
   1  -5  -1  476.65   21.00
   1  -5  -1  477.35   20.50
   1  -5  -1  481.35   20.10
   1  -5  -1  498.85   21.10
  -1   5   1  476.55   20.60
  -1   5   1  502.75   21.00
  -1   5   1  482.65   21.00
  -1   5   1  488.75   20.50
   0  -5  -1   58.19    3.90
   0  -5  -1   55.09    3.90
   0  -5  -1   55.09    4.80
   0  -5  -1   53.59    4.60
   0  -5  -1   53.09    4.30
   0   5   1   60.29    3.80
   0   5   1   61.89    4.50
   0   5   1   60.19    4.50
   0   5   1   58.69    4.70
  -1  -5  -1 1103.09   45.30
  -1  -5  -1 1073.09   44.90
  -1  -5  -1 1081.29   45.00
  -1  -5  -1 1061.89   45.30
  -1  -5  -1 1150.18   44.70
   1   5   1 1125.09   44.70
   1   5   1 1085.19   45.00
   1   5   1 1102.69   45.30
   1   5   1 1097.39   45.30
  -2  -5  -1 1306.27   54.49
  -2  -5  -1 1300.67   54.79
  -2  -5  -1 1328.17   54.79
  -2  -5  -1 1375.76   54.39
  -2  -5  -1 1410.46   54.69
  -2  -5  -1 1308.67   54.69
   2   5   1 1320.97   54.79
   2   5   1 1318.47   54.49
   2   5   1 1291.27   54.69
   2   5   1 1409.46   54.19
   2   5   1 1344.27   54.69
  -3  -5  -1  126.99    6.70
  -3  -5  -1  124.39    6.80
  -3  -5  -1  113.89    6.50
  -3  -5  -1  116.39    6.40
  -3  -5  -1  122.59    6.30
   3   5   1  133.69    5.80
   3   5   1  119.69    6.40
   3   5   1  125.89    6.70
   3   5   1  115.99    6.40
   3   5   1  110.19    6.40
  -4  -5  -1   12.10    2.70
  -4  -5  -1   16.20    2.80
  -4  -5  -1   10.00    2.10
  -4  -5  -1    6.80    2.10
  -4  -5  -1   12.10    2.40
   4   5   1   13.70    3.10
   4   5   1   12.30    2.90
   4   5   1   12.40    2.50
   4   5   1    4.80    1.90
  -5  -5  -1 1771.02   70.79
  -5  -5  -1 1752.22   71.59
   5   5   1 1673.33   70.89
   5   5   1 1710.43   71.79
   5   5   1 1729.23   71.39
   5   5   1 1720.03   70.69
   5   5   1 1806.72   71.79
  -6  -5  -1  157.08   10.00
   6   5   1  165.08    9.40
   6   5   1  166.68   10.20
   6   5   1  164.18   10.50
   6   5   1  163.88   10.40
   6   5   1  150.38    8.70
   6   5   1  169.58    8.60
  -7  -5  -1  351.16   17.50
   7   5   1  328.57   15.40
   7   5   1  321.67   17.80
   7   5   1  319.77   16.70
   7   5   1  353.66   17.80
   7   5   1  336.17   17.30
   7   5   1  348.57   15.70
  -8  -5  -1    2.60    5.20
   8   5   1   10.30    6.60
   8   5   1   -1.50    4.00
   8   5   1    1.50    7.60
   8   5   1   -1.70    4.20
   8   5   1    7.30    7.00
   5  -6  -1   11.80    5.40
   5  -6  -1   15.80    4.90
   5  -6  -1   13.40    4.70
   5  -6  -1   19.00    5.70
  -5   6   1   16.30    4.60
  -5   6   1   23.00    6.90
   4  -6  -1  174.08   10.80
   4  -6  -1  190.98   11.90
   4  -6  -1  186.28   10.70
   4  -6  -1  179.48   11.60
  -4   6   1  195.68   11.70
  -4   6   1  177.98   12.30
  -4   6   1  171.88   11.90
   3  -6  -1  557.84   24.50
   3  -6  -1  552.14   24.20
   3  -6  -1  559.44   25.10
   3  -6  -1  604.84   25.40
   3  -6  -1  515.35   24.50
  -3   6   1  553.74   24.70
  -3   6   1  579.14   25.10
  -3   6   1  541.45   25.20
   2  -6  -1  987.20   41.60
   2  -6  -1 1008.80   41.00
   2  -6  -1 1014.90   41.70
   2  -6  -1  916.61   40.90
   2  -6  -1  966.90   40.80
  -2   6   1 1003.90   41.10
  -2   6   1  993.40   41.60
  -2   6   1  924.21   41.40
  -2   6   1 1024.90   41.60
   1  -6  -1  109.69    6.10
   1  -6  -1  107.89    7.30
   1  -6  -1  113.09    6.40
   1  -6  -1   96.09    6.00
   1  -6  -1  103.19    7.50
   1  -6  -1  105.69    6.70
  -1   6   1  106.39    6.90
  -1   6   1  119.09    7.30
  -1   6   1  111.69    6.40
  -1   6   1  102.19    7.10
   0  -6  -1   60.09    4.30
   0  -6  -1   45.20    4.70
   0  -6  -1   53.89    4.40
   0  -6  -1   49.70    5.20
   0  -6  -1   53.29    5.40
   0   6   1   57.59    5.00
   0   6   1   60.59    5.30
   0   6   1   55.59    5.00
   0   6   1   54.99    4.20
  -1  -6  -1  105.89    6.10
  -1  -6  -1   97.69    6.60
  -1  -6  -1  102.39    6.20
  -1  -6  -1   99.49    6.70
  -1  -6  -1  112.59    5.60
   1   6   1  107.29    6.50
   1   6   1  100.39    6.60
   1   6   1  108.79    6.60
   1   6   1  108.99    5.50
  -2  -6  -1  691.23   29.40
  -2  -6  -1  735.33   28.80
  -2  -6  -1  709.03   29.30
  -2  -6  -1  672.83   29.10
  -2  -6  -1  685.03   29.50
  -2  -6  -1  693.73   29.30
   2   6   1  726.73   29.20
   2   6   1  695.53   28.60
   2   6   1  672.63   29.10
   2   6   1  698.03   29.50
   2   6   1  681.93   29.40
  -3  -6  -1 1731.13   70.69
  -3  -6  -1 1732.23   70.79
  -3  -6  -1 1789.32   70.59
  -3  -6  -1 1743.93   70.69
  -3  -6  -1 1728.23   70.39
   3   6   1 1743.73   70.69
   3   6   1 1708.53   70.69
   3   6   1 1695.43   70.59
   3   6   1 1747.13   69.89
   3   6   1 1659.73   70.39
  -4  -6  -1   43.20    4.60
  -4  -6  -1   34.30    5.10
  -4  -6  -1   42.30    4.50
  -4  -6  -1   39.60    5.20
  -4  -6  -1   43.00    4.70
   4   6   1   42.00    5.10
   4   6   1   39.80    4.30
   4   6   1   43.80    4.80
   4   6   1   41.00    4.30
  -5  -6  -1  522.25   21.20
  -5  -6  -1  451.55   21.20
  -5  -6  -1  504.35   22.40
  -5  -6  -1  509.15   21.50
  -5  -6  -1  496.25   22.20
   5   6   1  496.25   22.80
   5   6   1  465.05   21.00
   5   6   1  518.15   21.30
   5   6   1  505.05   22.20
   5   6   1  494.25   21.40
  -6  -6  -1   11.30    4.10
   6   6   1   15.30    5.20
   6   6   1   17.80    3.60
   6   6   1   16.50    3.90
   6   6   1   23.10    5.40
   6   6   1   11.30    4.20
  -7  -6  -1    6.10    4.80
   7   6   1    9.40    5.40
   7   6   1    1.20    4.40
   7   6   1   -3.50    5.70
   7   6   1   -3.70    6.10
   7   6   1    5.40    3.90
   7   6   1   -2.10    3.20
  -8  -6  -1  116.49   12.00
   8   6   1  130.49    9.60
   8   6   1  147.49    9.40
   8   6   1  127.59   14.00
   8   6   1  123.99   11.70
   4  -7  -1    2.80    5.10
   4  -7  -1    1.30    4.40
   4  -7  -1    5.90    5.20
   4  -7  -1    8.10    4.60
   4  -7  -1    4.00    5.10
  -4   7   1    2.80    4.40
  -4   7   1    6.40    5.80
   3  -7  -1   28.60    6.60
   3  -7  -1   31.80    6.50
   3  -7  -1   22.00    5.20
   3  -7  -1   24.60    5.00
   3  -7  -1   31.40    4.70
  -3   7   1   28.10    4.90
  -3   7   1   21.20    4.90
  -3   7   1   29.50    6.80
   2  -7  -1   99.69    7.30
   2  -7  -1  104.89    8.90
   2  -7  -1   89.59    7.40
   2  -7  -1   98.79    6.60
   2  -7  -1   99.39    8.10
   2  -7  -1   87.29    6.80
  -2   7   1  100.49    7.20
  -2   7   1   96.19    8.00
  -2   7   1  103.49    7.90
   1  -7  -1   15.20    3.90
   1  -7  -1   11.60    3.60
   1  -7  -1   12.60    2.70
   1  -7  -1   11.30    2.70
   1  -7  -1   15.50    3.10
   1  -7  -1   13.80    3.20
  -1   7   1    4.50    3.00
  -1   7   1    9.40    3.30
  -1   7   1   11.40    2.80
  -1   7   1   13.90    3.50
   0  -7  -1 1724.43   72.39
   0  -7  -1 1716.33   71.39
   0  -7  -1 1670.53   71.49
   0  -7  -1 1679.53   71.59
   0  -7  -1 1775.72   72.39
   0   7   1 1821.92   71.49
   0   7   1 1863.91   72.39
   0   7   1 1720.63   71.79
   0   7   1 1795.72   72.39
  -1  -7  -1 1012.70   42.40
  -1  -7  -1  997.10   41.40
  -1  -7  -1  974.60   41.80
  -1  -7  -1 1024.40   42.40
  -1  -7  -1 1003.90   41.80
   1   7   1 1020.40   41.90
   1   7   1 1001.10   42.30
   1   7   1 1022.00   42.40
   1   7   1 1003.10   41.40
  -2  -7  -1  756.42   30.20
  -2  -7  -1  716.63   30.80
  -2  -7  -1  717.63   31.10
  -2  -7  -1  720.23   30.70
  -2  -7  -1  742.33   31.10
  -2  -7  -1  728.73   30.80
   2   7   1  716.63   31.10
   2   7   1  697.93   31.00
   2   7   1  738.73   30.00
   2   7   1  736.53   30.70
  -3  -7  -1   24.40    4.70
  -3  -7  -1   20.90    4.90
  -3  -7  -1   23.80    4.90
  -3  -7  -1   22.10    5.10
  -3  -7  -1   25.60    5.10
   3   7   1   30.00    4.70
   3   7   1   32.70    5.20
   3   7   1   25.90    4.70
   3   7   1   19.00    3.30
  -4  -7  -1  176.18    9.90
  -4  -7  -1  197.58   10.60
  -4  -7  -1  191.88   10.50
  -4  -7  -1  198.68   10.20
  -4  -7  -1  192.78    9.90
   4   7   1  195.18   10.10
   4   7   1  192.68   10.30
   4   7   1  186.88   10.00
   4   7   1  169.98   10.00
  -5  -7  -1  123.99    9.20
  -5  -7  -1  134.79    8.00
  -5  -7  -1  128.89    8.20
  -5  -7  -1  132.69    9.30
  -5  -7  -1  120.39    7.90
   5   7   1  135.19    8.30
   5   7   1  136.29    7.90
   5   7   1  121.59    7.80
  -6  -7  -1  329.17   15.80
  -6  -7  -1  326.77   16.80
   6   7   1  332.07   17.60
   6   7   1  319.87   17.50
   6   7   1  334.47   15.70
  -7  -7  -1  159.78   11.90
   7   7   1  154.78   13.20
   7   7   1  177.48   13.50
   7   7   1  145.39   11.80
   7   7   1  177.08   10.50
   7   7   1  156.08   10.20
  -8  -7  -1  344.07   19.50
   8   7   1  387.76   21.80
   8   7   1  366.46   17.70
   8   7   1  347.67   18.80
   3  -8  -1  119.79   10.40
   3  -8  -1  143.89    8.70
   3  -8  -1  133.49   10.20
   3  -8  -1  133.79   11.40
   3  -8  -1  141.19   12.50
  -3   8   1  136.19   10.90
  -3   8   1  120.29   11.10
   2  -8  -1  487.25   21.60
   2  -8  -1  514.45   23.10
   2  -8  -1  485.45   23.30
   2  -8  -1  467.95   21.80
   2  -8  -1  468.45   21.30
   2  -8  -1  480.55   21.00
  -2   8   1  456.65   22.40
  -2   8   1  478.35   23.00
  -2   8   1  465.65   21.90
  -2   8   1  471.15   22.70
   1  -8  -1  620.44   26.40
   1  -8  -1  587.54   26.50
   1  -8  -1  606.74   26.20
   1  -8  -1  570.24   25.90
   1  -8  -1  644.34   27.90
   1  -8  -1  583.34   27.50
  -1   8   1  661.53   27.60
  -1   8   1  585.94   26.80
  -1   8   1  611.04   26.50
  -1   8   1  626.84   27.60
   0  -8  -1   13.00    4.10
   0  -8  -1   12.00    3.50
   0  -8  -1   11.60    4.00
   0  -8  -1   15.30    3.20
   0  -8  -1   15.60    3.30
   0   8   1   10.90    3.80
   0   8   1   15.20    2.90
   0   8   1   14.60    3.60
   0   8   1   20.60    4.40
  -1  -8  -1  168.68    9.80
  -1  -8  -1  167.48    8.50
  -1  -8  -1  160.48   10.20
  -1  -8  -1  157.88   10.10
  -1  -8  -1  164.48    9.20
   1   8   1  156.28    9.80
   1   8   1  155.48    9.80
   1   8   1  167.78    8.50
   1   8   1  172.18   10.10
  -2  -8  -1 1658.43   70.09
  -2  -8  -1 1731.73   68.99
  -2  -8  -1 1689.23   69.69
  -2  -8  -1 1735.73   69.79
  -2  -8  -1 1747.63   72.29
  -2  -8  -1 1689.73   69.69
   2   8   1 1675.33   69.99
   2   8   1 1626.84   69.99
   2   8   1 1722.43   69.59
   2   8   1 1647.54   68.79
  -3  -8  -1   14.10    3.80
  -3  -8  -1   13.60    3.90
  -3  -8  -1   21.80    3.70
  -3  -8  -1   12.50    3.40
  -3  -8  -1    9.10    3.90
   3   8   1   11.10    3.50
   3   8   1   16.90    3.90
   3   8   1   10.90    3.60
  -4  -8  -1  595.54   26.20
  -4  -8  -1  596.94   26.00
  -4  -8  -1  602.94   26.00
  -4  -8  -1  593.04   25.70
  -4  -8  -1  600.04   26.20
   4   8   1  549.15   25.60
   4   8   1  592.64   25.90
   4   8   1  580.94   25.90
  -5  -8  -1  249.38   13.50
  -5  -8  -1  233.38   12.60
  -5  -8  -1  227.68   12.50
  -5  -8  -1  245.78   12.80
  -5  -8  -1  240.18   13.50
   5   8   1  224.48   12.50
   5   8   1  248.78   12.70
  -6  -8  -1  271.27   15.00
  -6  -8  -1  265.87   13.50
  -6  -8  -1  273.37   15.20
   6   8   1  253.37   13.40
   6   8   1  274.27   13.80
  -7  -8  -1  372.76   20.10
   7   8   1  395.56   18.50
   7   8   1  368.86   21.50
   2  -9  -1   12.20    5.70
   2  -9  -1   14.80    4.50
   2  -9  -1   21.90    4.10
   2  -9  -1   12.60    4.80
   2  -9  -1   10.80    4.80
   2  -9  -1   20.40    6.40
  -2   9   1   20.80    5.30
  -2   9   1   15.40    5.70
  -2   9   1   18.10    4.80
   1  -9  -1  638.34   27.10
   1  -9  -1  593.44   28.90
   1  -9  -1  599.04   27.50
   1  -9  -1  628.14   26.90
   1  -9  -1  632.84   28.70
  -1   9   1  628.74   28.40
  -1   9   1  608.04   27.30
  -1   9   1  608.94   27.80
  -1   9   1  612.14   28.70
   0  -9  -1  506.85   25.20
   0  -9  -1  511.95   23.90
   0  -9  -1  531.85   25.00
   0  -9  -1  544.75   23.60
   0  -9  -1  492.55   23.30
   0   9   1  557.44   24.30
   0   9   1  561.84   24.80
   0   9   1  547.15   25.00
   0   9   1  531.65   23.40
  -1  -9  -1  353.86   18.30
  -1  -9  -1  356.56   16.60
  -1  -9  -1  369.16   17.30
  -1  -9  -1  365.86   18.50
   1   9   1  358.96   16.50
   1   9   1  372.06   17.80
   1   9   1  383.86   18.20
   1   9   1  370.16   18.40
  -2  -9  -1   67.69    6.00
  -2  -9  -1   66.99    7.80
  -2  -9  -1   77.69    7.40
  -2  -9  -1   72.59    8.10
   2   9   1   64.39    7.50
   2   9   1   63.19    8.00
   2   9   1   66.69    5.50
   2   9   1   74.89    7.90
  -3  -9  -1  290.27   15.30
  -3  -9  -1  282.97   14.80
  -3  -9  -1  285.77   14.90
   3   9   1  280.77   14.90
   3   9   1  301.27   15.10
   3   9   1  287.57   15.30
  -4  -9  -1  117.09    9.70
  -4  -9  -1  128.79    9.70
  -4  -9  -1  129.49    9.90
   4   9   1  114.49    9.10
   4   9   1  129.09    9.60
   4   9   1  119.29    9.90
  -5  -9  -1  426.16   20.20
  -5  -9  -1  393.06   22.10
  -5  -9  -1  407.16   20.10
  -5  -9  -1  397.86   19.40
  -5  -9  -1  388.46   19.30
   5   9   1  395.66   19.60
   5   9   1  420.86   19.30
   5   9   1  400.06   21.00
   5   9   1  399.46   19.50
   5   9   1  411.36   19.20
  -6  -9  -1  356.66   17.70
  -6  -9  -1  328.37   18.60
  -6  -9  -1  319.17   17.00
  -6  -9  -1  379.16   18.70
  -6  -9  -1  351.76   17.40
   6   9   1  335.07   17.10
   6   9   1  369.56   17.50
  -7  -9  -1  254.77   15.00
  -7  -9  -1  253.47   16.50
   7   9   1  264.17   19.40
   7   9   1  257.57   15.20
   1 -10  -1  261.97   14.00
   1 -10  -1  235.68   16.70
   1 -10  -1  268.87   14.40
  -1  10   1  274.17   14.90
  -1  10   1  262.17   16.40
  -1  10   1  252.87   15.50
   0 -10  -1   14.00    4.00
   0 -10  -1    6.30    6.20
   0 -10  -1    2.80    4.30
   0 -10  -1   11.90    5.70
   0  10   1    4.20    4.70
   0  10   1   12.40    5.40
   0  10   1    8.60    4.50
   0  10   1   11.90    5.90
  -1 -10  -1   45.00    7.80
  -1 -10  -1   46.30    9.00
  -1 -10  -1   30.70    5.70
  -1 -10  -1   48.50    9.70
  -1 -10  -1   39.60    6.60
   1  10   1   39.20    6.40
   1  10   1   39.10    9.60
   1  10   1   43.20    9.40
   1  10   1   29.70    5.90
  -2 -10  -1  136.89    8.50
  -2 -10  -1  111.79   11.40
  -2 -10  -1  128.49   11.20
  -2 -10  -1  140.39   10.50
  -2 -10  -1  128.59   10.20
  -2 -10  -1  133.89   10.10
   2  10   1  148.49   10.80
   2  10   1  137.49   10.80
   2  10   1  130.59    8.00
   2  10   1  129.39   11.70
  -3 -10  -1  521.35   24.80
  -3 -10  -1  541.65   25.70
  -3 -10  -1  544.15   24.90
   3  10   1  545.35   25.30
   3  10   1  554.94   25.70
   3  10   1  524.95   24.70
  -4 -10  -1  431.26   21.20
  -4 -10  -1  409.16   20.80
  -4 -10  -1  442.76   21.30
  -4 -10  -1  443.56   21.50
  -4 -10  -1  439.66   21.60
   4  10   1  445.66   21.20
   4  10   1  454.95   21.00
   4  10   1  399.46   21.40
  -5 -10  -1  204.28   13.50
  -5 -10  -1  190.78   13.20
  -5 -10  -1  198.58   12.90
  -5 -10  -1  198.38   13.10
  -5 -10  -1  163.98   12.90
   5  10   1  181.18   13.10
   5  10   1  192.98   12.30
   5  10   1  178.78   12.70
  -6 -10  -1   68.89   11.20
  -6 -10  -1   52.09    8.60
  -6 -10  -1   74.59   11.30
   6  10   1   80.79   10.40
   6  10   1   60.79    9.30
  -1 -11  -1  305.67   16.40
  -1 -11  -1  300.87   16.60
  -1 -11  -1  285.97   15.10
  -1 -11  -1  283.87   18.30
   1  11   1  292.87   17.50
   1  11   1  293.07   15.70
   1  11   1  308.97   17.30
  -2 -11  -1  217.08   14.10
  -2 -11  -1  202.98   15.30
  -2 -11  -1  230.48   14.10
  -2 -11  -1  219.88   12.10
   2  11   1  236.28   14.90
   2  11   1  203.58   11.90
   2  11   1  216.18   14.70
   2  11   1  214.68   16.60
  -3 -11  -1   29.70    6.50
  -3 -11  -1   53.59   10.00
  -3 -11  -1   26.60    7.10
   3  11   1   60.49   10.40
   3  11   1   42.80    9.70
   3  11   1   60.19   12.10
  -4 -11  -1  152.88   12.60
  -4 -11  -1  170.68   12.80
  -4 -11  -1  148.59   13.30
   4  11   1  145.49   14.00
   4  11   1  160.68   12.70
   4  11   1  129.99   12.30
  -5 -11  -1  248.98   15.90
  -5 -11  -1  213.88   15.10
  -5 -11  -1  230.08   15.60
   5  11   1  233.98   15.50
   5  11   1  218.08   14.60
   5  10  -2  184.98   13.60
   5  10  -2  152.38   12.40
  -5 -10   2  161.38   13.80
  -5 -10   2  157.68   13.60
  -5 -10   2  160.68   12.60
   4  10  -2  185.58   12.90
   4  10  -2  142.59   14.20
   4  10  -2  198.58   15.20
   4  10  -2  175.18   13.20
  -4 -10   2  182.08   13.50
  -4 -10   2  177.98   13.60
  -4 -10   2  166.38   13.40
   3  10  -2   43.60   11.30
   3  10  -2   30.50    6.00
   3  10  -2   29.90    7.40
   3  10  -2   22.50    6.50
  -3 -10   2   42.00    9.90
  -3 -10   2   25.90    6.30
  -3 -10   2   32.60    6.50
   2  10  -2   47.50    9.70
   2  10  -2   62.49   12.10
   2  10  -2   53.59   10.20
  -2 -10   2   62.59    9.90
  -2 -10   2   49.40    9.80
  -2 -10   2   52.99   10.50
   1  10  -2  326.97   18.40
   1  10  -2  358.06   19.40
   1  10  -2  317.47   18.00
   1  10  -2  322.97   17.50
  -1 -10   2  339.47   19.00
  -1 -10   2  305.77   17.70
  -1 -10   2  309.07   15.30
   0  10  -2  335.37   19.90
   0  10  -2  346.97   19.20
   0 -10   2  351.46   16.90
   0 -10   2  363.16   19.10
   0 -10   2  366.66   20.20
   6   9  -2  129.49   10.00
   6   9  -2  116.89   11.90
  -6  -9   2  134.79   12.00
  -6  -9   2  121.49    9.60
  -6  -9   2  126.39   12.40
  -6  -9   2  114.69   11.80
   5   9  -2  140.49   11.90
   5   9  -2  129.39   10.10
   5   9  -2  147.99   11.90
  -5  -9   2  143.89   10.60
  -5  -9   2  137.09   11.60
  -5  -9   2  113.29   11.40
  -5  -9   2  133.09   12.00
   4   9  -2  180.18   12.10
   4   9  -2  196.18   13.00
   4   9  -2  175.28   12.30
   4   9  -2  181.68   14.00
  -4  -9   2  191.68   12.60
  -4  -9   2  157.78   11.60
  -4  -9   2  189.58   13.30
  -4  -9   2  198.28   12.50
  -4  -9   2  187.28   12.50
   3   9  -2  701.33   31.70
   3   9  -2  706.73   31.30
   3   9  -2  726.63   32.20
  -3  -9   2  745.43   32.10
  -3  -9   2  726.13   31.90
  -3  -9   2  720.33   31.80
  -3  -9   2  661.23   31.30
   2   9  -2   87.09    9.60
   2   9  -2   69.69    9.70
   2   9  -2   72.69    8.90
   2   9  -2   76.99    9.30
  -2  -9   2   76.09    8.80
  -2  -9   2  103.69   10.40
  -2  -9   2   72.99    8.90
  -2  -9   2   76.89    9.50
   1   9  -2   80.39    9.40
   1   9  -2   65.49    9.00
   1   9  -2   59.19   10.10
   1   9  -2   81.49    8.90
  -1  -9   2   71.49    9.00
  -1  -9   2   78.29   10.10
  -1  -9   2   80.79    6.50
  -1  -9   2   69.99    8.90
  -1  -9   2   90.09    9.90
   0   9  -2   40.40    9.90
   0   9  -2   21.50    5.30
   0   9  -2   43.30    9.20
   0  -9   2   31.10    6.10
   0  -9   2   35.60    8.00
   0  -9   2   15.70    6.00
   0  -9   2   14.80    5.50
   0  -9   2   21.90    4.90
  -1   9  -2  100.99   11.00
  -1   9  -2  105.19   10.30
   1  -9   2  125.89    9.00
   1  -9   2   81.59    9.30
   1  -9   2  106.49   10.50
   1  -9   2   96.99   11.40
   7   8  -2  197.98   14.00
  -7  -8   2  180.78   13.40
  -7  -8   2  165.78   14.40
   6   8  -2   94.29    9.50
   6   8  -2  116.59   10.80
   6   8  -2  118.79    8.60
  -6  -8   2  116.09    8.60
  -6  -8   2  107.19   10.70
  -6  -8   2  117.69   10.60
  -6  -8   2  127.89   11.20
   5   8  -2  570.44   26.90
   5   8  -2  569.44   25.50
   5   8  -2  550.34   24.90
   5   8  -2  601.44   25.50
  -5  -8   2  559.44   25.80
  -5  -8   2  541.85   25.60
  -5  -8   2  509.85   29.30
  -5  -8   2  553.44   25.40
  -5  -8   2  562.54   25.10
   4   8  -2  108.09    8.60
   4   8  -2  103.59    9.20
   4   8  -2  111.69    9.20
  -4  -8   2   98.79    9.10
  -4  -8   2   94.89    9.10
  -4  -8   2  101.79    8.80
   3   8  -2   78.59    8.30
   3   8  -2   58.49    7.30
   3   8  -2   70.19    8.10
   3   8  -2   61.19    8.70
  -3  -8   2   63.29    7.70
  -3  -8   2   65.19    7.60
  -3  -8   2   57.99    7.70
   2   8  -2   54.29    7.20
   2   8  -2   50.69    7.10
   2   8  -2   50.19    7.50
   2   8  -2   37.10    5.30
  -2  -8   2   42.50    6.70
  -2  -8   2   48.60    7.00
  -2  -8   2   52.09    7.40
   1   8  -2  171.38   11.10
   1   8  -2  181.98   10.70
   1   8  -2  170.68   10.50
  -1  -8   2  179.38   11.70
  -1  -8   2  175.28   10.60
  -1  -8   2  175.68    8.80
  -1  -8   2  141.29   10.80
  -1  -8   2  172.18   10.30
   0   8  -2  611.84   28.30
   0   8  -2  621.34   27.60
   0  -8   2  618.14   27.80
   0  -8   2  651.43   28.50
   0  -8   2  631.94   26.70
   0  -8   2  644.54   28.80
   0  -8   2  612.64   27.40
  -1   8  -2  546.05   24.80
  -1   8  -2  536.05   25.70
  -1   8  -2  506.05   25.80
   1  -8   2  579.34   25.80
   1  -8   2  544.85   26.10
   1  -8   2  536.45   24.40
   1  -8   2  589.34   24.20
  -2   8  -2  143.39   10.30
  -2   8  -2  143.89   11.60
   2  -8   2  151.48   12.90
   2  -8   2  113.99    9.60
   2  -8   2  137.09    9.40
   2  -8   2  146.09   11.70
   3  -8   2   84.29   10.50
   7   7  -2  567.04   25.10
   7   7  -2  528.35   24.50
  -7  -7   2  520.45   25.40
  -7  -7   2  535.85   25.90
   6   7  -2  231.18   12.70
  -6  -7   2  194.48   12.60
  -6  -7   2  194.68   12.10
  -6  -7   2  212.88   12.90
  -6  -7   2  198.38   10.90
   5   7  -2   87.09    7.70
   5   7  -2   90.89    8.40
  -5  -7   2   76.39    7.00
  -5  -7   2   76.29    7.90
  -5  -7   2   83.19    8.20
  -5  -7   2   69.89    7.70
   4   7  -2  580.24   26.20
   4   7  -2  580.54   25.50
   4   7  -2  587.54   25.30
  -4  -7   2  563.94   25.20
  -4  -7   2  563.84   25.60
  -4  -7   2  598.24   25.60
  -4  -7   2  557.64   25.10
  -4  -7   2  553.24   25.40
   3   7  -2  103.69    8.00
   3   7  -2  101.99    8.40
   3   7  -2  107.09    7.90
   3   7  -2   89.39    7.30
  -3  -7   2   96.69    7.80
  -3  -7   2   97.29    7.40
  -3  -7   2  103.59    7.80
  -3  -7   2   85.69    7.70
   2   7  -2 1706.63   70.09
   2   7  -2 1744.13   70.39
   2   7  -2 1564.14   70.09
   2   7  -2 1740.43   69.79
  -2  -7   2 1695.53   69.69
  -2  -7   2 1716.73   70.29
  -2  -7   2 1722.93   70.09
   1   7  -2  197.58   10.50
   1   7  -2  188.68   10.30
   1   7  -2  168.28   10.70
  -1  -7   2  192.78   10.50
  -1  -7   2  191.18   10.70
  -1  -7   2  190.68   10.10
  -1  -7   2  183.28    8.90
  -1  -7   2  199.78   11.10
   0   7  -2  138.59    8.70
   0   7  -2  120.39    9.10
   0  -7   2  136.79    9.60
   0  -7   2  135.59    8.20
   0  -7   2  129.29    9.00
   0  -7   2  140.19    8.70
   0  -7   2  131.79    7.30
  -1   7  -2  630.54   28.20
  -1   7  -2  588.94   28.00
  -1   7  -2  642.64   29.10
   1  -7   2  718.03   29.30
   1  -7   2  645.54   28.00
   1  -7   2  669.53   27.90
   1  -7   2  682.63   29.50
  -2   7  -2  338.37   16.80
  -2   7  -2  308.17   15.70
  -2   7  -2  312.97   16.90
  -2   7  -2  305.87   15.80
   2  -7   2  325.97   15.50
   2  -7   2  318.57   15.20
   2  -7   2  332.67   16.80
   2  -7   2  344.97   17.50
  -3   7  -2  198.18   13.00
  -3   7  -2  199.98   12.90
   3  -7   2  180.38   11.00
   3  -7   2  209.88   13.20
   3  -7   2  213.48   14.10
   3  -7   2  194.18   11.60
   4  -7   2  194.38   13.50
   8   6  -2  218.78   14.00
   8   6  -2  211.68   15.50
  -8  -6   2  201.18   13.70
   7   6  -2   28.80    8.40
   7   6  -2   56.09    9.30
   7   6  -2   37.90    8.50
   7   6  -2   42.60    8.50
  -7  -6   2   38.10    8.30
  -7  -6   2   53.29    9.10
   6   6  -2  309.47   18.40
   6   6  -2  325.57   16.10
   6   6  -2  336.57   15.80
   6   6  -2  321.37   16.50
  -6  -6   2  336.37   16.80
  -6  -6   2  325.67   16.30
   5   6  -2  151.88    8.40
   5   6  -2  148.59    9.40
   5   6  -2  138.39    8.60
   5   6  -2  148.29    8.10
  -5  -6   2  141.49    9.30
  -5  -6   2  144.79    8.30
  -5  -6   2  146.09    9.70
  -5  -6   2  153.18    9.10
   4   6  -2  286.17   14.70
   4   6  -2  305.97   13.80
   4   6  -2  284.87   13.80
   4   6  -2  277.67   13.30
  -4  -6   2  280.97   13.60
  -4  -6   2  278.77   13.80
  -4  -6   2  297.37   13.80
  -4  -6   2  268.17   13.30
  -4  -6   2  277.57   14.10
   3   6  -2   63.89    6.60
   3   6  -2   68.59    6.40
   3   6  -2   65.09    5.80
   3   6  -2   66.79    6.10
  -3  -6   2   62.09    5.70
  -3  -6   2   56.59    6.00
  -3  -6   2   61.59    6.00
  -3  -6   2   68.09    6.10
  -3  -6   2   63.69    5.70
   2   6  -2  220.28   11.00
   2   6  -2  210.08   11.00
   2   6  -2  209.98   11.10
   2   6  -2  221.18   11.20
  -2  -6   2  214.88   11.10
  -2  -6   2  227.88   11.40
  -2  -6   2  216.08   11.20
  -2  -6   2  226.38   10.70
   1   6  -2  888.11   37.50
   1   6  -2  884.71   37.50
   1   6  -2  877.71   37.90
  -1  -6   2  868.51   36.70
  -1  -6   2  918.61   37.40
  -1  -6   2  922.71   37.70
  -1  -6   2  933.51   38.20
  -1  -6   2  892.01   38.00
   0   6  -2 1238.58   52.59
   0   6  -2 1178.38   51.69
   0   6  -2 1279.47   51.99
   0  -6   2 1286.77   51.99
   0  -6   2 1329.07   52.89
   0  -6   2 1285.47   52.79
   0  -6   2 1246.38   51.59
  -1   6  -2   68.99    6.00
  -1   6  -2   63.19    6.70
  -1   6  -2   74.89    6.40
   1  -6   2   75.59    5.40
   1  -6   2   77.49    5.70
   1  -6   2   78.69    7.30
   1  -6   2   71.79    6.70
  -2   6  -2  126.29    8.30
  -2   6  -2  136.49    8.90
  -2   6  -2  137.49    9.10
   2  -6   2  125.89    8.00
   2  -6   2  135.29    9.00
   2  -6   2  149.79    9.60
   2  -6   2  137.39    7.80
  -3   6  -2    4.70    3.90
  -3   6  -2    4.90    4.40
  -3   6  -2   -1.30    4.10
   3  -6   2    6.70    4.20
   3  -6   2    3.60    3.20
   3  -6   2    9.80    3.80
   3  -6   2    4.80    3.00
  -4   6  -2    8.00    4.70
  -4   6  -2   21.30    6.40
   4  -6   2   12.50    5.20
   4  -6   2    8.80    4.50
   4  -6   2   10.70    4.20
   4  -6   2   11.20    3.70
   8   5  -2  167.88   11.70
   8   5  -2  149.39   14.00
  -8  -5   2  142.49   11.80
   7   5  -2    2.80    5.80
   7   5  -2    7.40    5.50
   7   5  -2   -0.70    7.60
   7   5  -2   13.70    5.10
   7   5  -2    1.10    4.40
  -7  -5   2    6.40    4.40
   6   5  -2   49.40    7.30
   6   5  -2   61.69    7.10
   6   5  -2   58.59    8.70
   6   5  -2   62.09    9.40
   6   5  -2   55.69    7.00
  -6  -5   2   58.89    7.30
  -6  -5   2   45.50    6.80
   5   5  -2  229.68   11.90
   5   5  -2  251.87   12.60
   5   5  -2  257.97   12.40
   5   5  -2  281.37   18.20
   5   5  -2  269.27   12.90
   5   5  -2  250.07   11.50
  -5  -5   2  255.57   13.10
  -5  -5   2  235.78   12.50
  -5  -5   2  270.87   12.20
   4   5  -2   37.60    4.20
   4   5  -2   44.50    5.30
   4   5  -2   38.00    6.00
   4   5  -2   39.40    4.70
   4   5  -2   45.30    4.50
  -4  -5   2   36.90    4.80
  -4  -5   2   37.60    5.30
  -4  -5   2   38.50    5.10
  -4  -5   2   32.90    4.70
  -4  -5   2   39.20    4.30
   3   5  -2 1838.02   74.59
   3   5  -2 1779.42   73.99
   3   5  -2 1833.62   74.19
   3   5  -2 1796.22   73.99
  -3  -5   2 1803.92   73.99
  -3  -5   2 1814.42   74.29
  -3  -5   2 1846.92   74.19
  -3  -5   2 1800.62   74.09
  -3  -5   2 1817.42   74.09
   2   5  -2  789.72   32.20
   2   5  -2  776.52   32.50
   2   5  -2  767.62   32.40
   2   5  -2  740.93   32.30
  -2  -5   2  767.12   32.40
  -2  -5   2  784.42   32.50
  -2  -5   2  775.62   32.50
  -2  -5   2  763.72   32.10
   1   5  -2  489.25   20.60
   1   5  -2  463.75   20.60
   1   5  -2  461.95   20.90
  -1  -5   2  482.95   21.10
  -1  -5   2  482.85   20.50
  -1  -5   2  485.05   20.70
  -1  -5   2  492.45   21.00
   0   5  -2   26.50    3.60
   0   5  -2   36.50    4.50
   0   5  -2   20.20    3.50
   0   5  -2   29.80    4.10
   0  -5   2   34.50    4.70
   0  -5   2   28.50    4.30
   0  -5   2   30.80    3.20
   0  -5   2   34.00    3.90
  -1   5  -2    8.20    2.70
  -1   5  -2   11.50    2.80
  -1   5  -2   12.30    3.00
   1  -5   2   10.50    3.00
   1  -5   2   13.80    2.50
   1  -5   2   11.40    2.80
   1  -5   2   14.30    3.40
  -2   5  -2  700.83   31.40
  -2   5  -2  704.53   32.00
  -2   5  -2  783.12   32.40
   2  -5   2  817.82   32.70
   2  -5   2  752.32   31.60
   2  -5   2  744.53   31.30
   2  -5   2  758.12   32.30
  -3   5  -2  403.36   20.10
  -3   5  -2  436.46   20.00
  -3   5  -2  427.46   20.20
   3  -5   2  435.66   19.60
   3  -5   2  423.26   19.90
   3  -5   2  431.46   19.30
   3  -5   2  460.45   20.40
  -4   5  -2  455.45   21.70
  -4   5  -2  466.65   21.40
  -4   5  -2  449.66   21.80
  -4   5  -2  443.66   21.70
   4  -5   2  443.66   19.70
   4  -5   2  395.86   21.40
   4  -5   2  482.25   21.30
   4  -5   2  473.65   20.70
  -5   5  -2   46.60    8.00
  -5   5  -2   42.80    8.20
   5  -5   2   32.30    6.00
   5  -5   2   36.60    5.60
   5  -5   2   34.10    7.60
   5  -5   2   28.20    5.80
   8   4  -2   24.60    5.70
   8   4  -2   29.80    6.60
   8   4  -2   15.50    7.70
   8   4  -2   44.90   10.60
  -8  -4   2   23.90    5.80
   7   4  -2  253.87   17.40
   7   4  -2  280.57   14.70
   7   4  -2  261.47   16.00
   7   4  -2  278.37   14.00
   7   4  -2  269.27   15.10
  -7  -4   2  270.97   14.40
   6   4  -2   65.19    7.10
   6   4  -2   67.49    8.90
   6   4  -2   56.69    8.30
   6   4  -2   66.59    6.80
   6   4  -2   69.99    7.40
  -6  -4   2   66.89    6.90
  -6  -4   2   82.49    7.40
   5   4  -2 1830.62   76.09
   5   4  -2 1930.31   77.59
   5   4  -2 1865.41   76.29
   5   4  -2 1917.81   76.29
   5   4  -2 1888.71   76.99
  -5  -4   2 1783.62   76.19
  -5  -4   2 1824.02   76.49
   4   4  -2   35.10    3.40
   4   4  -2   26.40    3.90
   4   4  -2   28.90    4.50
   4   4  -2   22.40    5.00
   4   4  -2   30.10    4.50
  -4  -4   2   41.50    4.30
  -4  -4   2   38.90    4.00
  -4  -4   2   33.80    4.60
  -4  -4   2   33.10    3.60
   3   4  -2   26.70    3.40
   3   4  -2   29.30    4.10
   3   4  -2   34.10    3.70
   3   4  -2   30.90    4.40
  -3  -4   2   28.30    3.70
  -3  -4   2   19.20    3.80
  -3  -4   2   25.50    3.80
  -3  -4   2   26.90    3.40
  -3  -4   2   27.40    3.80
   2   4  -2  898.91   37.90
   2   4  -2  940.01   38.00
   2   4  -2  915.21   38.10
   2   4  -2  914.71   37.70
  -2  -4   2  914.91   37.90
  -2  -4   2  929.71   37.70
  -2  -4   2  900.11   37.70
  -2  -4   2  889.71   37.90
  -2  -4   2  940.71   38.00
   1   4  -2  551.14   21.90
   1   4  -2  498.75   22.10
   1   4  -2  508.25   21.90
   1   4  -2  506.65   22.10
  -1  -4   2  521.45   21.70
  -1  -4   2  506.75   22.10
  -1  -4   2  528.95   22.20
   0   4  -2   54.39    3.90
   0   4  -2   58.29    4.40
   0   4  -2   63.09    4.00
   0   4  -2   60.29    4.80
   0  -4   2   65.49    4.70
   0  -4   2   62.69    4.90
   0  -4   2   60.59    4.10
   0  -4   2   59.99    3.60
  -1   4  -2  526.05   23.00
  -1   4  -2  508.45   23.20
  -1   4  -2  519.35   23.60
   1  -4   2  583.44   23.70
   1  -4   2  608.04   23.90
   1  -4   2  548.45   22.90
   1  -4   2  549.25   23.00
  -2   4  -2  415.76   19.40
  -2   4  -2  426.86   19.50
  -2   4  -2  418.46   18.70
  -2   4  -2  449.66   19.60
   2  -4   2  434.46   19.00
   2  -4   2  442.06   19.70
   2  -4   2  449.46   19.20
   2  -4   2  444.16   18.60
   2  -4   2  463.65   19.50
  -3   4  -2 1155.68   46.90
  -3   4  -2 1100.99   47.00
  -3   4  -2 1086.69   47.10
  -3   4  -2 1115.39   47.00
   3  -4   2 1108.89   46.70
   3  -4   2 1147.59   47.10
   3  -4   2 1116.09   45.90
   3  -4   2 1133.49   46.90
   3  -4   2 1114.69   46.50
  -4   4  -2  768.62   32.90
  -4   4  -2  762.72   33.60
  -4   4  -2  786.32   33.50
   4  -4   2  735.53   32.90
   4  -4   2  757.02   32.80
   4  -4   2  751.42   31.60
   4  -4   2  773.42   33.20
   4  -4   2  755.02   32.60
  -5   4  -2  271.57   13.90
  -5   4  -2  263.77   15.50
  -5   4  -2  245.18   14.40
  -5   4  -2  244.28   15.10
   5  -4   2  238.08   14.30
   5  -4   2  239.98   11.90
   5  -4   2  267.97   13.70
   5  -4   2  267.07   14.20
   5  -4   2  259.37   13.50
  -6   4  -2  626.54   27.50
  -6   4  -2  597.54   29.70
   6  -4   2  618.44   27.40
   6  -4   2  563.34   27.30
   8   3  -2   21.60    7.30
   8   3  -2   29.00    7.00
   8   3  -2   28.90    5.30
   8   3  -2   24.60    6.60
  -8  -3   2   37.50    8.40
   7   3  -2  198.18   13.50
   7   3  -2  224.98   10.90
   7   3  -2  232.88   12.60
   7   3  -2  207.38   14.80
   7   3  -2  215.58   11.80
   7   3  -2  205.88   13.40
  -7  -3   2  194.98   11.90
   6   3  -2    1.80    2.40
   6   3  -2   -2.70    3.30
   6   3  -2   -7.40    4.80
   6   3  -2    1.90    4.10
   6   3  -2   -8.30    3.20
   6   3  -2    1.30    4.10
  -6  -3   2   -0.20    3.20
   5   3  -2    7.70    2.80
   5   3  -2    5.00    3.40
   5   3  -2    7.10    3.60
   5   3  -2    6.40    2.80
   5   3  -2    8.30    4.30
  -5  -3   2   10.50    2.90
  -5  -3   2    7.00    3.00
   4   3  -2  343.37   15.90
   4   3  -2  358.96   16.40
   4   3  -2  330.27   15.20
   4   3  -2  349.87   15.30
  -4  -3   2  340.77   15.40
   3   3  -2 1179.38   48.90
   3   3  -2 1176.68   49.00
   3   3  -2 1158.18   48.70
   3   3  -2 1245.58   49.10
   3   3  -2 1179.28   49.40
  -3  -3   2 1246.08   49.00
  -3  -3   2 1219.58   49.00
  -3  -3   2 1193.28   49.50
  -3  -3   2 1179.48   49.20
   2   3  -2  956.00   40.20
   2   3  -2  969.20   40.60
   2   3  -2  969.60   40.40
   2   3  -2  995.70   40.30
  -2  -3   2  979.10   40.60
  -2  -3   2 1015.60   40.40
  -2  -3   2 1049.79   40.20
  -2  -3   2  966.30   40.40
  -2  -3   2  958.60   40.30
  -2  -3   2  965.90   40.20
   1   3  -2   74.39    4.40
   1   3  -2   76.39    4.50
   1   3  -2   73.69    4.40
   1   3  -2   74.59    4.60
  -1  -3   2   76.49    4.30
  -1  -3   2   75.59    4.50
  -1  -3   2   78.59    4.60
   0   3  -2 1813.92   75.99
   0   3  -2 1885.01   75.99
   0   3  -2 1821.32   75.59
   0   3  -2 1845.22   75.59
   0  -3   2 1954.00   76.09
   0  -3   2 1854.91   75.59
   0  -3   2 1839.12   75.49
   0  -3   2 1930.91   76.09
  -1   3  -2 1341.97   56.19
  -1   3  -2 1303.67   56.49
  -1   3  -2 1315.27   55.89
  -1   3  -2 1382.96   56.49
   1  -3   2 1547.05   56.69
   1  -3   2 1415.96   56.49
   1  -3   2 1365.16   55.89
   1  -3   2 1347.87   55.99
  -2   3  -2  449.06   19.50
  -2   3  -2  457.55   19.60
  -2   3  -2  424.86   18.80
  -2   3  -2  438.46   19.60
   2  -3   2  461.95   19.70
   2  -3   2  450.65   18.70
   2  -3   2  448.46   19.40
   2  -3   2  459.65   19.50
   2  -3   2  442.46   19.20
  -3   3  -2 1132.59   47.90
  -3   3  -2 1173.68   47.80
  -3   3  -2 1179.98   47.80
  -3   3  -2 1099.79   47.50
   3  -3   2 1136.59   47.60
   3  -3   2 1130.49   47.40
   3  -3   2 1133.39   46.70
   3  -3   2 1133.99   47.60
   3  -3   2 1202.98   47.80
  -4   3  -2  210.38   11.20
  -4   3  -2  211.68   11.10
  -4   3  -2  223.58   12.10
  -4   3  -2  210.28   11.70
   4  -3   2  216.28   10.90
   4  -3   2  214.18   11.30
   4  -3   2  205.18    9.70
   4  -3   2  202.18   11.20
   4  -3   2  221.88   11.00
  -5   3  -2  197.88   10.90
  -5   3  -2  194.08   12.30
  -5   3  -2  189.58   12.40
   5  -3   2  186.18   10.70
   5  -3   2  204.18   11.30
   5  -3   2  192.28   10.70
   5  -3   2  180.28    9.10
  -6   3  -2   52.99    8.30
  -6   3  -2   36.10    9.80
  -6   3  -2   41.30    6.90
   6  -3   2   43.80    7.00
   6  -3   2   38.80    7.10
   6  -3   2   36.30    7.70
   8   2  -2   83.79    8.80
   8   2  -2  101.09   11.70
   8   2  -2   97.69   11.40
   8   2  -2   86.39    8.90
  -8  -2   2   82.19    9.40
   7   2  -2   17.60    6.20
   7   2  -2    1.40    5.10
   7   2  -2   12.20    3.70
   7   2  -2   11.30    4.50
   7   2  -2   10.10    4.10
   7   2  -2    9.70    6.50
  -7  -2   2   18.00    4.30
   6   2  -2 2348.17   95.39
   6   2  -2 2248.18   95.99
   6   2  -2 2424.06   94.39
   6   2  -2 2357.66   94.79
   6   2  -2 2281.07   94.49
   6   2  -2 2317.67   95.49
  -6  -2   2 2283.27   94.69
   5   2  -2   11.10    3.00
   5   2  -2   12.40    3.60
   5   2  -2   16.90    4.60
   5   2  -2   13.10    3.70
   5   2  -2   12.30    2.20
   5   2  -2   12.90    2.90
  -5  -2   2    6.70    2.90
  -5  -2   2   11.90    3.70
  -5  -2   2   18.50    4.00
   4   2  -2  518.05   21.70
   4   2  -2  496.85   21.10
   4   2  -2  527.25   22.80
   4   2  -2  514.05   22.10
   4   2  -2  508.25   21.60
   4   2  -2  508.45   22.30
  -4  -2   2  499.15   21.80
  -4  -2   2  515.35   22.40
  -4  -2   2  506.85   21.60
   3   2  -2  201.28    9.50
   3   2  -2  197.98    9.00
   3   2  -2  211.48    9.30
   3   2  -2  206.18    9.90
   3   2  -2  211.28    9.50
  -3  -2   2  206.58    9.30
  -3  -2   2  206.48    9.50
  -3  -2   2  224.08    9.40
  -3  -2   2  204.48   10.00
   2   2  -2 2383.86   93.99
   2   2  -2 2291.57   94.09
   2   2  -2 2272.07   93.79
   2   2  -2 2262.17   93.79
  -2  -2   2 2383.06   93.89
  -2  -2   2 2317.47   93.89
  -2  -2   2 2228.28   93.79
  -2  -2   2 2446.66   93.79
  -2  -2   2 2314.07   94.19
   1   2  -2 2250.67   94.69
   1   2  -2 2381.96   94.69
   1   2  -2 2340.47   94.59
   1   2  -2 2346.67   94.79
  -1  -2   2 2390.86   94.79
  -1  -2   2 2375.86   94.79
  -1  -2   2 2313.97   94.49
   0   2  -2 1133.89   46.80
   0   2  -2 1141.79   46.80
   0   2  -2 1143.09   47.20
   0   2  -2 1123.49   47.20
   0  -2   2 1138.99   46.80
   0  -2   2 1225.18   47.30
   0  -2   2 1109.29   46.80
   0  -2   2 1221.78   47.30
  -1   2  -2 3377.36  141.29
  -1   2  -2 3403.06  141.89
  -1   2  -2 3333.87  141.79
  -1   2  -2 3421.16  141.69
   1  -2   2 3849.31  141.99
   1  -2   2 3563.24  141.59
   1  -2   2 3634.44  141.89
  -2   2  -2  230.48   10.70
  -2   2  -2  235.88   10.80
  -2   2  -2  222.58   10.70
  -2   2  -2  216.58    9.90
   2  -2   2  236.78   10.60
   2  -2   2  228.88   10.60
   2  -2   2  233.48    9.90
   2  -2   2  232.58   10.40
   2  -2   2  244.18   10.80
  -3   2  -2    5.90    2.50
  -3   2  -2    6.10    3.00
  -3   2  -2    2.90    2.00
  -3   2  -2    0.60    2.10
   3  -2   2    4.50    2.10
   3  -2   2    5.20    2.40
   3  -2   2    5.80    2.10
   3  -2   2    4.70    2.10
   3  -2   2    7.10    1.50
  -4   2  -2  208.78   10.30
  -4   2  -2  201.28   11.20
  -4   2  -2  202.18   10.80
  -4   2  -2  189.88   10.00
   4  -2   2  201.98   10.00
   4  -2   2  199.78   10.60
   4  -2   2  192.28   10.10
   4  -2   2  208.88   10.30
  -5   2  -2   77.59    8.10
  -5   2  -2   72.59    6.30
  -5   2  -2   68.99    8.30
  -5   2  -2   75.59    6.70
   5  -2   2   80.49    6.60
   5  -2   2   76.29    6.70
   5  -2   2   71.89    8.20
   5  -2   2   78.59    6.10
  -6   2  -2  404.46   20.70
  -6   2  -2  413.16   18.70
  -6   2  -2  429.26   21.00
   6  -2   2  404.06   18.40
   6  -2   2  409.96   19.10
   6  -2   2  374.46   19.80
   6  -2   2  400.86   18.90
  -7   2  -2  415.86   22.10
  -7   2  -2  366.06   19.50
   7  -2   2  388.96   18.30
   7  -2   2  404.26   19.50
   8   1  -2  405.16   22.20
   8   1  -2  415.56   20.30
   8   1  -2  451.05   20.70
   8   1  -2  460.15   21.80
   7   1  -2    5.00    3.80
   7   1  -2    4.40    5.80
   7   1  -2    0.50    4.10
   7   1  -2   -4.40    3.80
   7   1  -2    7.10    6.60
   7   1  -2    5.60    4.80
  -7  -1   2    4.60    4.10
   6   1  -2   16.00    3.30
   6   1  -2   25.10    5.60
   6   1  -2   15.30    5.10
   6   1  -2   20.20    5.20
   6   1  -2   18.00    3.60
   6   1  -2   20.60    4.50
  -6  -1   2   17.90    3.60
  -6  -1   2   15.70    4.50
   5   1  -2    6.60    2.60
   5   1  -2    9.30    3.60
   5   1  -2   11.20    3.30
   5   1  -2    9.20    4.40
   5   1  -2    7.30    2.30
  -5  -1   2    3.60    3.10
  -5  -1   2   10.80    2.70
   4   1  -2   90.09    4.90
   4   1  -2   97.79    6.20
   4   1  -2   89.99    6.70
   4   1  -2   81.89    5.20
   4   1  -2   87.29    6.00
  -4  -1   2   86.09    5.20
  -4  -1   2   85.49    5.30
  -4  -1   2   84.59    6.10
   3   1  -2 2226.18   88.69
   3   1  -2 2189.08   89.39
   3   1  -2 2241.18   89.09
   3   1  -2 2163.98   88.39
  -3  -1   2 2173.78   88.69
  -3  -1   2 2200.48   88.49
  -3  -1   2 2208.18   88.59
  -3  -1   2 2164.68   89.19
  -3  -1   2 2159.98   88.49
   2   1  -2 1978.50   80.49
   2   1  -2 2011.30   80.49
   2   1  -2 2068.99   80.69
   2   1  -2 2001.90   80.19
   2   1  -2 2015.80   80.79
  -2  -1   2 1929.01   80.49
  -2  -1   2 1876.91   80.29
  -2  -1   2 1972.00   80.49
  -2  -1   2 2153.28   80.69
  -2  -1   2 1912.61   80.79
   1   1  -2 1223.98   49.30
   1   1  -2 1237.78   49.40
   1   1  -2 1192.68   49.30
   1   1  -2 1204.58   49.10
  -1  -1   2 1208.98   49.30
  -1  -1   2 1182.58   49.30
  -1  -1   2 1232.58   49.30
   0   1  -2   44.40    2.90
   0   1  -2   43.90    2.90
   0   1  -2   44.00    2.50
   0   1  -2   42.20    2.50
   0  -1   2   46.90    2.80
   0  -1   2   39.80    2.50
   0  -1   2   44.00    2.40
   0  -1   2   48.80    2.90
  -1   1  -2  240.98   10.80
  -1   1  -2  251.67   10.90
  -1   1  -2  241.08   10.90
  -1   1  -2  245.48   10.30
   1  -1   2  242.48   10.30
   1  -1   2  270.47   11.00
   1  -1   2  249.97   10.80
  -2   1  -2  319.97   14.00
  -2   1  -2  303.07   13.80
  -2   1  -2  322.57   13.80
   2  -1   2  319.87   13.80
   2  -1   2  325.17   13.90
   2  -1   2  317.17   13.80
  -3   1  -2 1378.16   55.99
  -3   1  -2 1319.47   55.49
  -3   1  -2 1347.07   55.69
  -3   1  -2 1329.17   55.69
   3  -1   2 1420.26   55.69
   3  -1   2 1368.96   55.59
   3  -1   2 1349.47   55.49
   3  -1   2 1354.76   55.79
  -4   1  -2 1113.29   44.80
  -4   1  -2 1071.29   45.20
  -4   1  -2 1101.79   45.40
  -4   1  -2 1065.49   44.50
   4  -1   2 1089.99   44.50
   4  -1   2 1062.29   44.70
   4  -1   2 1083.69   44.70
   4  -1   2 1052.59   45.00
  -5   1  -2   81.09    7.90
  -5   1  -2   80.99    7.20
  -5   1  -2   87.09    6.30
  -5   1  -2   81.19    5.80
   5  -1   2   84.69    5.70
   5  -1   2   77.99    6.10
   5  -1   2   62.19    6.20
  -6   1  -2   19.50    5.40
  -6   1  -2   12.10    5.10
  -6   1  -2   13.30    3.10
  -6   1  -2   17.50    3.80
   6  -1   2   13.30    3.30
   6  -1   2   10.60    2.90
   6  -1   2   12.10    3.80
  -7   1  -2   12.00    6.50
   7  -1   2    1.50    4.20
   7  -1   2   -4.10    4.90
   8   0  -2    7.30    6.10
   8   0  -2   -1.40    4.90
   8   0  -2    1.10    5.30
   7   0  -2  304.57   18.40
   7   0  -2  285.77   18.20
   7   0  -2  352.46   16.20
   7   0  -2  356.46   16.20
   6   0  -2   10.60    4.80
   6   0  -2    7.30    4.00
   6   0  -2    8.50    3.30
   6   0  -2    9.90    5.20
   6   0  -2   10.90    3.30
  -6   0   2    5.00    5.20
  -6   0   2   12.60    4.00
   5   0  -2 1672.03   66.79
   5   0  -2 1640.24   67.29
   5   0  -2 1651.03   66.29
   5   0  -2 1627.64   67.39
   5   0  -2 1579.24   66.19
  -5   0   2 1630.64   66.99
  -5   0   2 1605.64   67.69
  -5   0   2 1583.34   66.29
   4   0  -2  584.04   24.50
   4   0  -2  580.04   25.60
   4   0  -2  598.74   25.00
   4   0  -2  572.84   24.50
   4   0  -2  596.94   25.50
  -4   0   2  577.64   25.60
  -4   0   2  588.04   24.60
  -4   0   2  590.34   24.50
  -4   0   2  591.14   25.20
   3   0  -2  954.60   39.00
   3   0  -2  996.90   39.10
   3   0  -2  957.70   39.80
   3   0  -2  948.91   39.00
   3   0  -2  920.91   38.90
   3   0  -2  992.70   39.50
  -3   0   2  956.90   39.50
  -3   0   2  937.31   39.00
  -3   0   2  967.70   38.90
  -3   0   2  943.31   39.90
  -3   0   2  946.11   38.90
  -3   0   2  944.61   39.00
   2   0  -2 2448.35   94.89
   2   0  -2 2365.66   94.39
   2   0  -2 2361.16   94.69
   2   0  -2 2316.97   95.09
   2   0  -2 2360.36   94.49
   2   0  -2 2422.16   94.69
  -2   0   2 2274.37   94.49
  -2   0   2 2301.07   94.49
  -2   0   2 2359.16   94.69
  -2   0   2 2341.37   94.39
  -2   0   2 2410.36   94.69
  -2   0   2 2216.88   95.09
  -2   0   2 2290.87   94.89
   1   0  -2  745.03   30.40
   1   0  -2  813.02   30.90
   1   0  -2  728.23   30.70
   1   0  -2  714.23   30.80
   1   0  -2  737.13   30.70
  -1   0   2  733.23   30.30
  -1   0   2  697.53   30.60
  -1   0   2  741.53   30.80
  -1   0   2  832.82   30.90
   0   0  -2  344.57   14.60
   0   0  -2  320.37   14.50
   0   0   2  367.66   14.60
   0   0   2  343.97   14.50
  -1   0  -2  649.04   26.20
  -1   0  -2  612.54   26.20
   1   0   2  617.64   26.20
   1   0   2  660.63   26.30
  -2   0  -2 4510.55  183.18
  -2   0  -2 4497.95  183.38
  -2   0  -2 4695.93  183.38
  -2   0  -2 4542.55  183.28
  -2   0  -2 4493.25  183.18
   2   0   2 4467.45  183.18
   2   0   2 4642.74  183.38
  -3   0  -2    8.20    1.90
  -3   0  -2   10.70    2.60
  -3   0  -2    9.90    2.60
  -3   0  -2   11.00    2.70
  -3   0  -2   10.00    2.60
   3   0   2    9.10    1.60
   3   0   2   10.40    1.80
   3   0   2    9.80    2.30
  -4   0  -2  117.79    7.00
  -4   0  -2  120.89    6.50
  -4   0  -2  121.19    6.40
  -4   0  -2  117.49    7.60
   4   0   2  121.69    6.50
   4   0   2  117.19    6.10
   4   0   2  120.09    6.80
  -5   0  -2  454.95   21.00
  -5   0  -2  478.45   21.40
  -5   0  -2  455.05   19.80
  -5   0  -2  481.15   20.20
   5   0   2  466.65   19.70
   5   0   2  460.35   20.40
   5   0   2  466.65   20.00
   5   0   2  443.86   20.90
  -6   0  -2 1007.60   42.00
  -6   0  -2  992.80   43.20
  -6   0  -2 1009.80   43.60
   6   0   2 1013.50   42.40
  -7   0  -2  124.89   10.80
   7   0   2  100.19   10.10
   7   0   2  120.19    9.70
   7  -1  -2  338.17   16.90
   7  -1  -2  342.97   16.50
  -7   1   2  341.47   19.40
   6  -1  -2    2.50    5.40
   6  -1  -2    2.30    3.40
   6  -1  -2    0.70    2.90
  -6   1   2   -5.40    3.60
  -6   1   2   -1.10    4.50
   5  -1  -2  157.88   10.30
   5  -1  -2  168.48    8.50
   5  -1  -2  165.88   10.30
   5  -1  -2  175.48    9.00
  -5   1   2  179.98    9.60
  -5   1   2  166.58    8.30
  -5   1   2  174.38   10.60
   4  -1  -2 1337.97   54.99
   4  -1  -2 1355.16   55.29
   4  -1  -2 1386.76   56.09
   4  -1  -2 1367.06   56.09
   4  -1  -2 1317.77   54.99
   4  -1  -2 1408.36   55.29
  -4   1   2 1359.86   55.39
  -4   1   2 1337.07   55.69
  -4   1   2 1280.07   56.19
  -4   1   2 1376.06   55.29
  -4   1   2 1341.67   54.99
   3  -1  -2  728.23   30.00
   3  -1  -2  730.43   30.00
   3  -1  -2  708.93   29.30
   3  -1  -2  690.33   29.00
   3  -1  -2  717.73   29.40
   3  -1  -2  686.03   29.20
  -3   1   2  716.63   29.30
  -3   1   2  714.03   30.10
  -3   1   2  708.13   29.20
  -3   1   2  687.33   29.60
  -3   1   2  712.53   29.40
   2  -1  -2 3876.51  152.68
   2  -1  -2 3729.93  152.38
   2  -1  -2 3722.33  152.48
   2  -1  -2 3782.52  152.88
  -2   1   2 3891.51  152.68
  -2   1   2 3802.02  152.68
  -2   1   2 3698.73  152.98
  -2   1   2 3726.73  152.38
  -2   1   2 3839.02  152.48
   1  -1  -2 1699.63   64.89
   1  -1  -2 1563.44   64.49
   1  -1  -2 1553.44   64.89
   1  -1  -2 1551.54   64.79
  -1   1   2 1571.14   64.49
  -1   1   2 1516.95   64.79
  -1   1   2 1685.93   64.89
  -1   1   2 1650.33   64.79
   0  -1  -2   13.20    1.40
   0  -1  -2   15.20    1.80
   0  -1  -2   11.80    1.80
   0  -1  -2   12.00    1.00
   0  -1  -2   10.90    1.20
   0   1   2   11.30    1.20
   0   1   2   10.80    1.40
   0   1   2   14.90    1.80
   0   1   2   12.60    1.70
  -1  -1  -2  604.74   25.20
  -1  -1  -2  601.54   25.50
  -1  -1  -2  627.04   25.60
  -1  -1  -2  572.54   25.00
   1   1   2  651.03   25.60
   1   1   2  648.44   25.60
  -2  -1  -2  906.71   39.40
  -2  -1  -2  970.10   39.40
  -2  -1  -2  925.71   39.40
  -2  -1  -2  922.91   39.10
  -2  -1  -2  994.10   39.50
   2   1   2 1016.60   39.40
   2   1   2 1008.10   39.50
   2   1   2  970.40   39.40
  -3  -1  -2  636.14   25.20
  -3  -1  -2  580.24   25.20
  -3  -1  -2  607.04   25.00
  -3  -1  -2  595.04   25.50
  -3  -1  -2  576.14   25.10
   3   1   2  651.73   25.20
   3   1   2  594.84   24.90
   3   1   2  581.54   25.30
   3   1   2  608.64   25.00
  -4  -1  -2 2019.20   83.69
  -4  -1  -2 2158.18   83.49
  -4  -1  -2 2008.00   83.79
  -4  -1  -2 2096.49   84.09
   4   1   2 2035.00   83.89
   4   1   2 2028.30   83.49
   4   1   2 2028.20   83.09
   4   1   2 2062.89   83.39
   4   1   2 2066.29   83.49
  -5  -1  -2  188.48   10.50
  -5  -1  -2  173.28    9.80
  -5  -1  -2  189.18    9.90
   5   1   2  178.08    9.30
   5   1   2  181.58    9.10
   5   1   2  184.48    9.40
   5   1   2  177.88   10.00
  -6  -1  -2  113.99    8.70
  -6  -1  -2  128.19    9.00
  -6  -1  -2  130.99    9.90
   6   1   2  114.19    8.50
   6   1   2  126.19    8.20
   6   1   2  125.89    7.60
   6   1   2  124.39    9.00
  -7  -1  -2  139.39   11.00
  -7  -1  -2  156.18   11.70
   7   1   2  124.79   10.40
   7   1   2  123.29    9.60
   7   1   2  136.59   10.90
   7   1   2  139.89    9.10
  -8  -1  -2  100.49   12.20
   8   1   2   63.19   12.50
   8   1   2   98.09   10.20
   7  -2  -2   -1.50    5.50
   7  -2  -2    9.80    4.30
   7  -2  -2    7.80    4.70
  -7   2   2    6.80    6.90
   6  -2  -2  938.21   40.40
   6  -2  -2  950.40   39.70
  -6   2   2  954.00   40.60
  -6   2   2  957.80   40.20
  -6   2   2  948.31   42.10
  -6   2   2  986.80   40.00
   5  -2  -2  852.41   35.30
   5  -2  -2  841.02   36.50
   5  -2  -2  836.82   35.10
   5  -2  -2  820.52   35.60
   5  -2  -2  886.91   35.60
  -5   2   2  847.12   35.60
  -5   2   2  877.21   36.00
  -5   2   2  843.92   35.30
  -5   2   2  823.72   37.00
  -5   2   2  842.52   35.80
   4  -2  -2  466.75   19.30
   4  -2  -2  443.26   20.10
   4  -2  -2  441.96   19.00
   4  -2  -2  433.36   18.60
   4  -2  -2  450.65   20.10
   4  -2  -2  433.46   19.20
  -4   2   2  442.26   19.30
  -4   2   2  432.46   19.00
  -4   2   2  444.26   20.30
  -4   2   2  459.65   19.30
  -4   2   2  429.76   19.40
   3  -2  -2  582.44   24.60
   3  -2  -2  606.44   24.80
   3  -2  -2  597.84   24.60
   3  -2  -2  591.24   25.30
  -3   2   2  598.54   24.70
  -3   2   2  584.14   24.70
  -3   2   2  579.94   24.50
  -3   2   2  562.84   25.30
  -3   2   2  580.64   24.80
   2  -2  -2  447.26   19.40
   2  -2  -2  460.55   19.30
   2  -2  -2  476.55   19.60
   2  -2  -2  456.45   19.70
  -2   2   2  463.05   19.50
  -2   2   2  458.25   19.40
  -2   2   2  453.65   19.80
  -2   2   2  474.15   19.50
  -2   2   2  462.15   19.30
   1  -2  -2  600.54   25.50
   1  -2  -2  596.44   25.40
   1  -2  -2  602.34   25.20
   1  -2  -2  627.54   25.50
  -1   2   2  625.44   25.50
  -1   2   2  613.14   25.20
  -1   2   2  595.14   25.40
  -1   2   2  653.23   25.40
   0  -2  -2   76.99    3.60
   0  -2  -2   72.79    3.40
   0  -2  -2   69.19    3.90
   0  -2  -2   81.19    3.90
   0  -2  -2   68.69    3.80
   0   2   2   67.09    3.30
   0   2   2   75.39    3.60
   0   2   2   65.89    3.50
   0   2   2   78.39    3.90
   0   2   2   75.49    3.90
  -2  -2  -2  661.13   27.70
  -2  -2  -2  711.43   27.80
  -2  -2  -2  636.44   27.30
  -2  -2  -2  640.64   27.80
  -2  -2  -2  711.03   27.80
   2   2   2  629.24   27.30
   2   2   2  701.53   27.70
   2   2   2  696.93   27.90
  -3  -2  -2   27.00    3.30
  -3  -2  -2   28.90    2.70
  -3  -2  -2   33.10    3.30
   3   2   2   28.00    2.60
   3   2   2   27.20    3.10
   3   2   2   32.70    2.60
   3   2   2   31.50    2.60
  -4  -2  -2  255.77   11.90
  -4  -2  -2  272.07   12.10
  -4  -2  -2  255.77   12.30
   4   2   2  256.67   12.00
   4   2   2  259.77   11.90
   4   2   2  258.37   11.70
  -5  -2  -2  461.95   20.50
  -5  -2  -2  454.75   20.10
  -5  -2  -2  447.66   20.10
   5   2   2  440.16   20.00
   5   2   2  458.25   19.70
   5   2   2  451.65   20.10
   5   2   2  448.86   19.80
  -6  -2  -2  896.11   39.50
   6   2   2  923.01   39.50
   6   2   2  944.71   39.20
   6   2   2  963.70   39.10
   6   2   2  909.41   39.60
   6   2   2  940.81   39.20
  -7  -2  -2  273.37   15.60
  -7  -2  -2  251.77   14.50
   7   2   2  276.87   14.30
   7   2   2  279.27   13.90
   7   2   2  277.97   13.90
   7   2   2  266.47   14.80
   7   2   2  256.77   14.80
   8   2   2   15.10    5.90
   8   2   2    7.20    5.30
   8   2   2   16.40    6.20
   7  -3  -2   79.29   10.50
   7  -3  -2   68.79    9.70
  -7   3   2   68.59   12.70
   6  -3  -2  449.95   20.00
   6  -3  -2  437.96   20.10
   6  -3  -2  434.56   19.70
   6  -3  -2  432.06   20.20
   6  -3  -2  396.86   21.70
  -6   3   2  433.26   20.00
  -6   3   2  431.26   22.10
  -6   3   2  438.96   19.90
   5  -3  -2  465.65   21.10
   5  -3  -2  476.25   21.00
   5  -3  -2  469.05   21.10
   5  -3  -2  465.45   21.10
  -5   3   2  455.15   22.40
  -5   3   2  482.35   20.90
  -5   3   2  491.85   21.10
  -5   3   2  470.35   21.10
   4  -3  -2   97.69    6.60
   4  -3  -2   93.59    6.50
   4  -3  -2   91.89    6.90
   4  -3  -2   97.19    7.50
   4  -3  -2   90.19    6.30
  -4   3   2   98.59    6.40
  -4   3   2   91.79    7.30
  -4   3   2   95.29    6.20
  -4   3   2   94.09    6.40
  -4   3   2   91.89    6.30
   3  -3  -2 2546.15   99.69
   3  -3  -2 2460.05   99.49
   3  -3  -2 2400.26   99.39
   3  -3  -2 2431.76   99.89
   3  -3  -2 2516.95   99.49
  -3   3   2 2445.16   99.39
  -3   3   2 2412.76   99.39
  -3   3   2 2515.85   99.49
  -3   3   2 2383.26   99.59
  -3   3   2 2380.46  100.09
   2  -3  -2  174.58    8.20
   2  -3  -2  172.38    8.70
   2  -3  -2  170.68    8.50
   2  -3  -2  184.78    8.50
   2  -3  -2  177.88    8.50
  -2   3   2  165.28    8.50
  -2   3   2  178.18    8.20
  -2   3   2  174.68    8.70
  -2   3   2  176.48    8.40
   1  -3  -2 3447.66  137.99
   1  -3  -2 3405.36  137.79
   1  -3  -2 3437.36  137.69
   1  -3  -2 3427.36  138.09
  -1   3   2 3392.86  137.69
  -1   3   2 3245.88  137.89
  -1   3   2 3573.84  137.99
  -1   3   2 3398.86  138.09
   0  -3  -2    3.00    0.80
   0  -3  -2    2.40    1.40
   0  -3  -2    3.90    1.30
   0  -3  -2    3.60    1.10
   0  -3  -2    3.60    1.40
   0   3   2    3.80    0.90
   0   3   2    3.80    1.30
   0   3   2    5.50    1.30
   0   3   2    5.50    1.30
   0   3   2    2.20    1.30
  -1  -3  -2   23.40    2.30
  -1  -3  -2   28.30    2.50
  -1  -3  -2   27.40    2.30
  -1  -3  -2   25.10    2.50
  -1  -3  -2   25.80    2.30
   1   3   2   23.60    2.20
   1   3   2   24.90    2.20
   1   3   2   27.30    2.40
   1   3   2   22.60    2.30
   1   3   2   27.40    2.50
  -2  -3  -2 4924.31  193.88
  -2  -3  -2 4744.63  193.68
  -2  -3  -2 4828.12  193.98
  -2  -3  -2 4921.31  193.88
  -2  -3  -2 4603.54  193.58
   2   3   2 4838.72  193.98
   2   3   2 4847.31  193.98
   2   3   2 4912.41  193.88
   2   3   2 4714.33  193.58
  -3  -3  -2  159.38    7.10
  -3  -3  -2  151.48    7.40
  -3  -3  -2  148.39    6.80
  -3  -3  -2  154.48    7.40
  -3  -3  -2  149.59    7.50
   3   3   2  152.08    7.50
   3   3   2  157.88    7.20
   3   3   2  162.98    7.30
   3   3   2  148.99    7.20
   3   3   2  152.78    7.00
   3   3   2  139.19    6.70
  -4  -3  -2 1586.84   62.99
  -4  -3  -2 1552.64   62.99
   4   3   2 1564.74   63.09
   4   3   2 1481.55   62.19
   4   3   2 1560.24   62.79
   4   3   2 1480.85   62.79
  -5  -3  -2  138.99    8.30
  -5  -3  -2  128.59    8.10
   5   3   2  132.39    7.80
   5   3   2  132.79    8.00
   5   3   2  132.89    8.10
   5   3   2  134.49    7.60
  -6  -3  -2  566.34   23.90
  -6  -3  -2  504.15   23.30
   6   3   2  532.05   22.70
   6   3   2  473.45   22.80
   6   3   2  525.95   23.30
   6   3   2  507.25   23.10
   6   3   2  524.15   23.20
  -7  -3  -2  174.88   12.00
   7   3   2  179.48   11.80
   7   3   2  191.48   11.40
   7   3   2  185.88   11.70
   7   3   2  187.18   11.50
   7   3   2  196.28   10.90
  -8  -3  -2  540.85   26.30
   8   3   2  528.25   26.00
   8   3   2  545.45   26.20
   8   3   2  612.24   25.60
   6  -4  -2  156.38   10.90
   6  -4  -2  157.58   11.00
   6  -4  -2  152.18   10.80
   6  -4  -2  143.79   10.80
  -6   4   2  154.38   10.30
  -6   4   2  153.78   12.90
  -6   4   2  161.88   10.90
   5  -4  -2  500.25   22.20
   5  -4  -2  486.35   22.10
   5  -4  -2  474.45   22.20
   5  -4  -2  488.25   22.00
  -5   4   2  479.65   23.40
  -5   4   2  509.25   22.30
   4  -4  -2   28.50    5.10
   4  -4  -2   30.70    5.60
   4  -4  -2   29.10    5.60
   4  -4  -2   29.60    6.10
   4  -4  -2   33.30    5.50
  -4   4   2   22.90    6.20
  -4   4   2   25.00    5.30
  -4   4   2   31.70    5.10
  -4   4   2   28.10    5.10
  -4   4   2   28.60    5.00
   3  -4  -2  894.51   36.80
   3  -4  -2  875.31   36.90
   3  -4  -2  851.11   37.00
   3  -4  -2  865.91   36.50
   3  -4  -2  848.42   36.40
  -3   4   2  847.82   37.20
  -3   4   2  887.61   36.90
  -3   4   2  924.91   36.80
  -3   4   2  868.61   36.60
  -3   4   2  883.01   36.50
   2  -4  -2  143.69    7.60
   2  -4  -2  140.59    7.10
   2  -4  -2  126.99    7.40
   2  -4  -2  144.09    7.40
   2  -4  -2  133.99    7.50
  -2   4   2  137.79    7.10
  -2   4   2  127.29    7.30
  -2   4   2  134.09    7.30
  -2   4   2  134.29    7.60
   1  -4  -2 1179.98   48.70
   1  -4  -2 1159.28   48.70
   1  -4  -2 1206.48   48.60
   1  -4  -2 1225.68   49.00
   1  -4  -2 1233.58   49.10
  -1   4   2 1158.88   48.60
  -1   4   2 1214.58   49.00
  -1   4   2 1155.48   48.90
  -1   4   2 1171.98   48.90
   0  -4  -2 3560.64  146.19
   0  -4  -2 3722.73  146.59
   0  -4  -2 3557.14  146.69
   0  -4  -2 3458.55  145.99
   0  -4  -2 3580.34  146.29
   0   4   2 3795.82  146.59
   0   4   2 3728.53  146.69
   0   4   2 3561.24  146.29
   0   4   2 3685.73  146.19
  -1  -4  -2 2193.08   87.99
  -1  -4  -2 2298.67   87.59
  -1  -4  -2 2134.09   87.89
  -1  -4  -2 2072.09   87.59
  -1  -4  -2 2227.48   87.59
  -1  -4  -2 2087.49   87.59
   1   4   2 2120.49   87.79
   1   4   2 2272.07   87.49
   1   4   2 2150.98   87.59
   1   4   2 2191.08   87.99
   1   4   2 2080.69   87.59
  -2  -4  -2 1306.67   54.29
  -2  -4  -2 1358.06   54.39
  -2  -4  -2 1305.87   54.29
  -2  -4  -2 1334.87   54.29
  -2  -4  -2 1292.97   53.99
   2   4   2 1321.27   53.99
   2   4   2 1437.96   54.09
   2   4   2 1294.27   54.19
   2   4   2 1347.47   54.39
   2   4   2 1306.97   54.19
  -3  -4  -2   49.60    3.70
  -3  -4  -2   53.59    3.70
  -3  -4  -2   52.89    3.90
  -3  -4  -2   51.49    3.60
  -3  -4  -2   55.09    4.20
   3   4   2   50.59    4.20
   3   4   2   50.89    3.50
   3   4   2   63.29    4.00
   3   4   2   56.89    3.70
  -4  -4  -2  439.56   18.50
  -4  -4  -2  448.86   19.10
  -4  -4  -2  446.96   19.30
  -4  -4  -2  436.26   18.50
   4   4   2  457.05   18.80
   4   4   2  446.66   19.30
   4   4   2  449.16   19.10
   4   4   2  422.16   18.40
   4   4   2  425.46   18.40
   4   4   2  426.26   18.80
  -5  -4  -2 1265.47   50.69
  -5  -4  -2 1219.58   50.79
   5   4   2 1223.78   50.89
   5   4   2 1235.18   50.49
   5   4   2 1239.08   50.79
   5   4   2 1174.68   49.70
   5   4   2 1186.58   50.29
  -6  -4  -2  194.68   10.90
  -6  -4  -2  179.18   10.80
   6   4   2  177.88   10.30
   6   4   2  189.38   10.80
   6   4   2  167.48    8.70
   6   4   2  174.58   10.10
   6   4   2  192.28   10.80
  -7  -4  -2  203.38   12.90
   7   4   2  218.48   12.70
   7   4   2  231.88   13.10
   7   4   2  212.98   10.40
   7   4   2  235.88   13.30
   7   4   2  225.98   12.80
   7   4   2  218.18   11.80
  -8  -4  -2  220.68   14.90
   8   4   2  231.98   15.10
   8   4   2  218.58   15.10
   8   4   2  227.68   14.50
   8   4   2  247.38   13.30
   6  -5  -2    3.20    5.10
   6  -5  -2    3.70    5.50
   6  -5  -2    6.30    5.50
  -6   5   2   -2.70    4.10
  -6   5   2    4.50    6.60
   5  -5  -2   31.10    7.50
   5  -5  -2   30.80    7.20
   5  -5  -2   39.10    8.80
   5  -5  -2   40.30    7.20
   5  -5  -2   39.20    7.90
  -5   5   2   45.70    7.10
  -5   5   2   29.90    6.80
  -5   5   2   37.80    7.10
  -5   5   2   41.80    7.80
   4  -5  -2  593.74   26.10
   4  -5  -2  574.74   26.80
   4  -5  -2  578.74   25.90
   4  -5  -2  621.94   26.50
   4  -5  -2  607.14   26.60
  -4   5   2  626.24   26.70
  -4   5   2  571.34   27.10
   3  -5  -2 1131.29   47.00
   3  -5  -2 1130.19   47.10
   3  -5  -2 1092.79   47.50
   3  -5  -2 1146.99   47.50
   3  -5  -2 1133.69   47.60
  -3   5   2 1100.99   47.80
  -3   5   2 1160.68   47.50
  -3   5   2 1146.89   47.00
  -3   5   2 1165.08   47.60
  -3   5   2 1131.09   47.20
   2  -5  -2 1869.61   74.59
   2  -5  -2 1816.42   74.59
   2  -5  -2 1834.72   75.09
   2  -5  -2 1745.93   74.69
   2  -5  -2 1850.21   74.99
  -2   5   2 1871.11   75.09
  -2   5   2 1933.61   74.99
  -2   5   2 1799.92   74.59
  -2   5   2 1724.83   74.99
   1  -5  -2   98.79    5.90
   1  -5  -2  101.89    5.80
   1  -5  -2   98.39    6.50
   1  -5  -2  101.19    5.10
   1  -5  -2  102.39    6.50
   1  -5  -2  103.79    6.20
  -1   5   2   99.79    6.00
  -1   5   2   98.19    6.20
  -1   5   2  103.89    6.30
  -1   5   2  103.69    5.70
   0  -5  -2  146.89    8.00
   0  -5  -2  147.19    8.10
   0  -5  -2  150.08    7.10
   0  -5  -2  155.88    7.40
   0  -5  -2  149.88    7.60
   0   5   2  160.88    8.00
   0   5   2  142.39    7.70
   0   5   2  158.58    8.00
   0   5   2  165.08    7.40
  -1  -5  -2  724.23   31.00
  -1  -5  -2  728.33   31.00
  -1  -5  -2  717.23   30.60
  -1  -5  -2  765.02   30.60
  -1  -5  -2  777.82   30.50
  -1  -5  -2  710.23   30.60
   1   5   2  749.62   30.50
   1   5   2  717.03   30.70
   1   5   2  740.43   31.00
   1   5   2  778.62   30.40
   1   5   2  728.73   31.00
  -2  -5  -2  116.49    6.60
  -2  -5  -2  130.49    6.60
  -2  -5  -2  114.79    6.40
  -2  -5  -2  124.19    6.30
  -2  -5  -2  119.99    6.60
   2   5   2  114.99    6.40
   2   5   2  119.09    6.40
   2   5   2  118.99    6.60
   2   5   2  139.59    6.00
   2   5   2  124.29    6.60
  -3  -5  -2 1856.01   74.29
  -3  -5  -2 1821.02   74.59
  -3  -5  -2 1799.62   74.39
  -3  -5  -2 1870.61   74.49
  -3  -5  -2 1760.72   74.09
   3   5   2 1757.12   74.09
   3   5   2 1849.71   74.49
   3   5   2 1778.22   74.39
   3   5   2 1932.31   74.09
   3   5   2 1837.02   74.29
  -4  -5  -2 1345.27   55.19
  -4  -5  -2 1292.67   54.79
  -4  -5  -2 1351.56   54.79
  -4  -5  -2 1365.36   54.69
  -4  -5  -2 1314.67   54.59
   4   5   2 1292.67   54.49
   4   5   2 1417.56   54.99
   4   5   2 1355.96   55.19
   4   5   2 1311.87   54.59
  -5  -5  -2  511.85   23.00
  -5  -5  -2  519.75   22.00
  -5  -5  -2  544.45   22.70
   5   5   2  503.85   21.90
   5   5   2  510.95   22.30
   5   5   2  534.95   22.90
   5   5   2  506.85   22.90
  -6  -5  -2   -1.80    3.60
   6   5   2    0.80    3.50
   6   5   2    3.20    4.00
   6   5   2    1.30    3.60
   6   5   2    0.80    2.60
   6   5   2    3.70    4.10
  -7  -5  -2  233.88   13.60
   7   5   2  219.08   13.00
   7   5   2  231.08   11.80
   7   5   2  229.08   12.80
   7   5   2  216.28   10.80
   7   5   2  221.28   13.30
   7   5   2  202.38   13.40
  -8  -5  -2  200.08   13.70
   8   5   2  202.08   14.00
   8   5   2  206.48   11.90
   8   5   2  183.58   14.70
   8   5   2  194.68   14.00
   8   5   2  190.18   10.40
   5  -6  -2   53.49    8.80
   5  -6  -2   47.30   10.00
   5  -6  -2   61.99    9.30
   5  -6  -2   52.19    8.90
  -5   6   2   48.60    8.40
  -5   6   2   71.89   10.40
   4  -6  -2  442.36   21.10
   4  -6  -2  461.05   21.30
   4  -6  -2  486.35   22.20
   4  -6  -2  460.25   22.10
  -4   6   2  435.76   21.50
  -4   6   2  464.15   21.80
  -4   6   2  455.95   22.30
  -4   6   2  494.35   22.10
   3  -6  -2    3.00    3.40
   3  -6  -2    4.80    3.50
   3  -6  -2    4.00    3.90
   3  -6  -2    5.80    3.90
   3  -6  -2    1.00    3.30
  -3   6   2    8.10    3.20
  -3   6   2    6.80    3.10
  -3   6   2    0.20    3.80
   2  -6  -2   87.59    7.40
   2  -6  -2   91.99    6.60
   2  -6  -2   93.29    6.60
   2  -6  -2   89.79    6.90
   2  -6  -2   92.39    7.70
  -2   6   2   94.79    7.10
  -2   6   2   95.39    7.20
  -2   6   2  105.89    7.20
  -2   6   2   92.39    6.50
   1  -6  -2 2176.78   87.79
   1  -6  -2 2302.87   87.69
   1  -6  -2 2086.59   86.49
   1  -6  -2 2147.89   87.09
   1  -6  -2 1984.80   86.89
   1  -6  -2 2147.49   86.99
  -1   6   2 2192.08   86.99
  -1   6   2 2072.29   87.49
  -1   6   2 2135.49   87.69
   0  -6  -2 1454.65   61.29
   0  -6  -2 1520.65   62.19
   0  -6  -2 1494.75   61.39
   0  -6  -2 1488.65   62.09
   0   6   2 1550.74   62.09
   0   6   2 1504.95   61.39
   0   6   2 1551.34   62.19
   0   6   2 1485.95   61.69
  -1  -6  -2 2025.10   80.89
  -1  -6  -2 2018.40   81.49
  -1  -6  -2 2001.50   80.99
  -1  -6  -2 1964.60   80.99
  -1  -6  -2 1997.20   81.59
  -1  -6  -2 1944.91   80.99
   1   6   2 2004.20   81.09
   1   6   2 2032.40   80.79
   1   6   2 1963.40   81.59
   1   6   2 1979.20   81.39
  -2  -6  -2    6.30    2.40
  -2  -6  -2   11.70    2.50
  -2  -6  -2   10.20    2.50
  -2  -6  -2   11.00    2.20
  -2  -6  -2    7.00    2.20
  -2  -6  -2    9.60    2.50
   2   6   2    6.70    2.50
   2   6   2   15.30    2.90
   2   6   2    7.30    2.10
   2   6   2    5.10    2.30
   2   6   2    3.30    2.10
  -3  -6  -2   76.59    5.70
  -3  -6  -2   70.19    5.60
  -3  -6  -2   83.19    5.60
  -3  -6  -2   83.89    5.40
  -3  -6  -2   74.69    5.80
   3   6   2   78.09    5.60
   3   6   2   73.09    5.50
   3   6   2   83.19    5.50
   3   6   2   74.19    5.50
  -4  -6  -2   33.70    5.20
  -4  -6  -2   39.10    4.60
  -4  -6  -2   43.60    4.70
  -4  -6  -2   38.10    4.50
  -4  -6  -2   44.60    5.20
   4   6   2   39.20    4.00
   4   6   2   40.90    4.50
   4   6   2   42.20    4.50
   4   6   2   38.10    4.40
   4   6   2   41.50    5.20
  -5  -6  -2  573.44   26.00
  -5  -6  -2  637.24   26.30
  -5  -6  -2  629.44   27.10
  -5  -6  -2  579.34   26.40
   5   6   2  604.04   25.90
   5   6   2  675.63   26.50
   5   6   2  622.54   26.10
   5   6   2  634.14   27.10
  -6  -6  -2 1051.99   46.20
   6   6   2 1074.99   44.90
   6   6   2 1162.28   46.20
   6   6   2 1064.99   46.50
  -7  -6  -2  522.75   25.20
   7   6   2  535.85   25.30
   7   6   2  541.25   25.70
   7   6   2  552.54   23.40
   7   6   2  552.04   25.10
   7   6   2  536.65   24.30
  -8  -6  -2   20.40    6.30
   8   6   2   37.20    7.20
   8   6   2   42.50    7.90
   8   6   2   30.50    5.20
   8   6   2   27.30    4.70
   4  -7  -2  259.07   15.20
   4  -7  -2  233.28   14.30
   4  -7  -2  252.87   14.00
   4  -7  -2  244.98   14.10
   4  -7  -2  226.68   15.00
  -4   7   2  262.27   14.80
  -4   7   2  246.28   15.20
   3  -7  -2 1107.59   46.50
   3  -7  -2 1058.69   45.50
   3  -7  -2 1057.29   45.90
   3  -7  -2 1088.29   46.60
   3  -7  -2 1111.79   45.70
  -3   7   2 1057.79   46.60
  -3   7   2 1066.59   45.80
  -3   7   2 1129.49   46.50
   2  -7  -2  100.09    7.70
   2  -7  -2   90.69    6.90
   2  -7  -2   90.79    8.20
   2  -7  -2   87.29    8.60
   2  -7  -2  100.29    7.30
  -2   7   2   77.09    7.80
  -2   7   2   92.39    7.10
  -2   7   2   96.29    7.80
   1  -7  -2 1411.76   57.29
   1  -7  -2 1467.45   58.19
   1  -7  -2 1409.56   58.29
   1  -7  -2 1377.46   56.79
   1  -7  -2 1393.76   57.39
   1  -7  -2 1300.17   57.09
  -1   7   2 1420.06   57.29
  -1   7   2 1396.96   58.09
  -1   7   2 1346.37   57.89
   0  -7  -2   64.69    4.90
   0  -7  -2   68.59    6.70
   0  -7  -2   62.29    6.50
   0  -7  -2   60.49    6.00
   0  -7  -2   62.59    5.20
   0   7   2   67.49    6.20
   0   7   2   71.29    5.10
   0   7   2   56.99    6.00
   0   7   2   61.89    6.20
  -1  -7  -2  106.79    7.40
  -1  -7  -2   94.09    7.20
  -1  -7  -2  109.29    6.20
  -1  -7  -2  101.09    6.70
  -1  -7  -2  104.99    6.30
   1   7   2  105.99    6.00
   1   7   2  100.89    7.20
   1   7   2   99.19    7.00
   1   7   2   97.99    7.00
  -2  -7  -2 1258.57   52.69
  -2  -7  -2 1287.47   53.09
  -2  -7  -2 1280.47   52.89
  -2  -7  -2 1322.47   52.49
  -2  -7  -2 1273.87   53.29
  -2  -7  -2 1267.07   52.89
   2   7   2 1276.47   52.19
   2   7   2 1306.57   52.69
   2   7   2 1257.37   53.19
   2   7   2 1268.07   52.79
   2   7   2 1288.67   53.09
  -3  -7  -2  485.85   21.90
  -3  -7  -2  505.45   22.30
  -3  -7  -2  514.65   22.50
  -3  -7  -2  529.25   22.40
  -3  -7  -2  502.25   22.30
   3   7   2  513.15   22.10
   3   7   2  499.75   22.00
   3   7   2  510.95   21.30
   3   7   2  517.85   22.40
   3   7   2  505.85   22.20
  -4  -7  -2 1166.98   50.09
  -4  -7  -2 1269.07   50.39
  -4  -7  -2 1217.98   50.79
  -4  -7  -2 1207.48   50.49
  -4  -7  -2 1199.78   50.69
   4   7   2 1247.68   49.70
   4   7   2 1236.08   50.59
   4   7   2 1226.28   50.59
   4   7   2 1202.18   50.09
   4   7   2 1184.18   50.29
  -5  -7  -2  102.89    8.40
  -5  -7  -2   89.19    7.10
  -5  -7  -2  108.69    7.10
  -5  -7  -2  107.29    7.40
   5   7   2  104.19    6.90
   5   7   2   90.69    8.10
   5   7   2  105.69    7.10
   5   7   2  104.89    7.20
   5   7   2  102.29    6.30
  -6  -7  -2   74.59    8.50
  -6  -7  -2   65.79    6.90
  -6  -7  -2   55.09    5.90
   6   7   2   65.09    8.70
   6   7   2   59.99    9.00
   6   7   2   65.29    5.80
   6   7   2   63.59    6.60
  -7  -7  -2  281.67   15.70
   7   7   2  311.77   16.40
   7   7   2  252.57   16.60
   7   7   2  247.38   15.50
   7   7   2  287.37   13.80
   8   7   2  156.88   10.50
   8   7   2  155.88   14.40
   8   7   2  158.68   10.50
   3  -8  -2  145.79   11.30
   3  -8  -2  155.18   10.60
   3  -8  -2  153.38   13.10
   3  -8  -2  152.18   11.90
  -3   8   2  150.08   12.10
  -3   8   2  161.78   11.60
   2  -8  -2  560.14   25.10
   2  -8  -2  531.05   24.60
   2  -8  -2  575.54   24.90
   2  -8  -2  560.64   26.30
   2  -8  -2  572.94   26.20
  -2   8   2  559.64   25.80
  -2   8   2  561.54   25.00
  -2   8   2  557.34   25.90
  -2   8   2  554.24   25.80
   1  -8  -2   25.30    4.70
   1  -8  -2   22.70    4.70
   1  -8  -2   32.10    7.60
   1  -8  -2   27.00    6.50
   1  -8  -2   34.10    7.20
   1  -8  -2   35.60    5.80
  -1   8   2   33.40    5.60
  -1   8   2   25.50    6.20
  -1   8   2   37.90    6.80
   0  -8  -2 1660.73   68.69
   0  -8  -2 1661.13   68.49
   0  -8  -2 1632.34   67.39
   0  -8  -2 1599.04   67.69
   0  -8  -2 1575.34   67.29
   0   8   2 1661.63   67.49
   0   8   2 1595.74   67.79
   0   8   2 1684.93   68.49
   0   8   2 1742.43   68.69
  -1  -8  -2  299.27   14.00
  -1  -8  -2  308.37   15.30
  -1  -8  -2  295.37   13.70
  -1  -8  -2  302.77   15.20
   1   8   2  261.07   14.50
   1   8   2  311.97   13.60
   1   8   2  318.37   15.00
   1   8   2  294.47   14.90
  -2  -8  -2 2081.59   84.89
  -2  -8  -2 2077.19   85.29
  -2  -8  -2 2005.80   84.89
  -2  -8  -2 2139.19   84.49
  -2  -8  -2 2081.89   85.49
  -2  -8  -2 2081.39   84.79
   2   8   2 2040.20   85.39
   2   8   2 2083.09   84.19
   2   8   2 2083.79   84.79
   2   8   2 2074.19   85.29
  -3  -8  -2  674.73   28.70
  -3  -8  -2  650.33   29.00
  -3  -8  -2  656.43   28.30
  -3  -8  -2  650.83   28.70
  -3  -8  -2  667.73   28.80
   3   8   2  658.13   27.50
   3   8   2  654.13   28.40
   3   8   2  643.04   28.70
   3   8   2  664.23   28.90
   3   8   2  686.23   28.50
  -4  -8  -2   13.90    4.10
  -4  -8  -2   27.00    6.20
  -4  -8  -2   21.30    3.90
  -4  -8  -2   17.40    4.20
  -4  -8  -2   15.80    3.90
   4   8   2   11.10    3.80
   4   8   2   22.70    3.80
   4   8   2   18.60    3.90
   4   8   2   13.20    3.70
   4   8   2   24.40    5.90
  -5  -8  -2 1326.97   54.09
  -5  -8  -2 1231.58   53.49
  -5  -8  -2 1258.17   53.19
  -5  -8  -2 1350.46   53.39
  -5  -8  -2 1267.17   53.99
   5   8   2 1279.67   53.09
   5   8   2 1265.07   53.19
  -6  -8  -2   37.20    6.80
  -6  -8  -2   49.40    7.60
  -6  -8  -2   49.50    8.50
  -6  -8  -2   53.79    7.00
   6   8   2   50.09    7.40
   6   8   2   44.40    6.80
   6   8   2   44.80    6.20
   6   8   2   46.70    9.70
  -7  -8  -2  242.48   15.40
   7   8   2  245.28   13.50
   7   8   2  253.77   16.30
   3  -9  -2  199.38   12.80
   3  -9  -2  164.68   14.00
   2  -9  -2 1030.60   41.90
   2  -9  -2  941.71   41.40
   2  -9  -2  984.20   43.30
   2  -9  -2  971.40   43.50
  -2   9   2  951.30   42.80
  -2   9   2  995.60   43.10
   1  -9  -2   54.99    7.10
   1  -9  -2   49.10    8.50
   1  -9  -2   47.80    6.00
   1  -9  -2   56.19    8.90
   1  -9  -2   39.60    9.70
  -1   9   2   48.50    7.10
  -1   9   2   57.99    9.00
  -1   9   2   52.99    8.20
  -1   9   2   54.99    7.90
   0  -9  -2   83.79    8.60
   0  -9  -2   85.19    9.50
   0  -9  -2  100.19    9.70
   0  -9  -2   96.09    7.40
   0  -9  -2   93.39    7.30
   0   9   2  109.49    7.50
   0   9   2   89.49    8.80
   0   9   2   83.99    8.90
   0   9   2   90.99    8.80
  -1  -9  -2   43.10    6.10
  -1  -9  -2   41.60    5.70
  -1  -9  -2   48.60    6.80
  -1  -9  -2   40.10    7.80
  -1  -9  -2   31.40    7.70
   1   9   2   42.40    5.50
   1   9   2   49.99    7.60
   1   9   2   39.00    7.30
   1   9   2   34.20    6.90
  -2  -9  -2   58.29    6.80
  -2  -9  -2   49.00    7.90
  -2  -9  -2   57.99    5.80
  -2  -9  -2   50.39    6.80
   2   9   2   43.60    7.00
   2   9   2   50.59    5.30
   2   9   2   55.39    7.70
   2   9   2   54.89    7.70
  -3  -9  -2 1171.88   49.99
  -3  -9  -2 1044.40   49.80
  -3  -9  -2 1223.18   50.59
   3   9   2 1218.28   49.80
   3   9   2 1229.98   50.39
   3   9   2 1241.88   50.29
   3   9   2 1200.08   48.80
  -4  -9  -2  858.11   38.50
  -4  -9  -2  921.31   38.60
  -4  -9  -2  906.91   38.70
   4   9   2  886.11   38.00
   4   9   2  877.11   38.30
   4   9   2  909.21   38.50
  -5  -9  -2   86.69    9.10
  -5  -9  -2   65.49    8.20
  -5  -9  -2   78.69    9.10
   5   9   2   65.59    8.00
   5   9   2   82.79    8.40
   5   9   2   74.09    8.10
   5   9   2   89.59    8.90
  -6  -9  -2   84.59    8.80
  -6  -9  -2  111.79   10.90
  -6  -9  -2  133.99   11.50
  -6  -9  -2  113.39    9.60
   6   9   2   97.59    9.00
   6   9   2  101.99    8.90
   6   9   2  131.69    9.80
  -7  -9  -2   57.79    9.70
  -7  -9  -2   30.00    7.50
   7   9   2   14.60    9.20
   7   9   2   20.70    5.90
   1 -10  -2  751.82   31.50
   1 -10  -2  592.64   33.20
   1 -10  -2  741.83   33.50
   1 -10  -2  748.73   30.80
  -1  10   2  741.83   33.00
  -1  10   2  704.93   32.40
  -1  10   2  705.63   31.60
   0 -10  -2  294.57   17.00
   0 -10  -2  265.47   17.10
   0 -10  -2  295.97   14.50
   0 -10  -2  284.77   14.50
   0  10   2  266.07   14.50
   0  10   2  294.67   16.30
   0  10   2  294.57   16.20
   0  10   2  278.27   16.90
  -1 -10  -2  996.60   42.40
  -1 -10  -2 1003.50   41.70
  -1 -10  -2 1060.09   42.20
  -1 -10  -2  936.51   42.50
  -1 -10  -2  976.90   43.50
  -1 -10  -2  935.01   43.30
   1  10   2  991.70   41.70
   1  10   2 1006.20   42.60
   1  10   2 1000.10   43.40
   1  10   2 1006.80   43.30
  -2 -10  -2    6.10    5.20
  -2 -10  -2    6.60    4.40
  -2 -10  -2    4.00    3.70
  -2 -10  -2   13.90    5.40
  -2 -10  -2    5.90    4.30
  -2 -10  -2    5.80    3.80
   2  10   2   16.60    5.40
   2  10   2    5.20    4.90
   2  10   2    9.30    3.30
   2  10   2    4.80    4.40
  -3 -10  -2    2.00    5.30
  -3 -10  -2   10.80    4.50
  -3 -10  -2    4.50    4.70
  -3 -10  -2    0.40    3.90
  -3 -10  -2    2.90    4.70
   3  10   2    0.10    4.40
   3  10   2    4.50    2.90
   3  10   2   10.40    5.20
   3  10   2    6.30    4.80
  -4 -10  -2  200.18   13.30
  -4 -10  -2  191.38   13.10
  -4 -10  -2  217.78   13.30
  -4 -10  -2  211.88   12.80
  -4 -10  -2  218.98   13.80
   4  10   2  203.28   12.90
   4  10   2  220.18   13.00
   4  10   2  216.68   13.40
  -5 -10  -2  150.48   11.90
  -5 -10  -2  148.19   11.30
  -5 -10  -2  142.39   11.20
  -5 -10  -2  125.69   11.50
  -5 -10  -2  137.49   11.50
   5  10   2  149.39   11.10
   5  10   2  151.98   11.50
   5  10   2  138.19   11.10
   5  10   2  134.19   10.90
  -6 -10  -2  253.77   15.00
  -6 -10  -2  246.18   14.50
  -6 -10  -2  255.97   16.00
  -6 -10  -2  234.88   14.80
   6  10   2  231.98   14.60
   6  10   2  260.47   17.10
   6  10   2  276.67   15.00
   0 -11  -2   27.10    5.50
   0 -11  -2   13.40    7.40
   0 -11  -2   19.50    5.40
   0  11   2   20.40    5.60
   0  11   2   21.50    6.90
   0  11   2   13.20    6.30
  -1 -11  -2   -0.30    4.50
  -1 -11  -2    6.60    5.30
  -1 -11  -2   -3.10    6.20
  -1 -11  -2    1.20    4.70
   1  11   2    1.10    4.50
   1  11   2    6.80    6.30
   1  11   2  -10.80    5.10
   1  11   2   -1.90    6.00
  -2 -11  -2  805.12   34.40
  -2 -11  -2  745.33   34.40
  -2 -11  -2  768.42   35.70
  -2 -11  -2  769.42   33.40
   2  11   2  817.82   34.80
   2  11   2  771.02   35.40
   2  11   2  762.32   33.20
   2  11   2  764.42   35.70
  -3 -11  -2  174.28   12.70
  -3 -11  -2  199.58   13.10
  -3 -11  -2  178.98   14.30
   3  11   2  176.48   14.50
   3  11   2  179.48   13.40
   3  11   2  192.08   10.40
   3  11   2  169.68   13.30
  -4 -11  -2  171.08   13.40
  -4 -11  -2  201.68   13.80
  -4 -11  -2  162.48   14.00
   4  11   2  196.78   14.80
   4  11   2  182.88   13.30
   4  11   2  186.88   13.50
  -5 -11  -2  120.39   12.70
  -5 -11  -2  110.29   11.80
  -5 -11  -2  107.09   11.80
   5  11   2  112.29   11.60
   5  11   2  110.59   11.90
   5  11   2  124.89   13.30
   4  10  -3  276.77   16.50
   4  10  -3  297.47   20.00
   4  10  -3  270.17   16.80
  -4 -10   3  275.47   17.00
  -4 -10   3  240.78   17.10
  -4 -10   3  255.17   16.70
   3  10  -3   24.40    7.90
   3  10  -3    9.50    6.70
   3  10  -3    7.00    5.70
   3  10  -3   19.10    8.90
  -3 -10   3   14.40    6.20
  -3 -10   3    0.40    6.10
  -3 -10   3   17.20    6.70
   2  10  -3  699.83   33.70
   2  10  -3  647.04   31.30
   2  10  -3  648.44   30.70
  -2 -10   3  685.23   31.80
  -2 -10   3  669.03   31.20
   6   9  -3  594.24   27.60
   6   9  -3  606.54   26.50
  -6  -9   3  522.45   27.40
  -6  -9   3  583.74   28.10
   5   9  -3   11.40    6.90
   5   9  -3   18.40    5.40
   5   9  -3   12.70    6.60
  -5  -9   3   15.30    6.00
  -5  -9   3   23.40    6.40
  -5  -9   3   21.60    5.70
   4   9  -3  755.52   33.20
   4   9  -3  778.32   33.30
   4   9  -3  758.02   34.30
   4   9  -3  731.63   34.20
  -4  -9   3  754.02   33.60
  -4  -9   3  741.03   33.30
  -4  -9   3  684.03   33.30
   3   9  -3   14.80    5.10
   3   9  -3   20.70    6.70
   3   9  -3   25.90    6.40
  -3  -9   3   39.70    9.30
  -3  -9   3    9.20    5.20
  -3  -9   3   21.90    5.60
   2   9  -3   25.10    6.20
   2   9  -3   20.90    5.40
   2   9  -3   23.20    6.90
   2   9  -3   26.70    5.70
  -2  -9   3    9.40    8.00
  -2  -9   3   28.30    5.60
  -2  -9   3   28.80    5.70
   1   9  -3  685.53   32.70
   1   9  -3  686.93   31.60
   1   9  -3  660.83   30.60
   1   9  -3  693.43   30.40
  -1  -9   3  683.33   29.00
  -1  -9   3  664.33   30.90
  -1  -9   3  735.03   31.80
   0   9  -3   55.59    9.80
   0   9  -3   70.49   10.20
   0  -9   3   61.89   10.30
   0  -9   3   61.69   10.00
   0  -9   3   72.89    7.30
  -1   9  -3  515.75   26.60
  -1   9  -3  546.35   25.30
   1  -9   3  534.45   25.60
   1  -9   3  540.55   24.20
   1  -9   3  535.45   26.50
   6   8  -3  102.99   11.80
   6   8  -3  115.59    9.00
   6   8  -3   87.59   10.40
  -6  -8   3  103.49   10.50
  -6  -8   3  112.79    8.90
  -6  -8   3  123.49   11.80
  -6  -8   3  106.29   11.60
   5   8  -3   80.69    8.40
   5   8  -3   71.79   11.70
   5   8  -3   94.29   10.20
   5   8  -3   88.79   10.10
  -5  -8   3   80.79    9.20
  -5  -8   3   96.09   10.20
  -5  -8   3   81.89   11.10
  -5  -8   3   98.79    8.70
  -5  -8   3   89.09    9.90
   4   8  -3   -7.60    5.00
   4   8  -3    4.10    4.10
   4   8  -3    7.10    8.70
   4   8  -3   10.20    5.20
  -4  -8   3   11.00    5.20
  -4  -8   3    3.60    4.30
  -4  -8   3    3.50    4.60
  -4  -8   3    5.00    4.70
   3   8  -3  742.53   32.90
   3   8  -3  757.02   33.20
   3   8  -3  759.42   32.70
   3   8  -3  795.92   33.80
  -3  -8   3  757.72   33.00
  -3  -8   3  742.23   32.90
  -3  -8   3  739.93   32.70
  -3  -8   3  679.53   32.60
   2   8  -3  383.56   18.90
   2   8  -3  391.46   18.80
   2   8  -3  386.96   19.80
   2   8  -3  387.56   18.80
  -2  -8   3  387.06   18.90
  -2  -8   3  386.66   19.10
  -2  -8   3  377.26   18.50
   1   8  -3  991.50   41.80
   1   8  -3  986.70   41.70
   1   8  -3  977.10   42.50
   1   8  -3 1000.50   43.10
  -1  -8   3 1011.50   42.70
  -1  -8   3  980.90   43.10
  -1  -8   3  989.30   42.10
  -1  -8   3  942.71   41.60
  -1  -8   3  986.10   40.70
   0   8  -3   90.09    9.60
   0   8  -3  102.99    9.30
   0   8  -3   92.59   11.10
   0  -8   3  105.79    9.70
   0  -8   3   97.59    7.20
   0  -8   3   91.69    8.60
   0  -8   3  123.79   11.10
   0  -8   3  111.99    9.40
  -1   8  -3    1.20    4.40
  -1   8  -3    4.60    4.70
  -1   8  -3   -6.70    4.30
  -1   8  -3    4.50    4.70
   1  -8   3   -0.50    4.30
   1  -8   3    8.60    5.70
   1  -8   3    0.70    4.50
   1  -8   3    4.40    3.50
  -2   8  -3  389.76   18.90
  -2   8  -3  386.86   20.50
  -2   8  -3  369.36   19.00
   2  -8   3  407.66   20.50
   2  -8   3  352.86   18.40
   2  -8   3  407.56   18.60
   2  -8   3  372.76   21.80
   7   7  -3  217.58   14.20
   7   7  -3  193.38   13.30
  -7  -7   3  202.48   13.50
  -7  -7   3  217.28   14.70
   6   7  -3  336.17   16.90
   6   7  -3  254.47   15.60
   6   7  -3  334.67   14.90
  -6  -7   3  311.97   14.90
  -6  -7   3  299.97   16.20
  -6  -7   3  317.47   17.20
   5   7  -3  493.35   21.70
   5   7  -3  517.95   22.60
   5   7  -3  468.75   22.40
   5   7  -3  495.75   23.80
  -5  -7   3  492.15   22.90
  -5  -7   3  482.35   21.80
  -5  -7   3  429.26   22.10
   4   7  -3   79.39    7.30
   4   7  -3   67.99    8.40
   4   7  -3   88.39    8.60
  -4  -7   3   74.99    7.60
  -4  -7   3   66.99    7.60
  -4  -7   3   77.59    8.20
   3   7  -3   11.50    3.80
   3   7  -3   22.30    4.70
   3   7  -3   17.70    4.80
   3   7  -3   27.00    4.90
  -3  -7   3   21.20    4.50
  -3  -7   3   15.60    4.10
  -3  -7   3   17.90    4.50
  -3  -7   3   20.90    4.10
   2   7  -3   70.29    7.80
   2   7  -3   59.29    6.90
   2   7  -3   74.09    7.80
   2   7  -3   51.89    6.90
  -2  -7   3   57.19    7.10
  -2  -7   3   54.59    6.70
  -2  -7   3   57.09    7.10
   1   7  -3    8.30    3.60
   1   7  -3    3.50    4.10
   1   7  -3    4.90    4.00
   1   7  -3    5.60    3.70
  -1  -7   3    5.40    3.80
  -1  -7   3    7.60    3.70
  -1  -7   3    7.70    2.20
  -1  -7   3    2.90    3.20
  -1  -7   3    3.80    3.90
   0   7  -3 1349.96   55.29
   0   7  -3 1305.57   56.09
   0   7  -3 1339.77   56.49
   0  -7   3 1339.97   54.79
   0  -7   3 1322.07   55.19
   0  -7   3 1356.26   56.29
   0  -7   3 1326.07   56.49
  -1   7  -3  362.46   18.30
  -1   7  -3  341.47   16.50
  -1   7  -3  321.37   17.40
  -1   7  -3  362.16   16.80
   1  -7   3  343.27   16.10
   1  -7   3  352.66   18.20
   1  -7   3  343.87   15.90
   1  -7   3  352.36   17.60
  -2   7  -3  594.44   27.80
  -2   7  -3  554.44   27.10
  -2   7  -3  608.94   26.70
  -2   7  -3  577.64   28.40
   2  -7   3  638.84   26.60
   2  -7   3  592.54   26.30
   2  -7   3  655.93   28.80
   2  -7   3  626.74   28.00
  -3   7  -3    6.40    5.50
  -3   7  -3    9.60    5.10
   3  -7   3    0.80    4.00
   3  -7   3    3.60    5.70
   3  -7   3    6.10    4.20
   3  -7   3    6.90    4.80
   7   6  -3  191.98   13.20
   7   6  -3  211.68   13.30
  -7  -6   3  201.08   12.60
  -7  -6   3  182.28   13.60
   6   6  -3    4.50    7.00
   6   6  -3    7.90    4.80
   6   6  -3    4.80    4.70
  -6  -6   3    1.90    4.10
  -6  -6   3    7.80    4.80
  -6  -6   3   -1.20    4.00
   5   6  -3  303.17   13.80
   5   6  -3  258.27   14.00
   5   6  -3  285.97   13.50
   5   6  -3  286.27   14.40
  -5  -6   3  265.37   13.50
  -5  -6   3  288.17   14.90
  -5  -6   3  301.67   14.40
  -5  -6   3  264.57   14.10
   4   6  -3  721.63   31.40
   4   6  -3  730.43   30.70
   4   6  -3  703.03   30.40
   4   6  -3  712.73   30.80
  -4  -6   3  648.04   30.40
  -4  -6   3  688.93   30.90
  -4  -6   3  777.32   31.00
  -4  -6   3  693.73   30.40
  -4  -6   3  729.23   31.50
   3   6  -3  974.00   41.40
   3   6  -3 1017.00   41.40
   3   6  -3  980.70   40.90
   3   6  -3  944.41   40.90
  -3  -6   3  962.50   41.10
  -3  -6   3  968.50   41.20
  -3  -6   3 1041.20   41.50
  -3  -6   3  908.11   40.90
  -3  -6   3  983.60   40.80
   2   6  -3 1730.73   68.29
   2   6  -3 1554.44   67.79
   2   6  -3 1621.44   67.89
   2   6  -3 1679.93   67.59
  -2  -6   3 1652.53   68.09
  -2  -6   3 1604.04   67.79
  -2  -6   3 1611.34   67.49
  -2  -6   3 1719.03   68.29
   1   6  -3   11.30    3.40
   1   6  -3   11.90    3.70
   1   6  -3    7.80    3.60
   1   6  -3    6.80    3.10
  -1  -6   3    9.00    3.30
  -1  -6   3    4.60    3.10
  -1  -6   3   12.60    2.90
  -1  -6   3    9.00    3.30
   0   6  -3   97.19    7.70
   0   6  -3   90.59    6.50
   0   6  -3  100.09    7.90
   0   6  -3   99.49    7.10
   0  -6   3   92.59    7.40
   0  -6   3   98.99    6.60
   0  -6   3   90.99    5.70
   0  -6   3   96.59    8.00
  -1   6  -3   11.40    3.60
  -1   6  -3   11.80    3.60
  -1   6  -3    9.10    3.70
  -1   6  -3    8.70    3.50
   1  -6   3   11.40    2.70
   1  -6   3   11.90    3.00
   1  -6   3   12.60    3.90
   1  -6   3   14.20    3.60
  -2   6  -3  212.38   12.30
  -2   6  -3  194.78   11.20
  -2   6  -3  203.98   11.80
  -2   6  -3  200.98   12.60
   2  -6   3  195.38   10.40
   2  -6   3  209.68   10.80
   2  -6   3  221.98   12.00
   2  -6   3  220.68   12.90
  -3   6  -3 1390.06   57.69
  -3   6  -3 1332.67   57.79
  -3   6  -3 1269.57   58.09
   3  -6   3 1491.55   58.49
   3  -6   3 1327.07   56.19
   3  -6   3 1414.26   57.79
   3  -6   3 1345.37   56.89
  -4   6  -3  218.78   14.50
  -4   6  -3  214.38   14.90
  -4   6  -3  233.28   14.30
   4  -6   3  223.08   15.20
   4  -6   3  224.38   13.80
   4  -6   3  206.78   11.50
   4  -6   3  208.88   12.80
   8   5  -3  137.19   12.40
   8   5  -3  125.09   14.30
  -8  -5   3  141.59   11.40
   7   5  -3   49.70    9.60
   7   5  -3   50.39    8.70
   7   5  -3   74.59   12.70
   7   5  -3   52.49    9.40
  -7  -5   3   63.99    9.30
  -7  -5   3   49.00    7.70
   6   5  -3  498.65   22.50
   6   5  -3  482.95   24.50
   6   5  -3  486.15   22.30
  -6  -5   3  498.25   22.80
  -6  -5   3  487.15   22.20
   5   5  -3   78.29    5.70
   5   5  -3   67.29    6.50
   5   5  -3   77.69    7.00
   5   5  -3   80.39    7.30
  -5  -5   3   63.79    5.70
  -5  -5   3   86.59    7.00
  -5  -5   3   78.69    6.70
  -5  -5   3   66.19    7.30
   4   5  -3 1242.98   52.69
   4   5  -3 1327.57   53.79
   4   5  -3 1300.27   52.99
   4   5  -3 1275.97   53.09
  -4  -5   3 1249.28   52.79
  -4  -5   3 1275.17   53.39
  -4  -5   3 1227.58   52.89
  -4  -5   3 1354.56   53.19
   3   5  -3    3.40    3.00
   3   5  -3    2.00    2.50
   3   5  -3    1.50    2.80
   3   5  -3    1.40    3.30
  -3  -5   3   -1.00    2.60
  -3  -5   3    1.00    2.60
  -3  -5   3   -1.80    2.60
  -3  -5   3    2.30    2.60
  -3  -5   3   -2.00    2.40
   2   5  -3   39.20    5.20
   2   5  -3   24.10    5.00
   2   5  -3   31.30    4.80
   2   5  -3   37.70    5.00
  -2  -5   3   36.00    4.90
  -2  -5   3   33.20    4.90
  -2  -5   3   39.50    4.50
  -2  -5   3   30.70    4.90
   1   5  -3 1089.69   45.30
   1   5  -3 1096.19   44.60
   1   5  -3 1045.60   45.10
   1   5  -3 1078.19   44.70
   1   5  -3 1079.49   44.20
  -1  -5   3 1101.99   45.30
  -1  -5   3 1063.79   44.50
  -1  -5   3 1083.69   45.10
   0   5  -3  598.14   26.60
   0   5  -3  625.04   26.00
   0   5  -3  600.44   25.90
   0   5  -3  614.44   26.90
   0  -5   3  628.44   26.90
   0  -5   3  624.24   25.90
   0  -5   3  610.84   25.60
   0  -5   3  603.74   26.70
  -1   5  -3 1618.64   67.49
  -1   5  -3 1616.24   68.59
  -1   5  -3 1645.94   67.89
  -1   5  -3 1642.44   68.39
   1  -5   3 1632.64   67.49
   1  -5   3 1694.03   68.49
   1  -5   3 1738.83   68.69
   1  -5   3 1654.73   67.59
  -2   5  -3  557.44   26.20
  -2   5  -3  562.04   24.90
  -2   5  -3  574.34   25.80
  -2   5  -3  582.34   25.60
   2  -5   3  584.54   24.60
   2  -5   3  588.64   25.00
   2  -5   3  569.54   25.80
   2  -5   3  628.34   26.30
  -3   5  -3   29.00    5.60
  -3   5  -3   24.10    5.10
  -3   5  -3   26.90    6.60
   3  -5   3   26.50    4.60
   3  -5   3   19.70    4.00
   3  -5   3   20.50    4.20
   3  -5   3   26.20    5.30
  -4   5  -3  385.96   19.10
  -4   5  -3  383.56   19.80
  -4   5  -3  378.76   19.80
   4  -5   3  394.76   19.00
   4  -5   3  381.06   17.10
   4  -5   3  376.06   18.30
   4  -5   3  409.36   19.80
  -5   5  -3  165.18   13.90
  -5   5  -3  169.68   12.10
  -5   5  -3  163.68   13.80
   5  -5   3  164.78   12.00
   5  -5   3  172.48   13.70
   5  -5   3  149.79   11.40
   8   4  -3  447.86   22.80
   8   4  -3  450.25   22.00
  -8  -4   3  462.65   21.80
   7   4  -3   44.30    8.80
   7   4  -3   48.10   10.60
   7   4  -3   63.39    8.50
   7   4  -3   56.59    9.80
   7   4  -3   66.79   12.90
  -7  -4   3   46.00    7.30
   6   4  -3  311.47   15.10
   6   4  -3  305.37   16.50
   6   4  -3  311.77   15.20
   6   4  -3  294.47   17.40
   6   4  -3  311.27   15.60
  -6  -4   3  298.07   14.70
  -6  -4   3  300.07   15.40
   5   4  -3  508.25   22.10
   5   4  -3  498.45   21.90
   5   4  -3  484.05   23.60
   5   4  -3  520.35   24.90
  -5  -4   3  483.45   21.60
  -5  -4   3  481.35   22.10
   4   4  -3   29.80    5.70
   4   4  -3   23.30    5.10
   4   4  -3   24.60    4.00
   4   4  -3   30.20    4.70
  -4  -4   3   30.00    4.20
  -4  -4   3   25.30    4.70
  -4  -4   3   23.40    4.80
  -4  -4   3   31.90    4.10
   3   4  -3 1958.60   80.39
   3   4  -3 1982.70   80.89
   3   4  -3 1958.30   80.39
   3   4  -3 1961.90   80.69
  -3  -4   3 1944.41   80.59
  -3  -4   3 1985.50   80.39
  -3  -4   3 2085.99   80.69
  -3  -4   3 1917.71   80.39
   2   4  -3  352.36   15.80
   2   4  -3  349.17   15.80
   2   4  -3  334.37   15.60
   2   4  -3  359.16   15.50
  -2  -4   3  344.97   15.70
  -2  -4   3  341.07   15.40
  -2  -4   3  353.36   15.70
  -2  -4   3  367.26   15.90
   1   4  -3 4715.13  188.18
   1   4  -3 4660.23  187.48
   1   4  -3 4506.55  187.88
   1   4  -3 4654.03  187.58
  -1  -4   3 4634.44  187.98
  -1  -4   3 4852.71  188.18
  -1  -4   3 4525.35  187.48
   0   4  -3  711.03   30.80
   0   4  -3  726.83   30.10
   0   4  -3  722.43   30.10
   0   4  -3  703.23   30.90
   0  -4   3  715.43   29.90
   0  -4   3  748.93   30.80
   0  -4   3  745.33   30.90
   0  -4   3  722.63   30.00
  -1   4  -3   39.90    5.10
  -1   4  -3   39.00    4.90
  -1   4  -3   38.20    4.60
  -1   4  -3   41.00    4.20
   1  -4   3   39.10    3.70
   1  -4   3   41.10    3.80
   1  -4   3   38.60    4.70
   1  -4   3   41.00    5.20
  -2   4  -3 2676.53  108.09
  -2   4  -3 2582.54  107.29
  -2   4  -3 2718.03  108.29
  -2   4  -3 2601.14  108.39
   2  -4   3 2718.73  108.19
   2  -4   3 2764.52  108.49
   2  -4   3 2534.25  107.19
   2  -4   3 2612.44  107.59
  -3   4  -3   24.20    6.40
  -3   4  -3   21.80    4.80
  -3   4  -3   23.40    5.70
   3  -4   3   25.90    5.20
   3  -4   3   29.60    5.90
   3  -4   3   22.40    3.70
   3  -4   3   25.20    4.90
  -4   4  -3 1481.05   62.09
  -4   4  -3 1514.05   62.19
  -4   4  -3 1347.57   61.79
  -4   4  -3 1519.95   61.69
   4  -4   3 1482.75   61.59
   4  -4   3 1549.45   62.09
   4  -4   3 1412.76   60.09
   4  -4   3 1510.25   61.29
  -5   4  -3  223.88   13.10
  -5   4  -3  228.98   14.80
  -5   4  -3  228.78   14.80
   5  -4   3  219.98   12.80
   5  -4   3  222.38   12.80
   5  -4   3  231.38   14.10
   8   3  -3   -0.40    6.10
   8   3  -3    8.60    5.70
   8   3  -3   -6.30    4.20
  -8  -3   3   -0.70    4.90
   7   3  -3  269.97   16.40
   7   3  -3  301.07   15.30
   7   3  -3  302.57   15.00
   7   3  -3  283.67   16.70
   7   3  -3  289.17   13.50
   7   3  -3  277.37   18.30
  -7  -3   3  291.77   14.60
   6   3  -3  178.58   13.50
   6   3  -3  209.98   10.90
   6   3  -3  173.28   10.80
   6   3  -3  203.18   12.40
   6   3  -3  194.38   11.70
  -6  -3   3  190.88   11.00
  -6  -3   3  192.78   10.40
   5   3  -3 1384.46   56.99
   5   3  -3 1348.07   56.29
   5   3  -3 1326.07   55.89
   5   3  -3 1363.46   55.49
   5   3  -3 1310.37   55.39
  -5  -3   3 1342.17   55.69
  -5  -3   3 1337.37   55.29
  -5  -3   3 1354.96   56.49
   4   3  -3  159.48    8.70
   4   3  -3  153.48    8.50
   4   3  -3  160.28    8.00
   4   3  -3  167.48    9.30
  -4  -3   3  171.38    9.60
  -4  -3   3  166.18    8.20
  -4  -3   3  165.98    8.10
  -4  -3   3  175.98    8.60
  -4  -3   3  162.28    8.80
   3   3  -3  608.74   25.70
   3   3  -3  604.04   25.40
   3   3  -3  583.44   25.10
   3   3  -3  600.84   25.30
  -3  -3   3  634.14   25.50
  -3  -3   3  574.34   25.20
  -3  -3   3  598.84   25.40
  -3  -3   3  589.84   25.80
  -3  -3   3  592.94   25.00
   2   3  -3  434.76   18.60
   2   3  -3  433.16   18.70
   2   3  -3  424.46   18.40
   2   3  -3  433.36   18.30
  -2  -3   3  414.36   18.20
  -2  -3   3  432.06   18.50
  -2  -3   3  419.06   18.10
  -2  -3   3  449.66   18.70
  -2  -3   3  428.86   18.70
  -2  -3   3  411.16   18.50
   1   3  -3  253.97   11.30
   1   3  -3  258.57   11.40
   1   3  -3  243.78   11.60
   1   3  -3  252.57   11.70
  -1  -3   3  255.07   11.70
  -1  -3   3  243.48   11.10
  -1  -3   3  251.67   11.60
  -1  -3   3  249.48   11.40
   0   3  -3 3276.47  131.69
   0   3  -3 3305.17  130.99
   0   3  -3 3094.59  131.49
   0  -3   3 3379.96  131.69
   0  -3   3 3309.37  131.59
   0  -3   3 3257.27  130.89
   0  -3   3 3100.09  130.89
  -1   3  -3 1192.38   51.89
  -1   3  -3 1214.68   51.79
  -1   3  -3 1243.08   51.49
  -1   3  -3 1207.68   50.99
   1  -3   3 1362.26   51.99
   1  -3   3 1206.38   50.99
   1  -3   3 1256.67   51.19
   1  -3   3 1345.37   51.89
  -2   3  -3  807.52   33.50
  -2   3  -3  801.12   34.60
  -2   3  -3  809.62   34.30
  -2   3  -3  809.72   34.40
   2  -3   3  820.32   33.40
   2  -3   3  798.72   34.30
   2  -3   3  829.82   33.90
   2  -3   3  837.32   34.60
  -3   3  -3   51.09    6.30
  -3   3  -3   51.49    5.80
  -3   3  -3   50.69    5.70
   3  -3   3   50.09    5.70
   3  -3   3   51.39    3.70
   3  -3   3   48.60    5.20
   3  -3   3   55.99    5.10
  -4   3  -3    1.40    3.10
  -4   3  -3    3.50    3.80
  -4   3  -3    0.90    4.20
  -4   3  -3    1.10    3.20
   4  -3   3    1.00    2.80
   4  -3   3   -2.40    3.00
   4  -3   3    0.40    2.80
   4  -3   3    3.70    3.60
  -5   3  -3  547.95   25.50
  -5   3  -3  541.55   25.50
  -5   3  -3  503.25   24.80
  -5   3  -3  531.25   24.20
   5  -3   3  525.55   24.00
   5  -3   3  548.05   24.20
   5  -3   3  521.25   24.50
   5  -3   3  564.04   24.60
  -6   3  -3  335.77   17.20
  -6   3  -3  347.07   19.80
  -6   3  -3  340.97   19.60
   6  -3   3  374.06   21.20
   6  -3   3  332.67   17.40
   6  -3   3  344.87   17.20
   8   2  -3   57.09    8.10
   8   2  -3   66.79   10.70
   8   2  -3   53.59    9.30
  -8  -2   3   45.60    8.60
   7   2  -3   80.79   12.10
   7   2  -3   89.49    7.20
   7   2  -3   99.89    8.60
   7   2  -3   77.69   10.40
   7   2  -3   88.89   10.90
   7   2  -3   83.99    8.40
  -7  -2   3   78.69    7.70
   6   2  -3  622.04   29.30
   6   2  -3  636.04   28.50
   6   2  -3  625.04   27.40
   6   2  -3  641.04   27.40
   6   2  -3  650.63   28.40
   6   2  -3  641.44   26.80
  -6  -2   3  617.64   27.20
  -6  -2   3  648.34   28.70
   5   2  -3  103.19    7.70
   5   2  -3  106.79    6.90
   5   2  -3  100.49    7.00
   5   2  -3  102.59    7.90
   5   2  -3  103.59    5.70
   5   2  -3   97.39    8.80
  -5  -2   3  101.09    6.80
  -5  -2   3  101.79    7.90
  -5  -2   3   93.69    6.30
   4   2  -3 1254.87   50.49
   4   2  -3 1226.28   49.80
   4   2  -3 1175.88   50.99
   4   2  -3 1210.78   50.49
   4   2  -3 1210.68   49.99
   4   2  -3 1126.09   50.29
   4   2  -3 1338.87   51.79
  -4  -2   3 1217.58   51.19
  -4  -2   3 1229.48   50.59
  -4  -2   3 1293.57   50.39
  -4  -2   3 1236.38   50.29
   3   2  -3 2459.55   98.49
   3   2  -3 2397.46   98.09
   3   2  -3 2454.15   98.29
   3   2  -3 2418.86   97.89
  -3  -2   3 2417.86   98.09
  -3  -2   3 2363.66   97.79
  -3  -2   3 2564.14   98.29
  -3  -2   3 2377.66   98.59
  -3  -2   3 2327.67   97.99
   2   2  -3 1786.82   73.09
   2   2  -3 1858.71   73.19
   2   2  -3 1762.62   72.79
   2   2  -3 1744.03   72.89
  -2  -2   3 1754.82   73.19
  -2  -2   3 1769.62   72.89
  -2  -2   3 1872.21   73.19
  -2  -2   3 1767.02   72.89
  -2  -2   3 1828.82   72.59
   1   2  -3   74.19    4.70
   1   2  -3   73.19    4.80
   1   2  -3   76.79    4.40
   1   2  -3   77.59    4.50
  -1  -2   3   72.09    4.20
  -1  -2   3   76.09    4.60
  -1  -2   3   78.89    4.80
  -1  -2   3   77.89    4.60
   0   2  -3  486.05   21.20
   0   2  -3  500.45   20.70
   0   2  -3  491.05   21.40
   0   2  -3  503.85   20.70
   0  -2   3  518.25   21.20
   0  -2   3  481.65   20.70
   0  -2   3  512.75   21.40
   0  -2   3  497.05   20.60
  -1   2  -3  542.75   23.80
  -1   2  -3  538.05   23.00
  -1   2  -3  561.04   23.50
  -1   2  -3  579.74   23.90
   1  -2   3  584.44   24.00
   1  -2   3  566.14   23.80
   1  -2   3  546.15   23.00
  -2   2  -3  492.05   21.20
  -2   2  -3  481.85   21.30
  -2   2  -3  494.75   21.10
  -2   2  -3  463.25   20.20
   2  -2   3  518.85   21.20
   2  -2   3  470.55   20.10
   2  -2   3  504.75   21.30
  -3   2  -3 2545.15  103.69
  -3   2  -3 2529.45  103.39
  -3   2  -3 2482.15  103.59
  -3   2  -3 2479.95  103.39
   3  -2   3 2453.45  103.29
   3  -2   3 2750.22  103.69
  -4   2  -3  279.47   13.90
  -4   2  -3  280.37   13.60
  -4   2  -3  287.47   14.10
  -4   2  -3  282.07   14.60
   4  -2   3  290.97   13.80
   4  -2   3  270.77   13.90
   4  -2   3  290.67   13.50
   4  -2   3  285.67   13.50
  -5   2  -3  767.62   33.70
  -5   2  -3  750.42   32.40
  -5   2  -3  743.73   33.40
   5  -2   3  768.42   32.30
   5  -2   3  761.22   32.60
   5  -2   3  750.22   32.80
  -6   2  -3   54.29    7.00
  -6   2  -3   62.29    9.50
  -6   2  -3   46.70   10.20
  -6   2  -3   54.19    8.50
   6  -2   3   50.29    7.70
   6  -2   3   55.39    6.60
   6  -2   3   44.20    7.50
   8   1  -3  187.18   13.60
   8   1  -3  189.48   12.70
   8   1  -3  209.98   12.40
   7   1  -3  117.19   11.70
   7   1  -3   84.39    8.10
   7   1  -3  101.19    8.90
   7   1  -3  114.19    8.70
   7   1  -3  102.79   12.20
   7   1  -3  105.89   10.30
  -7  -1   3  108.89   10.20
   6   1  -3  751.12   30.60
   6   1  -3  710.83   32.70
   6   1  -3  733.63   30.80
   6   1  -3  737.63   32.20
   6   1  -3  730.93   31.80
  -6  -1   3  712.93   30.70
  -6  -1   3  705.23   31.90
   5   1  -3  179.38   11.00
   5   1  -3  166.18    8.40
   5   1  -3  171.38   10.00
   5   1  -3  165.18   10.10
   5   1  -3  171.08    8.80
  -5  -1   3  165.88    8.60
  -5  -1   3  171.48   10.10
   4   1  -3 2504.65   99.79
   4   1  -3 2530.95  100.39
   4   1  -3 2461.05   99.49
  -4  -1   3 2433.36  100.49
  -4  -1   3 2432.66   99.59
  -4  -1   3 2376.26   99.79
  -4  -1   3 2448.56   99.59
  -4  -1   3 2512.15   99.59
   3   1  -3  200.38    8.60
   3   1  -3  193.98    9.60
   3   1  -3  193.38    9.20
   3   1  -3  193.68    9.00
  -3  -1   3  183.48    9.70
  -3  -1   3  196.28    9.00
  -3  -1   3  210.08    9.30
  -3  -1   3  191.78    8.60
  -3  -1   3  195.08    8.70
  -3  -1   3  198.28    9.10
   2   1  -3  194.08    9.00
   2   1  -3  195.78    9.30
   2   1  -3  191.38    8.30
   2   1  -3  202.18    9.30
  -2  -1   3  192.68    8.80
  -2  -1   3  197.68    9.10
  -2  -1   3  185.18    9.20
  -2  -1   3  186.18    8.30
  -2  -1   3  211.68    9.30
   1   1  -3 1667.43   64.59
   1   1  -3 1508.45   64.29
   1   1  -3 1592.34   64.19
   1   1  -3 1548.65   63.99
  -1  -1   3 1615.04   63.79
  -1  -1   3 1561.54   64.39
  -1  -1   3 1496.05   64.19
  -1  -1   3 1650.53   64.49
   0   1  -3  744.63   30.00
   0   1  -3  686.53   29.90
   0   1  -3  704.73   29.30
   0  -1   3  694.63   29.40
   0  -1   3  739.43   29.90
   0  -1   3  739.73   30.00
  -1   1  -3 4157.58  173.58
  -1   1  -3 4190.48  172.88
  -1   1  -3 4088.29  173.68
   1  -1   3 4515.75  173.68
   1  -1   3 4557.94  173.78
  -2   1  -3 1592.94   68.19
  -2   1  -3 1652.13   68.09
  -2   1  -3 1630.24   68.09
   2  -1   3 1797.02   68.29
  -3   1  -3   89.09    6.00
  -3   1  -3   93.19    5.70
  -3   1  -3   81.79    6.30
  -3   1  -3   86.29    5.70
   3  -1   3   98.49    6.00
   3  -1   3   88.69    5.60
  -4   1  -3 1395.86   56.29
  -4   1  -3 1338.97   56.29
  -4   1  -3 1365.96   56.59
  -4   1  -3 1333.37   55.89
   4  -1   3 1359.66   55.99
   4  -1   3 1349.16   56.29
   4  -1   3 1337.77   55.79
   4  -1   3 1383.16   56.19
  -5   1  -3  695.23   30.70
  -5   1  -3  699.33   30.20
  -5   1  -3  712.73   31.20
  -5   1  -3  740.03   31.70
   5  -1   3  709.63   30.50
   5  -1   3  695.33   30.50
   5  -1   3  720.73   30.10
  -6   1  -3  142.59   11.60
  -6   1  -3  134.09    8.60
  -6   1  -3  132.29   10.50
   6  -1   3  157.18    9.60
   6  -1   3  140.99    9.30
   6  -1   3  125.89    8.30
  -7   1  -3   99.29   10.80
  -7   1  -3  125.89   12.40
  -7   1  -3  104.29   12.90
   7  -1   3  121.59   10.60
   7  -1   3  113.49    8.00
   7   0  -3  314.77   15.20
   7   0  -3  317.07   15.40
  -7   0   3  290.97   16.60
   6   0  -3  185.58    9.80
   6   0  -3  184.18   12.00
   6   0  -3  172.18    9.70
   6   0  -3  165.58   12.30
  -6   0   3  174.08   11.10
   5   0  -3  597.74   25.20
   5   0  -3  601.64   25.20
   5   0  -3  616.14   26.70
   5   0  -3  591.94   26.80
   5   0  -3  623.04   26.20
  -5   0   3  584.24   26.20
  -5   0   3  582.44   25.10
  -5   0   3  574.84   25.40
   4   0  -3  348.07   14.90
   4   0  -3  352.36   15.80
   4   0  -3  368.56   16.50
   4   0  -3  352.36   15.20
   4   0  -3  325.17   14.80
   4   0  -3  350.36   15.00
  -4   0   3  344.47   16.00
  -4   0   3  350.26   15.10
  -4   0   3  334.57   14.80
  -4   0   3  340.37   14.80
   3   0  -3 2593.84   99.49
   3   0  -3 2421.46   99.29
   3   0  -3 2549.34   99.69
   3   0  -3 2546.45   99.09
   3   0  -3 2521.85  100.09
  -3   0   3 2124.89   99.39
  -3   0   3 2387.66   98.89
  -3   0   3 2440.16   99.09
  -3   0   3 2509.75   99.29
  -3   0   3 2471.05   99.09
  -3   0   3 2413.76   99.69
   2   0  -3  975.60   40.10
   2   0  -3  964.50   39.30
   2   0  -3  977.80   39.90
   2   0  -3  968.60   39.90
   2   0  -3 1002.40   39.90
  -2   0   3  912.41   39.10
  -2   0   3  936.41   39.90
  -2   0   3  989.40   39.90
  -2   0   3 1016.50   39.90
  -2   0   3  949.31   39.30
  -2   0   3  952.30   39.40
   1   0  -3  543.25   23.60
   1   0  -3  567.44   23.00
   1   0  -3  553.24   23.60
  -1   0   3  537.15   23.40
  -1   0   3  564.64   23.00
  -1   0   3  572.24   23.60
  -1   0   3  590.04   23.70
   0   0  -3    5.10    1.60
   0   0  -3    5.20    1.60
   0   0   3    8.10    1.70
   0   0   3    5.40    1.40
  -1   0  -3   45.20    3.50
  -1   0  -3   38.40    3.50
  -1   0  -3   43.70    2.40
   1   0   3   43.50    3.50
   1   0   3   43.00    3.40
  -2   0  -3 2023.00   84.09
  -2   0  -3 2052.19   84.09
  -2   0  -3 2041.70   84.19
   2   0   3 2245.38   84.29
   2   0   3 1987.70   83.99
  -3   0  -3 1330.57   55.69
  -3   0  -3 1323.47   55.79
  -3   0  -3 1422.96   56.09
  -3   0  -3 1338.07   56.09
   3   0   3 1399.16   55.99
  -4   0  -3 1706.13   66.29
  -4   0  -3 1636.84   66.69
  -4   0  -3 1561.14   66.19
  -4   0  -3 1586.14   65.89
   4   0   3 1588.24   65.79
   4   0   3 1620.74   66.19
   4   0   3 1590.14   66.29
  -5   0  -3   62.49    6.30
  -5   0  -3   50.29    7.30
  -5   0  -3   56.09    5.30
  -5   0  -3   61.79    5.90
   5   0   3   52.79    8.40
   5   0   3   61.69    5.60
   5   0   3   57.59    6.00
   5   0   3   65.69    5.00
  -6   0  -3   87.69    9.50
  -6   0  -3   82.69    8.40
  -6   0  -3   86.59    6.50
  -6   0  -3   81.79    7.60
   6   0   3   79.99    5.90
   6   0   3   82.29    7.60
   6   0   3   79.29    7.00
  -7   0  -3  317.27   18.00
  -7   0  -3  330.17   18.80
   7   0   3  347.97   17.00
   7  -1  -3  337.27   16.20
   7  -1  -3  303.17   15.40
  -7   1   3  311.67   18.80
  -7   1   3  308.67   16.90
   6  -1  -3  438.56   19.50
   6  -1  -3  430.36   21.30
   6  -1  -3  432.26   18.90
  -6   1   3  424.16   21.50
  -6   1   3  424.76   20.40
   5  -1  -3 1009.90   41.50
   5  -1  -3  976.00   39.70
   5  -1  -3 1021.30   40.20
   5  -1  -3  984.00   41.40
   5  -1  -3  990.00   40.20
   5  -1  -3 1003.10   39.80
  -5   1   3  823.22   40.10
  -5   1   3  985.80   41.80
  -5   1   3  893.51   39.70
  -5   1   3  957.20   40.80
  -5   1   3  979.80   40.30
   4  -1  -3  155.98    7.60
   4  -1  -3  156.78    7.80
   4  -1  -3  165.18    8.20
   4  -1  -3  153.08    7.30
   4  -1  -3  158.78    9.10
   4  -1  -3  151.58    9.10
  -4   1   3  152.18    7.90
  -4   1   3  148.49    8.60
  -4   1   3  156.08    7.50
  -4   1   3  147.59    9.10
  -4   1   3  135.29    8.00
   3  -1  -3 1095.49   44.50
   3  -1  -3 1066.29   45.30
   3  -1  -3 1092.89   44.90
   3  -1  -3 1070.89   44.60
  -3   1   3 1069.59   44.50
  -3   1   3 1065.59   45.10
  -3   1   3 1118.19   44.70
  -3   1   3 1200.78   45.00
  -3   1   3 1015.90   45.30
   2  -1  -3   73.99    4.70
   2  -1  -3   68.89    4.70
   2  -1  -3   73.89    4.10
   2  -1  -3   76.89    4.50
  -2   1   3   73.09    4.90
  -2   1   3   75.29    4.00
  -2   1   3   77.89    4.70
  -2   1   3   80.09    4.50
  -2   1   3   66.79    4.70
   1  -1  -3   22.10    2.10
   1  -1  -3   22.30    2.60
   1  -1  -3   20.90    2.80
   1  -1  -3   23.00    2.80
  -1   1   3   26.30    2.80
  -1   1   3   23.10    2.20
  -1   1   3   23.80    2.60
  -1   1   3   23.20    2.50
  -1  -1  -3   41.50    2.80
  -1  -1  -3   47.40    3.50
  -1  -1  -3   43.00    3.50
   1   1   3   44.10    3.40
   1   1   3   45.00    3.50
  -2  -1  -3  355.86   15.30
  -2  -1  -3  351.26   15.70
  -2  -1  -3  362.56   15.80
   2   1   3  355.86   15.50
   2   1   3  375.06   15.70
  -3  -1  -3 1822.32   75.29
  -3  -1  -3 1927.41   75.39
  -3  -1  -3 1808.12   75.49
  -3  -1  -3 1782.92   75.09
  -3  -1  -3 1856.21   75.59
   3   1   3 1845.62   75.19
   3   1   3 1916.61   75.49
  -4  -1  -3  491.55   21.50
  -4  -1  -3  514.65   21.70
  -4  -1  -3  504.35   21.70
  -4  -1  -3  503.55   21.30
  -4  -1  -3  527.85   22.10
   4   1   3  491.85   21.50
   4   1   3  464.75   21.70
  -5  -1  -3  707.33   30.60
  -5  -1  -3  731.03   31.40
  -5  -1  -3  728.13   31.30
  -5  -1  -3  772.82   32.00
   5   1   3  699.73   30.80
   5   1   3  751.32   30.70
   5   1   3  730.33   30.40
   5   1   3  743.93   31.50
  -6  -1  -3  534.95   24.60
  -6  -1  -3  528.35   23.90
   6   1   3  524.15   23.40
   6   1   3  509.15   23.90
  -7  -1  -3  873.21   38.30
  -7  -1  -3  902.11   39.00
   7   1   3  888.51   37.50
   7   1   3  805.02   37.70
   7  -2  -3  312.07   16.20
  -7   2   3  274.27   18.60
  -7   2   3  313.67   16.40
   6  -2  -3    5.00    3.80
   6  -2  -3   12.30    6.10
   6  -2  -3    7.10    3.10
   6  -2  -3    8.10    3.90
  -6   2   3   13.40    4.70
  -6   2   3    9.90    5.60
  -6   2   3    3.90    3.60
  -6   2   3    5.70    3.10
   5  -2  -3  142.39    8.00
   5  -2  -3  147.39    8.50
   5  -2  -3  145.99    8.60
  -5   2   3  139.39   10.10
  -5   2   3  142.89    8.50
  -5   2   3  139.79    7.80
  -5   2   3  142.29    9.10
  -5   2   3  133.89    8.60
   4  -2  -3  627.24   25.90
   4  -2  -3  620.64   26.00
   4  -2  -3  629.34   26.90
   4  -2  -3  623.94   26.30
   4  -2  -3  625.74   27.00
  -4   2   3  624.74   27.20
  -4   2   3  620.14   26.30
  -4   2   3  629.74   26.50
  -4   2   3  605.94   26.10
  -4   2   3  532.95   25.80
   3  -2  -3 1145.29   47.50
   3  -2  -3 1185.28   48.20
   3  -2  -3 1145.49   47.80
   3  -2  -3 1145.69   47.40
  -3   2   3 1144.99   47.80
  -3   2   3 1136.19   48.20
  -3   2   3 1182.08   47.50
  -3   2   3 1156.68   47.50
  -3   2   3 1170.58   47.80
   2  -2  -3 1428.46   58.79
   2  -2  -3 1450.45   58.39
   2  -2  -3 1479.75   58.59
   2  -2  -3 1407.76   58.79
  -2   2   3 1392.16   58.89
  -2   2   3 1418.36   58.69
  -2   2   3 1519.75   58.59
  -2   2   3 1415.66   58.39
  -2   2   3 1402.36   58.79
   1  -2  -3  474.95   20.20
   1  -2  -3  474.75   19.70
   1  -2  -3  478.25   20.10
   1  -2  -3  471.15   19.90
  -1   2   3  456.65   19.90
  -1   2   3  478.55   20.20
  -1   2   3  472.15   19.70
  -1   2   3  476.75   20.00
   0  -2  -3  149.19    6.70
   0  -2  -3  147.49    6.50
   0  -2  -3  150.88    7.40
   0  -2  -3  156.48    6.90
   0  -2  -3  156.48    7.50
   0   2   3  150.08    7.40
   0   2   3  159.98    6.90
   0   2   3  137.39    6.70
   0   2   3  165.28    7.40
  -1  -2  -3 1131.39   48.00
  -1  -2  -3 1151.68   47.90
  -1  -2  -3 1158.38   48.60
  -1  -2  -3 1224.98   48.70
   1   2   3 1216.28   48.60
   1   2   3 1222.48   48.70
  -2  -2  -3 1182.18   51.59
  -2  -2  -3 1240.78   51.59
  -2  -2  -3 1318.47   51.99
  -2  -2  -3 1247.18   51.99
   2   2   3 1296.37   51.89
   2   2   3 1315.87   51.99
  -3  -2  -3 1797.72   70.99
  -3  -2  -3 1689.93   70.89
  -3  -2  -3 1614.84   70.79
  -3  -2  -3 1773.72   70.89
   3   2   3 1784.02   70.89
   3   2   3 1771.72   70.79
  -4  -2  -3  299.67   14.20
  -4  -2  -3  322.07   14.70
  -4  -2  -3  317.77   14.30
  -4  -2  -3  332.77   14.60
  -4  -2  -3  331.37   15.00
   4   2   3  336.77   14.10
   4   2   3  309.57   13.90
   4   2   3  327.87   14.60
   4   2   3  335.47   14.40
  -5  -2  -3 1238.68   52.49
  -5  -2  -3 1254.77   52.29
  -5  -2  -3 1317.27   52.89
  -5  -2  -3 1300.17   52.09
   5   2   3 1240.58   51.79
   5   2   3 1264.47   52.49
   5   2   3 1245.78   51.49
   5   2   3 1246.18   52.09
  -6  -2  -3  131.79   10.20
  -6  -2  -3  129.49    9.40
  -6  -2  -3  133.09    8.90
   6   2   3  132.59    8.60
   6   2   3  128.99    8.40
   6   2   3  133.29    9.20
   6   2   3  122.89    9.10
  -7  -2  -3  119.09   11.30
  -7  -2  -3   98.59    9.80
   7   2   3   97.69    8.40
   7   2   3  104.99   10.10
   7   2   3  112.69   10.10
   7   2   3  121.69    9.10
   8   2   3  357.76   18.10
   8   2   3  325.37   17.90
   7  -3  -3  157.58   11.40
   7  -3  -3  158.98   13.20
   7  -3  -3  157.28   12.20
  -7   3   3  153.38   10.80
  -7   3   3  158.08   11.50
  -7   3   3  140.79   14.70
   6  -3  -3   38.20    7.40
   6  -3  -3   36.90    9.70
   6  -3  -3   37.90    7.70
   6  -3  -3   31.90    6.30
   6  -3  -3   36.60    6.70
  -6   3   3   43.30    9.30
  -6   3   3   33.70    7.40
  -6   3   3   27.30    6.60
   5  -3  -3 1037.80   42.50
   5  -3  -3  999.00   42.10
   5  -3  -3 1007.80   42.30
  -5   3   3 1010.70   42.50
  -5   3   3  969.90   43.70
  -5   3   3 1017.00   42.10
  -5   3   3 1004.20   42.50
   4  -3  -3  764.52   31.10
   4  -3  -3  729.53   31.50
   4  -3  -3  722.13   31.60
   4  -3  -3  715.73   30.70
   4  -3  -3  712.63   30.70
  -4   3   3  748.83   31.10
  -4   3   3  739.43   30.70
  -4   3   3  704.53   31.80
  -4   3   3  730.53   31.10
  -4   3   3  693.03   30.80
   3  -3  -3   -1.00    2.80
   3  -3  -3    3.80    3.00
   3  -3  -3    5.30    2.40
   3  -3  -3    0.50    2.30
   3  -3  -3    5.10    2.30
  -3   3   3    3.30    2.80
  -3   3   3    4.30    2.00
  -3   3   3    2.80    2.10
  -3   3   3    6.00    2.10
  -3   3   3    4.30    2.70
   2  -3  -3  643.44   28.10
   2  -3  -3  666.33   27.60
   2  -3  -3  640.24   27.80
   2  -3  -3  668.83   28.00
  -2   3   3  697.13   27.90
  -2   3   3  690.43   28.10
  -2   3   3  644.84   28.10
  -2   3   3  652.63   27.60
   1  -3  -3 3555.44  141.69
   1  -3  -3 3476.05  141.29
   1  -3  -3 3420.36  141.79
  -1   3   3 3504.25  141.29
  -1   3   3 3567.24  141.59
  -1   3   3 3584.54  141.79
  -1   3   3 3415.86  141.59
   0  -3  -3  347.47   14.50
   0  -3  -3  344.57   15.20
   0  -3  -3  357.26   14.80
   0  -3  -3  331.87   14.90
   0  -3  -3  352.96   15.30
   0   3   3  323.27   14.70
   0   3   3  361.86   14.80
   0   3   3  364.26   15.20
   0   3   3  365.46   15.30
   0   3   3  341.17   14.40
  -1  -3  -3  688.13   28.00
  -1  -3  -3  660.93   28.00
  -1  -3  -3  679.83   28.50
  -1  -3  -3  680.83   28.60
   1   3   3  654.93   28.50
   1   3   3  708.23   28.20
   1   3   3  705.93   28.50
  -2  -3  -3  421.26   19.10
  -2  -3  -3  487.75   20.00
  -2  -3  -3  468.25   19.60
  -2  -3  -3  477.15   19.90
   2   3   3  493.45   20.00
   2   3   3  485.85   19.80
   2   3   3  428.16   19.20
  -3  -3  -3  784.72   33.30
  -3  -3  -3  830.92   33.60
  -3  -3  -3  770.32   32.60
  -3  -3  -3  810.62   33.40
   3   3   3  834.62   33.50
   3   3   3  842.92   33.30
   3   3   3  752.02   32.60
  -4  -3  -3 2239.58   89.99
  -4  -3  -3 2226.08   90.29
  -4  -3  -3 2139.09   89.99
  -4  -3  -3 2241.98   90.39
   4   3   3 2150.58   89.59
   4   3   3 2243.08   89.89
   4   3   3 2203.88   90.29
   4   3   3 2279.47   89.79
  -5  -3  -3  118.19    7.90
  -5  -3  -3  126.39    8.20
   5   3   3  117.09    7.70
   5   3   3  112.79    6.60
   5   3   3  116.59    7.40
  -6  -3  -3 1239.58   53.19
  -6  -3  -3 1347.47   53.69
   6   3   3 1249.07   52.99
   6   3   3 1265.97   52.49
   6   3   3 1255.57   53.19
   6   3   3 1262.17   52.89
  -7  -3  -3   25.60    5.60
  -7  -3  -3   17.30    6.20
   7   3   3   31.00    7.30
   7   3   3   18.00    5.20
   7   3   3   12.20    4.60
   7   3   3   23.90    4.60
   7   3   3   18.70    5.50
  -8  -3  -3  259.37   15.80
   8   3   3  237.78   15.20
   8   3   3  273.27   14.90
   6  -4  -3   14.40    5.70
   6  -4  -3   25.00    5.50
   6  -4  -3   17.80    5.00
   6  -4  -3   20.60    5.40
  -6   4   3   15.10    4.50
  -6   4   3   17.70    5.20
  -6   4   3   24.50    6.80
  -6   4   3   13.30    4.50
   5  -4  -3  130.19    9.30
   5  -4  -3  124.89   10.60
   5  -4  -3  123.99    9.60
   5  -4  -3  131.29    9.10
   5  -4  -3  118.19    9.40
  -5   4   3  127.69   10.50
  -5   4   3  137.79    9.30
  -5   4   3  145.39    9.30
  -5   4   3  137.09    9.30
   4  -4  -3  111.69    8.20
   4  -4  -3  113.09    7.60
   4  -4  -3  108.09    8.80
   4  -4  -3  103.69    7.90
   4  -4  -3  114.89    7.90
  -4   4   3  112.39    7.40
  -4   4   3  110.89    7.90
  -4   4   3  108.99    8.70
  -4   4   3  107.29    7.50
  -4   4   3  113.19    7.70
   3  -4  -3 2137.89   87.79
   3  -4  -3 2141.49   87.29
   3  -4  -3 2217.88   87.49
   3  -4  -3 2110.69   87.59
   3  -4  -3 2121.09   87.09
  -3   4   3 2064.99   87.89
  -3   4   3 2134.09   87.39
  -3   4   3 2202.28   87.59
  -3   4   3 2126.39   87.19
  -3   4   3 2135.39   87.29
   2  -4  -3  763.72   31.60
   2  -4  -3  721.13   32.00
   2  -4  -3  793.42   32.00
   2  -4  -3  759.72   31.80
  -2   4   3  804.02   32.10
  -2   4   3  742.93   32.10
  -2   4   3  746.03   31.50
  -2   4   3  729.93   31.80
   1  -4  -3  162.78    7.70
   1  -4  -3  153.88    8.20
   1  -4  -3  153.58    8.20
   1  -4  -3  150.88    8.00
  -1   4   3  164.68    7.70
  -1   4   3  168.38    8.10
  -1   4   3  163.38    8.20
  -1   4   3  155.98    8.00
   0  -4  -3  217.08   10.20
   0  -4  -3  216.88    9.40
   0  -4  -3  210.08    9.90
   0  -4  -3  212.18    9.60
   0  -4  -3  212.28   10.20
   0   4   3  202.08    9.60
   0   4   3  210.98    9.20
   0   4   3  225.78   10.10
   0   4   3  223.58   10.20
   0   4   3  221.58    9.70
  -1  -4  -3    1.10    1.70
  -1  -4  -3    1.60    1.40
  -1  -4  -3    3.30    1.70
  -1  -4  -3    2.80    1.80
  -1  -4  -3    1.10    1.50
   1   4   3    3.90    1.60
   1   4   3    1.40    1.50
   1   4   3    2.40    1.80
   1   4   3    1.30    1.60
   1   4   3    1.60    1.20
  -2  -4  -3  683.03   27.90
  -2  -4  -3  685.73   28.20
  -2  -4  -3  625.94   27.60
  -2  -4  -3  660.73   28.30
   2   4   3  748.43   27.90
   2   4   3  629.14   27.70
   2   4   3  677.93   28.30
   2   4   3  661.63   28.00
   2   4   3  680.43   28.10
  -3  -4  -3 1574.14   62.69
  -3  -4  -3 1454.25   62.19
  -3  -4  -3 1526.75   62.49
  -3  -4  -3 1538.55   62.89
  -3  -4  -3 1557.74   62.79
   3   4   3 1477.05   62.19
   3   4   3 1612.64   62.99
   3   4   3 1549.64   62.59
   3   4   3 1529.65   62.79
  -4  -4  -3 2070.79   91.09
  -4  -4  -3 2365.86   90.89
  -4  -4  -3 2294.87   91.19
  -4  -4  -3 2233.08   90.39
  -4  -4  -3 2279.77   91.29
   4   4   3 2128.59   90.39
   4   4   3 2231.38   90.69
   4   4   3 2318.97   91.19
   4   4   3 2232.08   90.69
  -5  -4  -3   97.49    7.30
  -5  -4  -3  101.69    7.30
  -5  -4  -3  105.49    5.80
   5   4   3   97.99    6.10
   5   4   3   94.89    5.80
   5   4   3   95.89    5.50
   5   4   3   96.29    7.30
  -6  -4  -3  323.07   15.60
  -6  -4  -3  301.17   15.50
   6   4   3  302.27   14.90
   6   4   3  297.37   15.30
   6   4   3  298.27   14.30
   6   4   3  315.77   15.40
  -7  -4  -3   64.49    9.20
  -7  -4  -3   61.79    8.90
   7   4   3   69.19    8.40
   7   4   3   64.69    7.40
   7   4   3   51.59    7.20
   7   4   3   61.59    8.90
   7   4   3   52.29    8.20
  -8  -4  -3    8.60    6.10
   8   4   3    6.00    5.10
   8   4   3    8.60    6.30
   8   4   3   24.20    6.70
   6  -5  -3  219.28   13.80
   6  -5  -3  225.48   14.50
   6  -5  -3  197.78   14.10
  -6   5   3  229.88   16.00
  -6   5   3  222.28   13.20
   5  -5  -3  340.67   16.90
   5  -5  -3  330.07   17.20
   5  -5  -3  329.57   16.90
   5  -5  -3  299.67   17.80
   5  -5  -3  339.07   16.70
  -5   5   3  340.17   16.50
  -5   5   3  343.77   17.10
  -5   5   3  326.97   18.00
  -5   5   3  326.37   16.70
   4  -5  -3   26.90    6.80
   4  -5  -3   23.30    4.50
   4  -5  -3   20.80    4.40
   4  -5  -3   26.10    6.10
   4  -5  -3   21.20    4.70
  -4   5   3   23.80    5.10
  -4   5   3   20.10    4.10
  -4   5   3   31.20    6.20
   3  -5  -3  113.89    8.00
   3  -5  -3  119.29    7.30
   3  -5  -3  117.49    8.10
   3  -5  -3  100.19    7.70
   3  -5  -3  105.99    7.70
  -3   5   3  105.69    7.50
  -3   5   3  101.19    7.70
  -3   5   3  108.19    7.40
  -3   5   3   99.19    7.90
   2  -5  -3  157.58    9.10
   2  -5  -3  151.88    9.00
   2  -5  -3  163.98    9.20
   2  -5  -3  170.08    9.00
   2  -5  -3  165.28    8.50
  -2   5   3  158.98    9.10
  -2   5   3  155.48    8.70
  -2   5   3  154.28    8.40
  -2   5   3  176.28    9.10
   1  -5  -3  706.83   30.40
   1  -5  -3  710.83   30.00
   1  -5  -3  702.23   29.80
   1  -5  -3  700.03   30.30
  -1   5   3  756.52   30.50
  -1   5   3  684.43   30.10
  -1   5   3  722.93   30.20
  -1   5   3  721.63   29.80
   0  -5  -3 1924.71   78.49
   0  -5  -3 1958.10   79.09
   0  -5  -3 1858.01   78.19
   0  -5  -3 1855.51   79.09
   0  -5  -3 1969.30   78.69
   0   5   3 1937.21   78.49
   0   5   3 1957.00   79.19
   0   5   3 2015.80   79.09
  -1  -5  -3  547.95   23.30
  -1  -5  -3  518.15   22.70
  -1  -5  -3  518.45   22.50
  -1  -5  -3  552.24   22.70
  -1  -5  -3  549.25   22.60
  -1  -5  -3  534.25   23.10
   1   5   3  565.54   22.60
   1   5   3  505.65   22.70
   1   5   3  550.04   23.30
   1   5   3  538.15   22.50
   1   5   3  560.44   23.20
  -2  -5  -3 1080.89   45.10
  -2  -5  -3 1056.79   44.60
  -2  -5  -3 1059.19   44.80
  -2  -5  -3 1108.19   45.30
   2   5   3 1093.89   45.00
   2   5   3 1166.68   44.70
   2   5   3 1099.49   45.30
   2   5   3 1075.49   44.80
   2   5   3 1077.39   44.70
  -3  -5  -3  661.03   27.30
  -3  -5  -3  645.94   27.30
  -3  -5  -3  633.54   26.80
  -3  -5  -3  628.14   26.80
  -3  -5  -3  639.64   27.50
   3   5   3  616.44   26.80
   3   5   3  668.33   27.50
   3   5   3  645.64   27.30
   3   5   3  691.03   27.00
   3   5   3  638.04   27.20
  -4  -5  -3   41.70    4.80
  -4  -5  -3   43.40    4.40
  -4  -5  -3   44.40    4.00
  -4  -5  -3   41.90    4.90
  -4  -5  -3   48.50    5.20
   4   5   3   43.50    3.90
   4   5   3   49.00    5.20
   4   5   3   46.50    4.20
   4   5   3   49.80    4.80
   4   5   3   40.80    4.40
  -5  -5  -3  828.62   33.80
  -5  -5  -3  834.52   33.00
  -5  -5  -3  696.63   33.40
  -5  -5  -3  813.62   32.90
  -5  -5  -3  798.02   34.00
   5   5   3  786.12   32.80
   5   5   3  792.52   34.00
   5   5   3  759.92   32.70
   5   5   3  828.42   33.40
   5   5   3  815.42   33.40
  -6  -5  -3   34.20    6.90
  -6  -5  -3   34.90    6.70
   6   5   3   24.00    5.60
   6   5   3   29.80    4.20
   6   5   3   25.60    6.60
  -7  -5  -3  647.64   27.40
  -7  -5  -3  570.54   27.20
   7   5   3  571.74   27.10
   7   5   3  584.14   26.10
   7   5   3  573.74   27.10
  -8  -5  -3    2.60    6.00
   8   5   3    2.70    4.90
   8   5   3   10.80    6.20
   8   5   3    5.80    7.10
   5  -6  -3  158.88   11.30
   5  -6  -3  149.79   12.10
   5  -6  -3  146.29   11.80
   5  -6  -3  156.28   12.70
  -5   6   3  144.79   12.80
  -5   6   3  167.08   11.90
  -5   6   3  156.68   10.80
   4  -6  -3  708.73   33.30
   4  -6  -3  790.42   34.40
   4  -6  -3  808.02   34.20
   4  -6  -3  757.42   33.40
  -4   6   3  854.11   34.40
  -4   6   3  750.22   33.80
  -4   6   3  741.13   34.60
  -4   6   3  776.22   33.30
   3  -6  -3   15.70    3.70
   3  -6  -3   13.90    4.10
   3  -6  -3   10.40    3.80
   3  -6  -3   16.20    4.20
   3  -6  -3   15.60    4.30
  -3   6   3   12.10    3.70
  -3   6   3   18.00    4.70
   2  -6  -3 1186.68   48.80
   2  -6  -3 1011.90   48.20
   2  -6  -3 1215.78   48.20
   2  -6  -3 1157.68   48.90
   2  -6  -3 1198.28   48.30
  -2   6   3 1194.18   48.90
  -2   6   3 1178.48   48.80
  -2   6   3 1140.19   48.50
   1  -6  -3   38.70    4.60
   1  -6  -3   25.90    5.10
   1  -6  -3   31.50    4.70
   1  -6  -3   37.10    5.70
   1  -6  -3   29.80    5.10
  -1   6   3   34.30    4.30
  -1   6   3   31.40    4.80
  -1   6   3   23.70    4.90
  -1   6   3   32.50    4.90
   0  -6  -3 1556.84   66.09
   0  -6  -3 1637.44   66.59
   0  -6  -3 1620.94   67.09
   0  -6  -3 1637.04   66.49
   0  -6  -3 1644.64   67.29
   0   6   3 1640.44   67.09
   0   6   3 1647.04   66.49
   0   6   3 1574.24   66.69
   0   6   3 1709.93   67.29
  -1  -6  -3 2796.82  111.19
  -1  -6  -3 2724.43  111.69
  -1  -6  -3 2787.62  111.19
  -1  -6  -3 2655.93  110.99
  -1  -6  -3 2725.63  111.89
  -1  -6  -3 2771.02  111.19
   1   6   3 2669.33  111.29
   1   6   3 2817.92  111.09
   1   6   3 2709.03  110.99
   1   6   3 2774.12  111.89
   1   6   3 2759.32  111.59
  -2  -6  -3  126.29    7.00
  -2  -6  -3  119.79    6.80
  -2  -6  -3  118.69    6.70
  -2  -6  -3  118.49    7.30
  -2  -6  -3  116.89    7.20
   2   6   3  117.39    6.70
   2   6   3  122.59    7.20
   2   6   3  117.99    7.00
   2   6   3  125.49    7.20
   2   6   3  131.09    6.50
  -3  -6  -3 1436.86   58.69
  -3  -6  -3 1419.16   58.39
  -3  -6  -3 1398.86   57.99
   3   6   3 1413.96   58.69
   3   6   3 1405.86   58.39
   3   6   3 1418.16   58.39
   3   6   3 1497.55   57.99
   3   6   3 1373.36   57.99
  -4  -6  -3   60.39    5.60
  -4  -6  -3   61.19    6.00
  -4  -6  -3   67.59    5.50
  -4  -6  -3   59.79    5.10
   4   6   3   68.89    5.30
   4   6   3   60.69    5.90
   4   6   3   61.79    5.30
   4   6   3   67.89    5.00
   4   6   3   70.29    5.60
  -5  -6  -3  758.22   30.30
  -5  -6  -3  709.53   31.00
  -5  -6  -3  736.83   30.00
  -5  -6  -3  732.73   29.90
  -5  -6  -3  615.54   30.30
   5   6   3  757.82   30.60
   5   6   3  696.73   30.80
   5   6   3  724.53   30.40
   5   6   3  688.93   29.70
   5   6   3  699.43   29.70
  -6  -6  -3  131.99    9.00
  -6  -6  -3  106.09    9.30
  -6  -6  -3  121.89    7.80
   6   6   3  121.29    8.70
   6   6   3  120.79    7.20
  -7  -6  -3    3.10    5.30
   7   6   3   -2.60    4.60
   7   6   3    1.30    5.40
   7   6   3    5.70    5.20
   7   6   3    3.80    3.20
  -8  -6  -3  576.94   28.00
   8   6   3  568.44   24.80
   8   6   3  571.54   27.00
   8   6   3  606.04   26.10
   4  -7  -3  210.98   13.60
   4  -7  -3  232.48   14.30
   4  -7  -3  243.08   14.70
   4  -7  -3  224.48   13.20
   4  -7  -3  215.08   14.40
  -4   7   3  210.58   14.50
  -4   7   3  211.38   13.90
  -4   7   3  243.88   12.90
   3  -7  -3  107.99    8.70
   3  -7  -3   95.89    9.00
   3  -7  -3   99.39    9.70
   3  -7  -3  105.79    9.10
   3  -7  -3  109.59   10.00
  -3   7   3   98.69    8.40
  -3   7   3  106.39    9.10
  -3   7   3  101.09    9.70
   2  -7  -3  258.77   12.70
   2  -7  -3  250.97   12.90
   2  -7  -3  246.38   12.60
   2  -7  -3  243.98   13.70
   2  -7  -3  241.68   13.60
  -2   7   3  247.68   13.40
  -2   7   3  245.88   12.60
  -2   7   3  255.07   13.50
   1  -7  -3  907.91   40.10
   1  -7  -3  936.61   39.90
   1  -7  -3  879.01   39.00
   1  -7  -3  932.81   39.20
   1  -7  -3  943.01   39.10
  -1   7   3  986.70   40.10
  -1   7   3  935.31   39.10
  -1   7   3  947.11   39.60
  -1   7   3  942.31   39.80
   0  -7  -3  527.95   22.30
   0  -7  -3  496.65   23.30
   0  -7  -3  534.95   22.60
   0  -7  -3  514.85   23.20
   0  -7  -3  512.05   21.90
   0   7   3  506.95   23.20
   0   7   3  525.75   22.30
   0   7   3  522.55   22.80
   0   7   3  516.25   23.00
  -1  -7  -3  710.73   29.60
  -1  -7  -3  680.93   29.50
  -1  -7  -3  706.53   29.90
  -1  -7  -3  706.03   29.80
  -1  -7  -3  702.43   30.40
  -1  -7  -3  693.43   30.60
   1   7   3  701.63   30.30
   1   7   3  723.63   29.50
   1   7   3  726.73   30.50
   1   7   3  698.73   30.00
  -2  -7  -3    8.60    2.60
  -2  -7  -3    1.70    2.80
  -2  -7  -3    0.70    2.80
  -2  -7  -3    5.80    3.00
  -2  -7  -3    8.60    2.90
  -2  -7  -3    5.00    2.80
   2   7   3    8.70    3.30
   2   7   3    5.50    2.70
   2   7   3    6.10    2.40
   2   7   3    3.10    2.60
   2   7   3    6.30    2.30
  -3  -7  -3  103.89    7.20
  -3  -7  -3   97.19    7.10
  -3  -7  -3   98.19    6.60
  -3  -7  -3   92.59    6.90
  -3  -7  -3   90.69    6.80
   3   7   3  106.19    7.20
   3   7   3   99.89    6.90
   3   7   3  103.59    6.00
   3   7   3  101.99    6.80
   3   7   3   93.39    6.70
  -4  -7  -3  281.87   14.30
  -4  -7  -3  313.77   14.20
  -4  -7  -3  279.37   14.30
  -4  -7  -3  293.67   13.70
   4   7   3  299.57   14.00
   4   7   3  303.97   13.40
   4   7   3  299.67   14.30
   4   7   3  298.17   14.30
   4   7   3  280.87   13.80
  -5  -7  -3    7.10    3.40
  -5  -7  -3    9.40    3.20
  -5  -7  -3    7.30    3.70
  -5  -7  -3    2.70    3.90
   5   7   3    6.60    3.20
   5   7   3   11.40    4.00
   5   7   3    9.10    3.00
   5   7   3    7.10    2.90
   5   7   3    9.80    3.60
  -6  -7  -3  903.91   37.10
  -6  -7  -3  898.81   37.20
  -6  -7  -3  866.71   38.50
   6   7   3  872.71   37.00
   6   7   3  909.21   37.60
   6   7   3  893.71   38.00
   6   7   3  852.11   36.80
   6   7   3  896.51   37.20
  -7  -7  -3   68.29    9.70
   7   7   3   68.29    7.10
   7   7   3   70.09    9.00
   7   7   3   76.19   10.80
  -8  -7  -3  232.18   15.80
   8   7   3  226.48   13.30
   8   7   3  233.78   15.10
   8   7   3  219.68   12.30
   4  -8  -3   68.09    9.80
   4  -8  -3   69.79   11.60
   3  -8  -3  607.14   29.30
   3  -8  -3  682.13   29.40
   3  -8  -3  637.74   30.60
   3  -8  -3  664.23   30.60
  -3   8   3  656.63   30.60
  -3   8   3  690.53   30.40
   2  -8  -3  371.96   17.80
   2  -8  -3  379.56   18.90
   2  -8  -3  362.36   17.30
   2  -8  -3  363.06   17.40
   2  -8  -3  363.26   18.80
  -2   8   3  382.66   18.60
  -2   8   3  369.66   18.20
  -2   8   3  349.96   17.40
  -2   8   3  318.17   18.00
   1  -8  -3   22.00    4.40
   1  -8  -3   19.60    5.10
   1  -8  -3   25.00    5.70
   1  -8  -3   11.30    4.70
   1  -8  -3   18.50    4.80
  -1   8   3   16.90    4.20
  -1   8   3   13.10    4.20
  -1   8   3   16.50    4.10
  -1   8   3   15.00    3.60
   0  -8  -3    3.10    2.60
   0  -8  -3    3.60    3.10
   0  -8  -3   -0.60    3.60
   0  -8  -3   -1.20    3.80
   0   8   3    1.00    3.40
   0   8   3    2.50    2.80
   0   8   3   -4.90    3.20
   0   8   3    3.70    3.80
  -1  -8  -3   40.90    5.80
  -1  -8  -3   33.80    6.10
  -1  -8  -3   41.60    5.10
  -1  -8  -3   34.00    6.50
  -1  -8  -3   40.60    6.60
  -1  -8  -3   43.60    5.00
   1   8   3   35.10    6.10
   1   8   3   30.40    4.70
   1   8   3   39.50    4.80
   1   8   3   40.80    6.20
  -2  -8  -3  540.75   24.10
  -2  -8  -3  553.94   23.90
  -2  -8  -3  540.65   24.00
  -2  -8  -3  549.45   24.60
  -2  -8  -3  556.54   24.90
  -2  -8  -3  563.54   23.70
   2   8   3  550.44   24.40
   2   8   3  575.44   23.70
   2   8   3  551.84   24.20
   2   8   3  550.34   24.70
   2   8   3  507.65   23.30
  -3  -8  -3  890.01   37.20
  -3  -8  -3  900.81   37.80
  -3  -8  -3  866.61   36.90
  -3  -8  -3  895.61   37.50
  -3  -8  -3  893.31   37.30
   3   8   3  877.11   37.00
   3   8   3  873.71   37.60
   3   8   3  875.01   36.30
   3   8   3  858.61   36.90
   3   8   3  846.12   37.20
  -4  -8  -3 1159.88   47.40
  -4  -8  -3 1114.99   47.70
  -4  -8  -3 1091.69   47.50
  -4  -8  -3 1131.29   47.00
   4   8   3 1155.58   47.30
   4   8   3 1123.19   47.30
   4   8   3 1127.39   47.00
   4   8   3 1134.59   46.50
  -5  -8  -3  170.28   10.10
  -5  -8  -3  174.28   11.40
  -5  -8  -3  182.58   10.40
  -5  -8  -3  161.28   10.60
   5   8   3  178.38   10.20
   5   8   3  177.68   10.70
   5   8   3  180.78   10.10
   5   8   3  175.78    9.30
  -6  -8  -3   65.09    8.20
  -6  -8  -3   86.09    9.60
  -6  -8  -3   74.39    7.90
  -6  -8  -3   64.09    7.10
   6   8   3   69.79    6.80
   6   8   3   72.89    7.50
   6   8   3   78.99    6.70
   6   8   3   82.19    9.20
   6   8   3   71.19    8.00
  -7  -8  -3   57.69    8.90
  -7  -8  -3   67.89   10.40
   7   8   3   88.79    8.20
   7   8   3   77.19   10.50
   7   8   3   77.79    7.80
   3  -9  -3    4.60    5.50
   3  -9  -3   -7.10    7.20
   3  -9  -3   -3.80    5.50
   3  -9  -3    6.40    6.50
  -3   9   3    9.20    6.90
  -3   9   3   -2.50    5.40
   2  -9  -3  140.09   10.60
   2  -9  -3  148.09    9.70
   2  -9  -3  129.19   13.30
   2  -9  -3  134.39   12.60
  -2   9   3  157.08   11.80
  -2   9   3  164.18   12.00
   1  -9  -3  178.38   13.20
   1  -9  -3  190.08   10.10
   1  -9  -3  169.98   12.00
   1  -9  -3  194.58   11.00
   1  -9  -3  169.78   12.90
  -1   9   3  174.78   12.00
  -1   9   3  188.78   11.20
  -1   9   3  200.18   12.60
  -1   9   3  191.38   12.60
   0  -9  -3  431.96   19.00
   0  -9  -3  428.06   21.10
   0  -9  -3  419.46   21.20
   0  -9  -3  423.86   19.50
   0   9   3  406.76   20.30
   0   9   3  419.66   19.40
   0   9   3  450.55   21.00
   0   9   3  437.96   20.80
  -1  -9  -3   53.19    6.30
  -1  -9  -3   53.59    8.40
  -1  -9  -3   66.19    8.40
  -1  -9  -3   76.89    7.50
  -1  -9  -3   62.39    6.40
   1   9   3   67.09    7.90
   1   9   3   62.49    7.80
   1   9   3   70.09    6.20
   1   9   3   66.89    8.00
  -2  -9  -3  397.86   18.20
  -2  -9  -3  371.76   18.20
  -2  -9  -3  394.76   19.50
  -2  -9  -3  411.16   17.90
   2   9   3  378.56   18.60
   2   9   3  394.86   17.40
   2   9   3  377.56   19.00
   2   9   3  408.66   19.20
  -3  -9  -3   30.90    6.90
  -3  -9  -3   37.80    6.90
  -3  -9  -3   34.20    7.50
   3   9   3   33.80    6.10
   3   9   3   39.50    6.80
   3   9   3   30.90    7.00
   3   9   3   30.00    5.00
   3   9   3   29.50    5.00
  -4  -9  -3    3.00    4.00
  -4  -9  -3   -0.60    4.20
  -4  -9  -3   -1.80    3.50
  -4  -9  -3    2.50    4.70
   4   9   3    4.50    2.90
   4   9   3    0.70    3.90
   4   9   3    2.40    3.80
   4   9   3   -2.10    2.90
   4   9   3    7.70    4.30
  -5  -9  -3  408.56   23.10
  -5  -9  -3  417.36   20.60
  -5  -9  -3  446.76   21.10
   5   9   3  447.26   20.30
   5   9   3  429.66   18.90
   5   9   3  415.36   20.50
   5   9   3  436.66   20.60
   5   9   3  445.56   20.00
  -6  -9  -3  209.08   13.60
  -6  -9  -3  190.28   12.70
  -6  -9  -3  216.28   12.90
   6   9   3  225.98   12.60
   6   9   3  219.38   11.10
   6   9   3  211.68   12.10
   6   9   3  219.08   12.80
  -7  -9  -3  240.08   13.20
  -7  -9  -3  213.28   15.30
   7   9   3  236.68   16.30
   7   9   3  221.78   13.30
   1 -10  -3   97.79    9.20
   1 -10  -3   80.69   11.80
   1 -10  -3   99.19   13.20
  -1  10   3  102.19   10.60
  -1  10   3   90.59   11.00
   0 -10  -3  224.48   12.70
   0 -10  -3  228.08   15.80
   0 -10  -3  228.58   15.40
   0 -10  -3  229.28   12.10
   0  10   3  207.08   14.70
   0  10   3  239.18   14.60
   0  10   3  243.68   13.00
  -1 -10  -3  273.97   13.80
  -1 -10  -3  286.67   14.90
  -1 -10  -3  256.37   16.10
  -1 -10  -3  258.17   14.70
  -1 -10  -3  274.77   16.20
  -1 -10  -3  277.07   13.90
   1  10   3  260.47   15.80
   1  10   3  271.17   15.50
   1  10   3  275.57   15.20
   1  10   3  270.87   13.70
  -2 -10  -3  198.98   13.40
  -2 -10  -3  199.58   11.80
  -2 -10  -3  202.78   11.10
  -2 -10  -3  195.28   13.60
   2  10   3  188.88   13.20
   2  10   3  204.38   12.60
   2  10   3  189.28   10.60
   2  10   3  195.38   12.60
  -3 -10  -3  735.83   32.30
  -3 -10  -3  729.73   31.20
  -3 -10  -3  696.13   31.20
  -3 -10  -3  685.23   31.10
   3  10   3  683.33   29.90
   3  10   3  696.43   31.80
   3  10   3  699.73   31.20
   3  10   3  719.33   31.80
  -4 -10  -3    7.80    5.20
  -4 -10  -3    8.80    5.20
  -4 -10  -3   13.40    5.20
  -4 -10  -3    8.30    5.50
  -4 -10  -3   39.10    8.20
   4  10   3   15.80    5.50
   4  10   3    9.10    5.00
   4  10   3    4.40    4.50
   4  10   3    8.80    3.20
   4  10   3   10.50    5.00
  -5 -10  -3  188.68   13.00
  -5 -10  -3  181.38   12.90
  -5 -10  -3  181.88   12.60
  -5 -10  -3  174.88   12.60
   5  10   3  172.68   12.40
   5  10   3  201.58   12.50
   5  10   3  171.08    9.80
   5  10   3  181.78   12.50
   5  10   3  190.68   12.30
  -6 -10  -3  -16.50    5.80
  -6 -10  -3    6.90    6.10
  -6 -10  -3    2.60    5.40
  -6 -10  -3   -2.40    5.20
   6  10   3   -2.10    6.20
   6  10   3    2.00    5.70
   6  10   3   -8.20    5.20
   0 -11  -3  126.79    9.80
   0 -11  -3  122.89   10.30
   0 -11  -3  150.38   11.20
   0 -11  -3  122.49   13.90
   0  11   3   98.99   11.90
   0  11   3  114.69   12.70
  -1 -11  -3  810.32   34.60
  -1 -11  -3  791.92   36.90
  -1 -11  -3  793.22   34.40
  -1 -11  -3  815.62   35.20
   1  11   3  772.82   34.50
   1  11   3  822.42   35.80
   1  11   3  763.12   36.50
   1  11   3  790.42   36.40
  -2 -11  -3    9.70    5.10
  -2 -11  -3   12.70    5.40
  -2 -11  -3    1.30    6.30
  -2 -11  -3    8.90    4.80
   2  11   3    6.30    5.60
   2  11   3    7.50    6.00
   2  11   3   13.20    6.30
   2  11   3   10.30    4.30
  -3 -11  -3   15.20    6.80
  -3 -11  -3   17.30    5.90
  -3 -11  -3   26.00    6.00
   3  11   3   18.70    6.50
   3  11   3   20.90    6.00
   3  11   3   23.30    4.40
   3  11   3   25.50    6.80
  -4 -11  -3  188.48   13.30
  -4 -11  -3  181.38   14.60
  -4 -11  -3  217.58   13.90
   4  11   3  191.78   14.60
   4  11   3  169.68   13.80
   4  11   3  185.58   10.80
   4  11   3  205.98   14.00
  -5 -11  -3   54.09   10.50
  -5 -11  -3   39.40   10.40
   5  11   3   45.00   10.90
   5  11   3   49.30   10.30
   5  11   3   52.19   10.80
   5   9  -4  172.28   13.80
   5   9  -4  183.28   12.90
  -5  -9   4  144.29   13.80
  -5  -9   4  136.49   12.70
  -5  -9   4  161.78   12.30
   4   9  -4  113.19   12.70
   4   9  -4  113.99   14.60
   4   9  -4  110.99   11.50
   4   9  -4   96.19   12.50
  -4  -9   4  126.89   11.80
  -4  -9   4   96.79   11.00
  -4  -9   4  133.49   12.60
   3   9  -4  150.48   13.10
   3   9  -4  167.98   12.80
   3   9  -4  157.38   13.80
   3   9  -4  157.38   15.90
  -3  -9   4  148.39   12.90
  -3  -9   4  131.29   12.20
  -3  -9   4  167.88   12.90
   2   9  -4  529.95   26.20
   2   9  -4  529.75   25.50
   2   9  -4  560.94   28.40
  -2  -9   4  532.45   26.20
  -2  -9   4  564.44   26.30
   1   9  -4   80.69   10.40
   1   9  -4   98.89   14.50
   1   9  -4   69.49   10.70
   1   9  -4   87.19   11.50
  -1  -9   4   82.59   11.00
  -1  -9   4   97.69   11.40
   0   9  -4   52.09   11.40
   0   9  -4   75.79   10.90
   0  -9   4   66.09   11.40
   0  -9   4   82.29   11.70
   0  -9   4   69.39    7.70
   6   8  -4  182.48   12.00
   6   8  -4  195.98   14.80
  -6  -8   4  181.68   14.70
  -6  -8   4  175.08   12.90
   5   8  -4  229.78   13.20
   5   8  -4  217.28   14.60
   5   8  -4  201.48   14.80
  -5  -8   4  168.38   13.00
  -5  -8   4  199.98   14.40
  -5  -8   4  227.58   12.90
   4   8  -4  154.98   11.80
   4   8  -4  151.98   13.00
   4   8  -4  155.98   12.80
   4   8  -4  152.78   11.00
  -4  -8   4  132.39   11.80
  -4  -8   4  115.69   10.70
  -4  -8   4  154.68   11.20
  -4  -8   4  129.89   12.30
   3   8  -4   66.39   11.10
   3   8  -4   62.59    9.00
   3   8  -4   58.79    9.60
  -3  -8   4   53.19    9.10
  -3  -8   4   55.79   10.10
  -3  -8   4   84.39    9.20
  -3  -8   4   75.39    9.30
  -3  -8   4   46.50    8.50
   2   8  -4    5.70    5.30
   2   8  -4    3.30    4.40
   2   8  -4    0.80    5.20
   2   8  -4    5.90    5.80
  -2  -8   4    6.50    5.10
  -2  -8   4   -3.20    5.20
  -2  -8   4    3.70    4.70
  -2  -8   4    6.50    4.70
   1   8  -4  750.42   33.80
   1   8  -4  763.82   33.00
   1   8  -4  793.92   32.80
   1   8  -4  737.33   34.90
  -1  -8   4  742.53   33.90
  -1  -8   4  718.73   32.80
  -1  -8   4  780.62   33.60
  -1  -8   4  736.83   34.60
   0   8  -4  336.47   19.90
   0   8  -4  337.07   18.30
   0   8  -4  353.26   17.20
   0  -8   4  341.97   17.80
   0  -8   4  357.96   15.70
   0  -8   4  279.87   18.50
   0  -8   4  352.36   18.50
   0  -8   4  332.77   17.10
  -1   8  -4  705.43   33.90
  -1   8  -4  737.33   32.50
  -1   8  -4  760.02   32.80
   1  -8   4  723.93   32.40
   1  -8   4  750.62   33.90
   1  -8   4  763.82   32.00
   6   7  -4   18.20    5.90
   6   7  -4   13.60    4.40
   6   7  -4   23.30    6.60
   6   7  -4   21.90    5.90
  -6  -7   4   15.20    5.40
  -6  -7   4   27.70    6.50
  -6  -7   4   16.70    6.00
  -6  -7   4   24.30    6.10
   5   7  -4   16.70    5.30
   5   7  -4   12.20    6.90
   5   7  -4   23.00    6.00
   5   7  -4    8.30    4.10
  -5  -7   4   18.40    4.30
  -5  -7   4   16.10    4.80
  -5  -7   4   16.30    5.50
  -5  -7   4   12.10    5.60
   4   7  -4  731.53   31.70
   4   7  -4  712.83   30.80
   4   7  -4  727.93   31.10
  -4  -7   4  715.93   31.10
  -4  -7   4  715.63   31.50
  -4  -7   4  725.13   31.80
  -4  -7   4  600.94   30.70
   3   7  -4  789.72   33.60
   3   7  -4  756.12   33.00
   3   7  -4  732.73   32.60
   3   7  -4  766.82   32.60
  -3  -7   4  756.32   32.40
  -3  -7   4  787.72   33.00
  -3  -7   4  766.42   32.90
  -3  -7   4  624.64   32.20
   2   7  -4  285.47   15.00
   2   7  -4  283.57   14.90
   2   7  -4  295.17   16.10
   2   7  -4  276.47   15.00
  -2  -7   4  286.87   15.20
  -2  -7   4  294.17   15.10
  -2  -7   4  289.57   14.60
   1   7  -4   82.59    8.60
   1   7  -4   90.79    8.80
   1   7  -4  101.69    8.10
   1   7  -4  109.29   10.30
  -1  -7   4   88.09    8.90
  -1  -7   4   90.09    7.90
  -1  -7   4   81.19    8.60
  -1  -7   4   96.99    9.80
   0   7  -4   95.89    7.90
   0   7  -4  103.99    8.80
   0   7  -4   98.09    9.20
   0   7  -4  111.59   10.90
   0  -7   4   96.19    6.60
   0  -7   4  104.19    9.30
   0  -7   4  105.79    8.20
   0  -7   4  104.99   10.20
  -1   7  -4   11.90    5.70
  -1   7  -4    9.80    4.90
  -1   7  -4   20.40    5.20
  -1   7  -4   23.60    4.90
   1  -7   4   16.80    4.30
   1  -7   4   17.20    3.50
   1  -7   4   25.30    5.00
   1  -7   4   39.80    9.00
  -2   7  -4  631.94   28.50
  -2   7  -4  606.64   27.70
  -2   7  -4  653.33   29.30
   2  -7   4  613.64   29.00
   2  -7   4  617.74   29.90
   2  -7   4  642.54   27.50
   2  -7   4  608.84   27.20
   3  -7   4  198.78   13.80
   7   6  -4   54.29   10.80
   7   6  -4   57.79   11.10
  -7  -6   4   44.20    7.60
  -7  -6   4   52.19    8.60
   6   6  -4   83.29    9.40
   6   6  -4  125.29    8.10
   6   6  -4  120.39   13.60
   6   6  -4  113.59   10.60
   6   6  -4  127.69   10.30
  -6  -6   4  122.09    9.20
  -6  -6   4  121.39   10.60
  -6  -6   4  101.19    8.30
   5   6  -4  614.24   28.30
   5   6  -4  585.04   27.40
   5   6  -4  611.24   26.50
   5   6  -4  639.54   27.40
  -5  -6   4  630.84   26.70
  -5  -6   4  574.24   26.80
  -5  -6   4  613.04   27.70
   4   6  -4  195.68   12.10
   4   6  -4  193.48   11.60
   4   6  -4  177.28   10.70
   4   6  -4  183.78   11.40
  -4  -6   4  195.68   11.70
  -4  -6   4  163.38   10.60
  -4  -6   4  204.28   11.70
  -4  -6   4  199.08   10.90
   3   6  -4  468.65   21.20
   3   6  -4  465.55   21.50
   3   6  -4  446.86   20.70
   3   6  -4  467.05   20.90
  -3  -6   4  470.65   20.90
  -3  -6   4  445.16   21.10
  -3  -6   4  474.85   21.60
  -3  -6   4  391.36   20.30
  -3  -6   4  463.95   21.20
   2   6  -4 1086.29   52.49
   2   6  -4 1316.47   52.89
   2   6  -4 1273.97   53.09
   2   6  -4 1306.27   53.49
  -2  -6   4 1291.97   52.59
  -2  -6   4 1296.07   53.19
  -2  -6   4 1295.37   52.99
   1   6  -4  150.08    9.50
   1   6  -4  153.58    9.10
   1   6  -4  149.19   10.50
   1   6  -4  148.59    8.40
   1   6  -4  144.89    9.70
  -1  -6   4  156.18   10.30
  -1  -6   4  146.59    9.70
  -1  -6   4  149.29    8.70
   0   6  -4  720.83   32.40
   0   6  -4  739.43   32.80
   0   6  -4  750.02   31.40
   0   6  -4  734.63   31.40
   0  -6   4  756.12   32.70
   0  -6   4  747.03   30.80
   0  -6   4  745.03   31.30
   0  -6   4  700.93   32.20
  -1   6  -4  150.88    9.10
  -1   6  -4  144.59    9.40
  -1   6  -4  135.89   10.20
  -1   6  -4  136.49   10.90
   1  -6   4  155.88   10.60
   1  -6   4  136.99    8.40
   1  -6   4  138.89   10.00
   1  -6   4  144.09    8.30
  -2   6  -4  802.82   36.20
  -2   6  -4  712.93   34.90
  -2   6  -4  810.92   34.20
  -2   6  -4  835.12   35.60
   2  -6   4  784.92   33.80
   2  -6   4  882.41   36.20
   2  -6   4  822.22   34.30
   2  -6   4  780.02   35.30
  -3   6  -4   31.50    7.20
  -3   6  -4   34.70    9.30
  -3   6  -4   26.00    5.40
   3  -6   4   29.50    6.10
   3  -6   4   26.20    4.60
   3  -6   4   33.20    6.60
   3  -6   4   41.90    8.10
   7   5  -4   88.69   11.30
   7   5  -4   81.69   10.40
  -7  -5   4   87.69    8.80
  -7  -5   4   80.19   10.70
   6   5  -4   71.69    9.10
   6   5  -4   61.19    8.40
   6   5  -4   53.99   11.90
  -6  -5   4   64.59    7.30
  -6  -5   4   48.60    8.00
  -6  -5   4   62.29    8.50
   5   5  -4   70.29    7.80
   5   5  -4   70.99    7.50
   5   5  -4   62.19    6.30
  -5  -5   4   59.69    6.20
  -5  -5   4   71.69    6.70
  -5  -5   4   85.59    7.90
  -5  -5   4   62.99    7.80
   4   5  -4  742.53   32.50
   4   5  -4  773.62   31.90
   4   5  -4  771.62   32.20
   4   5  -4  767.52   32.90
  -4  -5   4  752.62   32.00
  -4  -5   4  708.63   31.80
  -4  -5   4  804.62   32.60
  -4  -5   4  683.33   32.40
   3   5  -4  655.03   28.10
   3   5  -4  632.04   27.90
   3   5  -4  662.43   27.50
   3   5  -4  632.14   27.50
  -3  -5   4  631.64   27.60
  -3  -5   4  658.33   28.00
  -3  -5   4  566.94   27.10
  -3  -5   4  651.33   27.80
   2   5  -4  368.56   16.80
   2   5  -4  362.56   16.60
   2   5  -4  355.96   17.40
   2   5  -4  339.97   16.80
  -2  -5   4  374.96   17.30
  -2  -5   4  354.16   16.90
  -2  -5   4  360.36   16.90
  -2  -5   4  373.56   16.40
   1   5  -4  356.26   15.80
   1   5  -4  338.67   16.70
   1   5  -4  349.96   15.80
   1   5  -4  327.77   16.30
  -1  -5   4  344.87   16.20
  -1  -5   4  356.46   16.60
  -1  -5   4  327.17   15.40
   0   5  -4   58.89    6.60
   0   5  -4   59.39    7.00
   0   5  -4   59.69    5.70
   0   5  -4   63.39    6.20
   0  -5   4   59.19    6.40
   0  -5   4   59.09    4.60
   0  -5   4   70.29    6.90
   0  -5   4   61.89    5.30
  -1   5  -4  355.26   17.90
  -1   5  -4  377.46   16.80
  -1   5  -4  374.26   17.30
  -1   5  -4  360.26   18.40
   1  -5   4  391.56   18.30
   1  -5   4  380.96   16.60
   1  -5   4  387.26   17.90
   1  -5   4  374.16   16.70
  -2   5  -4  111.29    8.60
  -2   5  -4  105.69    9.00
  -2   5  -4   90.09    7.40
  -2   5  -4  105.99    8.60
   2  -5   4  101.59    8.30
   2  -5   4   96.49    7.10
   2  -5   4  100.89    6.50
   2  -5   4   98.59    8.70
  -3   5  -4  925.01   40.90
  -3   5  -4  982.20   41.10
  -3   5  -4  916.31   39.60
   3  -5   4  945.71   41.50
   3  -5   4  926.81   39.20
   3  -5   4  985.10   40.90
   3  -5   4  946.21   40.10
  -4   5  -4  231.88   14.20
  -4   5  -4  243.58   15.20
  -4   5  -4  233.08   15.20
   4  -5   4  258.27   15.40
   4  -5   4  229.48   11.40
   4  -5   4  212.28   13.60
   4  -5   4  220.98   12.90
   7   4  -4  485.35   22.80
   7   4  -4  470.05   23.90
  -7  -4   4  478.65   22.00
  -7  -4   4  491.65   23.00
   6   4  -4  464.55   24.30
   6   4  -4  486.65   22.90
   6   4  -4  490.55   22.30
  -6  -4   4  475.35   21.60
  -6  -4   4  502.55   22.50
   5   4  -4  477.85   20.30
   5   4  -4  405.66   20.90
   5   4  -4  492.35   21.30
  -5  -4   4  445.26   20.50
  -5  -4   4  497.55   21.30
  -5  -4   4  483.65   21.50
  -5  -4   4  490.95   22.40
  -5  -4   4  472.95   20.70
   4   4  -4    7.10    3.50
   4   4  -4    2.80    2.80
   4   4  -4    3.70    3.20
   4   4  -4    3.90    3.90
  -4  -4   4    2.10    3.20
  -4  -4   4    6.20    3.40
  -4  -4   4    2.00    2.60
  -4  -4   4    6.00    3.80
  -4  -4   4    5.30    2.60
   3   4  -4   38.50    5.20
   3   4  -4   24.80    4.90
   3   4  -4   29.20    5.30
   3   4  -4   24.30    5.50
  -3  -4   4   24.60    4.10
  -3  -4   4   23.50    4.70
  -3  -4   4   27.70    5.20
  -3  -4   4   22.70    5.00
  -3  -4   4   35.10    5.60
   2   4  -4   14.40    3.40
   2   4  -4   11.70    3.20
   2   4  -4   10.50    3.00
   2   4  -4   10.90    3.00
  -2  -4   4   18.50    4.60
  -2  -4   4   11.80    2.60
  -2  -4   4   10.80    2.90
  -2  -4   4   12.60    3.00
  -2  -4   4   11.00    2.90
   1   4  -4  590.64   24.60
   1   4  -4  588.24   24.40
   1   4  -4  553.24   25.20
   1   4  -4  546.15   25.00
  -1  -4   4  589.44   25.10
  -1  -4   4  555.74   24.30
  -1  -4   4  595.14   25.30
   0   4  -4 1929.71   79.39
   0   4  -4 1933.81   78.59
   0   4  -4 1950.50   78.39
   0   4  -4 1859.71   79.19
   0  -4   4 2037.00   79.49
   0  -4   4 1927.21   78.19
   0  -4   4 1849.91   78.29
   0  -4   4 1934.01   79.19
  -1   4  -4 2026.60   83.19
  -1   4  -4 2020.50   83.39
  -1   4  -4 2025.90   82.09
  -1   4  -4 2054.69   82.69
   1  -4   4 2017.80   83.29
   1  -4   4 2056.99   82.29
   1  -4   4 2002.80   82.09
   1  -4   4 1970.00   83.09
  -2   4  -4   53.99    6.50
  -2   4  -4   41.70    6.50
  -2   4  -4   47.70    6.30
  -2   4  -4   48.60    5.20
   2  -4   4   49.10    4.30
   2  -4   4   47.60    5.90
   2  -4   4   46.80    6.60
   2  -4   4   46.40    5.20
  -3   4  -4   13.70    3.20
  -3   4  -4    4.50    3.70
  -3   4  -4    2.20    4.50
   3  -4   4    5.80    2.30
   3  -4   4    6.40    3.30
   3  -4   4    5.10    3.20
   3  -4   4    7.10    3.70
  -4   4  -4  102.39   10.40
  -4   4  -4  109.29   10.10
  -4   4  -4  110.89   10.70
  -4   4  -4  125.69    9.70
   4  -4   4  111.99    8.50
   4  -4   4  108.79    8.90
   4  -4   4  122.79    9.90
  -5   4  -4    7.40    6.80
  -5   4  -4   10.40    4.70
  -5   4  -4   11.20    7.00
   5  -4   4   10.90    4.40
   5  -4   4    5.40    4.40
   5  -4   4   14.30    5.60
   7   3  -4  320.87   18.40
   7   3  -4  315.57   18.50
   7   3  -4  343.37   16.90
  -7  -3   4  315.87   15.80
   6   3  -4    1.20    6.10
   6   3  -4    9.90    5.30
   6   3  -4    8.40    5.40
   6   3  -4   14.20    4.40
  -6  -3   4   18.00    5.40
  -6  -3   4    8.00    3.30
  -6  -3   4   12.10    4.10
   5   3  -4   93.29    7.80
  -5  -3   4   94.49    8.80
  -5  -3   4   71.59    5.90
  -5  -3   4  102.39    7.10
  -5  -3   4  105.49    6.50
  -5  -3   4   95.09    7.30
   4   3  -4  842.62   34.10
   4   3  -4  802.32   33.50
   4   3  -4  798.52   33.10
   4   3  -4  785.22   33.70
  -4  -3   4  795.22   34.20
  -4  -3   4  818.92   33.60
  -4  -3   4  716.63   33.50
  -4  -3   4  785.82   32.90
   3   3  -4  261.47   12.50
   3   3  -4  269.17   13.00
   3   3  -4  274.07   12.70
  -3  -3   4  260.47   12.00
  -3  -3   4  269.97   13.30
  -3  -3   4  261.17   12.70
  -3  -3   4  274.47   12.40
  -3  -3   4  279.87   13.10
   2   3  -4  359.56   16.20
   2   3  -4  378.36   16.60
   2   3  -4  370.06   16.90
   2   3  -4  359.36   16.50
  -2  -3   4  374.36   16.80
  -2  -3   4  371.66   16.40
  -2  -3   4  373.66   16.40
  -2  -3   4  368.36   16.70
   1   3  -4  778.42   34.30
   1   3  -4  821.72   33.90
   1   3  -4  854.01   34.10
   1   3  -4  820.32   34.60
  -1  -3   4  819.52   34.10
  -1  -3   4  838.82   34.60
  -1  -3   4  786.42   33.70
   0   3  -4   12.80    2.80
   0   3  -4    9.90    2.80
   0   3  -4   18.90    3.60
   0   3  -4   21.80    3.40
   0  -3   4   18.00    3.10
   0  -3   4   21.00    4.30
   0  -3   4   15.50    2.80
  -1   3  -4   -0.40    2.60
  -1   3  -4   -1.50    2.50
  -1   3  -4    2.70    2.20
  -1   3  -4    0.10    2.40
   1  -3   4    2.70    1.70
   1  -3   4    1.20    2.40
   1  -3   4    2.20    2.30
  -2   3  -4  744.03   31.10
  -2   3  -4  719.93   30.60
  -2   3  -4  687.73   29.50
  -2   3  -4  718.83   30.80
   2  -3   4  685.03   30.60
   2  -3   4  699.23   29.40
   2  -3   4  714.23   30.10
   2  -3   4  742.53   31.00
  -3   3  -4  869.31   37.30
  -3   3  -4  856.51   36.00
  -3   3  -4  820.42   38.00
  -3   3  -4  891.31   37.50
   3  -3   4  841.52   35.70
   3  -3   4  874.71   36.80
   3  -3   4  962.50   37.80
  -4   3  -4  634.74   27.70
  -4   3  -4  529.15   27.70
  -4   3  -4  667.33   28.50
   4  -3   4  638.54   27.30
   4  -3   4  635.54   28.00
   4  -3   4  640.44   27.60
  -5   3  -4   13.20    5.30
  -5   3  -4    6.30    5.90
  -5   3  -4    0.40    3.90
  -5   3  -4    8.40    6.00
   5  -3   4    8.20    3.80
   5  -3   4    5.20    3.90
   5  -3   4    6.70    4.40
  -6   3  -4   25.80    7.90
  -6   3  -4   17.60    4.90
  -6   3  -4   29.20    8.10
   6  -3   4   33.20    7.90
   6  -3   4   20.80    5.50
   7   2  -4   15.00    7.10
   7   2  -4    6.70    3.70
   7   2  -4    4.90    5.00
   7   2  -4    7.70    6.30
   7   2  -4   11.00    8.80
  -7  -2   4    4.30    6.00
  -7  -2   4    9.30    4.20
   6   2  -4   83.79    8.10
   6   2  -4  110.39   16.80
   6   2  -4   77.99    9.30
   6   2  -4   88.69    9.50
   6   2  -4   89.39    6.30
  -6  -2   4   93.79    6.90
  -6  -2   4   83.79    9.30
  -6  -2   4  103.99    7.80
   5   2  -4  372.76   17.40
   5   2  -4  343.07   16.40
   5   2  -4  351.86   19.30
   5   2  -4  366.46   15.20
  -5  -2   4  347.77   16.20
  -5  -2   4  350.16   17.40
  -5  -2   4  336.27   15.60
   4   2  -4 1282.17   52.89
   4   2  -4 1301.77   53.99
   4   2  -4 1201.58   52.89
   4   2  -4 1285.07   52.49
   4   2  -4 1316.07   53.39
  -4  -2   4 1379.56   53.09
  -4  -2   4 1291.07   52.79
  -4  -2   4 1242.48   52.59
  -4  -2   4 1278.97   53.59
  -4  -2   4 1237.58   52.29
   3   2  -4    2.60    2.40
   3   2  -4    1.70    2.50
   3   2  -4    3.90    2.20
   3   2  -4    2.20    2.80
  -3  -2   4    4.70    2.50
  -3  -2   4    2.30    2.70
  -3  -2   4    7.20    1.70
  -3  -2   4    2.40    2.20
  -3  -2   4    1.70    2.00
   2   2  -4  442.56   20.00
   2   2  -4  463.65   19.80
   2   2  -4  478.95   20.40
   2   2  -4  475.95   20.20
  -2  -2   4  454.55   20.00
  -2  -2   4  434.56   19.20
  -2  -2   4  489.95   20.30
  -2  -2   4  465.65   19.80
  -2  -2   4  457.15   20.20
   1   2  -4 1369.86   58.39
   1   2  -4 1442.46   58.09
   1   2  -4 1410.96   57.89
   1   2  -4 1442.76   58.59
  -1  -2   4 1469.55   58.59
  -1  -2   4 1377.46   58.09
  -1  -2   4 1434.86   58.39
   0   2  -4 1213.08   51.29
   0   2  -4 1226.78   51.49
   0   2  -4 1242.38   50.59
   0  -2   4 1209.58   50.69
   0  -2   4 1262.87   51.29
   0  -2   4 1303.97   51.59
  -1   2  -4  633.24   26.40
  -1   2  -4  637.24   25.80
  -1   2  -4  603.84   26.90
  -1   2  -4  611.94   26.70
   1  -2   4  652.13   26.90
   1  -2   4  609.44   25.70
  -2   2  -4  182.88    9.80
  -2   2  -4  184.18   10.10
  -2   2  -4  187.28    9.80
  -2   2  -4  186.28    8.40
   2  -2   4  177.88    8.30
   2  -2   4  206.18    9.80
   2  -2   4  183.58    9.90
  -3   2  -4   53.29    5.90
  -3   2  -4   45.60    6.20
  -3   2  -4   44.70    5.70
   3  -2   4   49.99    5.70
   3  -2   4   49.80    5.10
   3  -2   4   56.49    5.40
  -4   2  -4   25.50    5.80
  -4   2  -4   28.80    6.10
  -4   2  -4   25.60    5.70
  -4   2  -4   27.50    5.40
   4  -2   4   25.10    5.20
   4  -2   4   28.70    5.20
   4  -2   4   29.30    6.00
  -5   2  -4  479.75   21.60
  -5   2  -4  502.25   22.70
  -5   2  -4  419.26   22.70
  -5   2  -4  478.45   22.90
   5  -2   4  472.95   21.90
   5  -2   4  456.65   21.20
   5  -2   4  461.25   21.40
  -6   2  -4  113.69    9.00
  -6   2  -4  101.69   12.10
  -6   2  -4   98.09   10.60
  -6   2  -4  123.39   11.60
   6  -2   4  118.19    8.80
   6  -2   4  105.09   10.20
   6  -2   4  107.29    9.60
   7   1  -4   11.30    4.60
   7   1  -4   24.60    4.50
   7   1  -4   18.00    5.40
   7   1  -4   22.10    7.30
  -7  -1   4   22.00    6.40
   6   1  -4   17.90    5.70
   6   1  -4    8.50    5.20
   6   1  -4    8.30    4.40
   6   1  -4   14.40    3.40
  -6  -1   4   13.80    3.50
  -6  -1   4   14.40    5.00
   5   1  -4   45.70    4.70
   5   1  -4   48.10    9.60
   5   1  -4   51.79    6.80
  -5  -1   4   48.60    4.50
  -5  -1   4   47.10    5.20
  -5  -1   4   49.00    4.60
  -5  -1   4   49.30    7.00
  -5  -1   4   38.20    4.70
   4   1  -4  240.58   10.40
   4   1  -4  231.18   10.90
   4   1  -4  232.18   11.90
   4   1  -4  216.98   11.00
   4   1  -4  243.28   12.50
  -4  -1   4  235.28   12.00
  -4  -1   4  234.48   10.90
  -4  -1   4  198.58   10.90
  -4  -1   4  231.48   10.40
  -4  -1   4  255.57   11.20
  -4  -1   4  224.28   10.40
   3   1  -4  201.88   10.00
   3   1  -4  189.88    9.80
   3   1  -4  194.98    9.50
   3   1  -4  191.58    8.60
   3   1  -4  198.98   10.40
  -3  -1   4  185.58    8.50
  -3  -1   4  191.98    9.50
  -3  -1   4  195.78    9.20
  -3  -1   4  178.38    9.90
  -3  -1   4  211.78    9.90
  -3  -1   4  187.28    8.60
   2   1  -4 2486.75   98.59
   2   1  -4 2379.56   98.59
   2   1  -4 2467.35   98.89
  -2  -1   4 2443.56   98.59
  -2  -1   4 2425.36   98.19
  -2  -1   4 2429.96   97.79
  -2  -1   4 2551.24   98.79
  -2  -1   4 2328.07   98.59
  -2  -1   4 2317.97   97.69
   1   1  -4  230.08   10.60
   1   1  -4  234.88   11.30
   1   1  -4  231.68   11.10
  -1  -1   4  242.58   11.30
  -1  -1   4  229.18   10.90
  -1  -1   4  238.48   11.10
  -1  -1   4  250.17   10.30
   0   1  -4    5.20    1.60
   0   1  -4    4.20    2.00
   0   1  -4    4.10    2.00
   0  -1   4    4.60    2.00
   0  -1   4    3.60    1.70
   0  -1   4    5.50    2.00
  -1   1  -4  321.77   13.50
  -1   1  -4  303.57   14.60
  -1   1  -4  330.47   14.70
   1  -1   4  315.37   14.50
   1  -1   4  337.27   14.80
  -2   1  -4  208.18   10.30
  -2   1  -4  195.28   10.30
  -2   1  -4  203.98   10.10
   2  -1   4  216.28   10.00
   2  -1   4  201.98   10.40
  -3   1  -4 1637.74   70.09
  -3   1  -4 1628.24   69.79
  -3   1  -4 1693.03   70.09
   3  -1   4 1821.62   70.19
   3  -1   4 1727.73   69.89
  -4   1  -4  104.49    8.60
  -4   1  -4  108.79    7.60
  -4   1  -4  109.69    7.60
  -4   1  -4  118.59    8.10
   4  -1   4  118.09    7.30
   4  -1   4  110.99    7.50
   4  -1   4  111.69    7.70
  -5   1  -4  654.73   29.30
  -5   1  -4  656.13   29.90
  -5   1  -4  688.23   30.00
  -5   1  -4  702.83   30.80
   5  -1   4  680.43   29.60
   5  -1   4  702.43   29.90
   5  -1   4  677.33   29.30
  -6   1  -4  107.49   10.40
  -6   1  -4  114.09   11.50
  -6   1  -4  107.39   10.50
  -6   1  -4  110.99    8.50
   6  -1   4  115.49    8.10
   6  -1   4  109.59    9.10
   6  -1   4  121.49    9.50
  -7   1  -4   16.90    7.90
  -7   1  -4    3.00    6.80
   7  -1   4    0.40    3.70
   7  -1   4   -4.40    4.70
   7   0  -4  125.49    9.40
   7   0  -4  140.89    9.70
  -7   0   4  141.09   11.60
   6   0  -4  320.97   15.00
   6   0  -4  320.87   14.80
   6   0  -4  315.27   17.40
  -6   0   4  318.77   16.70
  -6   0   4  315.97   15.40
   5   0  -4  737.93   31.30
   5   0  -4  765.12   29.80
  -5   0   4  684.63   29.50
  -5   0   4  638.74   29.80
  -5   0   4  717.63   31.10
   4   0  -4   93.49    7.60
   4   0  -4   88.39    6.30
   4   0  -4   98.39    5.60
   4   0  -4   86.19    5.80
  -4   0   4   81.79    5.00
  -4   0   4   88.49    6.30
  -4   0   4   87.19    7.10
  -4   0   4   91.09    5.50
  -4   0   4   96.69    5.60
  -4   0   4   99.59    5.80
   3   0  -4   33.90    5.00
   3   0  -4   32.40    4.40
   3   0  -4   34.20    4.20
   3   0  -4   37.80    3.30
  -3   0   4   30.80    2.50
  -3   0   4   31.40    3.30
  -3   0   4   33.70    4.30
  -3   0   4   31.60    4.60
  -3   0   4   34.00    4.00
  -3   0   4   36.90    3.20
   2   0  -4  109.19    6.50
   2   0  -4  105.89    6.50
   2   0  -4  115.29    5.40
   2   0  -4  101.29    6.40
  -2   0   4  118.69    6.50
  -2   0   4  103.99    6.40
  -2   0   4  107.89    5.50
  -2   0   4  105.39    6.30
  -2   0   4  105.69    5.40
   1   0  -4 1643.54   67.19
   1   0  -4 1617.94   66.99
  -1   0   4 1604.04   66.29
  -1   0   4 1705.93   67.09
  -1   0   4 1646.44   66.99
  -1   0   4 1600.14   66.69
   0   0  -4  415.86   18.60
   0   0  -4  448.96   18.80
   0   0   4  408.06   18.50
   0   0   4  448.96   18.80
   0   0   4  409.86   18.00
  -1   0  -4  658.83   28.80
  -1   0  -4  670.33   28.90
  -1   0  -4  677.03   27.80
   1   0   4  677.93   28.70
   1   0   4  719.33   28.90
  -2   0  -4   22.20    3.90
  -2   0  -4   22.70    3.60
  -2   0  -4   13.60    3.70
   2   0   4   20.00    3.80
   2   0   4   21.00    3.50
  -3   0  -4  644.04   27.60
  -3   0  -4  647.54   27.50
  -3   0  -4  627.64   27.00
  -3   0  -4  639.84   27.80
   3   0   4  651.73   27.30
   3   0   4  659.53   27.70
  -4   0  -4   64.89    5.60
  -4   0  -4   63.39    5.70
  -4   0  -4   69.59    6.30
  -4   0  -4   70.29    6.80
   4   0   4   65.39    5.60
   4   0   4   69.29    6.10
  -5   0  -4  527.45   23.60
  -5   0  -4  515.85   23.40
  -5   0  -4  524.95   23.00
  -5   0  -4  523.05   24.20
   5   0   4  506.65   22.70
   5   0   4  544.55   23.30
   5   0   4  520.25   23.30
  -6   0  -4  467.75   22.60
  -6   0  -4  479.15   21.40
  -6   0  -4  502.75   23.60
   6   0   4  486.55   22.10
   6   0   4  478.45   22.20
   6   0   4  471.55   21.20
  -7   0  -4   85.99   12.10
  -7   0  -4   91.89   10.20
  -7   0  -4   59.29    6.70
  -7   0  -4   72.29   10.30
   7   0   4   87.39    7.00
   7   0   4   83.29    9.30
   7  -1  -4  315.17   16.50
  -7   1   4  331.47   17.80
   6  -1  -4   14.90    4.00
   6  -1  -4   12.80    6.20
  -6   1   4   12.30    4.90
  -6   1   4    8.30    4.20
  -6   1   4   11.20    2.90
  -6   1   4    7.30    5.50
   5  -1  -4    0.60    2.90
   5  -1  -4   -2.50    2.50
   5  -1  -4   -5.40    3.00
  -5   1   4    0.40    2.40
  -5   1   4    2.20    3.30
  -5   1   4   -3.60    2.70
  -5   1   4    1.40    3.90
  -5   1   4    2.80    4.30
   4  -1  -4  968.40   39.80
   4  -1  -4  980.60   39.30
   4  -1  -4  937.51   40.50
   4  -1  -4  928.01   39.30
  -4   1   4  928.61   40.50
  -4   1   4  967.00   39.40
  -4   1   4  945.91   39.30
  -4   1   4  962.40   40.20
  -4   1   4  923.51   39.80
   3  -1  -4   12.40    2.20
   3  -1  -4   15.30    3.60
   3  -1  -4   10.60    3.40
   3  -1  -4    6.60    2.60
  -3   1   4   14.90    3.50
  -3   1   4    8.50    2.60
  -3   1   4   13.90    3.40
  -3   1   4   10.40    2.10
  -3   1   4   12.70    3.10
  -3   1   4   10.00    2.30
   2  -1  -4 1493.25   60.29
   2  -1  -4 1541.35   60.99
   2  -1  -4 1462.55   60.99
   2  -1  -4 1460.75   60.89
  -2   1   4 1467.65   60.99
  -2   1   4 1436.96   60.89
  -2   1   4 1434.76   59.99
  -2   1   4 1501.55   60.29
  -2   1   4 1553.64   60.89
   1  -1  -4  365.86   17.00
   1  -1  -4  381.16   16.20
   1  -1  -4  370.26   16.50
   1  -1  -4  394.86   17.10
  -1   1   4  395.36   17.00
  -1   1   4  394.36   16.20
  -1   1   4  384.06   17.00
   0  -1  -4  497.05   21.80
   0  -1  -4  521.25   22.60
   0  -1  -4  537.75   22.70
   0   1   4  533.75   21.80
   0   1   4  537.05   22.60
   0   1   4  517.55   22.50
  -1  -1  -4  359.26   15.90
  -1  -1  -4  340.47   15.80
  -1  -1  -4  342.87   14.90
   1   1   4  372.26   15.90
   1   1   4  357.36   15.80
  -2  -1  -4 1125.99   46.90
  -2  -1  -4 1086.09   47.50
  -2  -1  -4 1147.79   47.50
   2   1   4 1223.38   47.60
   2   1   4 1148.99   47.40
  -3  -1  -4  458.85   19.20
  -3  -1  -4  404.56   18.40
  -3  -1  -4  433.56   19.00
  -3  -1  -4  438.06   19.30
  -3  -1  -4  434.56   19.50
   3   1   4  450.75   19.10
   3   1   4  442.16   19.30
  -4  -1  -4 1015.80   41.50
  -4  -1  -4  970.70   41.10
  -4  -1  -4 1010.70   41.40
  -4  -1  -4 1016.30   41.90
  -4  -1  -4  869.61   41.60
   4   1   4 1035.70   41.20
   4   1   4 1036.40   41.70
  -5  -1  -4   82.59    6.30
  -5  -1  -4   87.29    6.60
  -5  -1  -4   68.49    8.10
  -5  -1  -4   88.29    7.10
   5   1   4   76.69    6.60
   5   1   4   83.99    6.00
  -6  -1  -4   37.60    8.60
  -6  -1  -4   42.00    7.20
  -6  -1  -4   44.50    6.60
  -6  -1  -4   30.70    5.70
   6   1   4   31.70    6.60
   6   1   4   43.20    5.10
   6   1   4   32.20    6.20
  -7  -1  -4  208.58   14.60
  -7  -1  -4  192.88   12.70
   7   1   4  177.08   12.10
   7  -2  -4   14.80    5.40
  -7   2   4    4.70    7.90
  -7   2   4    6.30    6.10
   6  -2  -4  599.74   25.60
   6  -2  -4  556.44   27.40
   6  -2  -4  576.84   25.70
   6  -2  -4  593.94   24.80
  -6   2   4  602.64   26.60
  -6   2   4  598.54   28.80
  -6   2   4  593.94   27.70
  -6   2   4  533.45   25.80
  -6   2   4  530.35   24.80
   5  -2  -4   31.00    5.60
   5  -2  -4   25.10    6.00
   5  -2  -4   19.50    5.20
  -5   2   4   26.20    4.90
  -5   2   4   20.70    4.90
  -5   2   4   24.80    5.80
  -5   2   4   26.10    6.70
  -5   2   4   29.10    5.90
   4  -2  -4  642.94   26.70
   4  -2  -4  640.64   27.90
   4  -2  -4  647.14   27.40
   4  -2  -4  599.24   26.70
  -4   2   4  617.64   28.00
  -4   2   4  629.04   26.70
  -4   2   4  622.34   27.30
  -4   2   4  641.74   27.50
  -4   2   4  625.54   26.80
   3  -2  -4  187.48    9.70
   3  -2  -4  188.18   10.00
   3  -2  -4  169.78    9.10
   3  -2  -4  184.98    8.90
  -3   2   4  179.88    9.70
  -3   2   4  179.08    9.00
  -3   2   4  175.58    9.80
  -3   2   4  176.58    8.80
  -3   2   4  190.08    9.50
   2  -2  -4  529.15   21.60
   2  -2  -4  502.65   21.80
   2  -2  -4  489.05   21.60
   2  -2  -4  489.15   21.00
  -2   2   4  470.85   21.60
  -2   2   4  534.35   21.80
  -2   2   4  510.05   21.50
  -2   2   4  465.85   21.50
  -2   2   4  496.65   21.00
   1  -2  -4  447.06   19.90
   1  -2  -4  464.35   19.20
   1  -2  -4  462.95   19.80
   1  -2  -4  440.26   19.40
  -1   2   4  469.05   20.00
  -1   2   4  465.55   19.20
  -1   2   4  465.25   19.80
  -1   2   4  436.36   19.40
   0  -2  -4  663.33   26.70
   0  -2  -4  619.94   27.20
   0  -2  -4  616.54   26.40
   0  -2  -4  615.94   26.10
   0   2   4  682.53   27.30
   0   2   4  655.93   26.60
   0   2   4  642.14   27.30
  -1  -2  -4  400.06   17.00
  -1  -2  -4  412.86   17.90
  -1  -2  -4  388.46   17.90
   1   2   4  411.46   17.90
   1   2   4  413.96   17.90
  -2  -2  -4 1368.66   58.29
  -2  -2  -4 1350.76   58.39
  -2  -2  -4 1418.26   57.69
   2   2   4 1457.15   58.39
   2   2   4 1489.75   58.39
  -3  -2  -4   36.60    4.20
  -3  -2  -4   35.00    4.60
  -3  -2  -4   38.30    4.50
  -3  -2  -4   38.50    4.50
   3   2   4   39.50    4.40
   3   2   4   44.90    4.30
  -4  -2  -4   86.99    6.20
  -4  -2  -4   88.09    6.50
  -4  -2  -4   78.79    6.40
  -4  -2  -4   88.49    6.80
   4   2   4  101.89    5.90
   4   2   4   91.29    6.20
  -5  -2  -4  873.61   36.40
  -5  -2  -4  835.42   35.80
  -5  -2  -4  850.91   36.00
  -5  -2  -4  876.61   36.90
  -5  -2  -4  862.81   36.40
   5   2   4  842.42   36.10
  -6  -2  -4   14.40    4.20
  -6  -2  -4    7.20    2.80
  -6  -2  -4    4.10    4.00
  -6  -2  -4    8.60    3.90
  -6  -2  -4    4.60    5.00
   6   2   4    6.30    3.40
   6   2   4    7.70    2.60
   6   2   4    9.30    3.30
  -7  -2  -4  541.35   25.20
  -7  -2  -4  504.75   24.30
   7   2   4  533.75   23.70
   7   2   4  462.95   24.30
   6  -3  -4   61.69    8.30
   6  -3  -4   58.69    8.70
   6  -3  -4   68.39    7.60
  -6   3   4   79.29    8.90
  -6   3   4   57.59   10.40
  -6   3   4   62.19    8.00
  -6   3   4   61.39    7.50
  -6   3   4   65.49    8.90
   5  -3  -4   13.90    3.60
   5  -3  -4   13.30    3.80
   5  -3  -4    6.90    4.30
  -5   3   4    7.40    4.70
  -5   3   4   22.20    4.90
  -5   3   4    9.50    3.20
  -5   3   4    8.40    3.70
   4  -3  -4   77.19    7.90
   4  -3  -4   72.79    7.80
   4  -3  -4   84.19    6.40
   4  -3  -4   78.99    6.60
   4  -3  -4   78.09    6.90
  -4   3   4   76.89    6.70
  -4   3   4   70.79    6.40
  -4   3   4   71.99    6.00
  -4   3   4   76.59    7.50
  -4   3   4   73.99    7.20
   3  -3  -4 1124.69   47.10
   3  -3  -4 1153.58   47.50
   3  -3  -4 1165.88   47.50
   3  -3  -4 1131.39   46.80
  -3   3   4 1131.89   47.00
  -3   3   4 1173.68   47.50
  -3   3   4 1089.59   47.30
  -3   3   4 1116.99   47.70
  -3   3   4 1123.59   46.80
   2  -3  -4  327.07   14.70
   2  -3  -4  313.27   14.90
   2  -3  -4  323.97   14.70
   2  -3  -4  333.47   14.20
  -2   3   4  318.07   14.60
  -2   3   4  310.77   14.80
  -2   3   4  320.87   14.20
  -2   3   4  332.17   14.90
   1  -3  -4  854.01   36.20
   1  -3  -4  897.51   36.40
   1  -3  -4  865.11   35.70
   1  -3  -4  901.81   36.80
   1  -3  -4  866.01   36.90
  -1   3   4  885.91   36.70
  -1   3   4  886.91   36.90
  -1   3   4  922.71   36.30
  -1   3   4  836.42   36.40
   0  -3  -4   62.29    3.50
   0  -3  -4   62.19    4.80
   0  -3  -4   61.59    4.10
   0  -3  -4   62.79    3.70
   0  -3  -4   72.39    4.90
   0   3   4   61.99    3.70
   0   3   4   68.39    4.60
   0   3   4   62.19    4.10
   0   3   4   59.99    4.70
  -1  -3  -4  174.18    8.80
  -1  -3  -4  157.08    8.50
  -1  -3  -4  165.28    7.70
  -1  -3  -4  171.38    8.00
   1   3   4  179.58    8.60
   1   3   4  178.38    8.00
   1   3   4  167.38    8.70
  -2  -3  -4  924.31   39.60
  -2  -3  -4  959.70   39.00
  -2  -3  -4  928.21   39.70
  -2  -3  -4  919.61   38.60
   2   3   4  976.40   39.70
   2   3   4  983.60   39.50
  -3  -3  -4 1762.82   71.19
  -3  -3  -4 1710.23   71.49
  -3  -3  -4 1679.33   71.09
  -3  -3  -4 1699.13   71.39
   3   3   4 1865.21   71.59
   3   3   4 1742.13   71.29
  -4  -3  -4  464.35   20.30
  -4  -3  -4  445.66   20.10
  -4  -3  -4  439.16   20.20
  -4  -3  -4  463.75   20.20
   4   3   4  456.55   20.00
   4   3   4  478.35   20.00
  -5  -3  -4   66.79    6.00
  -5  -3  -4   66.79    6.80
  -5  -3  -4   74.29    7.30
  -5  -3  -4   58.59    5.90
   5   3   4   68.09    5.30
   5   3   4   67.29    5.50
  -6  -3  -4    3.30    4.10
  -6  -3  -4    7.80    3.30
  -6  -3  -4    8.70    4.90
   6   3   4   -2.70    3.50
   6   3   4   -4.90    3.80
  -7  -3  -4   36.20    7.00
  -7  -3  -4   29.10    5.60
   7   3   4   46.50    9.10
   7   3   4   25.70    5.20
   7   3   4   21.80    5.00
  -8  -3  -4  175.08   13.70
  -8  -3  -4  180.58   15.30
   8   3   4  178.68   12.50
   8   3   4  158.78   13.10
   6  -4  -4   43.20    9.60
   6  -4  -4   60.29   11.00
   6  -4  -4   70.89    9.20
  -6   4   4   41.80    8.20
  -6   4   4   42.60    8.10
  -6   4   4   62.19    9.40
  -6   4   4   58.09   10.70
   5  -4  -4  324.17   16.90
   5  -4  -4  344.07   17.10
   5  -4  -4  306.27   17.80
   5  -4  -4  335.27   16.20
   5  -4  -4  345.87   16.30
  -5   4   4  352.66   17.00
  -5   4   4  320.67   16.30
  -5   4   4  317.87   17.70
  -5   4   4  313.97   16.60
   4  -4  -4  406.16   19.70
   4  -4  -4  414.26   19.00
   4  -4  -4  397.96   18.40
   4  -4  -4  404.26   18.70
   4  -4  -4  386.66   19.00
  -4   4   4  397.96   18.90
  -4   4   4  401.16   18.40
  -4   4   4  389.16   19.60
  -4   4   4  393.96   18.40
  -4   4   4  429.66   19.10
   3  -4  -4  142.19    8.00
   3  -4  -4  140.19    9.00
   3  -4  -4  137.19    8.70
   3  -4  -4  146.19    8.60
  -3   4   4  129.59    8.80
  -3   4   4  133.69    8.10
  -3   4   4  134.39    7.90
  -3   4   4  136.49    8.70
  -3   4   4  146.49    8.50
   2  -4  -4  201.88   10.40
   2  -4  -4  214.28   10.50
   2  -4  -4  184.58   10.40
   2  -4  -4  202.88    9.80
  -2   4   4  210.08   10.40
  -2   4   4  200.28   10.10
  -2   4   4  190.78   10.30
  -2   4   4  200.58    9.70
   1  -4  -4  323.27   14.50
   1  -4  -4  316.07   14.10
   1  -4  -4  321.67   14.80
   1  -4  -4  322.37   14.70
  -1   4   4  328.37   14.10
  -1   4   4  312.97   14.70
  -1   4   4  301.17   14.30
  -1   4   4  331.87   14.60
   0  -4  -4  969.60   39.60
   0  -4  -4  944.31   40.00
   0  -4  -4 1009.30   39.10
   0  -4  -4  932.91   39.40
   0   4   4  900.41   39.30
   0   4   4  982.60   40.20
   0   4   4  993.70   39.50
   0   4   4  973.30   40.00
   0   4   4  921.61   38.90
  -1  -4  -4 1213.58   52.89
  -1  -4  -4 1304.47   52.09
  -1  -4  -4 1287.77   52.39
  -1  -4  -4 1283.57   52.19
  -1  -4  -4 1260.57   52.69
   1   4   4 1294.87   52.69
   1   4   4 1325.57   52.29
   1   4   4 1293.67   52.89
   1   4   4 1241.98   52.09
  -2  -4  -4    7.60    1.90
  -2  -4  -4    6.30    2.20
  -2  -4  -4    4.50    1.80
  -2  -4  -4    5.90    2.40
   2   4   4    8.20    1.90
   2   4   4   10.40    2.50
   2   4   4    7.30    2.20
   2   4   4    8.60    2.00
  -3  -4  -4  570.94   24.40
  -3  -4  -4  555.44   23.90
  -3  -4  -4  578.44   24.60
  -3  -4  -4  581.94   25.10
  -3  -4  -4  583.14   24.80
   3   4   4  623.14   25.10
   3   4   4  534.15   23.90
   3   4   4  583.94   24.70
   3   4   4  597.94   24.70
  -4  -4  -4   76.99    5.70
  -4  -4  -4   68.59    6.00
  -4  -4  -4   74.09    6.10
  -4  -4  -4   69.89    6.30
   4   4   4   78.79    6.10
   4   4   4   75.89    5.50
   4   4   4   78.49    5.90
  -5  -4  -4   14.80    3.60
  -5  -4  -4   17.90    4.20
  -5  -4  -4   23.50    4.70
  -5  -4  -4   19.50    4.10
   5   4   4   19.60    4.20
   5   4   4   13.00    3.70
   5   4   4   15.80    3.00
  -6  -4  -4 1649.13   69.69
  -6  -4  -4 1777.92   69.99
   6   4   4 1665.63   69.79
   6   4   4 1623.34   68.49
  -7  -4  -4  178.88   12.80
  -7  -4  -4  222.48   13.40
   7   4   4  167.98   12.70
   7   4   4  177.28   11.90
  -8  -4  -4  223.98   16.10
  -8  -4  -4  214.48   14.60
   8   4   4  202.98   13.50
   8   4   4  197.48   14.70
   5  -5  -4    0.40    6.30
   5  -5  -4    5.40    4.80
   5  -5  -4   -2.80    5.40
   5  -5  -4   -4.10    5.00
   5  -5  -4   -3.10    4.60
  -5   5   4    4.40    4.60
  -5   5   4    5.10    6.00
  -5   5   4   -0.20    5.30
  -5   5   4    6.90    4.10
   4  -5  -4  117.79    9.20
   4  -5  -4  128.49    8.70
   4  -5  -4  115.69    9.50
   4  -5  -4  131.29    9.60
  -4   5   4   99.49    9.80
  -4   5   4  127.89    9.50
  -4   5   4  130.29    9.50
   3  -5  -4  238.88   12.40
   3  -5  -4  247.08   12.00
   3  -5  -4  249.28   12.70
   3  -5  -4  240.68   13.00
  -3   5   4  236.38   13.00
  -3   5   4  218.58   12.60
  -3   5   4  246.78   12.30
  -3   5   4  229.88   12.50
   2  -5  -4 1096.69   45.00
   2  -5  -4 1066.89   45.50
   2  -5  -4 1099.19   45.30
   2  -5  -4 1052.19   44.70
  -2   5   4 1148.99   45.60
  -2   5   4 1055.69   45.30
  -2   5   4 1072.09   44.70
  -2   5   4 1042.30   45.10
   1  -5  -4 1036.40   42.30
   1  -5  -4 1009.10   42.00
   1  -5  -4 1003.10   42.80
   1  -5  -4 1076.29   42.70
  -1   5   4 1020.40   42.80
  -1   5   4 1023.20   42.40
  -1   5   4  857.31   42.30
  -1   5   4 1107.29   42.10
   0  -5  -4    8.70    2.00
   0  -5  -4    9.90    2.80
   0  -5  -4   10.40    2.70
   0  -5  -4    7.20    2.50
   0  -5  -4   13.30    2.40
   0   5   4   12.20    3.20
   0   5   4    9.70    2.60
   0   5   4   12.00    2.40
   0   5   4   12.30    2.60
  -1  -5  -4   36.90    4.50
  -1  -5  -4   35.90    4.50
  -1  -5  -4   37.60    3.60
  -1  -5  -4   34.50    3.90
  -1  -5  -4   40.60    4.30
   1   5   4   30.50    3.70
   1   5   4   37.50    4.30
   1   5   4   33.00    4.10
   1   5   4   37.10    3.20
   1   5   4   34.30    3.10
  -2  -5  -4  435.36   19.00
  -2  -5  -4  461.85   19.70
  -2  -5  -4  446.26   19.10
  -2  -5  -4  428.96   19.80
   2   5   4  438.56   19.10
   2   5   4  430.66   19.10
   2   5   4  445.96   19.60
   2   5   4  456.15   19.90
   2   5   4  476.35   19.20
  -3  -5  -4 1453.15   60.39
  -3  -5  -4 1513.75   60.89
  -3  -5  -4 1491.85   61.19
  -3  -5  -4 1457.95   60.69
  -3  -5  -4 1403.36   60.09
   3   5   4 1547.75   61.29
   3   5   4 1466.45   60.79
   3   5   4 1569.94   60.59
   3   5   4 1478.25   60.79
   3   5   4 1420.36   60.19
  -4  -5  -4  179.68    8.70
  -4  -5  -4  196.98    9.70
  -4  -5  -4  180.78   10.20
  -4  -5  -4  191.08    9.90
  -4  -5  -4  185.38    9.50
   4   5   4  171.08    8.70
   4   5   4  183.18    9.40
   4   5   4  192.78   10.00
   4   5   4  181.78    9.90
  -5  -5  -4  272.37   15.30
  -5  -5  -4  327.37   14.00
  -5  -5  -4  334.77   15.40
  -5  -5  -4  327.37   14.70
  -5  -5  -4  317.57   15.50
   5   5   4  322.67   14.50
   5   5   4  325.67   15.60
   5   5   4  309.97   13.80
   5   5   4  335.57   15.10
  -6  -5  -4   52.69    5.50
  -6  -5  -4   60.29    7.80
  -6  -5  -4   44.30    7.70
   6   5   4   39.50    5.30
  -7  -5  -4   12.00    5.90
  -7  -5  -4    5.70    4.80
   7   5   4    4.90    5.30
   7   5   4    3.30    4.90
   7   5   4   -0.10    4.00
  -8  -5  -4   58.09   11.10
  -8  -5  -4   49.10   11.90
   8   5   4   43.20    8.00
   8   5   4   58.09    9.20
   5  -6  -4  145.39   12.40
   5  -6  -4  123.79   10.90
   5  -6  -4  133.59   12.30
  -5   6   4  140.79   12.00
  -5   6   4  135.29   11.70
  -5   6   4  144.19   12.90
   4  -6  -4  946.01   41.10
   4  -6  -4  949.40   42.00
   4  -6  -4  974.30   41.50
   4  -6  -4  957.90   41.90
   4  -6  -4  984.70   40.90
  -4   6   4  967.20   41.30
  -4   6   4  913.21   41.20
  -4   6   4  936.61   42.10
  -4   6   4 1001.70   41.90
   3  -6  -4  441.86   20.90
   3  -6  -4  445.76   20.40
   3  -6  -4  423.86   20.80
   3  -6  -4  450.75   21.10
   3  -6  -4  427.96   20.10
  -3   6   4  449.86   21.00
  -3   6   4  447.26   21.10
   2  -6  -4   42.00    6.30
   2  -6  -4   49.40    5.60
   2  -6  -4   25.90    6.20
   2  -6  -4   37.30    6.20
   2  -6  -4   46.30    6.80
  -2   6   4   43.70    5.20
  -2   6   4   38.00    5.90
  -2   6   4   37.90    6.10
   1  -6  -4  291.67   14.70
   1  -6  -4  289.87   13.70
   1  -6  -4  292.97   14.60
   1  -6  -4  293.47   14.10
  -1   6   4  309.37   13.80
  -1   6   4  303.97   14.30
  -1   6   4  295.87   14.20
  -1   6   4  297.77   14.60
   0  -6  -4  121.79    7.70
   0  -6  -4  125.89    8.10
   0  -6  -4  127.69    8.10
   0  -6  -4  119.49    7.10
   0  -6  -4  129.89    6.80
   0   6   4  129.79    7.00
   0   6   4  120.79    7.20
   0   6   4  124.79    7.90
  -1  -6  -4 1312.07   55.19
  -1  -6  -4 1385.46   55.19
  -1  -6  -4 1343.07   55.29
  -1  -6  -4 1351.86   56.09
   1   6   4 1293.97   55.89
   1   6   4 1379.36   55.19
   1   6   4 1376.66   55.79
   1   6   4 1331.17   54.89
  -2  -6  -4  959.80   40.30
  -2  -6  -4  928.61   40.80
  -2  -6  -4  986.20   41.20
  -2  -6  -4  997.90   40.50
   2   6   4  955.20   40.40
   2   6   4  993.80   41.20
   2   6   4  952.00   40.30
   2   6   4  984.90   40.80
   2   6   4 1019.60   40.30
  -3  -6  -4  275.37   12.70
  -3  -6  -4  273.87   12.50
  -3  -6  -4  280.27   13.70
  -3  -6  -4  281.27   13.20
  -3  -6  -4  278.77   13.30
   3   6   4  271.77   13.20
   3   6   4  285.77   13.60
   3   6   4  279.37   13.20
   3   6   4  302.37   12.90
   3   6   4  269.57   12.80
  -4  -6  -4   11.30    3.10
  -4  -6  -4    5.30    3.30
  -4  -6  -4    5.90    3.40
  -4  -6  -4    8.60    3.00
  -4  -6  -4    5.30    2.60
   4   6   4    6.80    2.80
   4   6   4    6.40    3.10
   4   6   4    9.20    2.90
   4   6   4    4.70    2.70
   4   6   4    7.60    3.20
  -5  -6  -4  966.90   38.10
  -5  -6  -4  913.31   37.50
  -5  -6  -4  942.41   38.30
  -5  -6  -4  836.52   38.60
  -5  -6  -4  900.31   38.70
   5   6   4  951.50   38.60
   5   6   4  884.51   38.70
   5   6   4  911.61   37.80
   5   6   4  850.81   37.40
  -6  -6  -4  209.78   13.10
  -6  -6  -4  250.97   14.10
  -6  -6  -4  267.97   13.80
  -6  -6  -4  257.17   12.20
  -6  -6  -4  268.87   12.40
   6   6   4  265.57   12.80
   6   6   4  244.68   11.70
  -7  -6  -4  280.47   16.50
  -7  -6  -4  336.37   16.70
   7   6   4  288.67   14.60
   7   6   4  278.37   16.70
  -8  -6  -4    5.10    7.20
  -8  -6  -4    5.70    6.00
   8   6   4   -2.10    5.80
   8   6   4   10.20    7.00
   4  -7  -4   43.90   10.10
   4  -7  -4   41.20    8.40
   4  -7  -4   32.00    6.70
   4  -7  -4   19.00    5.70
   4  -7  -4   25.60    6.40
  -4   7   4   33.00    8.80
  -4   7   4   22.40    6.00
  -4   7   4   32.20    7.20
   3  -7  -4  477.05   22.40
   3  -7  -4  484.05   22.90
   3  -7  -4  521.25   23.60
   3  -7  -4  473.65   23.60
  -3   7   4  489.55   23.50
  -3   7   4  478.35   22.60
  -3   7   4  522.55   23.60
   2  -7  -4  864.71   35.40
   2  -7  -4  787.32   34.70
   2  -7  -4  789.52   35.50
   2  -7  -4  799.52   34.70
   2  -7  -4  796.72   34.40
  -2   7   4  765.32   34.40
  -2   7   4  793.32   35.20
  -2   7   4  859.41   35.50
   1  -7  -4  269.57   12.80
   1  -7  -4  262.67   12.90
   1  -7  -4  262.07   13.40
   1  -7  -4  252.07   13.90
  -1   7   4  252.27   12.70
  -1   7   4  255.27   13.70
  -1   7   4  276.37   13.40
  -1   7   4  262.57   13.50
   0  -7  -4   47.70    5.20
   0  -7  -4   46.60    6.50
   0  -7  -4   47.10    5.30
   0  -7  -4   46.10    6.10
   0  -7  -4   48.10    6.70
   0   7   4   47.30    6.00
   0   7   4   45.80    5.40
   0   7   4   50.59    5.10
   0   7   4   47.90    6.00
  -1  -7  -4    1.00    3.10
  -1  -7  -4    3.90    2.70
  -1  -7  -4    3.10    3.20
  -1  -7  -4    3.70    3.30
  -1  -7  -4    3.60    2.60
   1   7   4    0.20    2.50
   1   7   4    2.60    2.90
   1   7   4    1.00    3.10
   1   7   4    1.80    2.00
   1   7   4    0.90    2.90
  -2  -7  -4  465.75   21.20
  -2  -7  -4  469.05   20.40
  -2  -7  -4  479.55   20.40
  -2  -7  -4  460.55   21.00
   2   7   4  480.95   21.20
   2   7   4  475.25   20.90
   2   7   4  461.25   20.10
   2   7   4  434.56   20.00
   2   7   4  460.25   20.50
  -3  -7  -4  929.61   39.30
  -3  -7  -4  946.31   39.90
  -3  -7  -4  965.40   40.30
  -3  -7  -4  917.71   39.60
   3   7   4  950.90   40.20
   3   7   4  931.41   39.50
   3   7   4 1006.00   39.30
   3   7   4  950.10   39.80
   3   7   4  910.21   39.40
  -4  -7  -4  245.58   12.90
  -4  -7  -4  260.37   12.90
  -4  -7  -4  249.88   12.10
  -4  -7  -4  250.47   13.20
   4   7   4  251.87   12.20
   4   7   4  253.07   12.70
   4   7   4  256.27   13.10
   4   7   4  243.88   12.00
   4   7   4  252.67   12.60
  -5  -7  -4  617.34   25.60
  -5  -7  -4  633.94   25.90
  -5  -7  -4  559.34   26.30
  -5  -7  -4  600.84   26.60
  -5  -7  -4  535.85   25.20
   5   7   4  600.34   26.40
   5   7   4  603.84   25.60
   5   7   4  597.34   25.50
   5   7   4  582.34   26.30
   5   7   4  578.84   25.20
  -6  -7  -4    4.60    4.70
  -6  -7  -4   -1.20    3.80
  -6  -7  -4    0.00    3.70
  -6  -7  -4   -1.10    4.50
  -6  -7  -4   -3.30    4.40
   6   7   4    4.90    4.10
   6   7   4    0.10    3.70
   6   7   4    2.90    4.20
   6   7   4   10.10    4.20
   6   7   4   -2.90    3.00
   6   7   4   -4.80    3.30
  -7  -7  -4    6.10    5.60
  -7  -7  -4    5.40    5.90
   7   7   4   -1.00    6.10
   7   7   4   -2.60    4.50
   7   7   4   10.30    3.80
  -8  -7  -4   86.39   12.20
   3  -8  -4  113.39   12.40
   3  -8  -4   89.79   11.20
   3  -8  -4  110.49    9.80
  -3   8   4  107.19   10.90
  -3   8   4  102.79   10.80
   2  -8  -4   57.59    7.50
   2  -8  -4   60.89    9.70
   2  -8  -4   60.39    7.60
   2  -8  -4   72.49    9.00
   2  -8  -4   52.89    9.20
  -2   8   4   53.39    8.30
  -2   8   4   53.09    8.20
  -2   8   4   66.69    8.70
  -2   8   4   57.59    7.70
   1  -8  -4    5.90    4.40
   1  -8  -4    4.80    4.90
   1  -8  -4    5.90    3.70
   1  -8  -4   -3.20    4.20
   1  -8  -4    0.80    3.40
  -1   8   4    3.20    3.70
  -1   8   4    9.30    4.30
  -1   8   4    2.50    3.20
  -1   8   4    3.00    3.60
   0  -8  -4 1370.66   56.39
   0  -8  -4 1312.67   55.29
   0  -8  -4 1374.66   55.19
   0  -8  -4 1306.17   56.49
   0   8   4 1361.26   55.29
   0   8   4 1353.56   55.69
   0   8   4 1280.97   56.29
   0   8   4 1333.07   56.09
  -1  -8  -4  584.24   25.50
  -1  -8  -4  587.44   25.70
  -1  -8  -4  597.94   26.60
  -1  -8  -4  627.44   26.00
  -1  -8  -4  600.54   26.90
   1   8   4  603.44   25.40
   1   8   4  560.14   26.10
   1   8   4  564.34   26.60
   1   8   4  604.14   26.40
  -2  -8  -4  915.81   38.80
  -2  -8  -4  927.11   39.90
  -2  -8  -4  936.61   37.80
  -2  -8  -4  894.11   37.80
  -2  -8  -4  899.01   37.80
   2   8   4  809.02   38.10
   2   8   4  896.81   37.50
   2   8   4  906.21   37.40
   2   8   4  891.21   37.90
  -3  -8  -4   -2.70    3.50
  -3  -8  -4   -2.00    3.30
  -3  -8  -4    3.50    3.50
  -3  -8  -4   11.00    4.30
   3   8   4    0.00    3.00
   3   8   4    3.50    2.80
   3   8   4    1.70    3.40
   3   8   4    4.50    3.60
   3   8   4    3.50    3.50
  -4  -8  -4   80.59    7.70
  -4  -8  -4   68.59    7.80
  -4  -8  -4   74.29    7.60
  -4  -8  -4   74.29    6.90
   4   8   4   58.19    6.90
   4   8   4   71.69    7.20
   4   8   4   68.69    7.20
   4   8   4   78.99    6.10
   4   8   4   69.79    7.60
  -5  -8  -4  108.49    9.30
  -5  -8  -4  110.39    9.50
  -5  -8  -4  110.09    8.30
   5   8   4  112.99    8.20
   5   8   4  114.99    9.20
   5   8   4  117.49    7.80
   5   8   4  124.39    8.50
  -6  -8  -4  252.87   13.30
  -6  -8  -4  225.38   14.10
  -6  -8  -4  261.57   14.80
   6   8   4  272.57   13.00
   6   8   4  252.27   14.30
   6   8   4  262.87   13.00
   6   8   4  248.48   12.90
   6   8   4  239.78   14.70
   6   8   4  262.27   13.70
  -7  -8  -4  234.28   15.40
  -7  -8  -4  255.67   13.80
   7   8   4  249.28   12.90
   7   8   4  258.97   13.60
   7   8   4  237.98   14.20
   3  -9  -4   50.09   11.80
   3  -9  -4   85.79   10.20
  -3   9   4   96.99   11.60
   2  -9  -4  475.45   23.70
   2  -9  -4  451.85   21.40
   2  -9  -4  439.06   21.40
   2  -9  -4  431.46   23.30
  -2   9   4  477.35   22.90
  -2   9   4  434.86   22.60
   1  -9  -4  333.87   17.40
   1  -9  -4  330.67   16.00
   1  -9  -4  328.87   16.50
   1  -9  -4  337.67   18.30
   1  -9  -4  324.67   18.40
  -1   9   4  341.17   17.40
  -1   9   4  318.47   17.80
  -1   9   4  322.67   16.60
  -1   9   4  356.96   18.00
   0  -9  -4  200.68   13.40
   0  -9  -4  222.58   11.70
   0  -9  -4  204.58   11.50
   0  -9  -4  195.48   13.10
   0  -9  -4  214.78   10.40
   0   9   4  216.88   12.90
   0   9   4  219.68   12.30
   0   9   4  197.88   11.40
   0   9   4  200.08   12.80
  -1  -9  -4  121.09    7.80
  -1  -9  -4  103.99   10.00
  -1  -9  -4  110.79    8.10
  -1  -9  -4  112.19    8.60
  -1  -9  -4  120.69   10.20
   1   9   4  102.69    9.30
   1   9   4  120.19    9.90
   1   9   4  123.79    9.70
   1   9   4  116.49    8.00
  -2  -9  -4 1004.50   43.90
  -2  -9  -4 1040.20   42.70
  -2  -9  -4  988.80   42.80
   2   9   4 1016.00   42.20
   2   9   4 1013.60   43.80
   2   9   4 1002.50   42.30
   2   9   4 1022.20   43.40
   2   9   4 1014.90   42.90
  -3  -9  -4   28.10    5.00
  -3  -9  -4   32.20    7.80
   3   9   4   48.50    7.40
   3   9   4   35.10    6.10
   3   9   4   41.00    7.20
   3   9   4   34.20    5.50
   3   9   4   41.10    7.40
  -4  -9  -4  398.16   19.70
  -4  -9  -4  417.66   20.30
   4   9   4  425.36   19.70
   4   9   4  403.06   20.00
   4   9   4  413.46   19.30
   4   9   4  403.76   18.30
  -5  -9  -4  278.87   15.80
  -5  -9  -4  282.57   15.70
  -5  -9  -4  302.17   15.50
   5   9   4  271.57   15.50
   5   9   4  279.47   15.50
   5   9   4  303.27   14.70
   5   9   4  293.67   15.00
   5   9   4  280.27   13.80
  -6  -9  -4  202.88   12.30
  -6  -9  -4  183.78   13.30
  -6  -9  -4  165.48   12.60
   6   9   4  185.18   12.80
   6   9   4  208.98   11.80
   6   9   4  202.78   11.80
   6   9   4  175.08   11.00
   6   9   4  195.48   12.80
  -7  -9  -4  135.49   10.80
  -7  -9  -4  129.39   12.60
   7   9   4  139.79   10.30
   7   9   4  125.59   12.00
   7   9   4  124.69   10.40
   1 -10  -4  417.26   24.30
   1 -10  -4  466.65   22.00
   1 -10  -4  457.05   24.00
  -1  10   4  480.85   23.00
  -1  10   4  461.75   23.40
   0 -10  -4  265.07   14.00
   0 -10  -4  228.48   15.80
   0 -10  -4  257.17   12.50
   0 -10  -4  234.08   16.40
   0 -10  -4  247.28   13.60
   0  10   4  235.88   13.70
   0  10   4  246.98   15.30
   0  10   4  242.78   15.60
   0  10   4  261.37   14.70
  -1 -10  -4  432.86   20.10
  -1 -10  -4  433.36   20.50
  -1 -10  -4  419.06   22.10
  -1 -10  -4  424.46   22.10
  -1 -10  -4  441.56   19.70
   1  10   4  436.46   21.30
   1  10   4  429.66   19.90
   1  10   4  457.95   21.90
   1  10   4  410.86   21.80
  -2 -10  -4   64.69    8.50
  -2 -10  -4   70.99    9.10
  -2 -10  -4   80.49    7.90
  -2 -10  -4   73.29    7.90
  -2 -10  -4   66.39   10.00
  -2 -10  -4   62.09   10.10
   2  10   4   63.09    9.60
   2  10   4   69.19    7.20
   2  10   4   65.89    9.90
   2  10   4   65.79    9.00
  -3 -10  -4  393.36   20.70
  -3 -10  -4  396.86   19.50
  -3 -10  -4  398.96   19.60
   3  10   4  424.86   20.30
   3  10   4  398.36   20.40
   3  10   4  398.26   18.20
   3  10   4  359.36   18.60
   3  10   4  419.96   19.60
  -4 -10  -4  114.39   10.50
  -4 -10  -4  119.19   11.70
  -4 -10  -4  132.59   11.40
  -4 -10  -4  129.89   10.50
   4  10   4  129.09   11.00
   4  10   4  138.99   10.60
   4  10   4  138.39   11.00
   4  10   4  118.19   10.80
   4  10   4  128.89    8.60
  -5 -10  -4  179.28   12.80
  -5 -10  -4  155.38   12.00
  -5 -10  -4  166.38   12.40
  -5 -10  -4  166.88   12.50
   5  10   4  183.88   12.10
   5  10   4  159.18   12.30
   5  10   4  168.78   12.10
   5  10   4  167.38   10.00
   5  10   4  178.18   11.80
  -6 -10  -4  425.96   21.60
  -6 -10  -4  453.25   22.50
  -6 -10  -4  435.26   22.20
   6  10   4  426.56   20.20
   6  10   4  486.75   21.50
   6  10   4  429.06   22.30
   0 -11  -4    4.80    5.40
   0 -11  -4   11.50    7.40
   0 -11  -4   13.80    5.90
   0 -11  -4    8.10    4.30
   0  11   4    9.20    6.20
   0  11   4   -1.00    6.50
  -1 -11  -4   22.40    6.10
  -1 -11  -4   32.40    7.50
  -1 -11  -4   33.10    7.80
  -1 -11  -4   37.10    7.80
   1  11   4   14.70    5.20
   1  11   4    7.90    6.60
   1  11   4   20.20    6.50
  -2 -11  -4  137.19   10.50
  -2 -11  -4  111.39   10.00
  -2 -11  -4  129.09   13.10
  -2 -11  -4  128.69   11.00
   2  11   4  128.79   13.00
   2  11   4  118.29   12.00
   2  11   4  130.59   12.10
   2  11   4  121.69    9.90
  -3 -11  -4  215.78   15.70
  -3 -11  -4  216.58   13.70
   3  11   4  213.78   15.00
   3  11   4  219.88   14.30
   3  11   4  193.38   12.00
   3  11   4  210.98   14.50
  -4 -11  -4  523.85   25.80
  -4 -11  -4  494.75   24.10
   4  11   4  525.05   25.00
   4  11   4  454.85   23.50
   4  11   4  513.15   24.00
   4  11   4  510.25   25.20
   4  11   4  490.35   22.50
  -5 -11  -4  164.18   13.10
  -5 -11  -4  151.98   13.50
   5  11   4  162.08   13.60
   5  11   4  176.18   13.10
   5  11   4  153.68   13.10
   5  11   4  156.08   10.50
   5   8  -5   79.49   12.30
   5   8  -5   63.59   10.20
  -5  -8   5   72.79   12.00
  -5  -8   5   66.69    9.90
  -5  -8   5   64.19    9.50
   4   8  -5   19.90    8.00
   4   8  -5   20.80    5.80
   4   8  -5   34.70    8.20
   4   8  -5   30.00    7.50
  -4  -8   5   43.10   10.80
  -4  -8   5   16.70    6.10
  -4  -8   5   25.20    5.80
   3   8  -5  590.64   29.20
   3   8  -5  573.04   27.70
   3   8  -5  595.64   27.10
   3   8  -5  561.74   27.20
  -3  -8   5  582.54   27.40
  -3  -8   5  561.84   27.40
   2   8  -5   25.80    6.40
   2   8  -5   45.70    9.90
   2   8  -5   27.10    8.00
   2   8  -5   21.80    5.80
  -2  -8   5   28.90    6.60
  -2  -8   5   20.30    5.70
   1   8  -5  144.49   12.60
   1   8  -5  146.39   11.80
   1   8  -5  128.99   15.70
   1   8  -5  169.98   11.50
  -1  -8   5  128.29   11.20
  -1  -8   5  163.18   12.50
  -1  -8   5  144.49   12.50
   0   8  -5   33.30    8.30
   0   8  -5   25.10    5.90
   0   8  -5   22.80    6.10
   0  -8   5   25.50    4.20
   0  -8   5   33.00    6.50
   0  -8   5   19.30    5.60
   6   7  -5    6.80    7.00
   6   7  -5   12.70    5.20
   6   7  -5   22.20    7.10
  -6  -7   5    7.40    5.40
  -6  -7   5    0.80    4.60
  -6  -7   5   26.80    7.30
   5   7  -5  525.35   24.30
   5   7  -5  452.15   24.60
   5   7  -5  528.85   23.40
  -5  -7   5  479.95   23.10
  -5  -7   5  457.45   24.60
  -5  -7   5  519.25   23.40
  -5  -7   5  517.45   24.70
   4   7  -5   60.39   11.00
   4   7  -5   80.99   10.40
   4   7  -5   70.09    8.90
   4   7  -5   84.59   10.90
  -4  -7   5   60.09   10.60
  -4  -7   5   77.69   10.10
  -4  -7   5   55.09    8.30
  -4  -7   5   77.29    9.00
   3   7  -5    4.60    4.70
   3   7  -5    0.50    5.80
   3   7  -5   -0.80    4.90
   3   7  -5   12.00    5.70
  -3  -7   5    3.00    4.60
  -3  -7   5   -0.70    5.10
  -3  -7   5   11.50    4.70
  -3  -7   5    7.00    4.40
  -3  -7   5   10.10    5.30
   2   7  -5   28.20    5.30
   2   7  -5   37.40    6.00
   2   7  -5   38.70    8.50
   2   7  -5   46.50   10.40
  -2  -7   5   34.90    7.70
  -2  -7   5   44.30    8.60
  -2  -7   5   32.50    8.20
  -2  -7   5   49.40    7.80
   1   7  -5   41.50   10.80
   1   7  -5   48.80    8.70
   1   7  -5   51.29    8.00
   1   7  -5   54.29    8.90
   1   7  -5   52.49    6.80
  -1  -7   5   40.70    9.90
  -1  -7   5   53.39    8.80
  -1  -7   5   58.99    7.80
  -1  -7   5   53.89    8.70
   0   7  -5  391.86   20.60
   0   7  -5  410.26   19.40
   0   7  -5  402.96   22.10
   0   7  -5  404.46   19.00
   0  -7   5  396.26   19.00
   0  -7   5  412.76   20.60
   0  -7   5  412.66   21.70
   0  -7   5  390.26   18.00
  -1   7  -5  273.27   16.90
  -1   7  -5  313.07   16.20
  -1   7  -5  315.77   15.60
   1  -7   5  275.07   18.60
   1  -7   5  312.37   16.90
   1  -7   5  290.87   15.10
   1  -7   5  290.27   14.50
  -2   7  -5  248.38   15.50
  -2   7  -5  252.17   16.40
  -2   7  -5  260.77   14.30
   2  -7   5  243.88   13.90
   2  -7   5  237.58   15.60
   2  -7   5  258.17   13.70
   6   6  -5   75.19   10.50
   6   6  -5  109.39    8.50
   6   6  -5   95.29   11.40
   6   6  -5   84.09   11.60
  -6  -6   5   94.59    8.80
  -6  -6   5   95.59   11.10
  -6  -6   5   97.09   11.60
  -6  -6   5  107.99    8.20
   5   6  -5    7.50    6.50
   5   6  -5   -0.60    4.00
   5   6  -5   -5.50    5.20
   5   6  -5    1.00    5.60
  -5  -6   5    5.60    5.20
  -5  -6   5   -4.00    3.90
  -5  -6   5    2.30    5.20
  -5  -6   5   -2.70    3.70
   4   6  -5  399.96   18.70
   4   6  -5  389.06   19.30
   4   6  -5  371.36   18.20
  -4  -6   5  374.86   18.40
  -4  -6   5  341.87   17.70
  -4  -6   5  385.76   19.00
   3   6  -5  140.49   10.20
   3   6  -5  133.19   11.00
   3   6  -5  133.39    9.60
   3   6  -5  138.79   10.80
  -3  -6   5  137.69    9.80
  -3  -6   5  136.09   10.10
  -3  -6   5  103.99    8.70
   2   6  -5 1268.77   54.09
   2   6  -5 1217.48   53.29
   2   6  -5 1295.87   53.09
   2   6  -5 1302.37   52.89
  -2  -6   5 1203.68   52.59
  -2  -6   5 1313.67   53.59
  -2  -6   5 1259.67   53.39
   1   6  -5  171.98    9.90
   1   6  -5  182.58   12.40
   1   6  -5  159.88   11.10
   1   6  -5  177.38   11.00
   1   6  -5  199.08   10.70
  -1  -6   5  174.38   10.00
  -1  -6   5  170.68   11.40
  -1  -6   5  173.98   12.10
   0   6  -5  441.06   21.20
   0   6  -5  433.36   20.30
   0   6  -5  450.35   20.20
   0   6  -5  438.66   22.10
   0  -6   5  458.95   21.90
   0  -6   5  429.86   19.20
   0  -6   5  434.16   19.80
   0  -6   5  435.86   21.10
  -1   6  -5  404.86   19.10
  -1   6  -5  373.96   20.90
  -1   6  -5  400.46   18.50
  -1   6  -5  385.56   19.90
   1  -6   5  397.26   18.00
   1  -6   5  421.06   20.80
   1  -6   5  380.96   18.00
   1  -6   5  410.06   19.80
  -2   6  -5  117.79   10.60
  -2   6  -5  118.69    9.60
  -2   6  -5  116.29   10.90
   2  -6   5  108.49   12.10
   2  -6   5  121.59   10.40
   2  -6   5  110.99    8.20
   2  -6   5  113.89    8.50
  -3   6  -5  230.48   15.00
  -3   6  -5  235.98   15.30
  -3   6  -5  222.18   12.80
   3  -6   5  213.88   13.00
   3  -6   5  223.88   14.20
   3  -6   5  216.08   12.10
   3  -6   5  212.18   16.50
   7   5  -5    2.50    8.20
   7   5  -5    6.60    6.70
  -7  -5   5   -6.10    6.00
  -7  -5   5   -4.80    4.50
   6   5  -5  254.57   15.00
   6   5  -5  269.87   12.80
  -6  -5   5  246.78   13.40
  -6  -5   5  271.57   15.10
  -6  -5   5  238.28   13.10
   5   5  -5  124.19   11.10
   5   5  -5  163.48   12.30
   5   5  -5  172.28   11.10
   5   5  -5  158.98    9.90
  -5  -5   5  160.58    9.80
  -5  -5   5  172.28   11.30
  -5  -5   5  153.18    9.50
   4   5  -5  296.67   15.00
   4   5  -5  288.17   15.60
   4   5  -5  295.37   14.70
  -4  -5   5  296.37   14.70
  -4  -5   5  297.17   15.50
  -4  -5   5  302.77   15.30
  -4  -5   5  270.87   13.90
   3   5  -5   67.29    7.90
   3   5  -5   73.59    7.20
   3   5  -5   82.09    8.30
   3   5  -5   82.39    7.80
  -3  -5   5   68.69    7.70
  -3  -5   5   75.39    8.40
  -3  -5   5   73.09    7.40
  -3  -5   5   56.99    6.20
   2   5  -5   11.40    4.10
   2   5  -5   12.40    4.20
   2   5  -5    7.40    3.90
   2   5  -5    7.40    4.40
  -2  -5   5   11.10    3.80
  -2  -5   5    6.60    3.60
   1   5  -5  484.75   23.20
   1   5  -5  482.95   22.60
   1   5  -5  500.15   21.90
   1   5  -5  518.35   21.90
  -1  -5   5  499.45   22.90
  -1  -5   5  485.05   22.50
  -1  -5   5  465.25   21.40
   0   5  -5  534.25   22.90
   0   5  -5  539.05   22.80
   0   5  -5  517.55   24.30
   0   5  -5  511.45   23.80
   0  -5   5  482.95   23.60
   0  -5   5  504.35   22.40
   0  -5   5  526.55   24.10
   0  -5   5  524.65   22.10
  -1   5  -5  232.68   13.80
  -1   5  -5  224.88   13.20
  -1   5  -5  245.48   12.60
  -1   5  -5  231.98   11.80
   1  -5   5  228.58   11.50
   1  -5   5  234.48   13.60
   1  -5   5  214.98   11.20
   1  -5   5  228.28   12.90
  -2   5  -5  157.68   10.70
  -2   5  -5  136.49    8.80
  -2   5  -5  140.79   10.30
  -2   5  -5  132.69   11.50
   2  -5   5  136.39    8.60
   2  -5   5  148.69   11.10
   2  -5   5  122.09    9.80
   2  -5   5  119.89    7.80
  -3   5  -5   70.99    9.70
  -3   5  -5   79.69    7.50
  -3   5  -5   70.09    9.50
   3  -5   5   74.59   10.30
   3  -5   5   65.99    6.30
   3  -5   5   59.29    7.40
   3  -5   5   70.49    8.60
  -4   5  -5   16.70    5.70
  -4   5  -5   19.10    7.40
  -4   5  -5   26.80    7.40
   4  -5   5   32.00    7.30
   4  -5   5   19.50    5.30
   4  -5   5   17.60    4.80
   7   4  -5   25.60    8.60
   7   4  -5    6.40    6.40
  -7  -4   5    2.90    5.50
  -7  -4   5   10.10    4.40
   6   4  -5   79.79   11.20
   6   4  -5   91.79    9.90
   6   4  -5   90.89   12.00
  -6  -4   5   93.99    9.20
  -6  -4   5  105.49    9.60
  -6  -4   5  100.99   10.90
  -6  -4   5   90.19    7.60
  -6  -4   5   87.09    8.90
   5   4  -5   82.89    8.40
   5   4  -5   85.59    7.20
   5   4  -5   69.19    8.10
  -5  -4   5   89.69    8.60
  -5  -4   5   83.79    8.60
  -5  -4   5   87.49    7.00
  -5  -4   5   84.49    6.50
  -5  -4   5   76.89    9.50
   4   4  -5  113.49    9.10
   4   4  -5  116.29    8.20
   4   4  -5  117.79    9.30
   4   4  -5  117.29    8.90
  -4  -4   5  106.99    9.40
  -4  -4   5  112.59    7.00
  -4  -4   5  129.49    8.70
  -4  -4   5  121.49    9.30
  -4  -4   5  115.99    8.10
   3   4  -5 1241.68   49.90
   3   4  -5 1170.18   49.90
   3   4  -5 1220.18   50.29
   3   4  -5 1238.78   50.59
  -3  -4   5 1217.88   50.49
  -3  -4   5 1184.18   50.09
  -3  -4   5 1193.48   50.09
  -3  -4   5 1061.99   49.20
  -3  -4   5 1257.67   50.59
   2   4  -5  585.84   25.00
   2   4  -5  550.04   25.00
   2   4  -5  588.44   25.60
   2   4  -5  568.24   24.60
  -2  -4   5  557.34   25.10
  -2  -4   5  566.34   25.00
  -2  -4   5  562.74   25.50
   1   4  -5  806.72   35.30
   1   4  -5  856.21   34.70
   1   4  -5  832.32   35.80
   1   4  -5  835.32   34.60
  -1  -4   5  804.32   35.40
  -1  -4   5  812.02   35.60
  -1  -4   5  826.52   34.80
   0   4  -5    5.20    3.20
   0   4  -5    5.80    3.40
   0   4  -5    2.70    3.40
   0   4  -5    6.80    3.30
   0  -4   5    4.00    3.10
   0  -4   5    4.00    2.20
   0  -4   5    8.50    3.40
   0  -4   5    3.00    2.50
  -1   4  -5    8.80    4.00
  -1   4  -5    3.00    3.80
  -1   4  -5    2.10    3.70
  -1   4  -5    7.90    3.10
   1  -4   5    4.50    2.40
   1  -4   5    1.60    3.40
   1  -4   5    5.80    3.30
   1  -4   5   -0.80    2.30
  -2   4  -5  359.96   16.10
  -2   4  -5  355.46   17.50
  -2   4  -5  339.67   18.10
  -2   4  -5  371.56   18.00
   2  -4   5  367.96   16.50
   2  -4   5  337.47   17.30
   2  -4   5  383.76   18.10
   2  -4   5  351.26   15.70
  -3   4  -5  221.98   13.20
  -3   4  -5  213.28   11.00
  -3   4  -5  222.48   13.40
   3  -4   5  230.88   12.50
   3  -4   5  223.38   13.40
   3  -4   5  203.48   10.40
   3  -4   5  221.98   11.70
  -4   4  -5  586.04   27.70
  -4   4  -5  604.74   28.50
  -4   4  -5  557.94   27.90
   4  -4   5  648.74   28.80
   4  -4   5  606.74   27.50
   4  -4   5  598.64   26.90
  -5   4  -5   48.60   13.00
  -5   4  -5   56.29   10.30
  -5   4  -5   97.59   12.30
   5  -4   5   61.49    9.20
   5  -4   5   59.99    9.10
   7   3  -5  172.68   12.70
   7   3  -5  143.49   14.70
  -7  -3   5  149.39   10.00
  -7  -3   5  158.18   14.10
  -7  -3   5  171.38   11.90
   6   3  -5   25.30    5.40
   6   3  -5   50.59    9.90
  -6  -3   5   27.90    5.50
  -6  -3   5   22.60    5.00
  -6  -3   5   24.40    6.40
   5   3  -5 1239.98   51.49
   5   3  -5 1218.18   50.79
  -5  -3   5 1287.97   51.69
  -5  -3   5 1248.28   51.59
  -5  -3   5 1210.88   52.39
  -5  -3   5 1189.48   50.69
   4   3  -5   37.40    5.60
   4   3  -5   31.80    6.40
   4   3  -5   35.30    7.10
   4   3  -5   37.70    6.40
  -4  -3   5   32.00    4.30
  -4  -3   5   41.00    4.90
  -4  -3   5   33.80    6.80
  -4  -3   5   38.50    6.50
  -4  -3   5   40.90    5.80
   3   3  -5  367.26   16.90
   3   3  -5  353.06   17.40
   3   3  -5  386.16   17.50
   3   3  -5  375.46   17.00
  -3  -3   5  365.96   17.50
  -3  -3   5  374.26   16.80
  -3  -3   5  357.56   16.90
  -3  -3   5  389.66   17.60
  -3  -3   5  359.36   16.10
   2   3  -5  354.66   17.20
   2   3  -5  354.56   16.80
   2   3  -5  372.66   16.50
   2   3  -5  371.46   16.80
  -2  -3   5  356.26   16.80
  -2  -3   5  360.96   17.10
  -2  -3   5  370.76   16.70
   1   3  -5  203.48    9.80
   1   3  -5  187.78   10.80
   1   3  -5  200.68   10.00
   1   3  -5  175.28   10.30
  -1  -3   5  208.78   10.20
  -1  -3   5  193.68   10.70
  -1  -3   5  193.78   10.00
   0   3  -5  198.18    9.40
   0   3  -5  188.68   10.80
   0   3  -5  178.08   10.30
   0  -3   5  188.08    9.30
   0  -3   5  179.48   10.50
  -1   3  -5  396.26   17.40
  -1   3  -5  361.36   17.70
  -1   3  -5  404.16   16.60
  -1   3  -5  362.46   18.10
   1  -3   5  387.46   18.00
   1  -3   5  358.96   16.30
   1  -3   5  383.26   17.80
  -2   3  -5  657.23   29.70
  -2   3  -5  666.03   30.20
  -2   3  -5  685.73   29.60
  -2   3  -5  676.93   28.30
   2  -3   5  690.13   29.00
   2  -3   5  643.34   28.10
   2  -3   5  702.53   29.80
   2  -3   5  718.33   30.20
  -3   3  -5  875.71   39.30
  -3   3  -5  902.91   39.30
   3  -3   5  897.81   39.10
   3  -3   5  975.00   39.80
   3  -3   5  915.11   38.60
  -4   3  -5  287.57   16.10
  -4   3  -5  269.27   15.00
  -4   3  -5  238.78   15.80
  -4   3  -5  265.67   15.40
   4  -3   5  290.07   14.40
   4  -3   5  317.87   16.00
   4  -3   5  289.37   14.60
  -5   3  -5  244.58   16.70
  -5   3  -5  265.87   14.90
  -5   3  -5  235.08   15.80
   5  -3   5  262.37   14.40
   5  -3   5  250.47   14.30
   5  -3   5  291.57   16.20
   7   2  -5  198.18   10.90
   7   2  -5  212.68   13.50
  -7  -2   5  205.58   14.90
  -7  -2   5  181.98   11.00
   6   2  -5    4.90    5.60
   6   2  -5   -1.00    4.60
   6   2  -5    3.70    3.10
  -6  -2   5    3.40    5.20
  -6  -2   5   -0.50    4.00
  -6  -2   5    2.40    3.20
   5   2  -5  111.19    7.30
   5   2  -5   95.99    7.80
   5   2  -5  115.89    8.70
  -5  -2   5  120.09    9.60
  -5  -2   5  120.69    7.90
  -5  -2   5  103.79    6.60
  -5  -2   5  123.99    8.10
  -5  -2   5  111.49    7.50
   4   2  -5  345.77   17.10
   4   2  -5  349.96   16.40
   4   2  -5  329.17   15.80
   4   2  -5  335.07   15.40
   4   2  -5  314.67   16.00
  -4  -2   5  316.87   14.50
  -4  -2   5  357.66   16.20
  -4  -2   5  339.47   15.50
  -4  -2   5  324.77   16.40
  -4  -2   5  332.67   15.40
   3   2  -5  664.23   28.50
   3   2  -5  660.83   28.20
   3   2  -5  649.54   27.80
   3   2  -5  649.83   28.00
  -3  -2   5  642.54   27.90
  -3  -2   5  673.73   28.30
  -3  -2   5  646.24   28.40
  -3  -2   5  622.84   26.90
  -3  -2   5  653.93   27.70
   2   2  -5  984.90   40.60
   2   2  -5  990.30   41.40
   2   2  -5 1004.20   40.90
   2   2  -5  976.70   41.10
  -2  -2   5  968.30   41.00
  -2  -2   5 1065.99   41.50
  -2  -2   5  850.41   39.90
  -2  -2   5  997.60   41.10
   1   2  -5   83.89    6.60
   1   2  -5   80.69    5.60
   1   2  -5   73.99    6.30
  -1  -2   5   77.39    6.40
  -1  -2   5   82.89    5.70
  -1  -2   5   81.99    6.00
   0   2  -5 1707.23   72.19
   0   2  -5 1697.93   72.39
   0   2  -5 1787.22   71.29
   0  -2   5 1756.42   71.49
   0  -2   5 1756.72   72.19
   0  -2   5 1820.12   72.49
  -1   2  -5  465.35   22.40
  -1   2  -5  516.55   21.00
  -1   2  -5  471.65   22.20
   1  -2   5  534.85   22.60
   1  -2   5  509.55   22.10
  -2   2  -5   90.39    7.30
  -2   2  -5   89.79    5.30
  -2   2  -5   96.79    7.10
  -2   2  -5   85.29    7.40
   2  -2   5   83.19    6.90
   2  -2   5   93.39    7.30
  -3   2  -5 1367.46   56.89
  -3   2  -5 1378.56   56.09
  -3   2  -5 1413.46   56.29
   3  -2   5 1151.48   55.69
   3  -2   5 1402.56   56.49
  -4   2  -5  163.58   11.40
  -4   2  -5  168.28   10.80
  -4   2  -5  151.38   10.40
   4  -2   5  171.08   10.80
   4  -2   5  166.78    9.90
   4  -2   5  166.48   10.00
  -5   2  -5  265.67   16.40
  -5   2  -5  269.57   16.00
  -5   2  -5  289.57   15.40
  -5   2  -5  291.37   17.00
   5  -2   5  293.77   14.90
   5  -2   5  280.47   14.70
   5  -2   5  296.87   15.90
  -6   2  -5   48.80    8.50
  -6   2  -5   62.99   11.30
  -6   2  -5   77.79   12.70
   6  -2   5   45.30    8.20
   6  -2   5   40.30    8.70
   7   1  -5    4.00    4.40
   7   1  -5    0.40    5.60
  -7  -1   5   12.90    6.50
   6   1  -5 1428.26   58.09
   6   1  -5 1441.56   60.19
   6   1  -5 1413.86   58.99
  -6  -1   5 1470.15   58.29
  -6  -1   5 1454.75   60.09
  -6  -1   5 1280.57   57.79
   5   1  -5   10.30    3.30
   5   1  -5    9.80    3.00
   5   1  -5    3.80    3.10
   5   1  -5   10.50    4.40
  -5  -1   5   14.70    4.90
  -5  -1   5    8.20    3.00
  -5  -1   5    9.70    2.80
  -5  -1   5   10.10    3.40
  -5  -1   5    9.10    2.50
  -5  -1   5    4.40    3.00
   4   1  -5  629.54   28.60
   4   1  -5  653.23   29.50
   4   1  -5  704.53   29.10
   4   1  -5  672.83   28.40
   4   1  -5  658.73   27.60
  -4  -1   5  678.23   28.10
  -4  -1   5  646.84   27.30
  -4  -1   5  662.33   28.40
  -4  -1   5  691.33   28.60
  -4  -1   5  641.64   29.10
  -4  -1   5  651.73   27.60
   3   1  -5   37.70    5.50
   3   1  -5   32.40    5.00
   3   1  -5   41.40    5.90
   3   1  -5   42.70    5.60
   3   1  -5   36.70    3.70
  -3  -1   5   38.40    4.40
  -3  -1   5   38.70    5.50
  -3  -1   5   40.90    3.50
  -3  -1   5   32.70    3.10
  -3  -1   5   36.90    4.90
  -3  -1   5   37.20    5.30
   2   1  -5 1237.78   50.99
   2   1  -5 1219.68   51.79
   2   1  -5 1231.88   51.49
  -2  -1   5 1343.57   51.79
  -2  -1   5 1238.48   51.49
  -2  -1   5 1224.68   50.29
  -2  -1   5 1224.38   50.49
  -2  -1   5 1213.88   51.39
   1   1  -5 1351.46   55.09
   1   1  -5 1343.97   55.99
   1   1  -5 1284.87   55.69
  -1  -1   5 1359.76   55.79
  -1  -1   5 1363.36   55.89
  -1  -1   5 1316.37   55.39
  -1  -1   5 1406.76   54.79
   0   1  -5  501.85   22.60
   0   1  -5  504.55   22.50
   0   1  -5  513.65   21.40
   0  -1   5  540.25   22.70
   0  -1   5  493.65   22.30
   0  -1   5  506.35   21.70
  -1   1  -5 3168.68  129.09
  -1   1  -5 3272.07  130.29
  -1   1  -5 3213.88  130.49
   1  -1   5 3049.79  130.09
   1  -1   5 3301.97  130.39
  -2   1  -5  181.88   10.20
  -2   1  -5  183.58    9.90
  -2   1  -5  191.08   10.40
   2  -1   5  189.08   10.30
   2  -1   5  187.98    9.80
  -3   1  -5   71.29    7.30
  -3   1  -5   88.19    7.00
  -3   1  -5   83.09    7.20
   3  -1   5   82.59    7.00
  -4   1  -5  108.69    7.90
  -4   1  -5  126.09    9.10
  -4   1  -5  123.39    9.40
  -4   1  -5  118.89    8.50
   4  -1   5  107.79    8.50
   4  -1   5  109.79    8.00
  -5   1  -5   26.50    7.10
  -5   1  -5    7.50    4.10
  -5   1  -5    8.40    5.20
  -5   1  -5    8.80    5.30
   5  -1   5    7.60    4.20
   5  -1   5    9.00    3.50
   5  -1   5   12.20    4.30
  -6   1  -5  456.05   22.90
  -6   1  -5  466.25   23.90
  -6   1  -5  467.25   21.70
  -6   1  -5  445.96   23.20
   6  -1   5  451.45   21.90
   6  -1   5  468.45   21.40
   6  -1   5  479.25   22.60
   7   0  -5    9.50    4.90
  -7   0   5   13.90    6.40
   6   0  -5   31.60    6.20
   6   0  -5   44.00   10.10
  -6   0   5   28.90    4.60
  -6   0   5   27.60    5.30
  -6   0   5   29.50    6.10
   5   0  -5   16.70    3.80
   5   0  -5   19.10    5.00
   5   0  -5   16.70    3.40
  -5   0   5   15.20    3.80
  -5   0   5   22.30    4.50
  -5   0   5   11.00    4.80
  -5   0   5   17.40    3.40
  -5   0   5   20.50    4.80
   4   0  -5   44.00    4.60
   4   0  -5   43.20    7.20
   4   0  -5   35.90    5.80
   4   0  -5   44.00    5.30
  -4   0   5   48.30    5.30
  -4   0   5   40.60    5.80
  -4   0   5   45.40    4.60
  -4   0   5   57.99    6.80
  -4   0   5   43.10    4.40
   3   0  -5 1206.48   50.29
   3   0  -5 1217.58   50.19
   3   0  -5 1175.08   50.49
   3   0  -5 1243.68   49.30
  -3   0   5 1213.88   50.19
  -3   0   5 1195.18   49.40
  -3   0   5 1207.78   49.30
  -3   0   5 1166.78   50.29
  -3   0   5 1228.28   50.19
   2   0  -5 1134.99   47.80
   2   0  -5 1189.68   48.10
   2   0  -5 1174.28   46.90
   2   0  -5 1086.49   47.70
  -2   0   5 1136.59   46.80
  -2   0   5 1124.49   47.80
  -2   0   5 1210.38   48.00
  -2   0   5 1118.79   47.60
   1   0  -5 1880.21   74.89
   1   0  -5 1722.73   74.59
  -1   0   5 1855.51   73.69
  -1   0   5 1784.72   74.59
  -1   0   5 1738.53   74.19
  -1   0   5 1924.11   74.79
   0   0  -5   57.59    5.50
   0   0  -5   59.79    5.50
   0   0   5   63.69    4.60
   0   0   5   67.59    5.20
   0   0   5   61.59    5.50
  -1   0  -5   35.80    5.00
  -1   0  -5   38.50    3.30
  -1   0  -5   36.20    4.80
   1   0   5   40.90    4.60
   1   0   5   41.20    4.80
  -2   0  -5  429.36   19.60
  -2   0  -5  434.96   19.10
  -2   0  -5  425.36   19.50
   2   0   5  456.45   19.60
   2   0   5  414.06   19.20
  -3   0  -5  836.62   35.10
  -3   0  -5  819.42   35.10
  -3   0  -5  872.71   35.50
  -3   0  -5  768.82   34.10
   3   0   5  818.22   35.20
   3   0   5  826.52   34.80
  -4   0  -5 1063.79   44.90
  -4   0  -5 1061.99   44.40
  -4   0  -5 1026.20   44.00
  -4   0  -5 1047.50   44.90
   4   0   5 1085.99   44.80
  -5   0  -5   69.99    7.10
  -5   0  -5   69.19    7.10
  -5   0  -5   70.29    8.80
   5   0   5   62.99    6.80
   5   0   5   70.19    7.60
  -6   0  -5  100.69    8.50
  -6   0  -5  112.79    9.50
  -6   0  -5  114.99   10.70
  -6   0  -5   84.69   11.10
   6   0   5  100.19    9.20
   6   0   5   94.09    7.90
   6   0   5  104.39    9.60
  -7   0  -5   -4.20    7.60
  -7   0  -5    4.50    6.10
   7   0   5    2.50    3.80
   7   0   5   -3.80    5.00
   7  -1  -5  200.58   12.60
  -7   1   5  201.98   14.90
   6  -1  -5    2.10    4.00
   6  -1  -5   11.20    6.90
   6  -1  -5    8.10    6.00
   6  -1  -5    2.00    4.40
  -6   1   5   -1.90    3.30
  -6   1   5    9.50    4.40
  -6   1   5    3.50    5.30
  -6   1   5    8.40    3.30
   5  -1  -5 1120.69   45.40
   5  -1  -5 1023.00   44.80
   5  -1  -5 1089.89   44.80
  -5   1   5 1094.59   44.90
  -5   1   5 1091.39   46.20
  -5   1   5 1096.99   44.90
  -5   1   5 1031.70   45.40
   4  -1  -5  362.26   17.50
   4  -1  -5  391.76   17.20
   4  -1  -5  396.46   18.90
   4  -1  -5  399.06   18.20
  -4   1   5  389.06   18.50
  -4   1   5  394.36   17.50
  -4   1   5  396.26   18.20
   3  -1  -5  931.91   37.40
   3  -1  -5  877.71   38.10
   3  -1  -5  910.91   38.40
  -3   1   5  905.71   38.40
  -3   1   5  906.21   38.40
  -3   1   5  882.11   38.00
  -3   1   5  893.21   37.10
  -3   1   5  931.21   37.40
   2  -1  -5 1093.69   45.00
   2  -1  -5 1107.69   45.80
   2  -1  -5 1089.99   46.00
   2  -1  -5 1070.29   45.90
  -2   1   5 1056.39   45.70
  -2   1   5 1119.49   45.80
  -2   1   5 1110.29   46.00
  -2   1   5 1129.69   45.00
   1  -1  -5  313.17   14.20
   1  -1  -5  294.07   14.70
   1  -1  -5  323.97   15.00
  -1   1   5  338.77   14.90
  -1   1   5  320.27   14.80
  -1   1   5  314.57   13.70
  -1   1   5  302.67   14.30
   0  -1  -5  461.55   20.80
   0  -1  -5  448.66   20.60
   0   1   5  452.05   20.50
   0   1   5  485.95   20.70
   0   1   5  470.55   19.60
  -1  -1  -5  461.05   20.80
  -1  -1  -5  467.75   20.80
   1   1   5  465.15   20.60
   1   1   5  469.25   20.70
  -2  -1  -5 2959.30  126.19
  -2  -1  -5 3057.99  126.09
   2   1   5 3061.69  125.99
   2   1   5 3312.87  126.29
  -3  -1  -5   57.99    6.00
  -3  -1  -5   59.69    5.80
  -3  -1  -5   59.69    5.90
   3   1   5   58.19    5.40
   3   1   5   61.89    5.90
  -4  -1  -5    4.70    3.90
  -4  -1  -5    8.00    3.30
  -4  -1  -5    3.60    3.40
   4   1   5    4.30    3.00
   4   1   5    0.90    2.60
  -5  -1  -5  552.84   24.50
  -5  -1  -5  559.64   25.60
  -5  -1  -5  591.54   25.90
  -5  -1  -5  543.95   24.70
   5   1   5  582.44   24.70
   5   1   5  540.85   25.10
  -6  -1  -5  701.93   30.60
  -6  -1  -5  709.33   30.90
  -6  -1  -5  730.93   32.40
   6   1   5  715.13   30.30
   6   1   5  677.33   31.00
  -7  -1  -5  124.59   13.70
  -7  -1  -5  121.79   12.10
  -7  -1  -5  112.99   10.90
   7   1   5  115.99    8.30
   7   1   5  151.38   11.10
   7  -2  -5  204.98   13.60
  -7   2   5  212.68   15.30
   6  -2  -5   15.00    5.10
   6  -2  -5    3.70    3.70
   6  -2  -5   14.10    4.70
  -6   2   5   11.70    4.50
  -6   2   5    3.30    4.70
  -6   2   5    5.20    7.20
  -6   2   5    3.60    5.50
   5  -2  -5  229.78   11.50
   5  -2  -5  205.58   11.30
   5  -2  -5  200.78   12.40
  -5   2   5  210.58   11.10
  -5   2   5  224.58   11.50
  -5   2   5  209.38   13.30
  -5   2   5  220.88   13.00
  -5   2   5  213.58   12.10
   4  -2  -5  810.22   35.00
   4  -2  -5  825.82   34.70
   4  -2  -5  807.82   33.60
   4  -2  -5  775.52   33.90
  -4   2   5  792.62   34.50
  -4   2   5  810.92   33.90
  -4   2   5  779.72   34.90
  -4   2   5  798.72   34.70
  -4   2   5  797.92   33.70
   3  -2  -5  369.96   17.20
   3  -2  -5  377.26   17.80
   3  -2  -5  385.46   16.60
   3  -2  -5  388.76   17.70
  -3   2   5  383.26   17.70
  -3   2   5  364.46   17.70
  -3   2   5  359.36   17.60
  -3   2   5  382.56   17.10
  -3   2   5  391.16   16.70
   2  -2  -5 2855.21  117.19
   2  -2  -5 2882.61  118.29
   2  -2  -5 2938.11  117.89
   2  -2  -5 3031.30  118.09
  -2   2   5 2976.50  117.29
  -2   2   5 3036.60  118.29
  -2   2   5 2787.72  117.79
  -2   2   5 2698.13  117.79
  -2   2   5 2878.01  117.89
   1  -2  -5  704.53   30.60
   1  -2  -5  723.23   31.40
   1  -2  -5  714.33   30.40
   1  -2  -5  770.22   31.40
  -1   2   5  750.82   31.20
  -1   2   5  721.23   30.40
  -1   2   5  738.13   31.30
   0  -2  -5   14.60    2.20
   0  -2  -5   20.70    4.30
   0  -2  -5   19.00    2.70
   0  -2  -5   20.70    4.30
   0   2   5   21.60    3.90
   0   2   5   20.40    3.90
   0   2   5   21.00    3.20
  -1  -2  -5  226.18   11.70
  -1  -2  -5  242.58   11.90
  -1  -2  -5  222.78   10.40
   1   2   5  250.47   11.70
   1   2   5  238.88   10.70
   1   2   5  228.18   11.60
  -2  -2  -5  236.48   12.10
  -2  -2  -5  231.38   12.10
  -2  -2  -5  243.78   11.10
   2   2   5  242.88   12.00
   2   2   5  259.27   12.20
  -3  -2  -5  893.11   37.30
  -3  -2  -5  870.31   36.60
  -3  -2  -5  847.12   37.40
   3   2   5  904.11   37.30
   3   2   5  882.31   37.10
  -4  -2  -5 1300.17   53.79
  -4  -2  -5 1309.97   53.59
  -4  -2  -5 1240.68   53.39
  -4  -2  -5 1272.27   53.19
   4   2   5 1298.67   53.29
   4   2   5 1286.07   53.59
  -5  -2  -5  328.97   16.20
  -5  -2  -5  286.27   14.80
  -5  -2  -5  316.87   15.60
  -5  -2  -5  318.47   15.50
   5   2   5  302.87   15.10
   5   2   5  312.47   14.50
  -6  -2  -5   73.89    7.20
  -6  -2  -5   71.09    6.90
  -6  -2  -5   86.09    9.90
  -6  -2  -5   76.09    8.90
  -6  -2  -5   83.99    8.80
   6   2   5   66.49    6.70
   6   2   5   73.39    7.60
  -7  -2  -5   43.40   11.10
  -7  -2  -5   44.40    7.10
   7   2   5   31.00    5.80
   6  -3  -5  601.64   27.50
   6  -3  -5  586.54   26.60
   6  -3  -5  590.34   26.30
  -6   3   5  624.74   27.90
  -6   3   5  573.34   27.00
  -6   3   5  573.84   27.00
  -6   3   5  590.34   26.30
  -6   3   5  585.34   29.00
   5  -3  -5  462.55   21.40
   5  -3  -5  475.25   21.30
   5  -3  -5  486.55   22.30
  -5   3   5  481.65   22.60
  -5   3   5  454.55   23.10
  -5   3   5  467.55   22.20
   4  -3  -5  477.65   23.00
   4  -3  -5  492.55   22.40
   4  -3  -5  505.05   22.10
   4  -3  -5  490.65   23.30
  -4   3   5  522.95   22.20
  -4   3   5  489.75   23.40
  -4   3   5  520.75   23.00
  -4   3   5  514.25   23.20
  -4   3   5  501.75   22.20
   3  -3  -5  222.88   12.40
   3  -3  -5  235.08   12.40
   3  -3  -5  241.98   11.30
   3  -3  -5  230.18   11.90
  -3   3   5  224.88   11.60
  -3   3   5  227.88   12.40
  -3   3   5  225.98   12.20
  -3   3   5  235.08   11.20
  -3   3   5  244.08   12.30
   2  -3  -5  212.98   10.70
   2  -3  -5  195.88   11.00
   2  -3  -5  205.78   10.70
   2  -3  -5  209.88    9.90
  -2   3   5  185.28   10.30
  -2   3   5  210.18    9.90
  -2   3   5  215.78   10.90
  -2   3   5  206.28   10.50
   1  -3  -5  340.87   16.80
   1  -3  -5  360.96   16.10
   1  -3  -5  386.56   16.80
   1  -3  -5  359.26   15.90
  -1   3   5  377.96   16.60
  -1   3   5  366.86   15.90
  -1   3   5  371.66   16.90
  -1   3   5  350.96   16.10
   0  -3  -5   69.59    4.70
   0  -3  -5   62.99    5.70
   0  -3  -5   67.69    3.80
   0  -3  -5   68.09    5.50
   0  -3  -5   64.59    4.20
   0   3   5   68.69    4.20
   0   3   5   69.79    4.70
   0   3   5   62.09    5.40
   0   3   5   71.39    5.50
  -1  -3  -5 8060.59  344.17
  -1  -3  -5 8694.63  343.17
  -1  -3  -5 8208.08  344.37
   1   3   5 8782.82  344.17
   1   3   5 8587.64  344.37
   1   3   5 8880.91  343.47
  -2  -3  -5  308.67   13.70
  -2  -3  -5  321.17   14.10
  -2  -3  -5  306.57   15.00
  -2  -3  -5  327.07   15.20
   2   3   5  333.47   15.00
   2   3   5  318.07   15.00
  -3  -3  -5   83.69    6.90
  -3  -3  -5   75.79    6.30
  -3  -3  -5   84.29    5.80
  -3  -3  -5   81.39    6.10
   3   3   5   79.09    6.20
   3   3   5   84.69    6.30
  -4  -3  -5  266.87   13.20
  -4  -3  -5  255.97   13.50
  -4  -3  -5  263.37   13.50
  -4  -3  -5  284.97   13.50
   4   3   5  280.17   13.30
   4   3   5  268.17   13.20
  -5  -3  -5  183.58   10.70
  -5  -3  -5  199.38   11.20
  -5  -3  -5  195.08   11.00
  -5  -3  -5  207.78   11.70
   5   3   5  198.08   10.40
   5   3   5  182.78   10.60
  -6  -3  -5  705.63   29.60
  -6  -3  -5  602.94   27.90
  -6  -3  -5  647.24   28.60
  -6  -3  -5  665.33   29.00
   6   3   5  620.54   27.90
  -7  -3  -5  209.28   13.50
  -7  -3  -5  208.18   14.80
   7   3   5  195.68   12.30
   6  -4  -5  380.56   19.30
   6  -4  -5  371.26   20.30
  -6   4   5  412.96   20.40
  -6   4   5  340.77   21.40
  -6   4   5  401.46   19.70
   5  -4  -5  229.68   13.10
   5  -4  -5  217.38   12.70
   5  -4  -5  220.38   15.00
   5  -4  -5  242.58   14.10
  -5   4   5  218.48   14.50
  -5   4   5  234.18   13.10
  -5   4   5  219.88   12.50
  -5   4   5  219.48   13.50
  -5   4   5  245.48   14.20
   4  -4  -5   91.69    7.90
   4  -4  -5  107.99    8.50
   4  -4  -5  107.59    9.20
  -4   4   5  120.89    9.40
  -4   4   5  104.29    9.10
  -4   4   5  100.09    8.70
   3  -4  -5 1368.96   55.99
   3  -4  -5 1327.27   55.39
   3  -4  -5 1305.37   54.89
   3  -4  -5 1355.56   55.59
  -3   4   5 1178.28   55.39
  -3   4   5 1311.77   54.89
  -3   4   5 1320.87   55.89
  -3   4   5 1391.36   55.29
  -3   4   5 1411.06   55.89
   2  -4  -5  101.39    7.00
   2  -4  -5   96.39    7.30
   2  -4  -5   93.49    6.30
   2  -4  -5   98.59    7.20
  -2   4   5  102.59    6.90
  -2   4   5   95.69    6.30
  -2   4   5   89.49    6.80
  -2   4   5   97.59    7.10
   1  -4  -5 2201.18   87.19
   1  -4  -5 2193.08   88.59
   1  -4  -5 2085.69   87.79
   1  -4  -5 2022.10   88.69
  -1   4   5 2192.58   88.49
  -1   4   5 2125.19   88.09
  -1   4   5 2218.48   88.79
  -1   4   5 2245.08   87.89
   0  -4  -5   11.30    2.80
   0  -4  -5    8.50    2.50
   0  -4  -5   11.00    1.90
   0  -4  -5    7.60    2.90
   0  -4  -5   10.10    2.90
   0   4   5   11.00    2.40
   0   4   5    7.50    2.80
   0   4   5    5.60    2.40
   0   4   5    7.40    2.00
  -1  -4  -5   17.30    3.70
  -1  -4  -5   12.00    3.00
  -1  -4  -5   16.50    3.00
  -1  -4  -5   13.00    3.10
   1   4   5   15.40    4.00
   1   4   5   14.40    2.40
   1   4   5   12.00    2.90
  -2  -4  -5 3141.09  125.29
  -2  -4  -5 2961.60  126.29
  -2  -4  -5 3077.29  125.49
  -2  -4  -5 3028.40  126.49
   2   4   5 3042.60  126.49
   2   4   5 3217.38  125.69
   2   4   5 3252.47  126.29
  -3  -4  -5  173.88    9.80
  -3  -4  -5  167.68    8.80
  -3  -4  -5  161.08    8.70
  -3  -4  -5  151.78    7.70
   3   4   5  165.28    9.10
   3   4   5  167.18    9.40
  -4  -4  -5 1103.79   48.10
  -4  -4  -5 1162.78   48.40
  -4  -4  -5 1151.38   48.00
  -4  -4  -5 1151.38   48.00
   4   4   5 1189.78   48.30
   4   4   5 1146.09   47.90
  -5  -4  -5   55.69    7.00
  -5  -4  -5   64.49    6.60
  -5  -4  -5   65.29    7.50
  -5  -4  -5   67.29    7.00
   5   4   5   65.09    6.50
   5   4   5   62.89    6.40
  -6  -4  -5  680.93   30.30
  -6  -4  -5  699.93   29.50
  -6  -4  -5  600.54   29.20
  -6  -4  -5  717.83   30.60
   6   4   5  668.63   29.00
   6   4   5  703.83   29.00
  -7  -4  -5  212.58   13.80
  -7  -4  -5  222.18   14.60
   7   4   5  185.88   12.80
   5  -5  -5  251.67   16.20
   5  -5  -5  262.07   16.30
   5  -5  -5  268.47   14.70
   5  -5  -5  259.67   15.30
  -5   5   5  281.77   15.70
  -5   5   5  259.67   16.50
  -5   5   5  281.27   16.00
   4  -5  -5   46.90    8.40
   4  -5  -5   45.00    8.90
   4  -5  -5   41.10    8.00
   4  -5  -5   51.99    7.10
  -4   5   5   42.70    8.20
  -4   5   5   41.20    7.00
  -4   5   5   39.80    8.50
  -4   5   5   35.30    6.70
  -4   5   5   34.40    7.70
   3  -5  -5  712.53   28.90
   3  -5  -5  610.04   29.00
   3  -5  -5  645.14   28.10
   3  -5  -5  669.03   28.70
  -3   5   5  734.53   29.30
  -3   5   5  642.44   28.10
  -3   5   5  646.44   28.50
  -3   5   5  647.34   29.00
  -3   5   5  549.05   28.70
   2  -5  -5   76.59    6.30
   2  -5  -5   73.49    7.30
   2  -5  -5  103.39    7.70
   2  -5  -5   81.19    7.30
  -2   5   5   76.29    6.70
  -2   5   5   82.79    6.30
  -2   5   5   77.09    6.70
  -2   5   5   85.19    7.10
   1  -5  -5  441.86   20.00
   1  -5  -5  468.95   19.40
   1  -5  -5  438.36   21.00
   1  -5  -5  492.85   20.90
   1  -5  -5  476.65   20.50
  -1   5   5  450.45   20.30
  -1   5   5  448.66   20.90
  -1   5   5  454.45   20.60
  -1   5   5  468.55   20.00
   0  -5  -5 2329.07   96.59
   0  -5  -5 2369.76   96.39
   0  -5  -5 2393.26   95.79
   0  -5  -5 2297.47   95.69
   0  -5  -5 2415.66   95.19
   0   5   5 2301.57   96.49
   0   5   5 2288.17   95.59
   0   5   5 2435.56   96.29
  -1  -5  -5  890.41   38.30
  -1  -5  -5  954.40   38.20
  -1  -5  -5  914.01   39.20
  -1  -5  -5  924.61   37.90
  -1  -5  -5  942.01   39.00
   1   5   5  891.81   37.90
   1   5   5  932.91   39.10
   1   5   5  868.61   37.70
   1   5   5  940.41   38.20
   1   5   5  948.21   38.90
  -2  -5  -5  643.54   27.40
  -2  -5  -5  627.54   28.50
  -2  -5  -5  639.24   27.30
   2   5   5  644.34   27.50
   2   5   5  670.73   28.50
   2   5   5  675.93   27.60
   2   5   5  666.83   28.10
  -3  -5  -5   35.00    4.70
  -3  -5  -5   35.70    4.80
  -3  -5  -5   37.10    5.80
  -3  -5  -5   33.10    4.10
  -3  -5  -5   32.70    5.10
   3   5   5   31.70    5.00
   3   5   5   30.50    4.50
   3   5   5   31.30    4.90
   3   5   5   30.60    5.30
  -4  -5  -5   42.20    5.70
  -4  -5  -5   27.80    6.20
  -4  -5  -5   38.80    4.10
  -4  -5  -5   34.60    5.60
  -4  -5  -5   41.50    5.90
   4   5   5   52.99    6.00
   4   5   5   42.80    5.40
   4   5   5   39.90    5.80
  -5  -5  -5 1038.70   42.60
  -5  -5  -5 1055.39   42.40
  -5  -5  -5  908.41   42.70
  -5  -5  -5 1032.10   42.80
   5   5   5  998.70   42.10
   5   5   5  980.10   42.80
   5   5   5 1031.50   42.70
  -6  -5  -5  119.59    8.40
  -6  -5  -5  126.29   10.10
  -6  -5  -5   93.99    9.10
  -6  -5  -5  111.09    9.70
   6   5   5  103.49    7.50
   6   5   5  113.19    8.20
  -7  -5  -5  317.67   17.10
  -7  -5  -5  284.47   16.60
   7   5   5  271.47   16.20
   5  -6  -5   29.20    6.20
   5  -6  -5   28.60    7.50
  -5   6   5   20.70    7.50
  -5   6   5   25.90    6.70
  -5   6   5   52.89   10.10
   4  -6  -5  258.87   15.00
   4  -6  -5  248.28   15.50
   4  -6  -5  260.07   13.90
   4  -6  -5  257.17   15.90
   4  -6  -5  237.08   15.00
  -4   6   5  232.68   14.10
  -4   6   5  277.27   15.30
  -4   6   5  248.48   15.40
  -4   6   5  237.78   14.80
   3  -6  -5  540.75   24.90
   3  -6  -5  547.25   25.20
   3  -6  -5  551.14   25.50
   3  -6  -5  512.85   25.50
   3  -6  -5  549.65   24.40
  -3   6   5  589.34   25.70
  -3   6   5  544.55   25.30
   2  -6  -5 1224.18   51.89
   2  -6  -5 1227.88   52.59
   2  -6  -5 1211.98   52.99
  -2   6   5 1309.17   52.99
  -2   6   5 1279.17   52.59
   1  -6  -5  136.49    8.90
   1  -6  -5  128.79    7.40
   1  -6  -5  134.99    9.20
   1  -6  -5  135.19    9.40
   1  -6  -5  136.69    8.10
  -1   6   5  135.19    8.40
  -1   6   5  146.59    8.80
  -1   6   5  146.49    8.10
  -1   6   5  142.79    9.10
   0  -6  -5   91.89    7.20
   0  -6  -5   88.29    7.50
   0  -6  -5   78.09    5.70
   0  -6  -5   84.99    6.30
   0  -6  -5   99.49    7.20
   0   6   5   97.99    7.30
   0   6   5   89.19    7.10
   0   6   5   91.19    6.20
   0   6   5   95.89    6.30
  -1  -6  -5  385.96   18.00
  -1  -6  -5  375.76   18.10
  -1  -6  -5  393.96   16.90
  -1  -6  -5  376.26   17.20
  -1  -6  -5  403.26   17.40
   1   6   5  400.86   17.90
   1   6   5  410.36   18.20
   1   6   5  375.46   16.70
   1   6   5  381.26   17.00
   1   6   5  356.06   16.50
  -2  -6  -5   41.00    5.90
  -2  -6  -5   40.20    5.20
  -2  -6  -5   34.60    4.50
  -2  -6  -5   48.60    5.60
   2   6   5   37.00    4.40
   2   6   5   34.20    5.30
   2   6   5   37.70    4.60
   2   6   5   36.10    5.30
  -3  -6  -5 1300.97   54.39
  -3  -6  -5 1290.87   53.89
  -3  -6  -5 1261.57   53.39
  -3  -6  -5 1271.97   52.99
   3   6   5 1292.67   53.49
   3   6   5 1266.37   53.09
   3   6   5 1294.67   54.29
   3   6   5 1366.56   53.39
   3   6   5 1295.57   53.69
  -4  -6  -5  726.83   30.00
  -4  -6  -5  698.23   31.00
  -4  -6  -5  690.23   29.50
  -4  -6  -5  700.73   30.40
  -4  -6  -5  713.93   30.50
   4   6   5  712.23   30.30
   4   6   5  698.83   31.00
   4   6   5  724.73   30.00
   4   6   5  683.03   29.50
   4   6   5  703.83   30.40
  -5  -6  -5  528.75   22.30
  -5  -6  -5  461.25   23.90
  -5  -6  -5  543.05   23.50
  -5  -6  -5  527.25   23.80
  -5  -6  -5  553.84   23.50
   5   6   5  502.15   23.80
   5   6   5  563.04   24.00
   5   6   5  518.35   23.10
   5   6   5  518.95   22.30
  -6  -6  -5   -0.30    5.00
  -6  -6  -5   -2.50    4.00
  -6  -6  -5    0.10    4.70
  -6  -6  -5    2.20    4.70
   6   6   5   -0.20    3.90
   6   6   5    2.70    3.30
  -7  -6  -5  102.89   10.80
  -7  -6  -5   74.29   11.00
  -7  -6  -5  102.79   11.20
   4  -7  -5  331.17   18.90
   4  -7  -5  294.37   18.20
   4  -7  -5  290.37   18.70
   4  -7  -5  327.57   17.00
  -4   7   5  339.67   18.70
  -4   7   5  346.57   18.70
  -4   7   5  303.97   17.80
   3  -7  -5   -1.40    5.30
   3  -7  -5    0.60    4.30
   3  -7  -5   -0.80    5.20
   3  -7  -5    0.20    5.20
  -3   7   5   -0.90    4.70
  -3   7   5    2.30    5.40
  -3   7   5    2.50    3.50
  -3   7   5   -0.60    4.20
   2  -7  -5   73.99    8.50
   2  -7  -5   72.59    9.10
   2  -7  -5   71.59    8.80
   2  -7  -5   75.79    7.40
   2  -7  -5   72.79    8.60
  -2   7   5   84.49    8.60
  -2   7   5   74.59    8.10
   1  -7  -5 1045.80   44.60
   1  -7  -5 1001.10   45.80
   1  -7  -5 1043.00   45.50
  -1   7   5 1086.09   45.10
  -1   7   5 1069.39   44.70
  -1   7   5 1071.09   45.30
  -1   7   5 1154.28   46.00
   0  -7  -5  548.25   25.80
   0  -7  -5  593.24   24.60
   0  -7  -5  577.34   25.30
   0  -7  -5  552.34   24.90
   0  -7  -5  558.94   26.10
   0   7   5  563.24   25.50
   0   7   5  605.14   26.10
   0   7   5  578.24   24.80
   0   7   5  590.14   25.10
  -1  -7  -5 1326.17   54.19
  -1  -7  -5 1262.07   54.09
  -1  -7  -5 1280.07   54.89
  -1  -7  -5 1296.47   55.19
  -1  -7  -5 1302.27   53.89
   1   7   5 1353.56   54.79
   1   7   5 1336.87   53.99
   1   7   5 1305.67   53.59
   1   7   5 1319.97   53.89
   1   7   5 1314.97   55.19
  -2  -7  -5   16.30    3.30
  -2  -7  -5   11.70    3.80
  -2  -7  -5   11.80    3.90
  -2  -7  -5   16.00    3.60
   2   7   5   19.10    3.00
   2   7   5   14.80    3.70
   2   7   5   13.30    3.70
   2   7   5   15.30    3.10
  -3  -7  -5  211.38   11.00
  -3  -7  -5  206.78   11.60
  -3  -7  -5  211.78   11.10
  -3  -7  -5  218.28   12.30
   3   7   5  214.48   11.10
   3   7   5  217.88   11.90
   3   7   5  214.98   10.80
   3   7   5  204.58   10.90
   3   7   5  226.88   11.70
  -4  -7  -5   64.39    7.00
  -4  -7  -5   56.29    6.10
  -4  -7  -5   72.79    6.30
  -4  -7  -5   61.79    7.70
  -4  -7  -5   68.39    7.10
   4   7   5   62.59    6.90
   4   7   5   65.09    6.20
   4   7   5   53.79    7.30
   4   7   5   62.99    6.20
   4   7   5   62.29    6.70
  -5  -7  -5  329.87   16.60
  -5  -7  -5  364.76   16.10
  -5  -7  -5  300.57   17.00
  -5  -7  -5  334.47   15.30
  -5  -7  -5  346.27   16.30
   5   7   5  327.47   16.70
   5   7   5  331.37   15.20
   5   7   5  313.47   15.60
   5   7   5  325.37   15.90
  -6  -7  -5  750.12   33.40
  -6  -7  -5  767.62   31.70
  -6  -7  -5  639.44   33.00
  -6  -7  -5  828.62   33.00
   6   7   5  718.03   33.30
   6   7   5  773.32   32.40
   6   7   5  733.83   31.50
   6   7   5  772.92   33.00
   6   7   5  757.92   32.00
  -7  -7  -5  297.37   16.50
  -7  -7  -5  271.87   16.80
   3  -8  -5  668.93   31.10
   3  -8  -5  634.34   29.40
   3  -8  -5  616.34   31.20
   3  -8  -5  619.64   30.10
  -3   8   5  706.43   31.20
  -3   8   5  679.03   30.80
   2  -8  -5   52.49    8.40
   2  -8  -5   41.50    9.60
   2  -8  -5   42.00    7.60
   2  -8  -5   38.10    9.50
   2  -8  -5   51.19   10.00
  -2   8   5   38.70    8.30
  -2   8   5   42.20    7.50
  -2   8   5   39.20    8.70
  -2   8   5   31.30    8.00
   1  -8  -5  953.60   40.50
   1  -8  -5  878.91   39.90
   1  -8  -5  938.71   39.00
   1  -8  -5  896.31   38.80
  -1   8   5  926.71   40.20
  -1   8   5  906.81   39.60
  -1   8   5  854.11   38.70
  -1   8   5  961.10   39.60
   0  -8  -5   27.10    5.90
   0  -8  -5   31.90    8.10
   0  -8  -5   36.20    6.00
   0  -8  -5   39.30    8.00
   0   8   5   36.30    6.20
   0   8   5   26.20    6.90
   0   8   5   36.70    5.90
   0   8   5   34.50    7.00
  -1  -8  -5   -3.20    4.30
  -1  -8  -5   -0.40    3.30
  -1  -8  -5   -2.40    4.20
  -1  -8  -5   -5.40    3.30
  -1  -8  -5   -0.50    3.80
   1   8   5   -2.90    3.50
   1   8   5    0.70    3.30
   1   8   5   -0.20    2.30
   1   8   5    0.60    3.50
   1   8   5    2.60    3.00
  -2  -8  -5  848.82   37.70
  -2  -8  -5  839.02   36.40
  -2  -8  -5  890.51   36.60
   2   8   5  864.81   37.10
   2   8   5  840.82   36.60
   2   8   5  869.01   37.60
   2   8   5  861.11   36.10
   2   8   5  875.31   36.20
  -3  -8  -5  206.98   11.20
  -3  -8  -5  201.48   11.30
  -3  -8  -5  195.38   12.30
   3   8   5  210.28   11.80
   3   8   5  202.58   12.20
   3   8   5  205.28   11.00
   3   8   5  196.88   10.60
   3   8   5  206.98   11.40
  -4  -8  -5  793.12   33.40
  -4  -8  -5  766.12   34.00
  -4  -8  -5  785.22   34.80
   4   8   5  777.92   34.60
   4   8   5  780.52   33.40
   4   8   5  810.82   34.00
   4   8   5  757.32   33.80
   4   8   5  805.12   33.30
  -5  -8  -5   74.89    7.60
  -5  -8  -5   75.49    9.00
  -5  -8  -5   72.89    9.10
   5   8   5   75.29    7.30
   5   8   5   63.79    8.50
   5   8   5   75.29    7.90
   5   8   5   70.59    7.30
  -6  -8  -5  148.39   10.20
  -6  -8  -5  126.99   11.10
  -6  -8  -5  109.69   11.00
  -6  -8  -5  140.29   10.10
  -6  -8  -5  119.89    9.60
   6   8   5  118.19   11.30
   6   8   5  125.99   10.80
   6   8   5  135.79    9.50
   6   8   5  124.89    8.90
   6   8   5  128.39    9.30
  -7  -8  -5  209.08   14.50
  -7  -8  -5  197.98   12.50
  -7  -8  -5  216.68   12.80
  -7  -8  -5  197.38   14.10
   7   8   5  199.68   13.30
   7   8   5  220.68   13.20
   7   8   5  229.78   11.80
   2  -9  -5  206.48   13.00
   2  -9  -5  205.18   15.90
   2  -9  -5  198.98   15.20
  -2   9   5  219.88   14.50
  -2   9   5  215.38   14.70
   1  -9  -5    8.80    4.60
   1  -9  -5    2.20    5.80
   1  -9  -5    8.60    4.40
   1  -9  -5    6.10    4.70
   1  -9  -5   -9.80    5.70
   1  -9  -5   -1.90    5.20
  -1   9   5    3.40    4.10
  -1   9   5    6.40    5.00
  -1   9   5    6.50    5.80
  -1   9   5    1.20    4.40
   0  -9  -5 1087.89   44.50
   0  -9  -5 1037.80   44.60
   0  -9  -5 1041.30   45.80
   0  -9  -5 1047.00   44.30
   0  -9  -5 1022.90   46.10
   0   9   5 1110.09   45.10
   0   9   5 1106.09   46.20
   0   9   5 1014.80   44.50
   0   9   5 1050.19   45.60
  -1  -9  -5  188.68   11.30
  -1  -9  -5  191.88   11.20
  -1  -9  -5  200.48   13.10
  -1  -9  -5  186.48   12.70
   1   9   5  194.98   12.30
   1   9   5  202.18   11.40
   1   9   5  181.18   10.80
   1   9   5  212.88   12.60
  -2  -9  -5 1341.77   56.39
  -2  -9  -5 1316.97   57.79
  -2  -9  -5 1364.56   56.49
   2   9   5 1344.37   55.99
   2   9   5 1393.76   57.19
   2   9   5 1373.96   56.69
   2   9   5 1316.97   55.79
   2   9   5 1379.86   57.59
  -3  -9  -5  426.66   20.40
  -3  -9  -5  436.16   21.50
   3   9   5  451.75   20.50
   3   9   5  441.16   20.90
   3   9   5  421.66   19.60
   3   9   5  423.06   19.80
   3   9   5  441.76   21.20
  -4  -9  -5   -4.00    5.20
  -4  -9  -5   -0.80    4.60
  -4  -9  -5    4.00    4.70
  -4  -9  -5   -3.90    4.50
   4   9   5   -0.70    3.60
   4   9   5    5.30    3.30
   4   9   5    2.50    4.40
   4   9   5    5.00    4.40
   4   9   5    4.20    4.70
  -5  -9  -5  756.82   33.90
  -5  -9  -5  767.82   32.50
  -5  -9  -5  776.62   33.30
  -5  -9  -5  749.23   33.20
   5   9   5  717.93   33.10
   5   9   5  743.43   32.30
   5   9   5  765.42   32.80
   5   9   5  747.33   32.10
   5   9   5  699.43   33.50
  -6  -9  -5    4.30    5.30
  -6  -9  -5    7.40    5.90
  -6  -9  -5   -0.40    5.20
  -6  -9  -5    0.20    5.90
   6   9   5   12.00    5.10
   6   9   5    8.20    4.90
   6   9   5   -2.90    4.50
   6   9   5    6.20    5.90
  -7  -9  -5  272.57   15.40
  -7  -9  -5  266.07   15.20
  -7  -9  -5  279.87   16.80
   7   9   5  266.47   16.40
   7   9   5  293.97   14.80
   7   9   5  261.77   15.40
   1 -10  -5   52.19   12.40
   1 -10  -5   64.79    8.40
   1 -10  -5   47.20    9.40
   1 -10  -5   73.99    8.90
   1 -10  -5   45.10    8.60
  -1  10   5   72.89   11.10
  -1  10   5   50.29   10.90
   0 -10  -5   35.90    7.30
   0 -10  -5   27.20    7.20
   0 -10  -5   46.40    8.30
   0 -10  -5   34.70    8.00
   0  10   5   36.30    8.00
   0  10   5   57.19    9.20
   0  10   5   22.70    6.20
   0  10   5   43.70    9.60
  -1 -10  -5   -4.40    5.90
  -1 -10  -5    7.50    4.40
  -1 -10  -5    2.70    5.90
  -1 -10  -5    4.60    4.60
  -1 -10  -5    5.70    5.50
   1  10   5    2.80    4.30
   1  10   5    6.70    4.90
   1  10   5    4.20    5.20
   1  10   5    9.00    5.20
  -2 -10  -5    4.80    4.50
  -2 -10  -5    1.90    5.70
  -2 -10  -5   -5.80    5.00
  -2 -10  -5   13.60    6.20
  -2 -10  -5    4.60    4.80
   2  10   5   -0.20    5.00
   2  10   5    1.60    5.30
   2  10   5   -0.90    4.00
   2  10   5    0.60    5.00
  -3 -10  -5  727.03   32.60
  -3 -10  -5  704.53   30.90
  -3 -10  -5  710.53   31.10
  -3 -10  -5  657.73   31.60
   3  10   5  698.33   31.60
   3  10   5  690.43   32.00
   3  10   5  686.13   30.00
   3  10   5  725.93   31.10
   3  10   5  665.43   30.30
  -4 -10  -5  532.05   26.20
  -4 -10  -5  545.05   24.80
  -4 -10  -5  539.65   25.00
   4  10   5  517.35   23.70
   4  10   5  542.85   24.80
   4  10   5  555.74   25.30
   4  10   5  518.75   25.80
   4  10   5  524.65   25.00
  -5 -10  -5  168.58   12.50
  -5 -10  -5  154.18   12.20
  -5 -10  -5  158.08   13.50
   5  10   5  154.58   10.50
   5  10   5  174.28   11.60
   5  10   5  138.99   12.00
   5  10   5  163.78   12.80
   5  10   5  163.68   12.30
  -6 -10  -5   87.89   10.90
  -6 -10  -5   98.89   12.00
  -6 -10  -5  110.89   12.10
   6  10   5  102.09   10.50
   6  10   5   92.69    9.50
   6  10   5   71.59   11.70
   0 -11  -5  154.78   12.10
   0 -11  -5  165.98   12.30
   0 -11  -5  134.79   15.40
   0  11   5  179.48   13.90
   0  11   5  143.19   14.70
  -1 -11  -5  466.15   23.40
  -1 -11  -5  512.25   23.80
  -1 -11  -5  490.45   26.20
   1  11   5  484.95   25.50
   1  11   5  534.75   24.40
  -2 -11  -5    2.60    5.30
  -2 -11  -5   -8.30    6.80
  -2 -11  -5   -0.40    5.40
   2  11   5    9.90    6.70
   2  11   5   -1.00    5.90
   2  11   5    2.80    4.90
  -3 -11  -5   64.79    9.60
  -3 -11  -5   58.49   12.40
   3  11   5   61.89   11.00
   3  11   5   42.60    7.80
   3  11   5   57.89    8.70
   3  11   5   65.39   10.80
  -4 -11  -5   76.69   10.50
  -4 -11  -5   85.69   12.90
   4  11   5  106.39   11.50
   4  11   5   79.49   11.60
   4  11   5   75.49    9.10
   4  11   5   79.89   12.40
   4  11   5  103.49    9.90
  -5 -11  -5   63.79   10.90
  -5 -11  -5   52.19   11.90
   5  11   5   58.39   11.00
   5  11   5   49.40   11.30
   5  11   5   52.49    8.90
   3   8  -6    6.30    6.80
   3   8  -6    0.40    6.10
   3   8  -6   -2.00    7.70
   3   8  -6    9.40    9.60
  -3  -8   6    9.90    5.80
  -3  -8   6    8.30    6.20
  -3  -8   6   16.70    7.40
   2   8  -6   46.10   11.00
   2   8  -6   63.09   16.50
   2   8  -6   38.00    7.80
  -2  -8   6   38.30    7.20
  -2  -8   6   48.40   11.30
   1   8  -6  367.86   21.20
   1   8  -6  361.46   19.90
   1   8  -6  377.26   18.70
  -1  -8   6  393.16   21.20
  -1  -8   6  398.16   20.90
   5   7  -6   17.30    7.40
   5   7  -6   17.50    6.00
  -5  -7   6   19.70    7.20
  -5  -7   6   29.80    5.80
  -5  -7   6   19.80    5.60
   4   7  -6    8.00    7.40
   4   7  -6   -1.80    7.50
   4   7  -6   -2.50    6.80
   4   7  -6    0.90    5.40
  -4  -7   6    4.60    5.20
  -4  -7   6    6.70    6.40
  -4  -7   6    1.40    4.80
   3   7  -6  511.65   25.50
   3   7  -6  543.35   27.30
   3   7  -6  558.84   25.40
   3   7  -6  518.15   25.80
  -3  -7   6  523.55   25.50
  -3  -7   6  531.65   25.80
   2   7  -6  255.57   13.80
   2   7  -6  246.88   15.90
   2   7  -6  278.57   15.80
   2   7  -6  268.67   18.30
   2   7  -6  258.97   15.50
  -2  -7   6  274.37   15.80
  -2  -7   6  253.77   15.80
   1   7  -6  734.13   34.60
   1   7  -6  725.03   31.30
   1   7  -6  730.93   31.90
   1   7  -6  742.13   31.50
   1   7  -6  674.03   32.60
  -1  -7   6  741.63   32.90
  -1  -7   6  645.84   31.10
   0   7  -6   26.70    6.50
   0   7  -6   41.50    8.70
   0   7  -6   39.20    8.90
   0   7  -6   12.30    9.50
   0  -7   6   51.19    8.50
   0  -7   6   20.30    6.10
   0  -7   6   20.50    3.90
  -1   7  -6   14.10    6.70
  -1   7  -6   16.40    5.50
  -1   7  -6   18.70    6.80
   1  -7   6    8.50    5.20
   1  -7   6    6.40    3.90
   1  -7   6   11.30    5.90
   6   6  -6  236.78   13.60
   6   6  -6  218.18   15.80
  -6  -6   6  221.18   12.90
  -6  -6   6  232.18   16.20
   5   6  -6  308.87   17.60
   5   6  -6  275.17   18.20
   5   6  -6  337.87   16.60
  -5  -6   6  306.47   15.50
  -5  -6   6  332.67   17.90
  -5  -6   6  311.57   16.20
  -5  -6   6  245.58   17.70
   4   6  -6  109.09   11.70
   4   6  -6   78.79   11.70
   4   6  -6   97.39    9.60
   4   6  -6  102.39   10.90
  -4  -6   6   80.39    8.40
  -4  -6   6   97.79    9.60
  -4  -6   6   61.79   11.60
  -4  -6   6  101.19   10.70
   3   6  -6   14.90    6.00
   3   6  -6   22.90    5.20
   3   6  -6   20.10    6.30
   3   6  -6    3.00    6.70
  -3  -6   6   12.60    5.60
  -3  -6   6    8.50    4.20
  -3  -6   6   20.30    5.60
  -3  -6   6   17.80    4.90
   2   6  -6    2.50    5.90
   2   6  -6    1.00    4.70
   2   6  -6   -4.00    5.10
   2   6  -6   -3.30    5.20
  -2  -6   6   -1.40    4.30
  -2  -6   6    4.10    5.10
   1   6  -6   -0.30    4.70
   1   6  -6    4.10    4.60
   1   6  -6    0.60    4.90
   1   6  -6   -0.60    5.90
   1   6  -6    3.60    5.00
  -1  -6   6    3.70    3.80
  -1  -6   6    0.70    5.30
  -1  -6   6    5.70    4.50
   0   6  -6 1051.09   47.40
   0   6  -6 1022.00   46.20
   0   6  -6 1082.99   45.30
   0   6  -6 1117.09   45.20
   0  -6   6 1045.30   47.00
   0  -6   6 1037.30   44.80
   0  -6   6 1124.09   46.50
   0  -6   6 1060.59   44.40
  -1   6  -6  260.57   13.90
  -1   6  -6  241.88   15.90
  -1   6  -6  255.97   14.60
   1  -6   6  259.87   13.30
   1  -6   6  252.87   16.90
   1  -6   6  261.87   13.10
   1  -6   6  254.17   15.00
  -2   6  -6  516.05   25.60
  -2   6  -6  537.75   24.90
  -2   6  -6  510.25   23.30
   2  -6   6  483.15   24.80
   2  -6   6  514.45   22.90
   2  -6   6  510.65   23.10
   2  -6   6  474.55   26.40
   6   5  -6    3.20    4.60
   6   5  -6   -6.90    6.30
   6   5  -6   11.20    9.90
  -6  -5   6    1.90    4.00
  -6  -5   6    2.30    4.20
  -6  -5   6    7.70    5.80
  -6  -5   6    5.40    6.90
   5   5  -6  135.59    9.80
   5   5  -6  118.89   11.00
   5   5  -6  134.39   12.90
   5   5  -6  109.79   11.60
  -5  -5   6  142.79    8.90
  -5  -5   6  138.59   10.00
  -5  -5   6  113.19   12.10
  -5  -5   6  132.59   11.30
   4   5  -6  252.87   15.30
   4   5  -6  258.57   14.30
   4   5  -6  262.67   14.10
  -4  -5   6  250.57   15.40
  -4  -5   6  233.98   12.60
  -4  -5   6  266.77   14.80
  -4  -5   6  265.97   14.30
   3   5  -6  608.74   26.70
   3   5  -6  596.54   26.30
   3   5  -6  578.04   27.50
   3   5  -6  628.54   26.90
  -3  -5   6  592.94   26.70
  -3  -5   6  589.54   26.60
  -3  -5   6  500.65   25.20
   2   5  -6 1196.38   51.29
   2   5  -6 1185.28   51.89
   2   5  -6 1236.98   50.59
   2   5  -6 1258.47   50.89
  -2  -5   6 1192.78   51.29
  -2  -5   6 1176.98   50.99
   1   5  -6    2.10    4.50
   1   5  -6    6.40    4.30
   1   5  -6   -2.50    4.70
   1   5  -6    2.40    4.40
  -1  -5   6    0.30    4.10
  -1  -5   6    2.10    4.30
   0   5  -6  118.59    8.80
   0   5  -6  103.09   11.00
   0   5  -6  132.49    9.10
   0   5  -6  110.49   10.00
   0  -5   6  106.79    7.70
   0  -5   6  118.89    7.30
   0  -5   6  117.39   10.40
   0  -5   6  107.09    9.50
  -1   5  -6    3.90    5.50
  -1   5  -6    6.00    4.90
  -1   5  -6   15.80    5.30
  -1   5  -6    7.40    3.80
   1  -5   6    5.00    3.40
   1  -5   6    5.50    4.60
   1  -5   6    6.00    3.30
   1  -5   6    4.80    4.00
  -2   5  -6   90.49    8.10
  -2   5  -6   95.69    9.80
  -2   5  -6   88.39   10.10
  -2   5  -6   63.49   10.90
   2  -5   6   90.29    7.90
   2  -5   6   81.49   11.20
   2  -5   6   93.29    7.20
   2  -5   6   84.39    9.30
  -3   5  -6  906.91   41.20
  -3   5  -6  904.81   39.00
  -3   5  -6  963.60   41.30
   3  -5   6  957.10   42.40
   3  -5   6  947.51   39.80
   3  -5   6  896.71   38.60
   3  -5   6  910.71   40.90
   7   4  -6   33.80    8.10
  -7  -4   6   35.20    7.50
  -7  -4   6   31.30    7.00
   6   4  -6  161.38   12.40
   6   4  -6  199.48   11.20
   6   4  -6  203.78   13.90
  -6  -4   6  193.08   15.60
  -6  -4   6  203.88   11.50
  -6  -4   6  196.08   10.80
  -6  -4   6  206.98   15.00
  -6  -4   6  206.18   13.10
   5   4  -6   93.49   10.90
   5   4  -6   79.29    8.10
   5   4  -6   75.99    9.60
   5   4  -6   69.49    9.50
  -5  -4   6   78.19   10.40
  -5  -4   6   74.69    6.50
  -5  -4   6   67.09    7.90
  -5  -4   6   87.09    9.10
   4   4  -6  927.21   39.00
   4   4  -6  907.51   38.90
   4   4  -6  915.01   39.90
  -4  -4   6  918.61   39.10
  -4  -4   6  886.61   38.00
  -4  -4   6  914.41   39.20
  -4  -4   6  912.21   39.90
   3   4  -6    7.30    4.60
   3   4  -6    6.70    4.10
   3   4  -6    4.90    4.70
   3   4  -6    6.20    4.50
  -3  -4   6    6.30    3.80
  -3  -4   6    0.00    4.10
  -3  -4   6   10.70    4.70
  -3  -4   6   10.10    4.50
  -3  -4   6    6.10    2.80
   2   4  -6   33.50    6.80
   2   4  -6   41.60    6.70
   2   4  -6   33.00    7.60
   2   4  -6   29.30    6.80
  -2  -4   6   25.60    4.60
  -2  -4   6   34.30    6.60
   1   4  -6  820.82   37.30
   1   4  -6  875.21   36.00
   1   4  -6  805.12   36.80
  -1  -4   6  863.51   36.20
  -1  -4   6  884.41   36.90
  -1  -4   6  853.91   37.30
   0   4  -6  298.37   15.80
   0   4  -6  292.97   14.00
   0   4  -6  264.47   15.00
   0  -4   6  283.77   15.10
   0  -4   6  288.17   15.50
  -1   4  -6  895.41   38.60
  -1   4  -6  819.92   38.90
  -1   4  -6  883.61   37.90
  -1   4  -6  906.81   37.00
   1  -4   6  911.91   39.00
   1  -4   6  881.81   37.10
   1  -4   6  879.51   38.40
  -2   4  -6  430.16   19.00
  -2   4  -6  444.26   20.80
  -2   4  -6  431.46   21.10
  -2   4  -6  411.36   21.90
   2  -4   6  414.76   20.70
   2  -4   6  438.56   21.70
   2  -4   6  435.76   19.60
  -3   4  -6   88.99   10.30
  -3   4  -6   89.79    7.60
  -3   4  -6   95.19   10.70
   3  -4   6   95.19    9.30
   3  -4   6  105.79    8.50
   3  -4   6  104.69   11.50
  -4   4  -6  264.07   15.80
  -4   4  -6  255.77   16.70
  -4   4  -6  209.58   15.60
   4  -4   6  252.47   14.20
   4  -4   6  271.57   17.60
   4  -4   6  240.98   14.90
   7   3  -6   59.59   11.60
  -7  -3   6   49.50    9.70
  -7  -3   6   51.29   13.00
  -7  -3   6   62.29    7.60
   6   3  -6  117.99   10.10
   6   3  -6  154.78   11.90
  -6  -3   6  153.18    8.90
  -6  -3   6  165.78   13.10
  -6  -3   6  156.18   11.10
   5   3  -6  129.79   10.70
   5   3  -6  156.68   10.70
   5   3  -6  153.98    9.70
  -5  -3   6  148.69    8.40
  -5  -3   6  167.28   10.50
  -5  -3   6  145.09   11.50
  -5  -3   6  156.88    9.20
  -5  -3   6  113.59   10.40
   4   3  -6   14.90    4.10
   4   3  -6   17.70    4.60
   4   3  -6    9.50    5.10
   4   3  -6    6.20    4.60
  -4  -3   6    8.60    4.40
  -4  -3   6    6.00    4.80
  -4  -3   6   11.60    3.50
  -4  -3   6   12.20    4.00
  -4  -3   6    9.30    2.70
   3   3  -6 1207.98   50.99
   3   3  -6 1160.58   50.29
   3   3  -6 1206.18   50.09
   3   3  -6 1241.28   50.49
  -3  -3   6 1197.98   49.20
  -3  -3   6 1213.18   50.69
  -3  -3   6 1209.78   50.79
  -3  -3   6 1173.98   50.09
  -3  -3   6 1188.78   50.19
   2   3  -6  255.17   13.90
   2   3  -6  297.47   13.90
   2   3  -6  269.37   14.60
   2   3  -6  271.17   13.50
  -2  -3   6  276.97   13.90
  -2  -3   6  271.97   13.70
  -2  -3   6  278.67   14.50
   1   3  -6 2126.29   91.79
   1   3  -6 2261.27   90.99
   1   3  -6 2271.57   92.39
  -1  -3   6 2254.07   92.19
  -1  -3   6 2253.17   91.29
  -1  -3   6 2234.78   91.69
   0   3  -6  178.48   11.00
   0   3  -6  187.68    9.70
   0   3  -6  185.58   11.40
   0  -3   6  180.38   11.20
   0  -3   6  183.88    9.70
  -1   3  -6   52.39    5.60
  -1   3  -6   47.10    7.10
  -1   3  -6   48.90    6.80
  -1   3  -6   51.19    7.90
   1  -3   6   36.40    6.70
   1  -3   6   47.10    7.10
  -2   3  -6 1599.44   67.59
  -2   3  -6 1644.14   65.39
  -2   3  -6 1567.54   66.79
  -2   3  -6 1572.84   66.99
   2  -3   6 1597.04   67.09
   2  -3   6 1648.54   67.59
  -3   3  -6   22.20    5.70
  -3   3  -6   12.80    5.00
   3  -3   6   18.10    5.20
   3  -3   6   14.30    4.10
   3  -3   6   19.80    4.20
  -4   3  -6  941.11   46.50
  -4   3  -6 1085.29   46.90
  -4   3  -6 1128.19   47.50
   4  -3   6 1106.19   46.70
   4  -3   6 1109.79   46.20
   4  -3   6 1148.09   47.80
  -5   3  -6  120.99   12.60
  -5   3  -6  133.29   12.00
  -5   3  -6  110.09   14.30
   5  -3   6  110.69   13.70
   5  -3   6  122.59   10.30
   5  -3   6  104.19   10.50
   7   2  -6   93.19   11.80
  -7  -2   6   74.99   13.00
  -7  -2   6   67.89    7.30
   6   2  -6  181.98   10.00
   6   2  -6  185.38   12.50
   6   2  -6  152.18   13.30
   6   2  -6  133.89   14.50
  -6  -2   6  157.98    9.40
  -6  -2   6  184.78   13.70
  -6  -2   6  172.18   11.30
  -6  -2   6  197.88   10.40
   5   2  -6  729.63   33.50
   5   2  -6  838.32   34.30
   5   2  -6  676.73   33.90
  -5  -2   6  832.62   33.90
  -5  -2   6  741.83   32.60
  -5  -2   6  815.62   35.30
  -5  -2   6  852.71   34.40
  -5  -2   6  821.32   33.80
   4   2  -6  112.99   10.00
   4   2  -6  119.29    9.60
   4   2  -6   93.89    8.20
   4   2  -6   97.29    8.90
   4   2  -6  108.79    8.70
  -4  -2   6  100.39    7.80
  -4  -2   6  106.69    7.70
  -4  -2   6  104.69    9.30
  -4  -2   6   94.09    6.00
  -4  -2   6   96.49    8.90
   3   2  -6  167.58   10.60
   3   2  -6  198.98   11.10
   3   2  -6  177.58   10.50
   3   2  -6  186.88   11.20
  -3  -2   6  184.18   10.10
  -3  -2   6  185.18   11.10
  -3  -2   6  179.78   11.00
  -3  -2   6  180.08    8.50
  -3  -2   6  189.48   10.50
   2   2  -6  124.79    8.90
   2   2  -6  142.89    8.50
   2   2  -6  145.69    9.60
  -2  -2   6  142.99    9.20
  -2  -2   6  141.49    8.70
  -2  -2   6  130.19    7.10
  -2  -2   6  136.59    8.70
   1   2  -6   59.09    5.60
   1   2  -6   49.60    6.20
   1   2  -6   51.89    6.80
  -1  -2   6   55.59    4.50
  -1  -2   6   60.89    6.80
  -1  -2   6   46.10    5.60
  -1  -2   6   53.59    6.00
   0   2  -6 1472.75   64.69
   0   2  -6 1544.75   65.09
   0   2  -6 1586.04   63.59
   0  -2   6 1535.35   63.79
   0  -2   6 1574.84   64.99
   0  -2   6 1628.04   64.69
  -1   2  -6  766.72   34.20
  -1   2  -6  806.42   32.40
  -1   2  -6  728.13   33.80
   1  -2   6  809.12   34.20
   1  -2   6  788.22   33.60
  -2   2  -6  833.92   35.00
  -2   2  -6  826.72   33.40
  -2   2  -6  776.02   35.60
  -2   2  -6  764.22   35.10
   2  -2   6  845.52   35.60
  -3   2  -6   34.80    7.40
  -3   2  -6   44.10    7.80
   3  -2   6   43.50    7.50
   3  -2   6   42.30    6.60
  -4   2  -6    2.30    5.50
  -4   2  -6    2.40    4.90
  -4   2  -6   -4.60    4.60
  -4   2  -6    0.40    5.40
   4  -2   6   -0.60    3.60
   4  -2   6   -0.10    4.00
   4  -2   6    3.60    4.60
  -5   2  -6  293.67   18.20
  -5   2  -6  318.57   16.70
  -5   2  -6  301.57   17.10
   5  -2   6  309.57   16.10
   5  -2   6  293.97   16.20
   5  -2   6  297.17   17.80
   7   1  -6   47.70   11.00
   7   1  -6   46.20    8.00
  -7  -1   6   63.49   12.10
   6   1  -6  508.25   23.70
   6   1  -6  503.55   22.00
   6   1  -6  444.86   25.30
  -6  -1   6  531.85   25.00
  -6  -1   6  518.55   22.20
  -6  -1   6  487.35   22.50
  -6  -1   6  491.35   22.50
   5   1  -6   64.89    6.10
   5   1  -6   61.89    7.40
   5   1  -6   55.79    7.50
   5   1  -6   73.09    8.40
  -5  -1   6   73.49    6.10
  -5  -1   6   78.69    9.10
  -5  -1   6   67.29    7.30
  -5  -1   6   62.29    4.90
  -5  -1   6   61.29    7.20
  -5  -1   6   88.39    6.80
   4   1  -6  483.05   21.40
   4   1  -6  465.85   20.10
   4   1  -6  462.15   22.30
   4   1  -6  413.96   21.50
  -4  -1   6  460.95   20.00
  -4  -1   6  475.55   21.30
  -4  -1   6  486.35   21.60
  -4  -1   6  491.45   20.70
  -4  -1   6  470.75   22.10
   3   1  -6 1127.49   47.90
   3   1  -6 1172.68   48.50
   3   1  -6 1170.28   48.50
   3   1  -6 1126.19   47.40
  -3  -1   6 1144.09   46.70
  -3  -1   6 1134.39   47.90
  -3  -1   6 1123.99   48.10
  -3  -1   6 1151.08   48.20
  -3  -1   6 1118.79   47.30
   2   1  -6  759.52   31.30
   2   1  -6  794.52   32.50
   2   1  -6  722.33   31.90
  -2  -1   6  762.02   32.20
  -2  -1   6  769.42   32.00
  -2  -1   6  697.83   30.20
  -2  -1   6  696.03   30.60
  -2  -1   6  725.93   31.70
   1   1  -6   94.59    7.60
   1   1  -6  110.69    8.00
   1   1  -6  101.99    6.60
  -1  -1   6   94.79    7.40
  -1  -1   6  105.49    7.80
  -1  -1   6   98.89    7.00
  -1  -1   6  101.89    5.90
   0   1  -6  386.56   16.90
   0   1  -6  367.06   18.30
   0   1  -6  380.66   18.20
   0  -1   6  404.66   18.40
   0  -1   6  401.76   18.10
   0  -1   6  390.26   17.30
  -1   1  -6  356.06   17.10
  -1   1  -6  334.07   17.10
  -1   1  -6  361.86   15.40
   1  -1   6  341.67   15.60
   1  -1   6  369.16   17.20
   1  -1   6  353.56   16.70
  -2   1  -6  153.28   10.40
  -2   1  -6  161.98    9.90
  -2   1  -6  156.08   10.20
   2  -1   6  159.88    9.60
   2  -1   6  196.18   10.60
  -3   1  -6 1207.48   51.59
  -3   1  -6 1163.18   51.49
   3  -1   6 1301.87   52.09
  -4   1  -6  154.58   10.20
  -4   1  -6  182.98   12.00
  -4   1  -6  171.68   11.30
   4  -1   6  178.88   10.70
   4  -1   6  180.88   11.70
  -5   1  -6  639.24   29.10
  -5   1  -6  600.44   30.10
  -5   1  -6  654.43   29.30
  -5   1  -6  671.03   30.20
   5  -1   6  636.14   28.80
   5  -1   6  643.74   29.70
   5  -1   6  662.53   28.80
  -6   1  -6   14.30    7.50
  -6   1  -6   16.10    5.10
  -6   1  -6   25.00    6.70
   6  -1   6   27.00    5.70
   6  -1   6   16.50    4.80
   7   0  -6   92.69    9.50
  -7   0   6  111.59   13.50
   6   0  -6  268.07   13.10
   6   0  -6  219.68   12.60
   6   0  -6  253.37   13.40
  -6   0   6  253.67   15.80
  -6   0   6  269.37   13.40
  -6   0   6  229.38   13.70
   5   0  -6   56.19    7.10
   5   0  -6   79.39    8.00
   5   0  -6   67.99    6.50
  -5   0   6   53.09    7.30
  -5   0   6   77.89    7.20
  -5   0   6   73.19    6.20
  -5   0   6   65.99    9.00
  -5   0   6   73.59    6.60
   4   0  -6 1064.39   44.00
   4   0  -6  935.71   42.90
   4   0  -6  986.50   43.00
   4   0  -6 1025.50   42.00
  -4   0   6 1032.10   42.00
  -4   0   6 1038.40   43.50
  -4   0   6 1054.69   43.00
  -4   0   6  977.00   43.00
  -4   0   6 1017.90   42.00
   3   0  -6    0.00    2.40
   3   0  -6   -1.00    3.60
   3   0  -6   -2.20    3.40
   3   0  -6   -4.80    3.70
  -3   0   6    5.00    2.40
  -3   0   6    0.40    3.60
  -3   0   6    1.10    2.40
  -3   0   6   -0.80    3.00
  -3   0   6   -2.20    3.10
   2   0  -6   22.60    5.80
   2   0  -6   17.80    4.00
   2   0  -6   14.40    3.70
  -2   0   6   25.60    5.60
  -2   0   6   15.70    3.40
  -2   0   6   22.00    5.30
  -2   0   6   18.20    3.80
   1   0  -6  810.12   36.50
   1   0  -6  855.11   36.70
  -1   0   6  896.31   35.30
  -1   0   6  835.12   36.40
  -1   0   6  904.11   36.70
  -1   0   6  816.12   35.90
   0   0  -6  407.66   19.00
   0   0  -6  383.66   18.70
   0   0   6  416.66   17.40
   0   0   6  386.66   17.80
   0   0   6  408.86   18.60
   0   0   6  409.96   18.80
  -1   0  -6 1991.10   79.79
  -1   0  -6 1869.41   81.09
  -1   0  -6 1949.41   81.49
   1   0   6 2028.10   81.09
   1   0   6 2004.90   81.39
  -2   0  -6  658.23   29.20
  -2   0  -6  655.13   29.40
   2   0   6  650.13   28.90
   2   0   6  697.03   29.40
  -3   0  -6  125.49    9.00
  -3   0  -6  112.49    8.80
  -3   0  -6  113.19    8.70
   3   0   6  117.69    8.70
   3   0   6  122.19    8.10
  -4   0  -6  572.84   26.10
  -4   0  -6  631.34   27.20
  -4   0  -6  622.94   27.50
  -4   0  -6  571.74   27.50
   4   0   6  627.24   27.50
  -5   0  -6  252.57   14.10
  -5   0  -6  277.47   15.50
  -5   0  -6  250.97   15.30
  -5   0  -6  266.27   13.60
   5   0   6  256.37   13.80
   5   0   6  235.68   14.70
  -6   0  -6  143.59   10.90
  -6   0  -6  150.28   13.90
  -6   0  -6  138.49   10.90
   6   0   6  132.99   12.20
   6   0   6  162.68   10.50
   6   0   6  163.48   11.30
   6  -1  -6   50.59    7.10
   6  -1  -6   62.99    8.90
   6  -1  -6   58.39    7.80
  -6   1   6   75.59   10.60
  -6   1   6   41.90    8.50
   5  -1  -6  171.68   10.00
   5  -1  -6  184.58   11.50
   5  -1  -6  166.88   10.20
  -5   1   6  161.38   10.20
  -5   1   6  170.08   10.20
  -5   1   6  169.18   11.00
  -5   1   6  174.08   12.20
   4  -1  -6  124.79    9.90
   4  -1  -6  114.49    9.30
   4  -1  -6  118.19    7.50
   4  -1  -6  111.59    8.40
  -4   1   6  122.89    7.50
  -4   1   6  128.49    9.70
  -4   1   6  117.79    6.60
  -4   1   6  124.09    9.10
  -4   1   6  116.79    8.20
   3  -1  -6 1168.08   48.50
   3  -1  -6 1132.79   47.30
   3  -1  -6 1080.39   48.30
   3  -1  -6 1138.59   48.50
  -3   1   6 1189.18   48.30
  -3   1   6 1198.38   48.60
  -3   1   6 1134.79   47.00
  -3   1   6 1121.59   48.40
  -3   1   6 1173.58   47.30
   2  -1  -6  453.15   20.00
   2  -1  -6  429.96   20.40
   2  -1  -6  447.96   19.10
   2  -1  -6  427.16   20.40
  -2   1   6  433.36   20.10
  -2   1   6  445.96   19.00
  -2   1   6  450.25   20.20
  -2   1   6  438.26   20.20
   1  -1  -6  294.47   15.20
   1  -1  -6  312.17   15.40
   1  -1  -6  308.57   14.30
  -1   1   6  320.27   13.90
  -1   1   6  336.57   15.30
  -1   1   6  324.07   15.20
  -1   1   6  281.87   14.50
   0  -1  -6   34.80    5.70
   0  -1  -6   23.50    5.50
   0   1   6   26.90    4.10
   0   1   6   23.30    5.50
   0   1   6   26.00    5.10
  -1  -1  -6   -3.60    3.00
  -1  -1  -6    0.50    3.20
   1   1   6   -2.20    2.70
   1   1   6   -0.80    2.40
  -2  -1  -6  656.03   31.10
  -2  -1  -6  715.73   31.10
   2   1   6  722.43   31.20
   2   1   6  756.52   31.00
  -3  -1  -6  653.23   29.00
  -3  -1  -6  639.44   29.40
  -3  -1  -6  667.03   28.80
   3   1   6  676.93   28.80
   3   1   6  663.43   29.20
  -4  -1  -6 1255.57   51.29
  -4  -1  -6 1185.48   51.59
  -4  -1  -6 1194.98   50.99
   4   1   6 1184.98   50.79
   4   1   6 1239.08   51.29
  -5  -1  -6   18.50    4.70
  -5  -1  -6   21.60    5.80
   5   1   6   12.80    4.50
  -6  -1  -6  113.59    8.90
  -6  -1  -6  107.39   11.60
  -6  -1  -6  122.09   12.30
  -6  -1  -6   93.89    9.10
   6   1   6  117.49    9.00
   6   1   6  104.69   10.50
   6  -2  -6  196.68   12.30
   6  -2  -6  191.18   11.90
   6  -2  -6  228.78   13.60
  -6   2   6  191.18   12.90
  -6   2   6  217.68   14.80
  -6   2   6  201.48   11.80
  -6   2   6  194.98   12.80
   5  -2  -6  522.25   23.30
   5  -2  -6  538.35   25.50
   5  -2  -6  547.65   24.60
   5  -2  -6  522.55   23.60
  -5   2   6  560.24   25.00
  -5   2   6  540.65   24.40
  -5   2   6  432.46   23.10
   4  -2  -6   12.50    4.60
   4  -2  -6   14.00    3.70
   4  -2  -6   10.00    5.20
   4  -2  -6   13.40    4.10
  -4   2   6    9.40    4.20
  -4   2   6   13.50    4.90
  -4   2   6   11.90    3.30
  -4   2   6    9.60    3.50
   3  -2  -6  392.56   18.80
   3  -2  -6  420.06   19.10
   3  -2  -6  402.36   17.80
   3  -2  -6  404.76   19.30
  -3   2   6  395.16   19.10
  -3   2   6  375.96   19.00
  -3   2   6  424.06   18.70
  -3   2   6  409.56   17.90
   2  -2  -6   11.10    2.90
   2  -2  -6   16.40    4.00
   2  -2  -6   11.60    3.60
   2  -2  -6   13.20    3.80
  -2   2   6   12.40    3.30
  -2   2   6   10.30    3.40
  -2   2   6   12.70    2.80
  -2   2   6   10.90    3.50
   1  -2  -6    2.60    2.40
   1  -2  -6    6.10    2.80
   1  -2  -6    5.00    3.30
   1  -2  -6    7.00    3.20
  -1   2   6    9.90    3.30
  -1   2   6    5.00    2.50
  -1   2   6    6.60    3.00
   0  -2  -6 9236.08  381.26
   0  -2  -6 9183.58  382.56
   0  -2  -6 9233.68  382.56
   0   2   6 9568.64  382.56
   0   2   6 9999.00  382.56
   0   2   6 9663.13  381.46
  -1  -2  -6   14.30    3.70
  -1  -2  -6   11.00    3.60
  -1  -2  -6   11.50    2.30
   1   2   6    7.90    2.60
   1   2   6   15.10    3.30
   1   2   6   11.60    3.10
  -2  -2  -6  390.96   19.90
  -2  -2  -6  444.66   20.00
  -2  -2  -6  423.66   18.60
   2   2   6  452.95   19.80
   2   2   6  431.46   19.90
  -3  -2  -6  593.84   27.20
  -3  -2  -6  578.94   27.40
  -3  -2  -6  606.44   26.30
  -3  -2  -6  636.84   26.90
   3   2   6  635.04   27.30
   3   2   6  625.34   27.00
  -4  -2  -6  363.96   18.60
  -4  -2  -6  400.76   18.50
  -4  -2  -6  383.26   18.40
  -4  -2  -6  385.96   17.80
   4   2   6  379.26   18.00
   4   2   6  386.36   18.50
  -5  -2  -6  340.97   17.20
  -5  -2  -6  348.27   17.40
  -5  -2  -6  372.26   18.10
  -5  -2  -6  337.77   17.80
   5   2   6  343.97   17.30
   5   2   6  364.86   16.90
  -6  -2  -6  273.57   15.30
  -6  -2  -6  309.47   17.10
  -6  -2  -6  323.17   17.70
   6   2   6  312.37   15.20
   6   2   6  293.27   16.00
  -7  -2  -6  617.24   28.70
  -7  -2  -6  502.25   27.20
   7   2   6  587.34   25.20
   6  -3  -6   11.40    6.70
   6  -3  -6   -1.00    5.40
  -6   3   6    7.00    4.70
  -6   3   6   11.40    6.70
  -6   3   6   12.50    8.30
  -6   3   6   -2.60    5.40
   5  -3  -6   79.79   10.80
   5  -3  -6   42.80    7.70
   5  -3  -6   54.69    8.10
   5  -3  -6   66.69    9.60
  -5   3   6   58.09    7.30
  -5   3   6   38.90    8.20
  -5   3   6   57.89    8.80
  -5   3   6   58.79    9.80
  -5   3   6   51.59    9.70
   4  -3  -6  164.18   10.50
   4  -3  -6  167.28   11.50
   4  -3  -6  165.78    9.80
  -4   3   6  170.28   11.60
  -4   3   6  159.68   11.20
  -4   3   6  148.19   10.90
  -4   3   6  162.88    9.70
  -4   3   6  174.28   10.10
   3  -3  -6  534.85   24.60
   3  -3  -6  544.95   24.30
   3  -3  -6  523.85   23.20
   3  -3  -6  523.45   24.10
  -3   3   6  491.55   24.30
  -3   3   6  586.54   24.80
  -3   3   6  541.65   23.90
  -3   3   6  526.85   24.20
  -3   3   6  546.05   23.40
   2  -3  -6  445.96   20.10
   2  -3  -6  457.45   19.70
   2  -3  -6  437.06   19.00
   2  -3  -6  412.76   20.30
  -2   3   6  444.76   19.00
  -2   3   6  412.76   19.70
  -2   3   6  459.45   20.40
  -2   3   6  404.96   19.90
  -2   3   6  428.66   19.60
   1  -3  -6  416.56   19.00
   1  -3  -6  409.06   20.20
   1  -3  -6  431.86   19.20
   1  -3  -6  441.86   20.10
  -1   3   6  454.75   20.30
  -1   3   6  470.05   20.00
  -1   3   6  433.26   19.00
   0  -3  -6  184.18   10.90
   0  -3  -6  199.48    9.30
   0  -3  -6  185.68   11.20
   0  -3  -6  200.58    8.80
   0   3   6  210.08   10.90
   0   3   6  207.98    9.70
   0   3   6  191.58   10.80
  -1  -3  -6  358.16   18.20
  -1  -3  -6  377.86   18.20
  -1  -3  -6  381.96   16.50
   1   3   6  402.96   17.10
   1   3   6  402.56   18.10
   1   3   6  396.66   18.20
  -2  -3  -6  416.66   19.50
  -2  -3  -6  422.76   17.80
  -2  -3  -6  401.96   18.00
  -2  -3  -6  389.66   19.30
   2   3   6  432.86   19.30
   2   3   6  421.86   19.20
  -3  -3  -6  760.52   34.30
  -3  -3  -6  832.62   33.80
  -3  -3  -6  792.22   33.30
  -3  -3  -6  743.13   34.30
   3   3   6  826.42   34.20
   3   3   6  787.72   34.20
  -4  -3  -6  145.99    9.80
  -4  -3  -6  139.69    9.80
  -4  -3  -6  125.29    9.70
  -4  -3  -6  136.29    8.90
   4   3   6  151.48    9.50
   4   3   6  158.78    9.40
  -5  -3  -6  909.81   37.90
  -5  -3  -6  935.71   38.50
  -5  -3  -6  829.42   37.90
  -5  -3  -6  892.41   38.40
   5   3   6  871.91   37.90
   5   3   6  855.71   37.60
  -6  -3  -6   17.20    4.40
  -6  -3  -6   19.00    5.50
  -6  -3  -6   18.30    6.30
   6   3   6   16.80    3.80
   6   3   6   18.80    4.70
  -7  -3  -6   12.90    6.00
  -7  -3  -6   18.60    7.50
  -7  -3  -6   10.20    6.30
  -7  -3  -6   20.40    4.40
   7   3   6   12.20    3.90
   6  -4  -6    5.80    7.60
   6  -4  -6    3.20    5.80
  -6   4   6    2.40    7.10
  -6   4   6    1.30    7.70
   5  -4  -6  625.54   29.00
   5  -4  -6  619.84   27.60
   5  -4  -6  597.44   28.00
  -5   4   6  612.04   27.90
  -5   4   6  621.04   29.60
  -5   4   6  589.04   27.60
  -5   4   6  659.13   29.10
  -5   4   6  623.24   29.10
   4  -4  -6  192.58   11.00
   4  -4  -6  183.98   11.80
   4  -4  -6  187.48   12.90
  -4   4   6  187.58   12.70
  -4   4   6  196.58   12.60
  -4   4   6  205.08   12.60
   3  -4  -6   28.90    5.80
   3  -4  -6   32.10    6.80
   3  -4  -6   39.10    7.30
   3  -4  -6   40.00    7.60
  -3   4   6   41.20    6.90
  -3   4   6   38.80    7.00
  -3   4   6   30.20    5.40
  -3   4   6   40.60    5.90
  -3   4   6   34.80    6.40
   2  -4  -6   68.19    5.80
   2  -4  -6   63.09    7.10
   2  -4  -6   65.19    6.70
   2  -4  -6   67.79    7.50
  -2   4   6   66.39    6.50
  -2   4   6   59.49    5.90
  -2   4   6   65.99    6.40
  -2   4   6   62.09    7.00
   1  -4  -6 1091.49   46.40
   1  -4  -6 1052.89   44.60
   1  -4  -6 1050.19   46.70
   1  -4  -6 1034.10   45.60
   1  -4  -6 1148.09   45.70
  -1   4   6 1105.79   45.60
  -1   4   6 1079.19   45.70
  -1   4   6 1161.68   46.40
  -1   4   6 1187.78   47.00
   0  -4  -6  174.88    9.30
   0  -4  -6  180.18   10.60
   0  -4  -6  188.48    8.30
   0  -4  -6  169.98   10.30
   0   4   6  180.78    9.10
   0   4   6  180.68   10.20
   0   4   6  187.28   10.10
   0   4   6  164.48    8.70
  -1  -4  -6  506.85   22.10
  -1  -4  -6  504.05   23.40
  -1  -4  -6  530.35   23.30
  -1  -4  -6  508.15   21.60
   1   4   6  515.35   23.30
   1   4   6  499.95   22.10
   1   4   6  536.75   23.10
  -2  -4  -6  324.27   15.80
  -2  -4  -6  287.17   14.10
  -2  -4  -6  329.27   14.20
  -2  -4  -6  291.37   15.30
   2   4   6  313.97   15.50
   2   4   6  324.97   15.30
   2   4   6  337.37   14.50
  -3  -4  -6  483.45   20.10
  -3  -4  -6  498.35   22.30
  -3  -4  -6  436.86   21.80
  -3  -4  -6  479.65   21.00
   3   4   6  486.45   21.70
   3   4   6  479.85   22.00
  -4  -4  -6  655.03   31.00
  -4  -4  -6  725.33   31.30
  -4  -4  -6  736.83   30.80
  -4  -4  -6  681.53   30.40
   4   4   6  697.83   30.80
   4   4   6  748.13   31.10
  -5  -4  -6   31.80    7.20
  -5  -4  -6   21.20    5.50
  -5  -4  -6   18.20    5.00
  -5  -4  -6   17.20    4.70
   5   4   6   18.90    4.20
   5   4   6   20.00    4.40
  -6  -4  -6  801.52   35.10
  -6  -4  -6  732.33   34.60
  -6  -4  -6  849.32   35.80
   6   4   6  759.22   34.40
   6   4   6  859.61   34.50
  -7  -4  -6    1.40    4.30
  -7  -4  -6    4.40    5.70
  -7  -4  -6   15.00    7.50
  -7  -4  -6   11.40    5.70
   7   4   6    9.60    4.50
   7   4   6    7.80    5.60
   5  -5  -6    3.30    5.30
   5  -5  -6   -4.00    6.40
   5  -5  -6   -3.70    5.90
  -5   5   6    4.70    6.70
  -5   5   6   14.80    6.60
  -5   5   6    2.20    5.60
   4  -5  -6   25.30    5.60
   4  -5  -6   31.90    7.40
   4  -5  -6   29.50    6.40
   4  -5  -6   30.90    7.40
   4  -5  -6   46.60   10.20
  -4   5   6   24.00    6.00
  -4   5   6   43.60    8.70
  -4   5   6   22.20    4.90
  -4   5   6   27.00    4.90
  -4   5   6   28.10    6.20
   3  -5  -6  792.92   34.60
   3  -5  -6  855.41   34.60
   3  -5  -6  786.62   35.20
   3  -5  -6  776.52   33.70
  -3   5   6  815.62   34.80
  -3   5   6  674.43   34.40
  -3   5   6  810.12   35.00
   2  -5  -6  506.95   20.30
   2  -5  -6  438.26   21.30
   2  -5  -6  510.55   22.50
   2  -5  -6  406.46   22.50
  -2   5   6  518.35   22.80
  -2   5   6  503.05   21.50
  -2   5   6  496.45   22.10
   1  -5  -6  136.49    8.20
   1  -5  -6  149.29    9.50
   1  -5  -6  136.99    9.80
   1  -5  -6  145.19    7.00
   1  -5  -6  145.39    9.50
  -1   5   6  131.89    8.10
  -1   5   6  141.99    9.40
  -1   5   6  138.69    8.90
  -1   5   6  142.59    8.40
   0  -5  -6   14.40    3.40
   0  -5  -6   15.60    3.80
   0  -5  -6   11.30    3.80
   0  -5  -6    9.70    2.80
   0  -5  -6   15.00    4.30
   0   5   6   17.10    3.80
   0   5   6   15.20    2.90
   0   5   6   13.20    3.50
   0   5   6   12.40    3.60
   0   5   6   14.60    3.00
  -1  -5  -6    9.80    3.30
  -1  -5  -6    5.70    2.30
  -1  -5  -6    0.70    3.60
  -1  -5  -6    5.00    3.10
   1   5   6    6.50    3.20
   1   5   6    6.90    2.90
   1   5   6    5.10    2.10
   1   5   6    5.20    3.20
  -2  -5  -6   91.59    6.50
  -2  -5  -6   89.59    6.30
  -2  -5  -6   85.39    7.50
  -2  -5  -6   86.39    8.00
   2   5   6   95.79    7.40
   2   5   6   99.39    6.40
   2   5   6   97.49    7.40
  -3  -5  -6  519.65   22.30
  -3  -5  -6  490.85   23.60
  -3  -5  -6  522.55   22.90
  -3  -5  -6  530.55   24.20
   3   5   6  550.54   23.60
   3   5   6  526.85   24.00
   3   5   6  538.75   22.90
  -4  -5  -6 1539.15   66.39
  -4  -5  -6 1733.23   66.19
  -4  -5  -6 1619.94   66.09
  -4  -5  -6 1526.05   66.79
  -4  -5  -6 1614.64   64.89
   4   5   6 1567.64   66.09
   4   5   6 1575.34   66.19
   4   5   6 1603.44   66.69
  -5  -5  -6  127.69    9.70
  -5  -5  -6  108.69    9.20
  -5  -5  -6   99.29    9.50
  -5  -5  -6  114.39    9.00
   5   5   6   99.59    8.90
   5   5   6  109.29    8.50
  -6  -5  -6   94.19   10.30
  -6  -5  -6   84.69    9.50
  -6  -5  -6   59.39    8.80
   6   5   6   73.19    7.80
   6   5   6   69.49    8.20
  -7  -5  -6   17.10    6.20
  -7  -5  -6   13.10    5.60
  -7  -5  -6   43.70   11.50
  -7  -5  -6   21.30    5.10
   7   5   6   22.80    4.50
   7   5   6   21.90    4.20
   4  -6  -6   38.30    7.00
   4  -6  -6   40.10    8.10
   4  -6  -6   43.30   10.80
   4  -6  -6   45.20    8.50
  -4   6   6   46.50   10.00
  -4   6   6   44.80    9.70
  -4   6   6   32.10    7.10
   3  -6  -6  187.98   12.40
   3  -6  -6  167.68   12.80
   3  -6  -6  182.98   12.40
   3  -6  -6  167.68   10.70
  -3   6   6  190.68   12.30
  -3   6   6  145.49   12.00
  -3   6   6  173.98   12.00
   2  -6  -6    9.60    4.80
   2  -6  -6   20.00    5.00
   2  -6  -6   18.60    3.90
  -2   6   6    7.30    4.50
  -2   6   6   14.60    4.60
   1  -6  -6  310.87   17.10
   1  -6  -6  337.47   16.40
   1  -6  -6  334.87   14.70
   1  -6  -6  356.16   16.90
  -1   6   6  332.37   16.40
  -1   6   6  330.67   15.90
  -1   6   6  336.57   16.90
   0  -6  -6  604.04   27.20
   0  -6  -6  655.23   27.50
   0  -6  -6  614.94   28.50
   0  -6  -6  654.23   26.60
   0  -6  -6  614.94   28.10
   0   6   6  615.04   27.80
   0   6   6  635.04   27.00
   0   6   6  627.64   27.10
   0   6   6  662.33   28.40
  -1  -6  -6  339.17   16.90
  -1  -6  -6  365.06   16.10
  -1  -6  -6  325.37   17.10
  -1  -6  -6  346.97   15.30
   1   6   6  342.37   15.20
   1   6   6  363.26   16.70
   1   6   6  330.17   15.10
   1   6   6  337.57   15.70
   1   6   6  352.46   17.00
  -2  -6  -6  794.62   35.80
  -2  -6  -6  794.72   34.70
  -2  -6  -6  877.61   34.90
  -2  -6  -6  807.22   36.20
   2   6   6  830.72   34.80
   2   6   6  887.41   35.80
   2   6   6  823.12   36.20
   2   6   6  824.32   34.90
  -3  -6  -6  163.38    9.40
  -3  -6  -6  175.38    9.00
  -3  -6  -6  152.58   10.10
  -3  -6  -6  146.39   10.70
   3   6   6  171.88    9.40
   3   6   6  168.88   10.10
   3   6   6  161.28    9.30
   3   6   6  158.58   10.30
  -4  -6  -6    4.70    3.00
  -4  -6  -6   -3.20    3.70
  -4  -6  -6   -1.20    4.00
  -4  -6  -6   -1.70    3.50
  -4  -6  -6   -4.40    4.30
   4   6   6    2.00    3.50
   4   6   6    1.20    3.30
   4   6   6   -3.80    3.40
   4   6   6   -3.70    3.70
  -5  -6  -6  411.16   18.20
  -5  -6  -6  373.76   16.10
  -5  -6  -6  301.37   17.40
  -5  -6  -6  347.47   18.70
  -5  -6  -6  373.76   18.00
   5   6   6  367.16   18.30
   5   6   6  371.46   17.50
  -6  -6  -6    7.90    5.10
  -6  -6  -6   11.70    6.00
  -6  -6  -6    6.40    5.00
   6   6   6    6.80    5.20
   6   6   6    5.40    4.10
   6   6   6   10.20    4.70
  -7  -6  -6  482.25   23.40
  -7  -6  -6  430.76   21.40
  -7  -6  -6  451.85   22.90
   7   6   6  432.46   20.80
   7   6   6  469.55   20.90
   4  -7  -6  302.47   17.90
   4  -7  -6  254.67   18.00
   4  -7  -6  257.77   15.40
  -4   7   6  223.78   16.60
  -4   7   6  271.67   17.60
  -4   7   6  309.27   18.10
   3  -7  -6    3.50    4.90
   3  -7  -6   11.50    6.60
   3  -7  -6    0.60    5.20
   3  -7  -6   15.90    6.20
   3  -7  -6    9.00    5.90
  -3   7   6    5.90    5.50
  -3   7   6   -5.50    5.80
   2  -7  -6  418.46   20.80
   2  -7  -6  416.86   21.10
   2  -7  -6  370.76   19.20
  -2   7   6  430.76   20.90
  -2   7   6  426.36   20.20
   1  -7  -6  102.79    7.10
   1  -7  -6   93.29    7.90
   1  -7  -6  106.99    9.80
   1  -7  -6  111.49   10.00
  -1   7   6  111.89    8.40
  -1   7   6  101.29    9.40
  -1   7   6  110.89    8.80
   0  -7  -6  999.70   42.90
   0  -7  -6 1025.20   41.40
   0  -7  -6  910.91   41.90
   0  -7  -6 1007.70   42.20
   0   7   6 1051.39   42.70
   0   7   6  989.80   43.20
   0   7   6  986.70   41.90
   0   7   6 1011.20   41.90
  -1  -7  -6  646.24   30.80
  -1  -7  -6  730.13   29.70
  -1  -7  -6  663.03   29.60
  -1  -7  -6  695.43   29.10
  -1  -7  -6  678.53   30.50
   1   7   6  687.03   29.10
   1   7   6  707.23   30.80
   1   7   6  672.83   28.80
   1   7   6  687.33   29.40
   1   7   6  703.43   30.30
  -2  -7  -6   46.30    6.50
  -2  -7  -6   32.50    7.10
  -2  -7  -6   33.20    7.00
  -2  -7  -6   42.30    5.50
   2   7   6   44.20    6.80
   2   7   6   40.00    6.80
   2   7   6   34.30    4.90
   2   7   6   34.60    5.50
  -3  -7  -6  749.62   33.00
  -3  -7  -6  809.02   32.80
  -3  -7  -6  787.72   34.50
   3   7   6  782.12   32.90
   3   7   6  751.42   34.20
   3   7   6  774.02   33.60
   3   7   6  764.92   33.00
  -4  -7  -6   81.29    7.40
  -4  -7  -6   99.09    9.90
  -4  -7  -6   95.19    8.30
  -4  -7  -6   73.09    8.10
  -4  -7  -6  112.19    8.20
   4   7   6  100.19    8.30
   4   7   6  102.69    9.20
   4   7   6  109.39    7.80
   4   7   6  106.59    8.50
  -5  -7  -6  451.95   20.80
  -5  -7  -6  464.95   20.50
  -5  -7  -6  445.46   19.30
  -5  -7  -6  386.86   21.40
   5   7   6  410.96   19.90
   5   7   6  444.76   21.30
   5   7   6  427.96   20.30
  -6  -7  -6    4.60    5.70
  -6  -7  -6   15.20    5.20
  -6  -7  -6    6.30    6.00
  -6  -7  -6   13.60    5.50
   6   7   6    6.30    5.10
   6   7   6    9.70    5.20
   6   7   6    7.60    4.50
   6   7   6    8.70    4.90
  -7  -7  -6   28.40    7.30
  -7  -7  -6   19.60    5.70
  -7  -7  -6   15.10    5.70
  -7  -7  -6   15.00    7.10
   7   7   6   17.90    5.30
   3  -8  -6  178.98   14.40
   3  -8  -6  161.28   12.40
   3  -8  -6  172.38   15.20
   3  -8  -6  166.28   15.40
  -3   8   6  194.38   14.10
  -3   8   6  183.38   14.30
   2  -8  -6   90.99    9.40
   2  -8  -6   84.79   11.80
   2  -8  -6  103.19   12.00
   2  -8  -6  103.09   12.00
  -2   8   6  120.79   10.60
  -2   8   6  113.79   11.30
   1  -8  -6  245.38   15.50
   1  -8  -6  236.78   15.00
   1  -8  -6  257.77   12.70
   1  -8  -6  239.78   13.30
  -1   8   6  254.37   14.30
  -1   8   6  271.47   15.30
  -1   8   6  227.38   13.40
  -1   8   6  254.17   14.10
   0  -8  -6  245.28   12.10
   0  -8  -6  218.58   12.50
   0  -8  -6  224.88   14.50
   0  -8  -6  223.08   14.10
   0   8   6  236.78   13.50
   0   8   6  251.17   12.80
   0   8   6  226.48   12.40
   0   8   6  256.47   14.20
  -1  -8  -6  451.65   20.70
  -1  -8  -6  469.55   20.30
  -1  -8  -6  447.66   20.80
  -1  -8  -6  399.96   22.00
  -1  -8  -6  449.95   21.80
   1   8   6  446.06   19.50
   1   8   6  467.55   22.10
   1   8   6  469.55   20.30
   1   8   6  442.36   20.40
   1   8   6  465.75   21.50
  -2  -8  -6   14.50    3.90
  -2  -8  -6   14.90    4.70
  -2  -8  -6   13.60    5.20
   2   8   6   20.30    4.70
   2   8   6   13.90    3.30
   2   8   6   17.90    4.80
   2   8   6   16.50    4.00
   2   8   6   20.20    4.60
  -3  -8  -6  139.39    9.40
  -3  -8  -6  144.89    9.70
  -3  -8  -6  136.99   11.20
   3   8   6  148.99   10.40
   3   8   6  148.69    9.00
   3   8   6  130.29    8.90
   3   8   6  142.69   10.60
  -4  -8  -6   35.50    7.50
  -4  -8  -6   38.90    6.90
  -4  -8  -6   36.00    7.00
  -4  -8  -6   40.00    9.00
   4   8   6   42.70    7.70
   4   8   6   37.70    8.00
   4   8   6   35.70    7.00
   4   8   6   47.30    6.90
  -5  -8  -6   -0.50    5.80
  -5  -8  -6    3.40    4.80
  -5  -8  -6    5.70    5.10
  -5  -8  -6    1.40    4.30
  -5  -8  -6    4.30    4.90
   5   8   6    2.00    5.00
   5   8   6    7.30    5.30
   5   8   6    4.40    4.40
   5   8   6    0.30    4.30
  -6  -8  -6  696.63   28.10
  -6  -8  -6  620.24   28.50
  -6  -8  -6  544.35   28.60
  -6  -8  -6  618.34   26.70
  -6  -8  -6  610.74   28.00
   6   8   6  625.14   27.40
   6   8   6  609.84   28.60
   6   8   6  559.44   27.30
  -7  -8  -6   66.89   11.40
  -7  -8  -6   71.39   10.10
  -7  -8  -6   60.99   11.50
   7   8   6   78.19   10.30
   7   8   6   60.79   10.30
   2  -9  -6  276.97   18.80
   2  -9  -6  265.07   16.00
   2  -9  -6  305.57   15.40
   2  -9  -6  270.07   18.90
  -2   9   6  296.27   17.80
  -2   9   6  328.17   18.50
   1  -9  -6   49.80   11.60
   1  -9  -6   47.70    8.20
   1  -9  -6   35.30    7.40
   1  -9  -6   46.00    7.70
   1  -9  -6   42.80    9.00
  -1   9   6   36.80    9.00
  -1   9   6   35.30    6.90
   0  -9  -6   32.40    6.70
   0  -9  -6   36.70    7.30
   0  -9  -6   38.70    7.50
   0  -9  -6   42.90    7.10
   0  -9  -6   20.80    5.50
   0   9   6   34.30    9.20
   0   9   6   37.20    7.60
   0   9   6   41.70    9.10
   0   9   6   44.80    8.30
  -1  -9  -6   30.60    6.60
  -1  -9  -6   21.70    5.70
  -1  -9  -6   20.20    4.60
  -1  -9  -6   27.60    5.00
  -1  -9  -6   17.70    6.20
   1   9   6   30.00    5.50
   1   9   6   34.10    8.20
   1   9   6   17.30    4.40
   1   9   6   20.60    4.90
  -2  -9  -6  137.29    9.50
  -2  -9  -6  113.69   11.60
  -2  -9  -6  111.39   11.40
   2   9   6  154.58   11.30
   2   9   6  136.39    8.80
   2   9   6  137.59    8.40
   2   9   6  132.19   10.70
   2   9   6  140.19    9.30
  -3  -9  -6  489.45   25.00
  -3  -9  -6  513.25   23.20
   3   9   6  490.25   22.60
   3   9   6  530.75   24.00
   3   9   6  498.05   24.40
   3   9   6  510.85   22.80
  -4  -9  -6  638.44   29.80
  -4  -9  -6  673.03   29.10
  -4  -9  -6  660.43   30.50
   4   9   6  674.33   28.70
   4   9   6  624.14   29.30
   4   9   6  632.74   28.20
   4   9   6  632.94   30.20
  -5  -9  -6   28.70    7.30
  -5  -9  -6   30.40    6.20
  -5  -9  -6   34.50    6.40
  -5  -9  -6   34.10    6.00
   5   9   6   26.20    5.80
   5   9   6   40.00    7.80
   5   9   6   27.20    6.40
   5   9   6   24.90    5.70
   5   9   6   51.69    8.20
  -6  -9  -6  137.49   13.30
  -6  -9  -6  138.49   11.30
  -6  -9  -6  141.09   12.40
   6   9   6  146.59   12.90
   6   9   6  150.78   11.70
   6   9   6  150.98   10.70
   6   9   6  131.29   11.30
   1 -10  -6   96.19   10.30
   1 -10  -6   76.39   13.90
   1 -10  -6  103.69   10.20
   1 -10  -6   77.59   10.40
  -1  10   6  114.09   12.90
  -1  10   6   78.59   11.90
   0 -10  -6  145.99   10.90
   0 -10  -6  132.09   14.00
   0 -10  -6  134.39   10.20
   0 -10  -6  120.79   10.90
   0  10   6  151.28   11.90
   0  10   6  137.09   12.90
  -1 -10  -6   65.79   11.20
  -1 -10  -6  105.49    9.50
  -1 -10  -6   87.29   12.20
  -1 -10  -6  107.79    9.60
   1  10   6  102.39   11.50
   1  10   6  121.59    9.80
   1  10   6  107.69   11.40
   1  10   6   79.59    9.30
  -2 -10  -6  270.77   16.30
  -2 -10  -6  263.67   17.70
  -2 -10  -6  318.47   15.60
   2  10   6  312.27   17.40
   2  10   6  277.67   14.30
   2  10   6  315.37   15.20
   2  10   6  260.57   15.00
   2  10   6  299.07   17.20
  -3 -10  -6   84.69   12.10
  -3 -10  -6   70.69   10.40
  -3 -10  -6   91.29    9.50
   3  10   6   83.09    8.20
   3  10   6   97.99   11.40
   3  10   6   81.69    8.70
   3  10   6   97.19   10.70
  -4 -10  -6   -0.50    5.20
  -4 -10  -6   -6.70    6.90
  -4 -10  -6  -13.00    5.90
   4  10   6    2.40    6.00
   4  10   6    3.30    5.60
   4  10   6   -5.00    5.40
   4  10   6    1.10    4.70
   4  10   6   -0.40    4.70
  -5 -10  -6  224.08   16.60
  -5 -10  -6  257.17   15.00
  -5 -10  -6  244.88   14.90
   5  10   6  244.78   16.20
   5  10   6  198.28   14.60
   5  10   6  242.08   15.30
   5  10   6  250.97   14.60
   5  10   6  227.28   13.60
  -6 -10  -6  126.79   12.00
  -6 -10  -6   78.39   12.40
  -6 -10  -6  127.39   12.30
   6  10   6   86.39   11.00
   6  10   6  112.19   13.40
   6  10   6  138.19   11.40
  -1 -11  -6   22.30    6.00
  -1 -11  -6   18.40    6.10
  -1 -11  -6   28.60    9.10
   1  11   6   27.00    7.50
   1  11   6   39.80    9.90
  -2 -11  -6   79.89   10.00
  -2 -11  -6   54.99    9.70
   2  11   6   56.79   12.90
   2  11   6   58.19    9.20
   2  11   6   79.09   12.30
   2  11   6   74.49    9.80
  -3 -11  -6  431.86   21.50
  -3 -11  -6  426.06   24.10
   3  11   6  444.96   20.50
   3  11   6  394.36   20.70
   3  11   6  439.16   23.30
   3  11   6  444.96   23.50
  -4 -11  -6   19.50    8.50
  -4 -11  -6   25.70    6.80
   4  11   6   17.20    5.60
   4  11   6   59.19   11.30
   4  11   6   21.70    7.50
   4  11   6   23.40    7.30
   4  11   6   22.70    5.90
   3   7  -7   56.09   11.10
   3   7  -7   59.39   12.40
   3   7  -7   46.10   10.80
   3   7  -7   67.19   12.80
  -3  -7   7   45.70   10.90
  -3  -7   7   76.69   12.50
  -3  -7   7   68.79    9.20
   2   7  -7    5.50    9.30
   2   7  -7   -0.60    6.40
   2   7  -7   -3.90    5.60
   2   7  -7    0.90    7.00
  -2  -7   7   -1.60    5.70
  -2  -7   7    1.60    6.80
   1   7  -7  257.67   16.10
   1   7  -7  237.88   17.00
   1   7  -7  250.47   15.20
  -1  -7   7  242.48   16.40
   5   6  -7   31.50    6.80
   5   6  -7   66.89   12.50
  -5  -6   7   53.69   12.40
  -5  -6   7   45.60    7.90
  -5  -6   7   54.39    9.80
   4   6  -7  331.27   21.30
   4   6  -7  358.96   18.90
   4   6  -7  348.17   19.80
  -4  -6   7  350.96   19.10
  -4  -6   7  373.36   20.00
  -4  -6   7  350.36   17.50
   3   6  -7  258.07   16.00
   3   6  -7  252.97   18.30
   3   6  -7  251.37   15.60
   3   6  -7  259.67   15.60
  -3  -6   7  217.28   13.20
  -3  -6   7  221.28   15.40
  -3  -6   7  230.38   15.70
   2   6  -7  238.98   15.00
   2   6  -7  241.78   15.40
   2   6  -7  253.47   17.80
  -2  -6   7  232.08   15.50
  -2  -6   7  232.88   15.20
   1   6  -7   44.40    8.80
   1   6  -7   42.00    9.00
   1   6  -7   50.99   10.70
   1   6  -7   50.49    9.70
  -1  -6   7   42.10    9.70
   0   6  -7   80.49   10.30
   0   6  -7   97.59   10.50
   0   6  -7   95.29   11.70
   0   6  -7   64.99   13.40
   0  -6   7   81.49    7.20
   0  -6   7   86.89   11.00
  -1   6  -7   -3.00    6.50
  -1   6  -7    8.50    6.50
  -1   6  -7    6.10    5.20
   1  -6   7    0.40    3.90
   1  -6   7    7.40    5.40
   5   5  -7  168.08   12.20
   5   5  -7  148.29   14.40
   5   5  -7  147.39   13.10
  -5  -5   7  150.78   13.40
  -5  -5   7  149.09   11.80
  -5  -5   7  150.58    9.70
   4   5  -7  195.88   15.10
   4   5  -7  195.98   13.50
   4   5  -7  188.78   14.50
   4   5  -7  208.48   13.70
  -4  -5   7  212.48   14.00
  -4  -5   7  223.28   13.30
  -4  -5   7  186.88   10.90
  -4  -5   7  164.98   14.40
  -4  -5   7  215.88   14.60
   3   5  -7  258.97   14.60
   3   5  -7  236.68   16.20
   3   5  -7  234.58   14.90
  -3  -5   7  263.77   14.80
  -3  -5   7  248.68   15.00
  -3  -5   7  215.58   12.50
  -3  -5   7  238.68   16.00
  -3  -5   7  238.48   14.90
   2   5  -7  395.66   22.50
   2   5  -7  437.36   20.50
   2   5  -7  414.46   21.20
  -2  -5   7  433.06   21.30
  -2  -5   7  429.26   21.00
   1   5  -7   63.19    9.00
   1   5  -7   55.49    9.90
   1   5  -7   56.59   11.10
  -1  -5   7   57.29    8.90
  -1  -5   7   58.59   10.80
   0   5  -7  265.87   15.00
   0   5  -7  251.47   17.80
   0   5  -7  272.47   16.50
   0   5  -7  295.17   14.70
   0  -5   7  262.77   13.10
   0  -5   7  278.27   15.60
   0  -5   7  254.57   17.10
  -1   5  -7  118.99   13.70
  -1   5  -7  130.59   10.10
  -1   5  -7  116.39   10.80
  -1   5  -7  105.09   11.90
   1  -5   7  106.99   13.00
   1  -5   7  115.49    8.60
   1  -5   7  117.79   10.70
  -2   5  -7  498.15   24.30
  -2   5  -7  489.75   22.10
  -2   5  -7  495.95   24.70
   2  -5   7  484.15   24.10
   2  -5   7  439.56   25.70
   2  -5   7  492.75   22.40
   6   4  -7  125.89   10.40
   6   4  -7  154.78   13.20
  -6  -4   7  138.29   14.50
  -6  -4   7   82.89   10.10
  -6  -4   7  147.29   12.10
  -6  -4   7  102.09   12.00
  -6  -4   7  111.79    8.60
   5   4  -7   28.50    7.10
   5   4  -7   26.80    5.60
   5   4  -7   30.70    7.20
  -5  -4   7   22.40    5.10
  -5  -4   7   46.00    9.50
  -5  -4   7   31.90    7.00
  -5  -4   7   31.30    5.90
  -5  -4   7   47.10   10.90
   4   4  -7  236.68   13.50
   4   4  -7  205.98   15.00
   4   4  -7  252.97   15.10
   4   4  -7  240.48   14.20
  -4  -4   7  236.48   14.80
  -4  -4   7  216.48   15.20
  -4  -4   7  220.98   11.50
  -4  -4   7  234.88   14.00
   3   4  -7  384.26   20.30
   3   4  -7  388.06   18.70
   3   4  -7  376.46   19.10
  -3  -4   7  386.16   19.10
  -3  -4   7  391.16   19.30
  -3  -4   7  362.16   17.10
   2   4  -7   89.29   10.60
   2   4  -7   96.49    8.60
   2   4  -7   94.29    9.20
  -2  -4   7   94.09    8.90
  -2  -4   7   75.79    9.30
   1   4  -7  244.48   13.40
   1   4  -7  239.68   14.20
   1   4  -7  241.28   15.60
  -1  -4   7  244.78   15.20
  -1  -4   7  255.67   13.30
  -1  -4   7  250.27   14.40
   0   4  -7   36.00    6.90
   0   4  -7   34.80    7.50
   0   4  -7   39.30    8.40
   0  -4   7   46.70    6.50
   0  -4   7   45.60    9.20
   0  -4   7   43.10    8.20
  -1   4  -7   19.10    5.70
  -1   4  -7   20.90    6.40
  -1   4  -7   16.40    5.70
  -1   4  -7   19.60    4.50
   1  -4   7   20.30    5.00
   1  -4   7   13.20    5.40
   1  -4   7   13.30    3.80
  -2   4  -7   31.40    6.50
  -2   4  -7   41.10   10.70
  -2   4  -7   40.50    6.80
  -2   4  -7   34.30    9.20
   2  -4   7   32.00    8.30
   2  -4   7   46.40    6.80
   2  -4   7   32.70    7.00
  -3   4  -7  509.05   24.20
  -3   4  -7  449.56   23.80
   3  -4   7  439.66   23.20
   3  -4   7  474.05   25.20
   3  -4   7  475.25   22.10
   6   3  -7  136.59   12.60
   6   3  -7  126.59   10.30
  -6  -3   7  110.99    8.40
  -6  -3   7  132.39   13.40
  -6  -3   7  143.49   11.30
  -6  -3   7  113.39   11.90
   5   3  -7  211.28   15.40
   5   3  -7  269.67   14.30
   5   3  -7  278.07   15.40
   5   3  -7  244.48   16.30
  -5  -3   7  257.17   15.70
  -5  -3   7  269.07   14.80
  -5  -3   7  258.47   16.30
  -5  -3   7  288.97   14.00
  -5  -3   7  250.57   12.40
   4   3  -7   14.00    4.90
   4   3  -7   12.00    6.50
   4   3  -7    8.10    5.00
   4   3  -7    1.10    5.50
  -4  -3   7    1.40    5.20
  -4  -3   7   -0.30    3.90
  -4  -3   7    3.30    4.90
  -4  -3   7    2.00    2.80
   3   3  -7   68.49    9.50
   3   3  -7   75.49    8.50
   3   3  -7   78.29    8.60
  -3  -3   7   61.59    7.80
  -3  -3   7   69.29    8.20
  -3  -3   7   67.99    8.60
  -3  -3   7   54.59    5.60
   2   3  -7    7.70    4.40
   2   3  -7   13.70    5.30
   2   3  -7   13.30    4.70
  -2  -3   7    7.40    3.90
  -2  -3   7   15.60    4.80
   1   3  -7   69.29    7.10
   1   3  -7   59.59    9.10
   1   3  -7   66.39    8.50
  -1  -3   7   63.99    7.40
  -1  -3   7   66.19    7.40
  -1  -3   7   76.89    5.70
  -1  -3   7   61.69    8.60
   0   3  -7  929.31   43.80
   0   3  -7  948.91   43.20
   0   3  -7 1087.19   42.00
   0  -3   7 1022.90   43.80
   0  -3   7 1024.80   42.10
  -1   3  -7  949.51   43.80
  -1   3  -7  968.50   44.50
  -1   3  -7 1082.49   42.30
  -1   3  -7 1052.89   43.50
   1  -3   7  973.30   43.80
   1  -3   7 1058.79   44.50
  -2   3  -7    4.50    5.10
  -2   3  -7    4.60    5.60
  -2   3  -7    3.90    5.70
  -2   3  -7    9.10    3.70
   2  -3   7    8.20    4.30
   2  -3   7    5.10    4.90
  -3   3  -7    3.20    5.60
  -3   3  -7   12.10    6.70
  -3   3  -7    2.90    5.60
   3  -3   7    7.40    5.80
   3  -3   7    7.50    4.30
   3  -3   7    9.90    4.30
  -4   3  -7    8.50    7.90
  -4   3  -7    1.10    6.20
  -4   3  -7   -3.90    5.90
   4  -3   7    1.30    4.80
   4  -3   7    9.00    4.90
   4  -3   7   -1.60    6.70
   6   2  -7   -8.00    5.00
   6   2  -7    5.00    6.70
   6   2  -7   10.10    4.80
  -6  -2   7   13.80    4.50
  -6  -2   7   -1.70    5.10
  -6  -2   7   11.50    5.00
  -6  -2   7   -5.30    6.70
   5   2  -7   -0.60    4.60
   5   2  -7    5.50    5.80
   5   2  -7    5.10    6.00
   5   2  -7   13.30    5.70
  -5  -2   7    3.10    4.40
  -5  -2   7    9.00    4.60
  -5  -2   7    1.90    6.10
   4   2  -7  347.07   18.80
   4   2  -7  351.46   17.90
   4   2  -7  366.36   18.10
  -4  -2   7  369.56   18.80
  -4  -2   7  370.66   17.60
  -4  -2   7  363.56   17.90
   3   2  -7   12.10    5.20
   3   2  -7    8.30    4.60
   3   2  -7    9.50    4.50
  -3  -2   7   14.30    3.40
  -3  -2   7   13.80    4.80
  -3  -2   7    5.00    4.00
  -3  -2   7    9.40    4.00
  -3  -2   7   12.80    4.90
   2   2  -7  354.66   17.80
   2   2  -7  358.56   18.50
   2   2  -7  363.46   17.00
  -2  -2   7  365.66   17.60
  -2  -2   7  355.26   15.80
  -2  -2   7  360.66   17.50
   1   2  -7  486.15   24.00
   1   2  -7  509.15   24.60
   1   2  -7  540.15   23.00
  -1  -2   7  521.35   23.80
  -1  -2   7  528.95   22.30
  -1  -2   7  528.65   23.40
  -1  -2   7  539.35   24.50
   0   2  -7   29.10    7.30
   0   2  -7   32.60    7.40
   0   2  -7   32.10    5.60
   0  -2   7   33.60    7.30
   0  -2   7   27.70    6.30
   0  -2   7   28.50    5.70
  -1   2  -7   11.50    5.00
  -1   2  -7    5.40    3.10
  -1   2  -7   -1.70    4.30
   1  -2   7    3.50    4.10
   1  -2   7    1.30    3.40
  -2   2  -7  229.28   13.40
  -2   2  -7  230.98   14.10
  -2   2  -7  236.58   11.20
  -2   2  -7  206.38   14.40
   2  -2   7  255.67   14.20
  -3   2  -7  441.46   21.70
  -3   2  -7  447.66   21.80
   3  -2   7  450.55   21.50
   3  -2   7  430.16   22.20
  -4   2  -7  344.77   19.00
  -4   2  -7  351.56   19.40
   4  -2   7  361.16   19.80
   4  -2   7  349.27   17.60
   4  -2   7  334.47   18.00
  -5   2  -7   68.79   12.90
  -5   2  -7   41.00    7.80
  -5   2  -7   23.40    6.80
   5  -2   7   41.80    9.10
   5  -2   7   34.20    8.30
   5  -2   7   63.49    9.40
   6   1  -7   53.79    8.40
   6   1  -7   45.90    7.30
   6   1  -7   51.69   10.50
   6   1  -7   38.30    8.20
  -6  -1   7   40.50    7.50
  -6  -1   7   31.10    7.60
  -6  -1   7   35.60    7.70
  -6  -1   7   33.20    7.90
  -6  -1   7   46.00    8.60
   5   1  -7  125.49    9.90
   5   1  -7  118.39    8.00
   5   1  -7  114.89   13.10
   5   1  -7   93.49   10.00
   5   1  -7  134.29   10.90
  -5  -1   7  125.39    8.70
  -5  -1   7  107.29    8.00
  -5  -1   7  104.99    9.40
  -5  -1   7  139.69   11.60
   4   1  -7  927.71   38.70
   4   1  -7  914.61   38.40
   4   1  -7  828.42   38.90
  -4  -1   7  906.91   37.80
  -4  -1   7  901.51   39.20
  -4  -1   7  895.01   38.50
  -4  -1   7  909.91   37.10
  -4  -1   7  856.61   38.80
   3   1  -7   -3.10    4.50
   3   1  -7    0.60    4.20
   3   1  -7    0.10    4.80
   3   1  -7   -0.70    4.20
  -3  -1   7    6.90    3.80
  -3  -1   7   -1.70    2.70
  -3  -1   7    0.20    4.00
  -3  -1   7   -1.60    4.30
  -3  -1   7   -0.10    3.10
   2   1  -7    9.80    4.30
   2   1  -7   17.30    4.40
   2   1  -7   13.10    4.70
  -2  -1   7   15.00    4.30
  -2  -1   7   13.90    3.10
  -2  -1   7   19.90    4.30
  -2  -1   7   25.80    6.10
  -2  -1   7   12.90    4.10
   1   1  -7  437.86   22.10
   1   1  -7  470.15   20.50
   1   1  -7  428.66   21.70
  -1  -1   7  486.65   20.10
  -1  -1   7  480.25   21.60
  -1  -1   7  478.95   22.00
  -1  -1   7  459.05   21.00
   0   1  -7  432.06   21.00
   0   1  -7  444.36   19.10
   0   1  -7  407.56   20.50
   0  -1   7  437.46   19.50
   0  -1   7  446.66   20.90
   0  -1   7  432.56   20.30
  -1   1  -7  341.27   17.60
  -1   1  -7  356.46   15.40
  -1   1  -7  325.47   17.30
   1  -1   7  334.57   17.00
   1  -1   7  345.57   15.80
   1  -1   7  360.56   17.50
  -2   1  -7  173.98   11.10
  -2   1  -7  158.48   11.50
  -2   1  -7  161.48   11.20
   2  -1   7  167.48   10.50
   2  -1   7  175.98   11.30
  -3   1  -7   13.60    5.60
  -3   1  -7   13.30    5.10
   3  -1   7   16.40    4.90
  -4   1  -7   70.99    9.40
  -4   1  -7   55.39   10.20
  -4   1  -7   57.99   10.30
  -4   1  -7   50.59    7.70
   4  -1   7   81.79    9.90
   4  -1   7   74.99    8.60
  -5   1  -7  246.88   16.70
  -5   1  -7  229.18   15.10
  -5   1  -7  243.08   14.50
   5  -1   7  243.48   14.20
   5  -1   7  240.98   14.10
   5  -1   7  227.78   16.40
   6   0  -7    7.10    5.00
   6   0  -7    2.60    5.40
   6   0  -7   11.10    4.80
  -6   0   7    8.00    5.00
  -6   0   7   11.10    5.00
  -6   0   7   12.30    4.80
  -6   0   7    8.30    7.30
   5   0  -7    7.20    4.80
   5   0  -7   11.60    5.10
   5   0  -7   13.80    7.60
   5   0  -7   10.00    4.10
  -5   0   7    5.00    4.50
  -5   0   7    7.20    3.50
  -5   0   7    4.70    4.00
  -5   0   7   12.80    6.20
   4   0  -7    0.40    4.50
   4   0  -7   -7.40    4.70
   4   0  -7    3.30    3.40
   4   0  -7   11.00    6.40
  -4   0   7   -9.10    3.90
  -4   0   7    4.40    3.10
  -4   0   7    1.60    4.20
  -4   0   7    3.20    4.90
  -4   0   7    0.70    3.10
   3   0  -7  199.58   12.20
   3   0  -7  198.18   12.50
   3   0  -7  194.68   12.00
  -3   0   7  208.28   12.10
  -3   0   7  199.58   10.10
  -3   0   7  196.48   10.40
  -3   0   7  194.78   11.70
   2   0  -7  952.90   42.60
   2   0  -7 1011.40   42.30
   2   0  -7 1043.70   43.00
  -2   0   7  975.00   42.20
  -2   0   7 1029.90   42.50
  -2   0   7  936.11   41.00
  -2   0   7  998.60   42.60
   1   0  -7  317.87   16.00
   1   0  -7  278.07   15.50
  -1   0   7  310.87   15.80
  -1   0   7  282.47   14.70
  -1   0   7  317.87   15.40
  -1   0   7  315.37   13.90
   0   0  -7    7.40    4.10
   0   0  -7    9.50    4.10
   0   0  -7    9.00    3.00
   0   0   7    9.00    3.80
   0   0   7   11.70    2.90
   0   0   7    9.70    3.50
   0   0   7    7.90    3.50
  -1   0  -7   -5.20    3.50
  -1   0  -7    1.40    2.60
  -1   0  -7    0.40    4.10
   1   0   7    3.60    3.60
   1   0   7    3.50    3.20
   1   0   7    3.90    3.50
  -2   0  -7  111.99    6.20
  -2   0  -7  100.39    9.00
  -2   0  -7   99.69    9.40
   2   0   7  113.09    7.20
   2   0   7  103.19    9.20
   2   0   7  123.49    8.70
  -3   0  -7  603.94   28.50
  -3   0  -7  675.73   28.60
   3   0   7  629.94   28.90
   3   0   7  620.34   28.20
  -4   0  -7  176.98   11.90
  -4   0  -7  162.08    9.80
  -4   0  -7  177.98   12.40
   4   0   7  179.38   12.40
  -5   0  -7  522.75   22.00
  -5   0  -7  490.65   23.90
  -5   0  -7  405.56   23.80
  -5   0  -7  470.45   22.90
   5   0   7  470.15   23.60
   5   0   7  462.65   22.50
  -6   0  -7   32.40    8.40
  -6   0  -7   17.50    8.10
  -6   0  -7   15.80    6.00
   6   0   7   18.70    5.30
   6   0   7   16.30    5.30
   6  -1  -7   46.60   11.60
   6  -1  -7   47.20   10.20
   6  -1  -7   53.59    8.40
  -6   1   7   66.99    9.20
  -6   1   7   43.20    8.80
  -6   1   7   67.89   12.10
   5  -1  -7  460.65   22.60
   5  -1  -7  526.35   25.60
   5  -1  -7  521.95   24.20
   5  -1  -7  478.75   23.50
  -5   1   7  552.34   23.00
  -5   1   7  500.45   25.00
  -5   1   7  509.55   24.00
   4  -1  -7   38.40    8.50
   4  -1  -7   34.10    7.80
   4  -1  -7   38.70    8.50
   4  -1  -7   54.59    6.30
  -4   1   7   50.89    8.80
  -4   1   7   59.29    5.20
  -4   1   7   63.39    6.40
  -4   1   7   42.30    7.90
  -4   1   7   39.00    6.90
   3  -1  -7  147.19   10.00
   3  -1  -7  123.79    7.80
   3  -1  -7  132.99    9.80
   3  -1  -7  142.69   10.20
  -3   1   7  119.69    7.90
  -3   1   7  119.99    7.30
  -3   1   7  138.99    9.40
  -3   1   7  116.09    9.50
  -3   1   7  114.39    9.70
   2  -1  -7   16.30    4.60
   2  -1  -7   12.40    4.40
   2  -1  -7   12.80    4.50
  -2   1   7    7.40    3.00
  -2   1   7   10.20    3.90
  -2   1   7    8.20    4.00
  -2   1   7   17.30    4.40
   1  -1  -7  183.88   11.20
   1  -1  -7  161.98   11.20
   1  -1  -7  188.38   10.00
  -1   1   7  187.58   10.90
  -1   1   7  178.28   10.90
  -1   1   7  165.08   10.10
  -1   1   7  189.78    9.30
   0  -1  -7  337.47   18.80
   0  -1  -7  365.76   18.80
   0  -1  -7  385.26   17.30
   0   1   7  419.66   17.30
   0   1   7  398.96   17.80
   0   1   7  400.06   18.60
   0   1   7  397.36   18.80
  -1  -1  -7  394.36   19.30
  -1  -1  -7  387.06   19.20
   1   1   7  398.56   18.70
  -2  -1  -7  251.17   13.90
  -2  -1  -7  257.37   11.30
  -2  -1  -7  240.98   14.10
   2   1   7  266.37   14.00
   2   1   7  238.98   13.30
  -3  -1  -7  374.36   18.80
  -3  -1  -7  385.96   19.20
   3   1   7  390.16   18.70
   3   1   7  405.56   19.40
  -4  -1  -7   11.30    5.30
  -4  -1  -7    4.00    4.80
   4   1   7    9.70    4.60
   4   1   7    8.10    3.90
  -5  -1  -7  208.18   15.30
  -5  -1  -7  240.98   14.90
  -5  -1  -7  210.58   13.80
   5   1   7  238.28   14.40
  -6  -1  -7  182.08   15.30
  -6  -1  -7  166.58   12.20
   6   1   7  178.68   13.80
   6   1   7  158.18   11.80
   6  -2  -7   -0.30    6.80
   6  -2  -7    1.00    5.50
  -6   2   7    1.90    7.40
  -6   2   7    6.40    5.70
  -6   2   7    6.40    5.60
  -6   2   7   -6.40    4.70
   5  -2  -7    9.20    5.80
   5  -2  -7    7.20    4.60
   5  -2  -7    1.20    4.90
   5  -2  -7   18.40    7.70
  -5   2   7   23.00    6.70
  -5   2   7    7.40    5.30
  -5   2   7    7.90    4.60
   4  -2  -7  394.76   19.80
   4  -2  -7  381.36   19.10
   4  -2  -7  396.66   18.00
  -4   2   7  388.06   18.20
  -4   2   7  399.86   19.70
  -4   2   7  379.56   19.90
   3  -2  -7   10.80    4.40
   3  -2  -7    4.90    3.40
   3  -2  -7    4.70    4.70
   3  -2  -7   11.60    5.20
  -3   2   7    2.60    3.70
  -3   2   7    1.10    3.20
  -3   2   7    4.70    4.50
  -3   2   7    4.50    4.10
   2  -2  -7  816.82   36.90
   2  -2  -7  782.82   36.00
   2  -2  -7  861.01   35.50
   2  -2  -7  880.41   36.80
  -2   2   7  846.32   35.30
  -2   2   7  863.21   36.50
  -2   2   7  780.72   36.20
  -2   2   7  915.41   37.00
   1  -2  -7  213.58   10.80
   1  -2  -7  194.78   12.30
   1  -2  -7  201.48   12.20
  -1   2   7  214.58   12.10
  -1   2   7  213.08   11.50
  -1   2   7  214.58   10.50
  -1   2   7  212.38   11.90
   0  -2  -7  712.63   30.50
   0  -2  -7  658.63   31.90
   0  -2  -7  723.63   32.20
   0   2   7  727.93   31.90
   0   2   7  769.22   32.10
   0   2   7  758.42   30.60
  -1  -2  -7   48.50    7.30
  -1  -2  -7   45.70    7.10
   1   2   7   55.99    6.80
   1   2   7   65.29    7.00
   1   2   7   53.89    5.40
  -2  -2  -7  317.57   17.00
  -2  -2  -7  340.17   17.00
   2   2   7  330.77   16.40
   2   2   7  339.17   16.70
  -3  -2  -7  276.67   15.30
  -3  -2  -7  269.17   15.40
  -3  -2  -7  287.07   14.80
   3   2   7  284.57   14.80
   3   2   7  297.47   15.20
  -4  -2  -7  579.54   26.30
  -4  -2  -7  578.84   26.30
   4   2   7  560.34   25.80
   4   2   7  559.54   26.20
  -5  -2  -7  227.18   13.80
  -5  -2  -7  215.08   14.70
  -5  -2  -7  253.17   15.00
   5   2   7  238.28   13.00
   5   2   7  219.08   13.80
  -6  -2  -7   26.20    5.60
  -6  -2  -7   22.20    7.50
  -6  -2  -7   50.89   11.80
   6   2   7   42.30    9.80
   6  -3  -7  315.77   17.30
   6  -3  -7  294.57   19.30
  -6   3   7  322.87   20.00
   5  -3  -7    1.40    5.40
   5  -3  -7    7.70    6.30
   5  -3  -7    7.70    7.40
   5  -3  -7    4.20    4.90
  -5   3   7    3.00    4.70
  -5   3   7   -2.30    5.40
  -5   3   7    5.60    6.60
  -5   3   7    0.30    4.90
   4  -3  -7  520.25   23.50
   4  -3  -7  546.15   25.50
   4  -3  -7  530.35   24.50
  -4   3   7  540.85   25.30
  -4   3   7  496.45   25.10
   3  -3  -7  139.99   11.10
   3  -3  -7  140.19   10.30
   3  -3  -7  150.08   10.40
   3  -3  -7  138.89    9.00
  -3   3   7  135.89   10.90
  -3   3   7  145.69    8.80
  -3   3   7  129.79    9.70
  -3   3   7  142.39   10.60
   2  -3  -7    1.10    4.10
   2  -3  -7    1.20    3.20
   2  -3  -7    7.10    4.30
   2  -3  -7    1.20    3.90
  -2   3   7    6.10    4.20
  -2   3   7    0.00    3.70
  -2   3   7    0.50    3.30
  -2   3   7   -2.20    2.90
   1  -3  -7  302.07   14.70
   1  -3  -7  316.67   16.10
   1  -3  -7  332.37   14.90
   1  -3  -7  289.87   16.30
  -1   3   7  324.07   16.10
  -1   3   7  322.67   14.70
  -1   3   7  324.47   15.90
   0  -3  -7  448.56   19.30
   0  -3  -7  438.06   21.30
   0  -3  -7  398.56   18.60
   0   3   7  482.15   21.00
   0   3   7  472.05   19.70
   0   3   7  450.45   21.10
  -1  -3  -7  300.37   13.20
  -1  -3  -7  278.47   15.50
  -1  -3  -7  278.07   15.40
   1   3   7  308.07   15.40
   1   3   7  302.37   13.80
   1   3   7  308.97   15.20
  -2  -3  -7  596.84   27.60
  -2  -3  -7  601.74   25.70
  -2  -3  -7  549.95   27.40
  -2  -3  -7  599.84   25.60
   2   3   7  617.54   26.20
   2   3   7  633.94   27.40
   2   3   7  647.34   27.40
  -3  -3  -7  195.48   10.50
  -3  -3  -7  183.78   12.00
  -3  -3  -7  188.48   12.20
   3   3   7  206.18   11.90
   3   3   7  197.08   11.50
  -4  -3  -7    9.50    5.50
  -4  -3  -7   -6.10    4.50
  -4  -3  -7   -4.70    4.50
  -4  -3  -7    7.40    4.20
   4   3   7    2.00    4.00
   4   3   7    7.30    4.20
  -5  -3  -7  291.07   16.50
  -5  -3  -7  311.77   16.00
  -5  -3  -7  310.57   17.00
   5   3   7  299.77   16.30
   5   3   7  321.47   16.00
  -6  -3  -7   26.70    6.20
  -6  -3  -7   23.20    6.80
  -6  -3  -7   42.30    8.60
  -6  -3  -7   29.90    7.50
   6   3   7   25.50    5.90
   6   3   7   27.50    7.10
  -7  -3  -7  439.96   23.90
   7   3   7  395.66   20.10
   5  -4  -7   -4.60    5.30
   5  -4  -7    2.10    6.80
   5  -4  -7    6.40    6.00
  -5   4   7  -13.20    6.60
  -5   4   7    7.50    6.90
  -5   4   7    7.20    6.10
   4  -4  -7   -1.90    6.50
   4  -4  -7   -8.60    5.60
   4  -4  -7    1.40    4.40
   4  -4  -7    9.20    5.50
  -4   4   7   -0.50    4.10
  -4   4   7    0.70    5.70
  -4   4   7    1.00    5.40
  -4   4   7   -1.20    5.80
  -4   4   7   -2.00    4.40
   3  -4  -7  620.04   30.00
   3  -4  -7  698.73   29.50
   3  -4  -7  715.83   29.40
   3  -4  -7  623.94   28.20
  -3   4   7  627.74   29.20
  -3   4   7  589.74   29.40
  -3   4   7  673.53   30.00
   2  -4  -7  199.88   11.00
   2  -4  -7  186.38   12.70
   2  -4  -7  205.48   11.60
   2  -4  -7  222.68   12.50
  -2   4   7  215.58   12.70
  -2   4   7  201.98   10.90
  -2   4   7  203.38   11.50
   1  -4  -7  704.33   32.20
   1  -4  -7  773.32   30.60
   1  -4  -7  644.94   31.60
   1  -4  -7  691.53   30.60
  -1   4   7  736.93   32.10
  -1   4   7  734.83   30.50
  -1   4   7  729.53   31.50
   0  -4  -7   75.09    5.50
   0  -4  -7   73.39    8.20
   0  -4  -7   68.79    5.00
   0  -4  -7   68.79    7.70
   0   4   7   91.29    7.70
   0   4   7   76.19    6.20
   0   4   7   82.99    7.50
  -1  -4  -7  123.79    9.50
  -1  -4  -7  121.79    9.80
  -1  -4  -7  143.59    7.40
  -1  -4  -7  145.39    8.60
   1   4   7  144.29    9.40
   1   4   7  140.49    9.60
   1   4   7  142.09    8.20
  -2  -4  -7  418.06   18.30
  -2  -4  -7  374.96   19.90
  -2  -4  -7  444.36   18.40
  -2  -4  -7  407.46   20.50
   2   4   7  447.36   20.00
   2   4   7  406.66   20.00
   2   4   7  415.16   18.60
  -3  -4  -7  727.13   29.70
  -3  -4  -7  656.33   31.60
  -3  -4  -7  734.73   30.50
  -3  -4  -7  682.63   31.90
   3   4   7  742.43   31.60
   3   4   7  730.83   31.70
  -4  -4  -7  537.25   23.80
  -4  -4  -7  483.55   24.10
  -4  -4  -7  525.05   23.00
  -4  -4  -7  470.05   23.90
   4   4   7  528.55   23.80
   4   4   7  520.45   23.70
  -5  -4  -7   88.79   10.30
  -5  -4  -7  107.09   10.50
  -5  -4  -7  107.19    9.30
   5   4   7   98.29    9.50
   5   4   7   95.69    9.30
  -6  -4  -7   15.70    7.10
  -6  -4  -7   17.60    6.30
  -6  -4  -7   16.20    5.90
  -6  -4  -7    8.30    5.30
   6   4   7   12.70    5.10
   6   4   7   10.60    4.70
  -7  -4  -7   28.60    8.90
  -7  -4  -7   53.79   10.80
   5  -5  -7  273.17   18.70
   5  -5  -7  277.37   16.40
  -5   5   7  306.07   19.10
  -5   5   7  247.78   18.30
  -5   5   7  310.57   18.00
   4  -5  -7  267.27   15.50
   4  -5  -7  264.07   14.00
   4  -5  -7  238.38   16.40
  -4   5   7  203.58   15.40
  -4   5   7  235.28   14.10
  -4   5   7  216.88   13.70
  -4   5   7  275.07   16.20
  -4   5   7  257.07   15.80
   3  -5  -7  146.29   13.00
   3  -5  -7  160.28   10.60
   3  -5  -7  173.18   12.20
  -3   5   7  202.08   13.00
  -3   5   7  156.58   12.10
  -3   5   7  193.28   12.00
   2  -5  -7   95.49    9.60
   2  -5  -7  109.79    8.30
   2  -5  -7  110.09   10.40
  -2   5   7  119.39    8.90
  -2   5   7  118.09    8.40
  -2   5   7  130.99   10.20
   1  -5  -7   37.90    7.30
   1  -5  -7   42.20    4.10
   1  -5  -7   28.10    5.80
   1  -5  -7   37.10    7.60
   1  -5  -7   29.80    7.90
  -1   5   7   46.70    7.20
  -1   5   7   30.10    5.70
  -1   5   7   36.30    5.80
  -1   5   7   37.50    6.80
   0  -5  -7  558.04   23.00
   0  -5  -7  575.64   24.40
   0  -5  -7  530.25   24.00
   0  -5  -7  521.35   25.50
   0   5   7  516.95   23.50
   0   5   7  572.14   25.40
   0   5   7  531.35   23.80
   0   5   7  575.14   25.00
  -1  -5  -7  428.66   21.50
  -1  -5  -7  453.25   19.90
  -1  -5  -7  416.46   21.00
  -1  -5  -7  450.35   19.10
   1   5   7  439.86   21.20
   1   5   7  454.35   19.70
   1   5   7  454.85   20.80
  -2  -5  -7  293.77   16.10
  -2  -5  -7  308.27   14.10
  -2  -5  -7  302.47   13.80
  -2  -5  -7  277.87   15.40
   2   5   7  286.97   14.10
   2   5   7  300.67   15.60
   2   5   7  311.87   15.40
  -3  -5  -7  322.77   17.40
  -3  -5  -7  308.17   16.80
  -3  -5  -7  336.67   14.90
  -3  -5  -7  346.77   15.60
   3   5   7  334.87   15.60
   3   5   7  306.27   16.80
   3   5   7  340.77   16.70
  -4  -5  -7   12.70    4.20
  -4  -5  -7   10.30    5.50
  -4  -5  -7   13.00    5.30
  -4  -5  -7    7.50    4.70
   4   5   7   18.70    4.70
   4   5   7   11.10    4.70
  -5  -5  -7   -4.90    5.50
  -5  -5  -7   -0.10    5.20
  -5  -5  -7    6.70    4.50
   5   5   7    3.30    4.40
   5   5   7    5.60    4.70
  -6  -5  -7  751.52   37.40
  -6  -5  -7  951.90   38.40
  -6  -5  -7  811.52   37.70
  -6  -5  -7  863.01   37.50
   6   5   7  816.12   37.00
   6   5   7  920.71   37.40
  -7  -5  -7  200.08   16.20
  -7  -5  -7  136.29   13.00
  -7  -5  -7  187.48   14.10
   7   5   7  183.38   11.60
   4  -6  -7   64.49   11.90
   4  -6  -7   56.19   12.50
   4  -6  -7   55.39    9.50
  -4   6   7   43.50    8.00
  -4   6   7   42.70   11.60
  -4   6   7   77.59   11.70
   3  -6  -7   76.69    8.90
   3  -6  -7   79.29   10.80
   3  -6  -7   91.29   11.80
   3  -6  -7  102.29   11.30
   3  -6  -7   86.79    6.70
  -3   6   7  101.59   10.80
  -3   6   7  112.79   10.10
  -3   6   7   89.09    9.20
  -3   6   7  102.29   11.00
   2  -6  -7  762.52   31.10
   2  -6  -7  701.43   34.10
   2  -6  -7  740.63   33.50
   2  -6  -7  709.73   32.40
  -2   6   7  783.32   33.10
  -2   6   7  789.92   34.10
   1  -6  -7  357.06   19.60
   1  -6  -7  405.86   18.50
   1  -6  -7  381.56   19.10
   1  -6  -7  348.77   17.50
   1  -6  -7  377.56   16.30
  -1   6   7  389.86   17.80
  -1   6   7  343.57   18.30
  -1   6   7  388.86   19.20
   0  -6  -7  158.28   11.00
   0  -6  -7  162.68    8.10
   0  -6  -7  166.68   10.20
   0  -6  -7  143.49   11.40
   0  -6  -7  129.19    9.20
   0   6   7  165.18   10.40
   0   6   7  147.59    8.80
   0   6   7  156.48   10.80
  -1  -6  -7   11.00    3.20
  -1  -6  -7   12.90    4.10
  -1  -6  -7    6.70    4.40
  -1  -6  -7   10.40    5.10
   1   6   7    9.10    4.20
   1   6   7    9.00    3.40
   1   6   7   10.40    4.20
   1   6   7   15.10    2.90
  -2  -6  -7  142.39    8.30
  -2  -6  -7  146.49    9.10
  -2  -6  -7  117.89    9.80
  -2  -6  -7  123.09   10.70
   2   6   7  130.79    9.90
   2   6   7  133.79    8.20
   2   6   7  133.29    8.60
   2   6   7  142.39    9.80
  -3  -6  -7  975.10   41.50
  -3  -6  -7 1041.00   41.20
  -3  -6  -7 1034.00   43.40
   3   6   7  957.40   41.50
   3   6   7  966.00   41.60
   3   6   7  960.50   42.90
   3   6   7  978.50   42.30
  -4  -6  -7  113.09    8.90
  -4  -6  -7  114.09    9.70
  -4  -6  -7  109.59   10.90
   4   6   7  110.49    8.40
   4   6   7  104.89    9.10
   4   6   7  110.99    9.80
   4   6   7  122.29    9.30
  -5  -6  -7  342.07   17.00
  -5  -6  -7  303.07   17.40
  -5  -6  -7  367.36   17.60
  -5  -6  -7  287.67   18.00
   5   6   7  318.07   16.50
   5   6   7  354.76   17.60
   5   6   7  315.97   16.30
   5   6   7  305.17   17.00
  -6  -6  -7   32.20    6.10
  -6  -6  -7   49.90   10.40
  -6  -6  -7   33.90    7.00
  -6  -6  -7   40.80    9.80
   6   6   7   41.80    9.10
   6   6   7   30.40    5.80
  -7  -6  -7   11.90    6.70
  -7  -6  -7   27.00    8.70
   7   6   7   39.80    8.80
   3  -7  -7  199.58   14.90
   3  -7  -7  179.68   10.30
   3  -7  -7  155.78   14.90
   3  -7  -7  180.08   12.20
  -3   7   7  189.18   14.70
  -3   7   7  195.18   14.10
  -3   7   7  186.98   14.20
   2  -7  -7  145.49    8.40
   2  -7  -7  120.49    9.90
   2  -7  -7  129.19   12.70
   2  -7  -7  132.09   12.30
  -2   7   7  146.69   10.90
  -2   7   7  151.18   12.20
  -2   7   7  115.19   10.60
   1  -7  -7  141.29    9.80
   1  -7  -7  149.59   12.00
   1  -7  -7  150.18    8.50
   1  -7  -7  139.89   12.30
  -1   7   7  138.29   11.10
  -1   7   7  155.58   10.30
  -1   7   7  169.48   11.90
   0  -7  -7   73.89    8.30
   0  -7  -7  103.39    7.00
   0  -7  -7   81.39    7.70
   0  -7  -7   94.79   10.20
   0  -7  -7   78.69    9.80
   0   7   7  109.29    9.30
   0   7   7   91.49    9.40
   0   7   7   92.69    7.50
  -1  -7  -7  951.70   43.70
  -1  -7  -7  974.10   43.10
  -1  -7  -7 1068.89   42.20
  -1  -7  -7 1007.80   41.40
   1   7   7  935.21   41.80
   1   7   7 1015.80   43.60
   1   7   7  995.50   41.20
   1   7   7 1016.60   42.90
  -2  -7  -7  476.85   20.10
  -2  -7  -7  455.45   19.50
  -2  -7  -7  396.26   22.00
  -2  -7  -7  419.16   21.80
   2   7   7  443.66   21.50
   2   7   7  475.65   21.00
   2   7   7  417.36   19.70
   2   7   7  392.76   19.30
  -3  -7  -7  209.68   11.60
  -3  -7  -7  202.28   13.80
  -3  -7  -7  216.78   11.60
   3   7   7  210.88   11.60
   3   7   7  213.18   12.60
   3   7   7  214.08   11.60
   3   7   7  192.98   13.00
  -4  -7  -7    8.60    4.50
  -4  -7  -7   10.30    5.90
  -4  -7  -7    5.80    4.10
  -4  -7  -7    4.70    5.10
   4   7   7    3.40    4.80
   4   7   7   16.60    4.30
   4   7   7    5.10    4.50
   4   7   7   -2.00    4.10
  -5  -7  -7  284.67   15.10
  -5  -7  -7  260.17   13.30
  -5  -7  -7  296.57   15.60
  -5  -7  -7  253.57   15.50
  -5  -7  -7  288.37   16.80
   5   7   7  244.88   14.20
   5   7   7  266.27   15.00
   5   7   7  262.27   15.40
   5   7   7  252.57   15.70
  -6  -7  -7  231.28   15.80
  -6  -7  -7  246.38   15.30
  -6  -7  -7  254.97   15.20
  -6  -7  -7  269.67   15.70
   6   7   7  252.77   14.40
   6   7   7  226.68   14.40
   6   7   7  224.68   15.30
  -7  -7  -7  215.78   16.40
  -7  -7  -7  188.88   14.80
   7   7   7  201.18   14.00
   3  -8  -7  254.17   19.10
   3  -8  -7  270.77   19.80
   3  -8  -7  298.77   14.40
   3  -8  -7  264.27   16.20
  -3   8   7  270.27   17.70
  -3   8   7  283.97   18.10
  -3   8   7  288.57   18.70
   2  -8  -7  356.96   21.40
   2  -8  -7  420.26   18.00
   2  -8  -7  368.96   19.20
   2  -8  -7  333.97   21.70
  -2   8   7  410.56   20.40
  -2   8   7  399.16   21.30
   1  -8  -7  252.77   16.80
   1  -8  -7  235.88   16.30
   1  -8  -7  240.88   14.30
   1  -8  -7  275.87   13.30
  -1   8   7  236.18   14.20
  -1   8   7  260.67   15.30
  -1   8   7  286.77   16.30
  -1   8   7  297.07   15.00
   0  -8  -7   28.20    6.80
   0  -8  -7   41.00    9.60
   0  -8  -7   32.30    7.20
   0  -8  -7   31.30    6.40
   0  -8  -7   44.20    9.10
   0   8   7   28.90    6.00
   0   8   7   41.30    7.10
   0   8   7   34.40    8.60
   0   8   7   30.80    7.00
  -1  -8  -7    4.70    3.70
  -1  -8  -7    7.70    5.80
  -1  -8  -7    5.00    5.50
  -1  -8  -7    5.60    4.50
   1   8   7    4.80    3.90
   1   8   7    2.50    2.70
   1   8   7    5.70    5.20
   1   8   7    4.00    4.60
   1   8   7    5.90    3.80
  -2  -8  -7  260.97   16.10
  -2  -8  -7  287.07   14.40
  -2  -8  -7  266.57   13.40
  -2  -8  -7  237.98   15.20
   2   8   7  275.07   15.10
   2   8   7  247.78   13.50
   2   8   7  255.37   13.00
   2   8   7  268.97   15.50
  -3  -8  -7  326.57   15.90
  -3  -8  -7  337.27   16.10
  -3  -8  -7  316.07   18.20
   3   8   7  324.87   17.00
   3   8   7  292.57   17.40
   3   8   7  314.47   15.60
   3   8   7  302.87   15.50
  -4  -8  -7  328.07   15.70
  -4  -8  -7  295.87   16.00
  -4  -8  -7  292.37   17.10
  -4  -8  -7  354.66   16.20
  -4  -8  -7  301.37   18.10
   4   8   7  295.87   17.30
   4   8   7  293.37   16.60
   4   8   7  287.87   15.50
  -5  -8  -7  356.26   20.90
  -5  -8  -7  433.96   19.30
  -5  -8  -7  388.76   19.20
  -5  -8  -7  406.46   18.10
  -5  -8  -7  358.06   19.70
   5   8   7  334.57   18.40
   5   8   7  372.06   19.50
   5   8   7  365.06   19.10
   5   8   7  363.86   20.10
  -6  -8  -7    3.80    7.10
  -6  -8  -7    6.80    5.90
  -6  -8  -7    8.70    6.80
  -6  -8  -7    8.30    4.90
   6   8   7    2.50    5.70
   6   8   7    4.00    5.40
   6   8   7    9.70    6.40
   2  -9  -7   28.80    8.30
   2  -9  -7   24.80    8.40
   2  -9  -7    6.90    8.40
   2  -9  -7   23.30    6.80
   2  -9  -7   25.70    5.50
  -2   9   7   34.30    8.30
  -2   9   7   49.60   12.90
   1  -9  -7   -6.80    7.20
   1  -9  -7   -5.90    4.60
   1  -9  -7   -2.60    6.80
   1  -9  -7    9.90    5.40
  -1   9   7   14.80    6.30
  -1   9   7   -6.10    6.10
   0  -9  -7  712.83   33.20
   0  -9  -7  676.73   32.70
   0  -9  -7  701.73   30.90
   0  -9  -7  781.72   30.30
   0   9   7  626.14   30.50
   0   9   7  639.54   30.70
   0   9   7  719.63   32.80
   0   9   7  687.83   32.00
  -1  -9  -7  235.78   12.10
  -1  -9  -7  193.38   12.50
  -1  -9  -7  184.18   15.10
  -1  -9  -7  170.68   14.40
  -1  -9  -7  211.08   13.90
   1   9   7  194.28   10.30
   1   9   7  213.48   11.70
   1   9   7  213.08   14.40
   1   9   7  212.98   13.80
  -2  -9  -7  614.84   30.40
  -2  -9  -7  649.43   27.80
  -2  -9  -7  664.43   28.60
  -2  -9  -7  557.04   29.30
   2   9   7  649.64   27.20
   2   9   7  650.33   29.90
   2   9   7  655.23   29.20
   2   9   7  574.74   27.70
   2   9   7  630.84   27.10
  -3  -9  -7   -7.80    6.30
  -3  -9  -7    4.40    4.70
  -3  -9  -7    2.50    5.60
   3   9   7   -4.70    4.30
   3   9   7   -0.70    5.10
   3   9   7   -8.40    4.70
   3   9   7    1.80    3.90
  -4  -9  -7    8.90    7.30
  -4  -9  -7   10.90    5.30
  -4  -9  -7    3.20    5.10
  -4  -9  -7   -6.10    5.40
  -4  -9  -7   -3.40    4.50
   4   9   7    6.60    4.80
   4   9   7    4.30    5.90
   4   9   7    1.90    5.10
  -5  -9  -7   73.39   12.60
  -5  -9  -7   99.39   10.40
  -5  -9  -7   95.89    9.90
  -5  -9  -7   70.09   10.20
   5   9   7   72.79   10.90
   5   9   7   74.99   11.30
   5   9   7   79.49   10.40
   5   9   7   62.39    9.90
  -6  -9  -7  165.38   13.10
  -6  -9  -7  139.49   11.60
  -6  -9  -7  132.59   14.20
  -6  -9  -7  172.28   13.20
   6   9   7  115.79   12.10
   6   9   7  127.59   13.80
   0 -10  -7  282.67   19.60
   0 -10  -7  267.77   16.30
   0 -10  -7  289.07   15.60
   0  10   7  307.67   16.60
   0  10   7  299.17   19.00
  -1 -10  -7   78.29    9.10
  -1 -10  -7   60.19   12.60
  -1 -10  -7   77.99    9.70
   1  10   7   78.49   12.20
   1  10   7   68.99   11.80
   1  10   7   68.89    9.20
  -2 -10  -7  401.06   18.60
  -2 -10  -7  365.06   19.80
  -2 -10  -7  360.76   21.70
   2  10   7  363.56   17.30
   2  10   7  320.77   18.20
   2  10   7  355.96   20.30
   2  10   7  371.96   20.80
   2  10   7  392.46   18.00
  -3 -10  -7   77.69   12.80
  -3 -10  -7   63.79    9.40
  -3 -10  -7   81.49   11.10
   3  10   7   75.29   11.60
   3  10   7   76.29   11.60
   3  10   7   59.69    9.20
  -4 -10  -7  186.88   13.30
  -4 -10  -7  170.28   12.20
  -4 -10  -7  137.69   15.40
   4  10   7  164.08   11.70
   4  10   7  130.99   13.80
   4  10   7  158.08   11.80
   4  10   7  160.38   13.70
  -5 -10  -7  184.58   16.10
  -5 -10  -7  203.38   14.30
  -5 -10  -7  213.28   14.40
   5  10   7  158.08   12.90
   5  10   7  180.48   15.60
   5  10   7  220.68   15.10
  -2 -11  -7   48.40   10.00
  -2 -11  -7   41.20    9.50
   2  11   7   53.79   12.50
   2  11   7   37.90    9.40
  -3 -11  -7  304.27   21.70
  -3 -11  -7  346.67   18.20
   3  11   7  353.96   16.90
   3  11   7  320.17   20.50
   3  11   7  317.47   20.40
  -4 -11  -7   89.69   15.10
   4  11   7   83.99   14.70
   4  11   7   86.69   13.60
   3   6  -8   99.39   12.30
   3   6  -8   70.39   17.90
   3   6  -8   96.19   13.40
  -3  -6   8   75.69   12.90
  -3  -6   8   95.19    9.10
  -3  -6   8   69.59   12.20
   2   6  -8   27.40   10.50
   2   6  -8   11.40    7.00
   2   6  -8   32.20    8.00
  -2  -6   8   10.90    7.40
  -2  -6   8   23.70    6.80
   1   6  -8   -6.50    6.90
   1   6  -8   10.60    6.80
   1   6  -8   11.80   10.10
   1   6  -8    8.50    6.70
  -1  -6   8    6.80    6.20
   4   5  -8  189.08   14.70
   4   5  -8  190.68   17.90
   4   5  -8  209.58   14.90
  -4  -5   8  192.48   11.20
  -4  -5   8  203.08   14.50
  -4  -5   8  204.18   16.00
  -4  -5   8  194.78   15.20
   3   5  -8   83.29   14.60
   3   5  -8   92.79   11.60
   3   5  -8  106.19   12.00
  -3  -5   8   87.49   12.00
  -3  -5   8   88.49   12.10
  -3  -5   8  103.09    8.60
  -3  -5   8  101.39   12.00
   2   5  -8  675.13   34.40
   2   5  -8  694.93   32.50
   2   5  -8  727.83   31.60
  -2  -5   8  675.93   32.10
  -2  -5   8  707.63   32.50
   1   5  -8  113.49   11.10
   1   5  -8  105.79   12.20
   1   5  -8   97.99   15.70
  -1  -5   8  104.39    7.40
  -1  -5   8   95.59   11.50
   0   5  -8  487.95   23.10
   0   5  -8  425.26   24.30
   0   5  -8  496.85   22.30
   0  -5   8  456.25   23.60
   0  -5   8  456.55   21.10
  -1   5  -8  206.78   12.80
  -1   5  -8  170.28   15.50
  -1   5  -8  191.28   14.60
   1  -5   8  178.88   14.40
   1  -5   8  184.08   11.50
   5   4  -8  115.09   13.30
   5   4  -8  113.69   11.70
  -5  -4   8   93.79   14.10
  -5  -4   8  121.99   12.60
  -5  -4   8  110.49   11.10
  -5  -4   8   97.79    7.90
   4   4  -8  214.68   14.10
   4   4  -8  226.78   14.80
   4   4  -8  177.38   16.10
  -4  -4   8  206.48   14.40
  -4  -4   8  226.98   15.30
  -4  -4   8  194.58   10.80
   3   4  -8   42.70    9.60
   3   4  -8   45.90    6.80
   3   4  -8   55.89   12.20
  -3  -4   8   58.29   10.10
  -3  -4   8   46.10    9.80
  -3  -4   8   42.80    6.10
   2   4  -8   -2.90    6.80
   2   4  -8   -1.50    5.00
   2   4  -8    7.00    5.60
  -2  -4   8   -0.90    6.00
  -2  -4   8    4.40    5.40
   1   4  -8  149.19   13.00
   1   4  -8  156.88   14.90
   1   4  -8  174.48   11.80
  -1  -4   8  171.38    9.60
  -1  -4   8  172.68   12.50
  -1  -4   8  172.08   11.50
  -1  -4   8  160.48   14.30
   0   4  -8  122.09   14.30
   0   4  -8  104.99   12.10
   0   4  -8  133.59   10.40
   0  -4   8  122.49   11.50
   0  -4   8  114.89   13.20
  -1   4  -8  313.37   17.40
  -1   4  -8  319.27   15.70
  -1   4  -8  282.47   18.10
   1  -4   8  295.57   17.30
   1  -4   8  309.67   15.30
   1  -4   8  288.57   19.00
  -2   4  -8   95.09    8.60
  -2   4  -8   92.59   12.10
  -2   4  -8   82.39   12.90
   2  -4   8   99.49    9.10
   2  -4   8   86.39   10.90
   2  -4   8   71.59   14.30
   5   3  -8   28.10    8.00
   5   3  -8   20.20    7.70
   5   3  -8   42.30   10.00
  -5  -3   8   48.20    9.70
  -5  -3   8   34.40    8.50
  -5  -3   8   19.60    8.10
   4   3  -8   76.59   12.40
   4   3  -8   96.79   11.30
   4   3  -8   86.09   10.50
   4   3  -8   80.09   12.80
  -4  -3   8   81.59   10.20
  -4  -3   8   80.39    6.20
  -4  -3   8   78.89   12.20
  -4  -3   8   83.19    9.70
  -4  -3   8   87.49   11.30
   3   3  -8  521.25   25.20
   3   3  -8  560.74   24.70
   3   3  -8  531.35   26.50
  -3  -3   8  552.94   22.70
  -3  -3   8  488.35   24.70
  -3  -3   8  459.45   25.70
  -3  -3   8  551.04   25.00
  -3  -3   8  559.14   25.40
   2   3  -8  281.17   14.80
   2   3  -8  247.18   15.40
   2   3  -8  266.87   17.20
  -2  -3   8  283.27   15.50
  -2  -3   8  276.87   15.30
   1   3  -8  696.43   33.10
   1   3  -8  670.83   32.10
   1   3  -8  736.13   30.80
  -1  -3   8  733.13   33.00
  -1  -3   8  717.13   31.40
  -1  -3   8  753.82   32.00
  -1  -3   8  654.13   29.90
   0   3  -8    3.70    5.40
   0   3  -8    1.60    4.40
   0   3  -8    4.90    6.20
   0  -3   8    8.00    5.50
   0  -3   8   -5.20    4.20
  -1   3  -8   21.70    6.00
  -1   3  -8   17.20    4.60
  -1   3  -8   10.70    6.30
  -1   3  -8    4.30    6.40
   1  -3   8   15.30    5.10
   1  -3   8   14.80    6.30
  -2   3  -8  148.39    9.40
  -2   3  -8  136.19   12.70
  -2   3  -8  128.69   12.20
   2  -3   8  134.99   11.70
   2  -3   8  147.79   14.10
  -3   3  -8  108.99   12.70
  -3   3  -8   73.99   12.10
   3  -3   8   60.49   10.20
   3  -3   8  102.79   14.40
   3  -3   8   77.99    9.30
   6   2  -8   16.30    7.70
   6   2  -8   20.10    6.30
  -6  -2   8   19.50    5.70
  -6  -2   8   10.00    8.40
   5   2  -8  443.46   25.40
   5   2  -8  547.35   25.40
   5   2  -8  537.55   24.80
  -5  -2   8  486.35   25.30
  -5  -2   8  535.35   24.20
  -5  -2   8  518.55   26.30
  -5  -2   8  547.65   24.60
   4   2  -8    6.20    6.10
   4   2  -8   12.00    7.00
   4   2  -8   11.80    5.60
   4   2  -8   11.60    6.60
  -4  -2   8   16.90    6.50
  -4  -2   8   10.10    6.10
  -4  -2   8   33.40    8.30
  -4  -2   8   15.90    5.10
   3   2  -8  470.95   22.80
   3   2  -8  478.95   20.90
   3   2  -8  447.66   21.50
  -3  -2   8  493.95   21.40
  -3  -2   8  462.85   21.50
  -3  -2   8  368.06   21.50
  -3  -2   8  408.66   18.20
  -3  -2   8  398.16   20.60
  -3  -2   8  370.86   18.80
   2   2  -8   89.89    9.10
   2   2  -8  113.29   11.30
   2   2  -8   92.89    9.70
  -2  -2   8   92.09    9.30
  -2  -2   8   92.29    9.40
  -2  -2   8   97.09    7.10
   1   2  -8   43.70    8.80
   1   2  -8   53.99    9.90
   1   2  -8   53.79    7.60
  -1  -2   8   45.60    9.10
  -1  -2   8   45.90    8.20
  -1  -2   8   49.80    7.70
  -1  -2   8   42.80    5.80
   0   2  -8  289.17   13.90
   0   2  -8  273.57   16.70
   0   2  -8  256.57   15.70
   0  -2   8  275.27   16.10
   0  -2   8  288.27   14.30
   0  -2   8  275.37   15.30
  -1   2  -8  158.18   12.70
  -1   2  -8  189.88   10.40
  -1   2  -8  174.88   13.50
   1  -2   8  184.38   11.90
   1  -2   8  190.98   10.50
   1  -2   8  195.38   13.50
  -2   2  -8  432.26   22.20
  -2   2  -8  396.86   23.10
  -2   2  -8  467.75   19.60
  -2   2  -8  449.36   22.00
   2  -2   8  456.15   23.10
  -3   2  -8  507.25   24.90
  -3   2  -8  493.35   24.70
   3  -2   8  520.65   25.90
   3  -2   8  476.85   24.20
  -4   2  -8   35.90    7.50
  -4   2  -8   17.60    6.70
  -4   2  -8   53.49   12.70
   4  -2   8   43.70    9.10
   4  -2   8   41.70    8.90
   6   1  -8    3.20    5.00
   6   1  -8    1.50    6.20
   6   1  -8   12.00    7.40
  -6  -1   8   12.70    8.10
  -6  -1   8   -2.60    4.80
  -6  -1   8    2.70    5.20
   5   1  -8  133.89   11.90
   5   1  -8  113.59   12.10
   5   1  -8  153.38   12.40
  -5  -1   8  135.89    9.40
  -5  -1   8  125.19   12.80
  -5  -1   8  143.89   11.30
  -5  -1   8  131.79   10.10
  -5  -1   8  120.39   12.00
   4   1  -8  174.58   13.60
   4   1  -8  177.58   13.90
   4   1  -8  205.68   13.00
   4   1  -8  187.78   13.00
  -4  -1   8  212.38   12.80
  -4  -1   8  202.78   13.60
  -4  -1   8  193.28   11.50
  -4  -1   8  175.08   10.60
  -4  -1   8  173.58   13.20
   3   1  -8  231.68   13.20
   3   1  -8  230.08   14.60
   3   1  -8  241.08   14.10
   3   1  -8  211.88   13.80
  -3  -1   8  234.88   13.40
  -3  -1   8  232.08   13.80
  -3  -1   8  184.08   11.00
  -3  -1   8  186.68   12.20
   2   1  -8  694.83   29.60
   2   1  -8  664.83   31.30
   2   1  -8  626.54   30.50
  -2  -1   8  681.23   28.70
  -2  -1   8  699.43   30.60
  -2  -1   8  688.93   30.20
   1   1  -8   40.00    8.30
   1   1  -8   29.00    7.00
   1   1  -8   51.09    9.00
  -1  -1   8   51.59    7.30
  -1  -1   8   48.10    7.70
  -1  -1   8   43.50    5.70
  -1  -1   8   43.80    8.50
   0   1  -8  940.51   44.70
   0   1  -8 1090.39   43.10
   0  -1   8 1064.79   44.70
   0  -1   8 1043.30   45.10
   0  -1   8 1007.70   43.60
   0  -1   8 1049.49   43.10
  -1   1  -8  141.89   12.00
  -1   1  -8  154.08   12.60
  -1   1  -8  173.28    9.40
   1  -1   8  162.68    9.90
   1  -1   8  165.38   11.20
   1  -1   8  184.38   12.60
  -2   1  -8    0.30    3.10
  -2   1  -8   10.80    5.70
  -2   1  -8   -2.10    5.30
  -2   1  -8   -0.90    5.70
   2  -1   8    3.70    4.00
   2  -1   8   -4.20    4.90
  -3   1  -8  890.31   44.30
  -3   1  -8 1100.09   43.70
  -3   1  -8  904.91   43.20
   3  -1   8 1054.49   44.20
  -4   1  -8   99.89   12.30
  -4   1  -8   69.09   11.00
  -4   1  -8   62.19    8.90
   4  -1   8   88.99   10.10
   4  -1   8   82.29   12.90
   6   0  -8  587.34   26.80
   6   0  -8  609.54   28.10
  -6   0   8  605.64   26.30
  -6   0   8  581.64   30.30
   5   0  -8   33.00    7.30
   5   0  -8    9.70    6.20
   5   0  -8    4.20    8.60
   5   0  -8    7.90    6.10
  -5   0   8    7.10    4.70
  -5   0   8   13.40    7.10
  -5   0   8    9.00    5.60
  -5   0   8   17.40    4.10
  -5   0   8   12.30    5.50
   4   0  -8  438.76   24.00
   4   0  -8  490.65   24.00
  -4   0   8  510.65   22.20
  -4   0   8  517.35   23.90
  -4   0   8  508.25   22.30
  -4   0   8  487.05   23.80
  -4   0   8  513.15   24.40
   3   0  -8   12.30    5.50
   3   0  -8    8.30    5.40
   3   0  -8   -1.40    5.60
  -3   0   8    3.70    3.60
  -3   0   8    9.30    4.60
  -3   0   8   -1.30    3.40
  -3   0   8    4.50    5.20
   2   0  -8  402.26   21.10
   2   0  -8  384.76   20.60
   2   0  -8  431.76   20.20
  -2   0   8  430.26   20.20
  -2   0   8  415.56   18.50
  -2   0   8  425.36   20.40
   1   0  -8  537.25   26.50
   1   0  -8  550.94   27.10
   1   0  -8  603.54   25.10
  -1   0   8  576.64   26.80
  -1   0   8  573.54   25.70
  -1   0   8  564.24   26.30
  -1   0   8  597.84   24.70
   0   0  -8  111.39   10.20
   0   0  -8  126.19    8.30
   0   0  -8  119.29   10.70
   0   0   8  128.79   10.30
   0   0   8  132.19    8.90
   0   0   8  128.79    9.70
   0   0   8  121.29    7.90
  -1   0  -8 1767.02   68.99
  -1   0  -8 1681.23   71.39
  -1   0  -8 1547.35   70.69
   1   0   8 1772.72   71.19
   1   0   8 1668.93   69.49
  -2   0  -8   92.39   10.90
  -2   0  -8   95.19   10.50
   2   0   8  112.19   10.20
   2   0   8  113.09    9.40
   2   0   8  110.49    7.90
  -3   0  -8  156.48   12.30
  -3   0  -8  156.78   12.40
   3   0   8  167.58   11.30
   3   0   8  181.58   12.60
  -4   0  -8   53.39   10.90
  -4   0  -8   66.29   10.70
  -4   0  -8   50.19   10.40
   4   0   8   65.59    8.40
   4   0   8   66.49   10.80
  -5   0  -8   14.30    6.30
  -5   0  -8    6.10    7.60
   5   0   8    6.80    5.30
   5   0   8    7.40    7.20
   6  -1  -8   23.50    6.00
   6  -1  -8   25.50    7.70
  -6   1   8   24.10    9.10
  -6   1   8   23.80    6.30
   5  -1  -8   18.30    6.90
   5  -1  -8   36.30    7.80
   5  -1  -8   14.50    8.00
   5  -1  -8   19.80    6.40
  -5   1   8   25.70    7.80
  -5   1   8   26.40    6.20
  -5   1   8   16.20    5.40
   4  -1  -8   19.90    4.60
   4  -1  -8   14.20    6.20
   4  -1  -8   12.90    5.80
  -4   1   8   28.70    5.50
  -4   1   8    4.80    4.80
  -4   1   8   17.20    4.60
  -4   1   8   19.00    5.50
  -4   1   8   13.30    6.30
   3  -1  -8  539.25   24.30
   3  -1  -8  521.25   24.60
   3  -1  -8  492.35   24.50
  -3   1   8  483.25   22.40
  -3   1   8  538.35   24.30
  -3   1   8  473.05   22.10
  -3   1   8  509.25   24.20
   2  -1  -8  438.26   19.90
   2  -1  -8  382.66   20.60
   2  -1  -8  410.56   20.90
  -2   1   8  404.86   18.50
  -2   1   8  409.06   20.00
  -2   1   8  428.66   20.50
   1  -1  -8 1103.69   47.60
   1  -1  -8 1042.50   47.20
   1  -1  -8 1124.39   46.20
  -1   1   8 1137.69   45.50
  -1   1   8 1108.89   47.00
  -1   1   8 1055.39   46.40
  -1   1   8 1089.19   47.20
   0  -1  -8   32.80    5.70
   0  -1  -8   22.80    5.70
   0  -1  -8   18.30    5.30
   0   1   8   24.20    6.30
   0   1   8   20.70    4.80
   0   1   8   26.30    6.80
   0   1   8   24.70    5.20
  -1  -1  -8    4.20    4.80
  -1  -1  -8   -2.90    3.10
  -1  -1  -8   -3.60    4.80
   1   1   8   -2.80    3.70
   1   1   8    4.20    4.30
   1   1   8    7.70    3.30
  -2  -1  -8  311.67   17.70
  -2  -1  -8  355.16   14.90
  -2  -1  -8  306.37   18.00
   2   1   8  362.26   18.10
   2   1   8  329.37   17.20
  -3  -1  -8  302.67   17.60
  -3  -1  -8  347.67   17.60
   3   1   8  339.37   18.00
   3   1   8  320.17   17.00
  -4  -1  -8  707.73   30.70
  -4  -1  -8  676.03   30.40
   4   1   8  623.24   30.70
   4   1   8  620.94   29.60
  -5  -1  -8   25.50    8.20
  -5  -1  -8   22.80    6.50
   5   1   8   52.79   11.40
   5  -2  -8  420.36   22.10
   5  -2  -8  478.15   23.60
   5  -2  -8  458.35   21.10
  -5   2   8  444.96   23.80
  -5   2   8  372.36   21.40
  -5   2   8  473.35   21.60
  -5   2   8  467.95   22.90
   4  -2  -8  153.98   12.70
   4  -2  -8  152.38   10.10
   4  -2  -8  142.69   14.40
   4  -2  -8  133.79   11.50
  -4   2   8  143.99   12.60
  -4   2   8  159.08   12.30
  -4   2   8  128.99   10.80
   3  -2  -8  448.46   22.30
   3  -2  -8  444.16   22.70
   3  -2  -8  443.86   20.40
   3  -2  -8  497.05   22.10
  -3   2   8  444.96   19.50
  -3   2   8  418.56   21.90
  -3   2   8  432.66   20.30
  -3   2   8  466.75   22.40
   2  -2  -8  329.67   17.50
   2  -2  -8  356.46   16.50
   2  -2  -8  311.67   17.60
  -2   2   8  331.77   17.30
  -2   2   8  306.67   15.30
  -2   2   8  308.37   16.80
   1  -2  -8   67.69    6.80
   1  -2  -8   61.79    9.00
   1  -2  -8   59.39    9.10
  -1   2   8   57.49    8.00
  -1   2   8   59.09    8.10
  -1   2   8   69.59    7.70
  -1   2   8   70.39    6.30
   0  -2  -8  365.16   16.40
   0  -2  -8  322.37   18.30
   0  -2  -8  341.67   18.60
   0   2   8  372.96   18.30
   0   2   8  363.76   16.40
   0   2   8  378.46   18.30
  -1  -2  -8  258.47   15.10
  -1  -2  -8  240.58   14.90
   1   2   8  256.37   12.70
   1   2   8  257.57   14.30
   1   2   8  277.97   14.70
  -2  -2  -8 1258.67   57.59
  -2  -2  -8 1303.67   57.39
   2   2   8 1438.46   57.49
   2   2   8 1386.36   57.09
  -3  -2  -8   36.90    8.60
  -3  -2  -8   38.60    8.90
   3   2   8   33.60    8.30
   3   2   8   44.30    7.60
  -4  -2  -8   15.40    6.60
  -4  -2  -8    4.80    5.50
  -4  -2  -8   -0.40    5.50
   4   2   8    5.30    4.70
   4   2   8    3.80    5.10
  -5  -2  -8  397.96   20.90
  -5  -2  -8  395.16   20.10
   5   2   8  344.77   18.90
   5   2   8  369.86   20.30
  -6  -2  -8  355.06   20.90
  -6  -2  -8  317.27   18.40
   5  -3  -8  112.99   10.60
   5  -3  -8  117.99   11.90
   5  -3  -8  116.19   13.50
  -5   3   8  123.69   12.80
  -5   3   8  106.79   14.00
  -5   3   8  118.79   11.40
   4  -3  -8  303.97   15.80
   4  -3  -8  331.27   18.70
   4  -3  -8  297.47   17.40
   4  -3  -8  365.36   18.50
  -4   3   8  264.17   16.60
  -4   3   8  337.17   18.10
  -4   3   8  281.47   17.90
   3  -3  -8  107.29   10.30
   3  -3  -8   86.29    9.90
   3  -3  -8  100.49   11.10
   3  -3  -8   80.19    8.30
  -3   3   8   86.39   10.10
  -3   3   8   89.99   10.20
  -3   3   8   91.89    8.30
   2  -3  -8 1357.46   60.79
   2  -3  -8 1322.27   61.09
   2  -3  -8 1560.84   60.19
   2  -3  -8 1413.76   59.59
  -2   3   8 1470.25   60.59
  -2   3   8 1365.76   59.39
  -2   3   8 1577.84   61.39
   1  -3  -8  268.77   15.30
   1  -3  -8  280.87   13.50
  -1   3   8  252.87   14.80
  -1   3   8  261.47   15.10
  -1   3   8  277.17   13.30
   0  -3  -8   23.50    5.70
   0  -3  -8   27.80    5.70
   0  -3  -8   37.90    5.10
   0   3   8   30.20    5.70
   0   3   8   29.20    5.20
   0   3   8   28.40    7.30
  -1  -3  -8   92.29    9.90
  -1  -3  -8   82.69    9.60
   1   3   8  100.59    8.90
   1   3   8   94.39    7.30
   1   3   8  102.79    9.00
  -2  -3  -8   24.90    5.50
  -2  -3  -8   14.50    5.30
  -2  -3  -8   19.80    5.30
   2   3   8   16.60    4.10
   2   3   8   16.60    4.90
   2   3   8   14.00    4.80
  -3  -3  -8  547.05   25.80
  -3  -3  -8  546.95   23.80
   3   3   8  526.95   25.00
   3   3   8  521.25   25.30
  -4  -3  -8  539.55   24.30
  -4  -3  -8  567.34   25.60
  -4  -3  -8  537.95   25.70
   4   3   8  535.15   25.60
   4   3   8  489.35   25.00
  -5  -3  -8  288.47   18.80
  -5  -3  -8  314.87   18.20
  -5  -3  -8  358.86   19.00
   5   3   8  330.37   17.50
   5   3   8  332.27   18.30
  -6  -3  -8   39.90    8.80
  -6  -3  -8   25.40    6.70
   6   3   8   14.30    5.40
   6   3   8   20.90    8.70
   5  -4  -8  167.38   12.50
   5  -4  -8  153.68   15.70
  -5   4   8  145.89   15.60
  -5   4   8  161.48   14.50
   4  -4  -8  345.67   17.60
   4  -4  -8  369.46   19.30
   4  -4  -8  392.66   20.00
   4  -4  -8  340.87   20.30
  -4   4   8  323.67   17.70
  -4   4   8  355.16   19.90
  -4   4   8  294.97   19.30
   3  -4  -8   73.89    8.40
   3  -4  -8   81.39   11.30
   3  -4  -8   71.09   10.40
  -3   4   8   75.69   10.20
  -3   4   8   86.99   10.50
   2  -4  -8   85.59   10.40
   2  -4  -8  109.89    9.20
   2  -4  -8   96.79    8.10
   2  -4  -8   90.49    9.90
  -2   4   8  114.39   10.30
  -2   4   8   96.99    8.00
  -2   4   8  109.19    9.70
   1  -4  -8  134.49   11.90
   1  -4  -8  157.78   11.90
   1  -4  -8  185.08   10.10
  -1   4   8  169.48    9.80
  -1   4   8  171.18   11.10
  -1   4   8  176.78   11.90
   0  -4  -8   18.20    5.10
   0  -4  -8   17.60    5.50
   0   4   8   15.50    4.50
   0   4   8   17.90    4.90
   0   4   8   16.50    3.60
  -1  -4  -8 3483.15  149.09
  -1  -4  -8 3431.86  149.19
  -1  -4  -8 3720.83  146.99
   1   4   8 3626.84  149.19
   1   4   8 3660.33  147.69
   1   4   8 3917.81  149.09
  -2  -4  -8   75.49    9.30
  -2  -4  -8   82.09    6.70
  -2  -4  -8   64.49    9.60
  -2  -4  -8   81.09    7.20
   2   4   8   82.89    8.90
   2   4   8   87.69    9.00
  -3  -4  -8  114.49    7.50
  -3  -4  -8  109.09   10.90
  -3  -4  -8  118.89    8.40
   3   4   8  111.09    9.90
   3   4   8  118.39   10.20
  -4  -4  -8  157.58   10.90
  -4  -4  -8  177.48   13.20
  -4  -4  -8  164.78   12.50
   4   4   8  180.48   11.90
   4   4   8  157.38   12.20
  -5  -4  -8   50.99    8.80
  -5  -4  -8   45.50    8.00
  -5  -4  -8   37.90    7.20
  -5  -4  -8   40.90   10.70
   5   4   8   32.00    6.40
   5   4   8   26.90    6.00
  -6  -4  -8  362.16   19.90
  -6  -4  -8  327.27   18.00
  -6  -4  -8  318.57   18.30
   6   4   8  316.97   17.60
   6   4   8  289.67   18.20
   4  -5  -8   76.39   13.30
   4  -5  -8   68.49    9.70
   4  -5  -8   58.49   12.50
  -4   5   8   42.20    8.40
  -4   5   8   79.99   11.80
  -4   5   8   63.19   12.20
   3  -5  -8  473.95   24.70
   3  -5  -8  463.65   22.10
   3  -5  -8  496.25   23.80
  -3   5   8  463.85   23.70
  -3   5   8  489.85   24.40
  -3   5   8  493.85   23.30
  -3   5   8  430.16   22.30
   2  -5  -8   40.20    9.60
   2  -5  -8   36.90    9.50
   2  -5  -8   32.90    7.20
   2  -5  -8   31.30    6.20
  -2   5   8   44.60    7.70
  -2   5   8   48.80    9.50
   1  -5  -8  813.82   36.60
   1  -5  -8  770.82   37.10
   1  -5  -8  811.02   35.30
  -1   5   8  874.51   36.30
  -1   5   8  870.11   37.20
  -1   5   8  790.42   35.20
   0  -5  -8   18.00    5.10
   0  -5  -8   15.20    5.60
   0  -5  -8   12.10    3.10
   0  -5  -8    6.60    4.90
   0   5   8   11.20    4.30
   0   5   8   26.70    5.90
   0   5   8   14.60    4.90
  -1  -5  -8  102.99    8.40
  -1  -5  -8   90.99    6.50
  -1  -5  -8   87.69   10.10
  -1  -5  -8   80.09    9.40
   1   5   8   79.39    9.10
   1   5   8   84.09    9.10
  -2  -5  -8 1310.17   57.59
  -2  -5  -8 1390.16   55.59
  -2  -5  -8 1385.46   55.39
  -2  -5  -8 1209.68   56.99
   2   5   8 1413.26   57.09
   2   5   8 1341.27   57.29
  -3  -5  -8   71.59    7.40
  -3  -5  -8   75.29   10.30
  -3  -5  -8   71.69    6.90
   3   5   8   82.99    8.80
   3   5   8   64.49    9.00
  -4  -5  -8  632.34   27.10
  -4  -5  -8  543.25   27.40
  -4  -5  -8  602.34   25.80
   4   5   8  574.14   26.90
   4   5   8  538.75   25.70
   4   5   8  550.04   26.90
  -5  -5  -8    0.00    6.10
  -5  -5  -8    8.30    5.30
  -5  -5  -8   33.50    7.30
  -5  -5  -8   11.50    6.70
   5   5   8   19.00    5.70
   5   5   8    8.90    5.60
  -6  -5  -8  573.84   26.40
  -6  -5  -8  500.85   26.70
  -6  -5  -8  635.34   27.90
   6   5   8  521.55   26.50
   6   5   8  542.05   26.50
   4  -6  -8   46.70   10.20
   4  -6  -8   21.90    8.80
   4  -6  -8   27.20    8.90
  -4   6   8   48.50    9.20
  -4   6   8   56.99   13.10
  -4   6   8   67.99   13.20
   3  -6  -8  264.97   15.50
   3  -6  -8  283.07   18.80
   3  -6  -8  296.27   18.10
  -3   6   8  274.07   16.80
  -3   6   8  293.07   17.50
  -3   6   8  297.37   18.50
   2  -6  -8    8.30    6.40
   2  -6  -8   29.80    5.30
   2  -6  -8    8.70    4.80
   2  -6  -8   21.80    6.60
  -2   6   8   22.30    6.40
  -2   6   8   43.10   11.40
  -2   6   8   25.80    5.90
  -2   6   8   15.10    5.00
   1  -6  -8   75.79    7.80
   1  -6  -8   86.79   10.90
   1  -6  -8   66.39   10.20
  -1   6   8   63.59    9.80
  -1   6   8   72.29    7.90
  -1   6   8   69.99    9.20
   0  -6  -8  950.40   45.20
   0  -6  -8  957.00   44.60
   0  -6  -8 1098.99   43.80
   0  -6  -8 1049.20   42.30
   0   6   8 1092.59   45.30
   0   6   8 1019.10   44.40
   0   6   8 1018.50   42.90
  -1  -6  -8  272.97   12.80
  -1  -6  -8  300.17   14.40
  -1  -6  -8  242.58   15.20
  -1  -6  -8  250.17   16.00
   1   6   8  270.87   12.90
   1   6   8  278.17   15.10
   1   6   8  260.77   15.80
  -2  -6  -8  329.87   15.70
  -2  -6  -8  284.07   17.00
  -2  -6  -8  328.97   15.00
  -2  -6  -8  300.37   18.00
   2   6   8  319.27   15.20
   2   6   8  352.26   17.10
   2   6   8  294.47   17.10
  -3  -6  -8   22.30    4.80
  -3  -6  -8   23.00    6.50
  -3  -6  -8   25.90    4.80
   3   6   8   41.80    8.20
   3   6   8   38.90    6.80
   3   6   8   23.80    5.30
   3   6   8   25.10    4.50
  -4  -6  -8    1.60    3.90
  -4  -6  -8   -5.70    6.10
  -4  -6  -8    2.60    5.50
  -4  -6  -8    2.30    4.60
  -4  -6  -8    5.10    6.30
   4   6   8    9.50    5.30
   4   6   8    2.20    4.90
   4   6   8    4.10    4.30
  -5  -6  -8  450.55   25.30
  -5  -6  -8  535.15   24.30
  -5  -6  -8  558.74   26.10
  -5  -6  -8  595.04   25.60
   5   6   8  487.75   24.10
   5   6   8  517.35   24.70
   5   6   8  504.05   24.80
   5   6   8  492.85   25.20
  -6  -6  -8   22.90    6.60
  -6  -6  -8   26.60    7.40
  -6  -6  -8   33.20    8.30
   6   6   8   17.80    6.40
   6   6   8   10.90    6.50
   3  -7  -8  176.08   13.10
   3  -7  -8  167.18   16.50
   3  -7  -8  166.28   17.00
  -3   7   8  193.98   15.00
  -3   7   8  194.18   16.00
  -3   7   8  197.38   14.90
   2  -7  -8  532.45   29.20
   2  -7  -8  575.84   25.30
   2  -7  -8  598.14   28.90
   2  -7  -8  545.05   26.50
  -2   7   8  602.34   27.30
  -2   7   8  637.54   29.10
   1  -7  -8  110.99   10.90
   1  -7  -8   83.49    9.00
   1  -7  -8  106.69    7.20
   1  -7  -8   92.89   11.90
   1  -7  -8   86.59   12.40
  -1   7   8  105.99   11.30
  -1   7   8  102.89    9.10
  -1   7   8  104.69   11.00
   0  -7  -8   43.20    9.80
   0  -7  -8   42.00   10.40
   0  -7  -8   58.99    7.60
   0  -7  -8   55.29    6.10
   0   7   8   61.49    7.00
   0   7   8   64.19    9.10
   0   7   8   71.39   10.10
  -1  -7  -8  116.19   11.60
  -1  -7  -8  126.99    8.40
  -1  -7  -8  109.89   11.90
  -1  -7  -8  128.89   10.30
   1   7   8  120.09   11.00
   1   7   8  134.69   10.70
   1   7   8  116.89    7.60
  -2  -7  -8    4.90    4.00
  -2  -7  -8    9.90    5.70
  -2  -7  -8   -0.60    6.10
  -2  -7  -8    1.70    4.80
   2   7   8    8.20    4.10
   2   7   8   12.50    5.30
   2   7   8    4.90    3.50
   2   7   8   10.20    5.00
  -3  -7  -8  506.35   25.70
  -3  -7  -8  545.95   23.00
  -3  -7  -8  521.15   22.90
   3   7   8  455.75   22.90
   3   7   8  465.45   24.40
   3   7   8  511.95   23.10
   3   7   8  519.75   24.30
  -4  -7  -8  241.38   14.80
  -4  -7  -8  250.47   13.50
  -4  -7  -8  249.38   12.70
  -4  -7  -8  190.78   14.90
  -4  -7  -8  237.28   16.30
   4   7   8  231.68   15.00
   4   7   8  215.08   13.20
   4   7   8  229.78   14.40
  -5  -7  -8  398.16   17.80
  -5  -7  -8  386.36   21.80
  -5  -7  -8  404.06   19.80
   5   7   8  408.16   20.30
   5   7   8  380.96   20.80
   5   7   8  346.37   19.10
   5   7   8  377.46   20.00
  -6  -7  -8    1.60    5.70
  -6  -7  -8    5.00    7.00
  -6  -7  -8   16.70    7.80
   6   7   8    5.00    6.50
   2  -8  -8   80.29    8.10
   2  -8  -8   76.79   10.20
   2  -8  -8   65.89   14.30
   2  -8  -8   53.89   14.40
  -2   8   8   81.09   11.30
  -2   8   8   74.59   13.00
   1  -8  -8  319.17   20.40
   1  -8  -8  314.97   21.00
   1  -8  -8  375.66   16.30
   1  -8  -8  311.67   17.90
  -1   8   8  383.36   20.40
  -1   8   8  356.66   18.30
   0  -8  -8  164.18   14.20
   0  -8  -8  159.38   11.60
   0  -8  -8  170.58   10.00
   0  -8  -8  153.98   14.70
   0  -8  -8  193.98   13.30
   0   8   8  191.18   11.10
   0   8   8  142.89   11.30
   0   8   8  192.28   14.00
   0   8   8  158.08   13.30
  -1  -8  -8  494.95   26.60
  -1  -8  -8  549.15   27.60
  -1  -8  -8  537.45   26.40
  -1  -8  -8  579.04   24.20
   1   8   8  590.84   27.30
   1   8   8  572.24   26.40
   1   8   8  549.35   23.60
   1   8   8  506.45   24.80
  -2  -8  -8    9.60    6.30
  -2  -8  -8   18.90    7.10
  -2  -8  -8   11.60    4.50
  -2  -8  -8   -1.60    5.40
   2   8   8   11.80    5.70
   2   8   8    6.10    5.40
   2   8   8   11.30    3.70
   2   8   8    5.50    4.70
  -3  -8  -8  270.47   14.60
  -3  -8  -8  218.58   16.10
  -3  -8  -8  269.97   13.80
  -3  -8  -8  218.68   17.10
   3   8   8  234.88   13.70
   3   8   8  265.07   15.30
   3   8   8  255.77   13.70
   3   8   8  226.28   15.60
  -4  -8  -8   55.99    8.90
  -4  -8  -8   36.90    8.60
  -4  -8  -8   53.79   10.30
  -4  -8  -8   53.59   12.60
   4   8   8   35.90    7.10
   4   8   8   47.50    8.70
   4   8   8   49.10   10.10
   4   8   8   45.30    9.90
  -5  -8  -8   93.39   13.60
  -5  -8  -8  105.69    9.70
  -5  -8  -8   88.19   10.50
  -5  -8  -8  100.49   11.80
   5   8   8   94.89   11.60
   5   8   8   82.89   10.60
   5   8   8   50.59    9.90
   5   8   8   78.79   11.90
  -6  -8  -8  380.86   20.50
  -6  -8  -8  353.76   21.80
  -6  -8  -8  408.76   21.10
   6   8   8  352.56   21.40
   1  -9  -8  328.27   22.80
   1  -9  -8  355.36   20.20
   1  -9  -8  418.06   18.80
   1  -9  -8  368.46   23.60
  -1   9   8  429.06   20.90
  -1   9   8  426.76   23.10
   0  -9  -8   13.90    5.00
   0  -9  -8    4.20    5.70
   0  -9  -8   12.00    7.80
   0  -9  -8   12.70    8.30
   0   9   8    9.20    6.80
   0   9   8   12.60    5.70
  -1  -9  -8   34.50    7.40
  -1  -9  -8   15.00    6.70
  -1  -9  -8   32.80    8.30
  -1  -9  -8   31.00    7.60
   1   9   8   23.00    5.30
   1   9   8   16.00    6.70
   1   9   8   22.20    6.90
  -2  -9  -8  350.06   16.50
  -2  -9  -8  349.47   18.30
  -2  -9  -8  307.27   20.10
   2   9   8  345.07   18.90
   2   9   8  323.77   15.80
   2   9   8  288.57   16.70
   2   9   8  313.37   19.30
  -3  -9  -8   44.50    8.90
  -3  -9  -8   63.49   14.70
  -3  -9  -8   64.19    8.90
   3   9   8   43.00   10.80
   3   9   8   22.20    5.60
   3   9   8   44.50    7.80
   3   9   8   31.90    7.20
  -4  -9  -8  402.76   19.50
  -4  -9  -8  451.55   20.00
  -4  -9  -8  372.96   22.60
   4   9   8  357.66   21.40
   4   9   8  369.76   20.50
   4   9   8  365.96   19.30
   4   9   8  322.77   18.70
  -5  -9  -8   54.39   10.20
  -5  -9  -8   70.29   11.70
  -5  -9  -8   55.39   13.70
  -5  -9  -8   46.50   10.40
   5   9   8   52.39   12.20
   0 -10  -8  421.26   26.50
   0 -10  -8  496.15   21.90
   0 -10  -8  396.66   22.70
   0  10   8  486.55   25.80
   0  10   8  475.55   23.00
  -1 -10  -8   90.19   10.10
  -1 -10  -8   73.19   15.10
   1  10   8  104.39   10.10
   1  10   8   84.29   13.50
  -2 -10  -8  720.93   30.50
  -2 -10  -8  661.43   34.00
   2  10   8  687.13   33.50
   2  10   8  661.73   29.40
   2  10   8  665.13   32.40
  -3 -10  -8  195.28   12.70
  -3 -10  -8  189.68   14.40
  -3 -10  -8  189.18   17.40
   3  10   8  187.88   15.70
   3  10   8  154.78   15.50
  -4 -10  -8   20.00    9.10
  -4 -10  -8   28.00    6.90
  -4 -10  -8    0.90    7.40
   4  10   8   19.40    5.90
   4  10   8   29.90    8.00
   4  10   8   12.10    7.50
   2   5  -9   19.30    7.40
   2   5  -9   15.80   11.10
   2   5  -9    9.00    7.40
  -2  -5   9   -6.00    7.00
  -2  -5   9   16.80    7.10
  -1  -5   9    4.40    6.70
   4   4  -9   52.89   12.60
   4   4  -9   54.19   11.90
  -4  -4   9   58.49   13.40
  -4  -4   9   41.30    8.90
  -4  -4   9   51.19   12.50
   3   4  -9  259.57   17.00
   3   4  -9  260.87   16.00
   3   4  -9  240.08   20.90
  -3  -4   9  265.67   17.00
  -3  -4   9  211.78   16.50
  -3  -4   9  254.17   12.80
   2   4  -9  462.25   28.00
   2   4  -9  486.85   25.60
   2   4  -9  553.04   24.40
  -2  -4   9  495.35   25.50
  -2  -4   9  494.35   24.70
   1   4  -9    2.80    6.20
   1   4  -9   12.50    7.20
   1   4  -9   -4.10    9.30
  -1  -4   9   16.90    6.30
  -1  -4   9   13.00    4.40
  -1  -4   9   10.20    6.20
   0   4  -9   81.79   11.00
   0   4  -9   53.69   12.70
   0  -4   9   99.99   12.10
   0  -4   9   91.79   10.20
  -1   4  -9   11.10    5.80
  -1   4  -9   -1.10    7.20
  -1   4  -9    5.50    8.00
   1  -4   9    9.70    4.70
   1  -4   9    5.10    6.00
   4   3  -9  383.06   20.10
   4   3  -9  345.97   19.60
   4   3  -9  314.27   22.50
  -4  -3   9  375.06   20.80
  -4  -3   9  339.07   18.90
  -4  -3   9  313.07   19.20
   3   3  -9   19.60    6.60
   3   3  -9    6.20    8.50
   3   3  -9   19.50    6.90
  -3  -3   9    8.90    6.80
  -3  -3   9    3.40    5.60
  -3  -3   9   12.90    6.10
  -3  -3   9    7.10    3.40
   2   3  -9   29.30    8.80
   2   3  -9   41.70   10.00
   2   3  -9   34.70    7.20
  -2  -3   9   26.40    6.30
  -2  -3   9   37.00    6.70
  -2  -3   9   31.70    7.00
   1   3  -9  376.06   21.50
   1   3  -9  415.16   19.60
   1   3  -9  399.56   23.50
  -1  -3   9  402.76   18.50
  -1  -3   9  394.86   20.70
  -1  -3   9  412.66   20.40
   0   3  -9   85.49   11.60
   0   3  -9   72.49   14.50
   0   3  -9   72.99    9.40
   0  -3   9   89.39    9.40
   0  -3   9   61.99   12.40
  -1   3  -9  309.87   18.00
  -1   3  -9  275.47   18.40
  -1   3  -9  303.97   15.60
   1  -3   9  271.97   19.40
   1  -3   9  305.27   18.00
  -2   3  -9  237.58   17.30
  -2   3  -9  239.98   17.30
  -2   3  -9  252.47   13.10
   2  -3   9  231.58   16.30
   5   2  -9   14.90    7.60
   5   2  -9   11.20    7.40
  -5  -2   9   13.30    6.00
  -5  -2   9   12.30    6.50
  -5  -2   9   16.20    8.50
   4   2  -9    4.10    6.60
   4   2  -9    9.20    8.20
   4   2  -9   -1.90   10.60
   4   2  -9   -7.40    6.60
  -4  -2   9   -3.20    5.60
  -4  -2   9   -2.60    7.20
  -4  -2   9   -3.00    5.40
   3   2  -9  463.95   22.70
   3   2  -9  442.16   25.10
   3   2  -9  412.56   23.30
   3   2  -9  478.25   24.50
  -3  -2   9  485.25   23.60
  -3  -2   9  478.65   23.20
   2   2  -9  150.58   11.40
   2   2  -9  153.78   14.20
   2   2  -9  122.49   12.20
  -2  -2   9  141.69    8.90
  -2  -2   9  147.99   12.10
  -2  -2   9  117.49   12.90
  -2  -2   9  152.08   11.70
  -2  -2   9  109.89    7.50
   1   2  -9  707.63   35.10
   1   2  -9  823.12   33.60
   1   2  -9  748.03   36.50
  -1  -2   9  799.02   32.80
  -1  -2   9  796.52   35.10
  -1  -2   9  730.43   35.80
  -1  -2   9  779.82   34.20
   0   2  -9   24.90    6.90
   0   2  -9   31.10    5.40
   0   2  -9   28.70    7.90
   0  -2   9   34.70    8.10
   0  -2   9   31.10    5.90
   0  -2   9   38.00    6.90
   0  -2   9   33.60    7.40
  -1   2  -9   24.80    6.80
  -1   2  -9   33.60    5.30
  -1   2  -9   50.69   12.80
   1  -2   9   28.70    6.20
   1  -2   9   32.50    7.70
   1  -2   9   28.00    7.30
  -2   2  -9  632.54   29.60
  -2   2  -9  559.14   29.60
  -2   2  -9  629.14   26.50
   2  -2   9  629.04   31.00
  -3   2  -9   10.20    8.80
  -3   2  -9   19.30    6.90
   3  -2   9   12.10    5.90
   3  -2   9   24.90    9.10
   5   1  -9  297.77   18.50
   5   1  -9  334.37   18.70
  -5  -1   9  288.57   16.50
  -5  -1   9  258.47   17.40
  -5  -1   9  308.37   15.60
  -5  -1   9  311.27   19.80
   4   1  -9   57.79   12.90
   4   1  -9   76.59   11.50
   4   1  -9   49.60   12.60
   4   1  -9   45.10   10.90
  -4  -1   9   38.40    7.70
  -4  -1   9   51.09   10.30
  -4  -1   9   33.50    8.00
  -4  -1   9   50.59    9.00
   3   1  -9   49.80   10.20
   3   1  -9   42.00   10.50
   3   1  -9   48.80   11.80
  -3  -1   9   49.50   10.80
  -3  -1   9   64.69   10.10
  -3  -1   9   63.79   10.20
  -3  -1   9   27.60    6.60
  -3  -1   9   35.00    8.50
   2   1  -9   16.10    6.80
   2   1  -9   23.70    5.70
   2   1  -9   20.20    6.20
   2   1  -9   11.80    7.10
  -2  -1   9   20.30    6.10
  -2  -1   9   39.60    6.50
  -2  -1   9   19.30    5.60
   1   1  -9    4.00    5.80
   1   1  -9    6.60    5.00
   1   1  -9   -3.60    6.60
  -1  -1   9    6.40    3.70
  -1  -1   9   -0.40    5.10
  -1  -1   9    7.30    5.90
  -1  -1   9   -0.10    4.90
   0   1  -9  396.16   22.50
   0   1  -9  493.65   20.80
   0   1  -9  432.66   23.90
   0  -1   9  442.16   21.30
   0  -1   9  462.25   23.30
   0  -1   9  466.05   20.40
   0  -1   9  441.26   22.30
  -1   1  -9  332.37   19.60
  -1   1  -9  383.06   16.90
  -1   1  -9  348.77   21.10
   1  -1   9  346.07   19.00
   1  -1   9  362.36   17.50
   1  -1   9  366.66   20.20
  -2   1  -9  574.94   23.70
  -2   1  -9  586.24   26.70
  -2   1  -9  482.65   27.70
  -2   1  -9  501.25   26.70
   2  -1   9  554.44   27.50
   2  -1   9  556.14   26.00
  -3   1  -9   49.30   12.10
  -3   1  -9   10.80    6.80
   3  -1   9   21.70    7.50
  -4   1  -9   -0.10    8.60
  -4   1  -9   -5.80    6.50
  -4   1  -9   -2.70    5.80
   4  -1   9   -4.90    5.50
   4  -1   9    5.00    8.60
   5   0  -9   36.60    7.70
   5   0  -9   67.09   12.60
  -5   0   9   53.39   13.00
  -5   0   9   40.80   10.90
  -5   0   9   31.90    6.10
   4   0  -9  120.39   14.30
   4   0  -9   96.89   12.90
   4   0  -9  110.39   12.40
  -4   0   9  113.09   11.70
  -4   0   9   93.99    9.30
  -4   0   9  124.19   12.80
  -4   0   9   99.19    8.90
  -4   0   9   77.19   11.50
   3   0  -9  423.06   22.20
   3   0  -9  426.16   21.20
   3   0  -9  468.85   20.10
  -3   0   9  334.77   18.80
  -3   0   9  421.76   20.90
  -3   0   9  449.36   21.20
  -3   0   9  358.46   20.90
  -3   0   9  330.27   18.30
   2   0  -9  131.59   13.30
   2   0  -9  165.98   11.30
   2   0  -9  173.58   12.30
   2   0  -9  140.79   12.60
  -2   0   9  156.88    9.70
  -2   0   9  161.78   11.80
  -2   0   9  168.68   12.30
   1   0  -9   87.09   12.00
   1   0  -9   82.59    8.80
   1   0  -9   83.69    9.40
   1   0  -9   78.39   10.50
  -1   0   9   84.89    9.80
  -1   0   9   85.29    7.40
  -1   0   9   84.79    9.40
  -1   0   9   64.19   10.60
   0   0  -9  240.38   16.70
   0   0  -9  279.07   13.60
   0   0  -9  223.08   15.70
   0   0   9  261.77   15.20
   0   0   9  262.27   13.10
   0   0   9  269.97   16.30
   0   0   9  262.17   14.30
  -1   0  -9   99.99   10.90
  -1   0  -9   89.09    8.00
  -1   0  -9   85.09   11.70
   1   0   9   89.79    9.80
   1   0   9   95.49   11.20
   1   0   9   91.49    8.70
  -2   0  -9   21.10    6.70
  -2   0  -9   25.70    7.70
  -2   0  -9   38.50    5.90
   2   0   9   25.80    5.60
   2   0   9   28.70    6.80
   2   0   9   35.40    7.20
  -3   0  -9  409.36   22.20
  -3   0  -9  440.06   22.40
   3   0   9  402.06   21.20
   3   0   9  433.76   23.20
  -4   0  -9   81.99   13.10
  -4   0  -9   74.99   12.50
   4   0   9  120.89   14.70
   5  -1  -9   27.30    8.10
   5  -1  -9   24.10    5.80
  -5   1   9   30.70    7.10
  -5   1   9   18.30    8.90
   4  -1  -9  311.27   18.60
   4  -1  -9  280.87   18.40
   4  -1  -9  316.87   19.00
  -4   1   9  275.07   17.90
  -4   1   9  292.67   14.60
  -4   1   9  316.37   17.90
   3  -1  -9    5.20    6.10
   3  -1  -9   31.30    7.50
   3  -1  -9   26.40    6.90
  -3   1   9   30.50    7.20
  -3   1   9   24.50    6.20
  -3   1   9   32.10    6.40
  -3   1   9   43.30    9.80
  -3   1   9   25.60    4.50
   2  -1  -9   -8.50    6.20
   2  -1  -9    8.70    6.00
   2  -1  -9   -6.80    5.50
  -2   1   9    4.00    4.90
  -2   1   9   -7.00    4.90
  -2   1   9    1.00    3.80
   1  -1  -9  245.18   13.30
   1  -1  -9  235.18   15.50
   1  -1  -9  192.88   14.60
  -1   1   9  216.58   13.70
  -1   1   9  244.28   14.60
  -1   1   9  233.38   12.10
  -1   1   9  243.28   14.80
   0  -1  -9  162.28   10.20
   0  -1  -9  154.18   13.30
   0  -1  -9  141.59   12.60
   0   1   9  152.68   10.80
   0   1   9  170.98   11.90
   0   1   9  153.58   12.30
   0   1   9  159.68    9.60
  -1  -1  -9  623.84   32.50
  -1  -1  -9  738.63   29.60
  -1  -1  -9  652.63   32.00
   1   1   9  706.73   32.20
   1   1   9  702.83   30.00
   1   1   9  707.33   30.40
   1   1   9  695.13   31.60
  -2  -1  -9  209.38   14.90
  -2  -1  -9  196.38   15.90
  -2  -1  -9  238.48   11.60
   2   1   9  234.78   14.40
   2   1   9  256.67   15.80
   2   1   9  236.18   12.90
  -3  -1  -9   87.89   11.20
  -3  -1  -9   85.69   12.70
  -3  -1  -9   67.49   11.30
   3   1   9   97.69   10.10
   3   1   9   94.29   12.00
  -4  -1  -9  161.48   14.20
  -4  -1  -9  113.39   13.30
   4   1   9  162.68   14.50
   4   1   9  128.49   11.60
  -5  -1  -9   70.59   13.60
   5   1   9   66.49   14.40
   5  -2  -9   42.70    9.60
   5  -2  -9   15.90    8.50
  -5   2   9   11.90    6.50
  -5   2   9   37.10    9.20
  -5   2   9   22.70    7.40
   4  -2  -9   17.20    5.50
   4  -2  -9   16.80    7.20
   4  -2  -9   32.20    7.80
   4  -2  -9   32.60    8.80
  -4   2   9   25.60    7.80
  -4   2   9   44.10   11.10
   3  -2  -9  279.67   18.10
   3  -2  -9  307.27   18.00
  -3   2   9  293.47   14.10
  -3   2   9  313.77   17.70
  -3   2   9  295.57   17.30
   2  -2  -9  207.68   12.70
   2  -2  -9  190.78   14.30
   2  -2  -9  180.78   13.80
  -2   2   9  172.88   13.10
  -2   2   9  203.58   13.80
  -2   2   9  184.98   11.10
   1  -2  -9  148.59   13.50
   1  -2  -9  164.28   10.90
   1  -2  -9  159.08   13.10
  -1   2   9  201.08   12.90
  -1   2   9  175.28   10.20
  -1   2   9  174.68   11.80
  -1   2   9  179.98   12.50
   0  -2  -9   25.50    6.70
   0  -2  -9   28.60    4.90
   0  -2  -9   37.60    9.90
   0   2   9   26.30    4.60
   0   2   9   28.60    6.00
   0   2   9   19.80    5.20
   0   2   9   45.80    7.90
  -1  -2  -9    5.10    6.00
  -1  -2  -9   -3.00    5.70
   1   2   9    8.30    3.90
   1   2   9    7.50    5.40
   1   2   9    2.80    4.50
  -2  -2  -9  118.39    7.80
  -2  -2  -9  105.19   12.30
  -2  -2  -9  102.79   12.10
   2   2   9  126.79   11.40
   2   2   9  126.09   10.60
  -3  -2  -9  235.68   15.60
  -3  -2  -9  235.78   14.90
   3   2   9  229.28   15.40
   3   2   9  219.68   14.40
  -4  -2  -9  692.63   30.70
  -4  -2  -9  656.03   30.60
   4   2   9  626.44   30.50
   4   2   9  560.74   29.30
  -5  -2  -9   27.30    7.50
  -5  -2  -9   12.60    8.90
   5   2   9    8.00    7.50
   5   2   9    4.20    5.70
   4  -3  -9   -9.60    6.90
   4  -3  -9   11.40    5.50
   4  -3  -9   16.30    8.00
   4  -3  -9   10.90    7.70
  -4   3   9   13.40    6.90
  -4   3   9    6.60    6.00
  -4   3   9   12.30    7.50
   3  -3  -9  138.89   10.30
   3  -3  -9  144.19   12.80
   3  -3  -9  137.09   13.50
  -3   3   9  129.59   12.60
  -3   3   9  121.19   11.20
  -3   3   9  127.79   13.00
   2  -3  -9   -2.30    6.00
   2  -3  -9   -0.20    5.70
   2  -3  -9    2.30    6.10
  -2   3   9   -1.80    5.40
  -2   3   9    1.20    3.50
  -2   3   9   -9.10    5.10
   1  -3  -9    3.20    5.90
   1  -3  -9    6.70    5.80
   1  -3  -9   -0.40    4.60
  -1   3   9   -2.30    4.70
  -1   3   9    7.00    4.10
  -1   3   9   10.80    5.30
  -1   3   9    0.60    5.20
   0  -3  -9 2231.18   90.89
   0  -3  -9 2069.79   90.69
   0  -3  -9 2329.37   88.59
   0   3   9 1917.61   90.19
   0   3   9 2229.18   90.49
   0   3   9 2224.48   88.69
  -1  -3  -9   19.50    6.40
  -1  -3  -9   22.00    6.20
   1   3   9   19.10    5.60
   1   3   9   15.80    3.90
   1   3   9   24.70    5.80
  -2  -3  -9  259.87   17.10
  -2  -3  -9  268.57   17.20
   2   3   9  315.87   16.80
   2   3   9  289.87   16.10
  -3  -3  -9   80.09   11.90
   3   3   9   95.09   10.10
   3   3   9   89.69   11.10
  -4  -3  -9  237.88   16.80
  -4  -3  -9  297.37   17.30
   4   3   9  261.57   15.90
   4   3   9  254.47   16.70
  -5  -3  -9  103.09   13.20
  -5  -3  -9  145.99   14.60
   5   3   9  127.19   12.10
   5   3   9  131.99   14.00
   4  -4  -9   24.30    8.40
   4  -4  -9   22.70    6.50
   4  -4  -9   13.80    7.90
   4  -4  -9   22.70    8.40
  -4   4   9   20.80    7.40
  -4   4   9   17.70    8.10
   3  -4  -9  208.88   12.70
   3  -4  -9  187.68   15.80
   3  -4  -9  191.88   15.00
  -3   4   9  199.88   13.10
  -3   4   9  198.68   15.20
  -3   4   9  228.68   15.70
   2  -4  -9   76.49   12.00
   2  -4  -9  102.39   10.20
   2  -4  -9  100.09   11.60
   2  -4  -9   92.09    8.90
  -2   4   9   88.99   10.50
  -2   4   9  111.29   11.60
   1  -4  -9  279.57   14.30
   1  -4  -9  257.47   16.80
   1  -4  -9  269.77   16.50
  -1   4   9  285.67   16.40
  -1   4   9  240.38   15.60
   0  -4  -9  123.49   12.10
   0  -4  -9  141.49   12.90
   0   4   9  131.39   11.70
   0   4   9  149.39   11.50
  -1  -4  -9   28.00    6.80
  -1  -4  -9   31.80    6.90
   1   4   9   46.60    8.90
   1   4   9   47.00    9.30
  -2  -4  -9   97.39    7.70
  -2  -4  -9   70.89   11.10
  -2  -4  -9   75.99   11.10
  -2  -4  -9   95.09    8.70
   2   4   9   86.19    9.90
   2   4   9   90.79   10.40
  -3  -4  -9  309.07   15.00
  -3  -4  -9  265.27   17.80
  -3  -4  -9  299.57   14.30
   3   4   9  312.87   17.50
   3   4   9  281.77   16.60
  -4  -4  -9   31.70    7.70
  -4  -4  -9   41.60    8.00
  -4  -4  -9   63.29    8.80
  -4  -4  -9   47.20    8.40
   4   4   9   33.10    6.70
   4   4   9   55.89   10.80
  -5  -4  -9  528.25   25.70
  -5  -4  -9  463.35   25.10
  -5  -4  -9  514.05   23.70
   5   4   9  465.85   25.00
   5   4   9  464.55   24.40
   4  -5  -9   20.30    6.80
   4  -5  -9   12.60    8.90
   4  -5  -9   15.50    8.90
  -4   5   9   28.50    8.70
  -4   5   9   14.80    8.50
   3  -5  -9   70.19    9.90
   3  -5  -9   95.39   11.80
   3  -5  -9   80.49   12.70
   3  -5  -9   69.69   13.90
  -3   5   9   56.69   12.70
  -3   5   9   78.79   12.00
   2  -5  -9    0.10    6.70
   2  -5  -9   -6.00    5.90
   2  -5  -9   -7.10    6.30
   2  -5  -9   -5.10    5.00
  -2   5   9   -2.30    6.00
  -2   5   9    2.60    4.90
  -2   5   9    5.30    5.90
  -2   5   9   -4.00    5.20
   1  -5  -9  169.68   13.70
   1  -5  -9  169.38   14.30
  -1   5   9  184.78   12.60
  -1   5   9  171.18   10.90
  -1   5   9  178.48   13.80
   0  -5  -9   93.69   11.30
   0  -5  -9   86.19   11.70
   0  -5  -9  100.39   10.30
   0   5   9   87.39   10.00
   0   5   9   72.29   10.10
  -1  -5  -9  271.77   17.80
  -1  -5  -9  316.67   14.40
  -1  -5  -9  349.87   16.30
  -1  -5  -9  283.17   18.40
   1   5   9  313.47   17.70
   1   5   9  324.07   17.60
  -2  -5  -9  193.48   10.60
  -2  -5  -9  164.68   14.50
  -2  -5  -9  160.58   13.70
  -2  -5  -9  209.38   11.80
   2   5   9  217.48   13.90
   2   5   9  185.38   13.40
  -3  -5  -9  199.58   11.80
  -3  -5  -9  230.48   12.20
  -3  -5  -9  211.48   15.80
   3   5   9  196.48   14.00
   3   5   9  217.58   14.60
  -4  -5  -9  129.59   13.30
  -4  -5  -9  122.09   12.80
  -4  -5  -9  125.99   10.30
  -4  -5  -9  126.39   12.90
   4   5   9  100.59   11.50
   4   5   9  109.79   10.20
   4   5   9  122.09   12.10
  -5  -5  -9    6.80    8.30
  -5  -5  -9   -5.50    7.40
  -5  -5  -9   -1.00    5.50
   5   5   9   -3.40    5.80
   5   5   9   -5.70    6.50
   3  -6  -9  161.78   16.40
   3  -6  -9  169.38   13.10
   3  -6  -9  176.48   17.30
  -3   6   9  176.88   14.20
  -3   6   9  164.58   16.10
  -3   6   9  156.48   14.90
   2  -6  -9  231.18   14.40
   2  -6  -9  235.18   18.20
   2  -6  -9  252.67   17.40
  -2   6   9  269.77   17.40
   1  -6  -9   72.69   12.20
   1  -6  -9   87.39   13.00
   1  -6  -9  119.69   11.90
   1  -6  -9   76.09    9.20
  -1   6   9   91.49   11.70
  -1   6   9   74.89    9.00
  -1   6   9   78.39   10.90
   0  -6  -9   11.00    3.70
   0  -6  -9   18.80    6.70
   0  -6  -9    1.90    6.40
   0   6   9   -4.20    3.30
   0   6   9    0.20    5.30
   0   6   9    8.60    3.00
   0   6   9    4.60    5.50
  -1  -6  -9    7.30    3.80
  -1  -6  -9   -0.50    5.70
  -1  -6  -9    3.70    6.50
  -1  -6  -9   14.80    5.70
   1   6   9   -1.70    4.90
   1   6   9    6.10    5.40
  -2  -6  -9   -4.00    6.10
  -2  -6  -9    4.60    4.20
  -2  -6  -9    2.20    6.40
  -2  -6  -9   -1.80    5.20
   2   6   9    6.40    5.40
   2   6   9    1.80    5.00
  -3  -6  -9  173.48   11.00
  -3  -6  -9  149.39   14.70
  -3  -6  -9  181.48   10.80
   3   6   9  138.09   11.00
   3   6   9  157.88   13.10
   3   6   9  168.98   13.10
  -4  -6  -9  825.12   33.20
  -4  -6  -9  754.22   32.00
  -4  -6  -9  725.23   35.70
  -4  -6  -9  772.92   34.60
   4   6   9  641.14   32.80
   4   6   9  738.03   34.80
   4   6   9  806.62   34.70
  -5  -6  -9   88.89   13.70
  -5  -6  -9  124.79   11.00
   5   6   9  106.69   12.90
   5   6   9  102.39   11.90
   2  -7  -9   -1.20    8.20
   2  -7  -9    3.10    5.90
   2  -7  -9  -17.70    7.80
  -2   7   9   -8.50    6.30
  -2   7   9    0.00    7.10
   1  -7  -9  119.19   13.30
   1  -7  -9  143.99   14.90
   1  -7  -9  124.09   10.90
   1  -7  -9  119.09   14.60
  -1   7   9  123.19   13.50
  -1   7   9  141.09   10.80
   0  -7  -9  130.69   14.30
   0  -7  -9  148.49   14.40
   0  -7  -9  146.69    9.00
   0  -7  -9  175.78   12.60
   0   7   9  145.49   13.60
   0   7   9  126.89   12.90
  -1  -7  -9  166.58    9.70
  -1  -7  -9  138.29   13.60
  -1  -7  -9  128.49   14.10
   1   7   9  143.79   10.90
   1   7   9  166.68    9.40
   1   7   9  163.68   13.40
   1   7   9  145.19   13.40
  -2  -7  -9  377.36   22.00
  -2  -7  -9  422.16   19.40
  -2  -7  -9  319.77   21.00
  -2  -7  -9  410.36   18.10
   2   7   9  374.66   20.90
   2   7   9  342.67   18.50
   2   7   9  412.36   20.70
   2   7   9  393.76   18.30
  -3  -7  -9    2.40    4.90
  -3  -7  -9    3.20    6.50
  -3  -7  -9    2.00    5.60
  -3  -7  -9    3.90    7.50
   3   7   9    5.60    5.70
   3   7   9    4.70    4.10
   3   7   9    3.00    5.10
   3   7   9   -4.70    5.80
  -4  -7  -9    4.60    7.60
  -4  -7  -9   21.50    5.60
  -4  -7  -9   32.00    8.80
  -4  -7  -9   21.50    5.80
   4   7   9   18.70    5.90
   4   7   9   -1.10    6.30
   4   7   9   12.00    6.80
  -5  -7  -9  168.48   14.90
  -5  -7  -9  135.29   15.50
  -5  -7  -9  138.69   12.00
   5   7   9  129.89   13.70
   5   7   9  130.59   13.40
   1  -8  -9  126.59   11.30
   1  -8  -9   94.59   15.30
   1  -8  -9  100.19   16.10
  -1   8   9  132.49   11.60
  -1   8   9  155.48   15.00
   0  -8  -9  385.46   24.10
   0  -8  -9  428.86   19.20
   0  -8  -9  381.06   23.30
   0   8   9  463.25   23.80
   0   8   9  429.96   20.10
  -1  -8  -9   64.99   13.30
  -1  -8  -9   89.09    8.70
  -1  -8  -9  105.39   12.20
  -1  -8  -9   55.99   12.80
   1   8   9   86.89   12.20
   1   8   9   93.09    7.30
   1   8   9  103.09   12.60
  -2  -8  -9   10.50    4.80
  -2  -8  -9   19.30    7.70
  -2  -8  -9   -0.10    5.80
   2   8   9    9.90    4.30
   2   8   9   -0.40    4.70
   2   8   9   14.10    6.90
   2   8   9   -4.80    6.20
  -3  -8  -9  311.47   15.90
  -3  -8  -9  286.17   20.00
   3   8   9  254.57   18.20
   3   8   9  320.47   18.30
  -4  -8  -9   80.09   15.10
  -4  -8  -9  112.79   10.80
  -4  -8  -9   93.39   13.00
  -4  -8  -9  103.49   10.90
   4   8   9   97.39   12.60
   4   8   9   97.89   12.90
   4   8   9   96.59   11.40
  -5  -8  -9  225.28   16.20
  -5  -8  -9  190.78   17.40
  -5  -8  -9  197.58   13.70
  -5  -8  -9  169.48   12.40
   5   8   9  144.69   15.50
   5   8   9  160.98   15.40
   0  -9  -9   72.29   16.00
   0  -9  -9   91.19    9.00
   0  -9  -9   69.79   11.30
   0   9   9  101.89   10.30
   0   9   9   78.49   14.30
  -1  -9  -9  237.18   13.10
  -1  -9  -9  208.28   18.60
   1   9   9  211.88   17.10
  -2  -9  -9   43.50    9.10
  -2  -9  -9   40.60    9.30
  -2  -9  -9   41.10    8.00
   2   9   9   29.40    8.00
   2   9   9   41.90    7.50
   2   9   9   49.10   12.90
  -3  -9  -9  101.49   15.70
  -3  -9  -9  111.49   12.60
  -3  -9  -9  109.49   10.80
   3   9   9  100.99   14.30
   3   9   9  101.29   13.70
  -4  -9  -9   -3.20    7.90
  -4  -9  -9   -8.10    5.80
  -4  -9  -9   -7.40    8.90
   4   9   9   -0.40    7.70
   4   9   9    7.90    5.90
   4   9   9   -1.60    7.10
  -2 -10  -9   18.40   10.00
  -2 -10  -9   17.30    6.20
   2  10   9   33.60    7.60
   2  10   9   10.50    8.30
  -3 -10  -9  213.98   20.00
   3  10   9  253.87   18.70
   3  10   9  203.08   17.80
   3   3 -10  160.68   15.50
   3   3 -10  177.78   21.20
   3   3 -10  198.18   15.50
  -3  -3  10  196.48   16.20
  -3  -3  10  145.99   14.90
  -3  -3  10  158.38   14.40
   2   3 -10   18.10   10.70
   2   3 -10   15.80    7.20
   2   3 -10   16.00    7.70
  -2  -3  10   14.10    7.50
  -2  -3  10    3.60    3.80
  -2  -3  10    8.50    6.50
  -2  -3  10   14.60    4.80
   1   3 -10  118.49   14.70
   1   3 -10  156.08   19.40
   1   3 -10  153.98   12.80
  -1  -3  10  170.18   13.60
  -1  -3  10  130.99   13.20
  -1  -3  10  160.08   10.50
   0   3 -10   21.80    6.70
   0   3 -10   10.20    8.10
   0  -3  10   31.60    7.20
   3   2 -10   24.60   12.50
   3   2 -10   40.20   11.70
   3   2 -10   79.59   12.50
   3   2 -10   80.89   13.10
  -3  -2  10   73.89   13.00
  -3  -2  10   46.10   11.20
  -3  -2  10   72.39   12.60
  -3  -2  10   44.50    8.10
   2   2 -10    4.80    6.90
   2   2 -10   18.50    7.50
   2   2 -10    5.80    9.70
  -2  -2  10   13.00    6.60
  -2  -2  10    6.70    7.00
  -2  -2  10   13.80    4.70
   1   2 -10   11.60    9.60
   1   2 -10   -2.20    7.30
   1   2 -10   -8.80    6.10
  -1  -2  10   -1.90    6.20
  -1  -2  10    1.30    4.30
  -1  -2  10   -1.60    6.00
   0   2 -10  364.86   24.90
   0   2 -10  439.86   20.20
   0   2 -10  388.66   22.80
   0  -2  10  405.06   21.80
   0  -2  10  434.16   21.00
  -1   2 -10  292.47   20.20
  -1   2 -10  331.27   17.00
   1  -2  10  332.57   18.70
   1  -2  10  327.07   17.40
   4   1 -10  135.09   17.90
   4   1 -10  124.89   14.70
   4   1 -10  141.19   14.60
  -4  -1  10   83.19   11.40
  -4  -1  10  113.59   13.40
  -4  -1  10  121.29   15.00
  -4  -1  10   80.59   10.00
   3   1 -10    1.60    7.10
   3   1 -10   10.90    7.70
   3   1 -10    6.10    9.20
   3   1 -10   23.60    8.90
  -3  -1  10   22.30    7.70
  -3  -1  10   15.30    6.80
  -3  -1  10   22.40    5.00
  -3  -1  10    5.20    5.60
   2   1 -10  263.07   14.90
   2   1 -10  237.88   19.30
   2   1 -10  183.38   16.10
  -2  -1  10  216.08   15.40
  -2  -1  10  211.18   15.40
  -2  -1  10  239.88   12.70
   1   1 -10  203.38   13.30
   1   1 -10  187.88   15.80
   1   1 -10  188.28   17.80
  -1  -1  10  220.88   14.10
  -1  -1  10  207.48   14.70
  -1  -1  10  211.08   12.10
   0   1 -10   85.19   15.50
   0   1 -10  102.69   10.00
   0   1 -10   91.59   12.80
   0  -1  10  104.69   11.50
   0  -1  10   93.49   10.40
   0  -1  10   88.59   13.60
  -1   1 -10   -6.30    7.00
  -1   1 -10    7.10    5.20
   1  -1  10   -2.90    7.30
   1  -1  10    1.90    5.80
   1  -1  10    5.60    5.40
  -2   1 -10   45.40    7.80
  -2   1 -10   76.99   13.10
  -2   1 -10   46.40    8.60
   2  -1  10   57.69   10.60
   2  -1  10   46.70    9.40
   4   0 -10  435.56   24.20
   4   0 -10  496.45   23.40
   4   0 -10  443.76   25.60
  -4   0  10  443.06   23.50
  -4   0  10  387.66   21.10
  -4   0  10  419.96   24.20
   3   0 -10   -0.70    7.30
   3   0 -10   -3.20    8.40
   3   0 -10   -8.80    8.50
   3   0 -10    0.10    6.70
  -3   0  10   -0.70    4.70
  -3   0  10   -1.10    6.20
  -3   0  10  -10.80    5.10
  -3   0  10   -0.50    7.00
   2   0 -10   11.50    6.20
   2   0 -10   18.50    8.60
   2   0 -10   16.10    7.40
   2   0 -10    0.40    6.70
  -2   0  10   11.50    6.30
  -2   0  10   16.50    4.90
  -2   0  10   16.30    7.20
   1   0 -10  115.99   10.90
   1   0 -10  116.69   11.60
   1   0 -10  122.49   15.40
   1   0 -10  100.69   13.20
  -1   0  10  126.39   12.00
  -1   0  10  110.59   13.40
  -1   0  10  119.79   11.40
  -1   0  10  102.99    8.90
   0   0 -10  143.99   10.20
   0   0 -10  104.09   13.10
   0   0 -10  115.59   15.30
   0   0  10  114.39   11.10
   0   0  10  116.19   14.40
   0   0  10  135.99   12.00
  -1   0 -10  165.08   15.00
  -1   0 -10  160.48   16.80
  -1   0 -10  200.78   11.50
   1   0  10  191.18   12.00
   1   0  10  203.48   14.10
   1   0  10  193.18   16.50
   1   0  10  157.28   12.40
  -2   0 -10   58.09   12.70
  -2   0 -10   90.99    8.10
   2   0  10   70.79   14.40
   2   0  10   98.69   11.50
   2   0  10  101.79    9.90
  -3   0 -10   59.09   13.50
  -3   0 -10   40.50    8.50
   3   0  10   57.89   10.50
   3   0  10   60.69   15.30
   4  -1 -10   21.40    8.80
   4  -1 -10    8.70    9.30
  -4   1  10   25.60    8.50
  -4   1  10   30.20    7.40
  -4   1  10   17.60    7.40
   3  -1 -10   92.99   13.90
   3  -1 -10  142.29   14.00
   3  -1 -10  128.99   15.10
  -3   1  10  107.79    9.60
  -3   1  10  137.69   13.10
  -3   1  10   99.79   12.90
   2  -1 -10  329.27   18.40
   2  -1 -10  316.37   21.00
   2  -1 -10  281.07   19.30
  -2   1  10  343.97   18.60
  -2   1  10  335.67   19.20
   1  -1 -10  210.78   16.40
   1  -1 -10  212.78   17.40
   1  -1 -10  273.47   14.40
  -1   1  10  240.18   14.90
  -1   1  10  214.98   16.60
  -1   1  10  236.28   15.70
   0  -1 -10    0.10    7.60
   0  -1 -10    4.70    5.70
   0  -1 -10    3.80    6.80
   0  -1 -10    1.50    5.10
   0   1  10    3.30    5.60
   0   1  10    7.90    5.40
   0   1  10    6.70    6.60
  -1  -1 -10   65.79   13.80
  -1  -1 -10   41.40   11.30
  -1  -1 -10   65.79    8.10
   1   1  10   62.59   10.30
   1   1  10   56.79    9.40
   1   1  10   50.59   12.30
   1   1  10   73.29    8.40
  -2  -1 -10   25.20    8.40
  -2  -1 -10   43.40    7.00
  -2  -1 -10   36.10    7.90
   2   1  10   53.19   12.80
   2   1  10   66.19    8.80
   2   1  10   68.19   10.20
  -3  -1 -10  154.58   14.50
  -3  -1 -10   96.09   13.90
   3   1  10  149.39   10.80
   3   1  10  122.49   12.70
   3   1  10  137.49   15.60
  -4  -1 -10  176.18   16.90
  -4  -1 -10  162.78   15.50
   4   1  10  186.78   18.70
   4   1  10  158.38   13.60
   4  -2 -10   17.10    8.90
   4  -2 -10   11.70    8.60
  -4   2  10   13.80    7.50
  -4   2  10   16.00    8.70
  -4   2  10   -2.30    6.60
   3  -2 -10  132.39   15.00
   3  -2 -10  113.69   14.80
   3  -2 -10  166.58   14.10
  -3   2  10  125.09    9.30
  -3   2  10  130.09   13.80
  -3   2  10  129.09   11.10
  -3   2  10  160.88   13.90
   2  -2 -10   -1.40    8.10
   2  -2 -10   -3.30    6.90
   2  -2 -10    4.90    7.40
  -2   2  10    7.90    6.40
  -2   2  10   -5.90    6.00
  -2   2  10    3.40    6.10
   1  -2 -10    5.40    7.40
   1  -2 -10    9.50    7.00
   1  -2 -10    8.50    5.90
  -1   2  10   10.90    6.10
  -1   2  10   14.40    6.50
  -1   2  10    6.50    6.40
   0  -2 -10  203.38   16.20
   0  -2 -10  249.78   13.10
   0  -2 -10  198.98   16.70
   0   2  10  233.88   15.10
   0   2  10  220.18   15.70
   0   2  10  232.78   14.10
  -1  -2 -10  119.69   14.50
  -1  -2 -10  127.09   13.60
   1   2  10  117.69    9.80
   1   2  10  144.99   12.10
   1   2  10  149.79   13.80
   1   2  10  135.99   11.00
  -2  -2 -10  299.17   13.70
  -2  -2 -10  262.87   18.10
  -2  -2 -10  252.27   19.00
   2   2  10  267.87   16.80
   2   2  10  282.47   18.30
   2   2  10  264.17   15.20
  -3  -2 -10  183.08   14.60
  -3  -2 -10  141.29   14.50
   3   2  10  172.38   15.90
   3   2  10  162.18   13.40
  -4  -2 -10   -1.80    7.70
  -4  -2 -10    9.00    9.60
   4   2  10    1.90    8.30
   4   2  10   -3.70    5.90
   4  -3 -10  122.59   16.10
   4  -3 -10   98.59   19.20
   4  -3 -10  114.09   12.10
  -4   3  10  126.59   15.20
  -4   3  10  117.19   14.90
   3  -3 -10   13.30    8.10
   3  -3 -10   -5.30    7.60
   3  -3 -10    4.40    8.10
  -3   3  10    6.80    7.50
  -3   3  10    4.10    7.00
  -3   3  10   -0.80    5.90
   2  -3 -10  367.56   22.30
   2  -3 -10  361.56   22.20
   2  -3 -10  407.66   20.40
  -2   3  10  423.36   22.00
  -2   3  10  391.96   21.20
  -2   3  10  368.06   18.90
   1  -3 -10   63.59   12.80
   1  -3 -10   76.69    9.10
   1  -3 -10   58.09   12.20
  -1   3  10   73.69   11.40
  -1   3  10   73.69   10.30
  -1   3  10   58.89   11.00
  -1   3  10   64.19    9.50
   0  -3 -10  467.65   25.40
   0  -3 -10  488.45   25.80
   0   3  10  552.94   25.10
   0   3  10  520.65   25.20
   0   3  10  419.46   23.10
  -1  -3 -10    0.40    7.40
  -1  -3 -10    5.00    6.90
   1   3  10   11.60    6.10
   1   3  10    5.70    4.50
   1   3  10   10.40    5.70
  -2  -3 -10   51.49   13.00
  -2  -3 -10   41.10    8.30
   2   3  10   47.00    8.40
   2   3  10   37.10    7.80
   2   3  10   46.20   10.10
  -3  -3 -10  169.88   14.80
   3   3  10  140.29   14.60
   3   3  10  139.79   13.00
  -4  -3 -10  226.38   17.20
  -4  -3 -10  235.08   17.50
   4   3  10  201.88   15.50
   4   3  10  202.68   17.40
   3  -4 -10   66.59   14.40
   3  -4 -10   34.80    9.80
   3  -4 -10   82.19   12.80
   3  -4 -10   54.99   10.20
  -3   4  10   68.79   12.60
  -3   4  10   54.69    9.30
   2  -4 -10   15.70    8.00
   2  -4 -10   24.80    7.80
   2  -4 -10   30.10    8.00
  -2   4  10   23.90    5.60
  -2   4  10   20.00    7.30
  -2   4  10   20.30    7.10
   1  -4 -10  187.58   11.80
   1  -4 -10  142.49   15.20
   1  -4 -10  133.29   15.00
  -1   4  10  144.49   13.60
  -1   4  10  166.98   11.40
  -1   4  10  195.38   14.50
  -1   4  10  187.68   13.40
   0  -4 -10  109.79   14.00
   0  -4 -10  143.89   14.50
   0   4  10  141.49   12.90
   0   4  10  132.49   13.10
   0   4  10  138.79   10.00
  -1  -4 -10  164.08   14.60
  -1  -4 -10  166.38   15.30
   1   4  10  159.48   11.20
   1   4  10  158.78   13.40
   1   4  10  185.68   14.30
  -2  -4 -10  214.38   16.60
  -2  -4 -10  275.97   13.40
  -2  -4 -10  169.88   16.70
   2   4  10  214.68   13.20
   2   4  10  217.88   15.30
   2   4  10  233.58   16.30
  -3  -4 -10  186.28   15.90
   3   4  10  178.48   15.60
   3   4  10  174.88   13.70
  -4  -4 -10    5.00    8.30
  -4  -4 -10    2.30    8.40
   4   4  10    0.60    6.20
   4   4  10    4.60    7.80
  -5  -4 -10   99.29   15.80
  -5  -4 -10   37.50    9.30
   5   4  10   54.39   12.60
   5   4  10   45.10   11.60
   3  -5 -10  264.87   20.70
   3  -5 -10  257.97   16.60
   3  -5 -10  246.18   20.60
   3  -5 -10  319.37   18.10
  -3   5  10  282.67   19.00
  -3   5  10  280.87   19.60
   2  -5 -10   56.39   14.20
   2  -5 -10   63.99   14.20
  -2   5  10   57.89   12.70
  -2   5  10   95.49   12.30
   1  -5 -10  386.36   22.80
   1  -5 -10  457.95   19.50
   1  -5 -10  381.76   23.10
  -1   5  10  385.36   19.50
  -1   5  10  317.87   20.80
  -1   5  10  448.16   22.60
   0  -5 -10   38.00    8.00
   0  -5 -10   44.70    9.00
   0   5  10   47.70    8.40
   0   5  10   48.30   11.00
   0   5  10   21.90    7.00
  -1  -5 -10   74.69   12.70
  -1  -5 -10   82.79   10.60
  -1  -5 -10   55.59   12.80
   1   5  10   68.79   11.20
   1   5  10   57.79   11.60
   1   5  10   59.49    8.60
  -2  -5 -10  202.08   12.10
  -2  -5 -10  181.88   10.50
  -2  -5 -10  141.59   15.20
  -2  -5 -10  122.79   14.60
   2   5  10  154.98   13.70
   2   5  10  163.18   14.60
   2   5  10  137.59   11.00
  -3  -5 -10  209.18   12.10
  -3  -5 -10  182.08   16.20
  -3  -5 -10  189.08   12.10
   3   5  10  210.78   16.00
   3   5  10  143.99   14.10
  -4  -5 -10  326.67   20.30
  -4  -5 -10  336.97   17.30
  -4  -5 -10  329.47   21.10
   4   5  10  278.37   18.80
   4   5  10  337.87   20.70
  -5  -5 -10   77.59   15.10
  -5  -5 -10  100.49   11.20
  -5  -5 -10   84.09   16.10
   5   5  10   63.09   12.70
   2  -6 -10   41.10    9.90
   2  -6 -10   39.40   10.10
   2  -6 -10   60.59   10.50
  -2   6  10   77.29   14.10
  -2   6  10   72.19   12.60
   1  -6 -10   -8.50    7.90
   1  -6 -10    0.30    6.80
   1  -6 -10   -2.00    8.20
  -1   6  10    4.60    6.80
   0  -6 -10  213.88   17.20
   0  -6 -10  284.97   16.10
   0  -6 -10  217.88   17.90
   0   6  10  222.58   16.20
   0   6  10  256.67   17.10
  -1  -6 -10   85.39   13.70
  -1  -6 -10  109.59   14.50
  -1  -6 -10   84.39    7.90
   1   6  10   72.79    8.50
   1   6  10   96.79   12.00
   1   6  10   96.99   12.40
  -2  -6 -10  395.16   17.10
  -2  -6 -10  279.37   20.00
  -2  -6 -10  407.86   18.70
  -2  -6 -10  332.57   21.70
   2   6  10  332.47   20.30
   2   6  10  348.77   20.20
  -3  -6 -10  107.99   10.70
  -3  -6 -10  114.19   10.10
  -3  -6 -10  102.79   14.90
   3   6  10  108.79   12.80
   3   6  10  136.89   13.90
  -4  -6 -10  -11.40    8.40
  -4  -6 -10    3.40    5.70
  -4  -6 -10    2.50    8.50
   4   6  10   -0.10    7.60
   4   6  10   -4.90    6.40
  -5  -6 -10    8.60    9.30
   5   6  10    1.90    6.90
   1  -7 -10   92.49   16.10
   1  -7 -10   64.79   14.80
  -1   7  10   99.09   14.60
   0  -7 -10  114.89   16.00
   0  -7 -10  114.69   16.00
   0  -7 -10  161.58   13.60
   0   7  10  168.38   15.40
  -1  -7 -10    5.50    4.80
  -1  -7 -10   -0.70    6.50
  -1  -7 -10    0.90    7.30
  -1  -7 -10  -16.20    8.20
   1   7  10    0.90    6.40
   1   7  10   -4.80    6.80
   1   7  10    6.60    4.00
  -2  -7 -10   -2.30    4.90
  -2  -7 -10    0.70    7.90
   2   7  10   19.20    7.00
   2   7  10    7.40    7.50
   2   7  10   13.10    5.00
  -3  -7 -10  516.85   23.60
  -3  -7 -10  527.75   23.10
  -3  -7 -10  457.55   27.00
   3   7  10  484.05   23.70
   3   7  10  470.95   25.90
   3   7  10  493.45   25.90
  -4  -7 -10   22.60    9.40
  -4  -7 -10   44.40    9.60
  -4  -7 -10   32.20    6.70
  -4  -7 -10   34.80   10.00
   4   7  10   28.30    7.90
   4   7  10   21.90    6.20
   4   7  10   29.20    8.60
   0  -8 -10   24.50    9.70
   0   8  10   22.50    8.80
  -1  -8 -10  536.45   22.50
  -1  -8 -10  466.75   24.90
  -1  -8 -10  441.56   28.10
   1   8  10  502.55   26.90
   1   8  10  498.05   22.10
  -2  -8 -10  140.29   11.00
  -2  -8 -10  139.79   13.80
  -2  -8 -10  147.09   17.60
   2   8  10  132.49   15.40
   2   8  10  138.69   10.70
   2   8  10  123.89   14.80
  -3  -8 -10  106.59   11.10
  -3  -8 -10   95.49   16.50
   3   8  10  101.69   15.20
   3   8  10  103.39   13.80
   3   8  10  104.19   11.10
  -4  -8 -10    6.90    9.60
  -4  -8 -10   -2.10    9.40
  -4  -8 -10   11.90    6.60
  -4  -8 -10   -8.30    6.80
   4   8  10   -6.40    7.30
   4   8  10    7.00    8.80
  -1  -9 -10   14.60   10.40
  -2  -9 -10  108.89   18.60
  -2  -9 -10  131.29   11.20
   2   9  10  111.79   15.60
   2   9  10  130.79   10.40
   2   1 -11   12.10    8.30
   2   1 -11   18.50    7.70
   2   1 -11   20.80   11.70
  -2  -1  11   21.40    8.50
  -2  -1  11   11.90    7.30
   1   1 -11    0.60    8.30
   1   1 -11   17.60    9.60
   1   1 -11   10.30   10.90
   1   1 -11    0.50    6.80
  -1  -1  11   -1.30    6.90
  -1  -1  11    7.90    7.60
  -1  -1  11   -5.60    5.80
   0   1 -11  202.98   13.60
   0   1 -11  129.59   16.80
   0  -1  11  183.18   14.30
   0  -1  11  178.98   12.50
   0  -1  11  165.98   15.60
   2   0 -11  347.27   19.10
   2   0 -11  265.57   20.50
   2   0 -11  291.57   23.80
   2   0 -11  334.67   19.80
  -2   0  11  315.67   19.70
  -2   0  11  341.97   20.10
   1   0 -11   -0.40   10.80
   1   0 -11    8.90    7.70
   1   0 -11   11.80    8.10
   1   0 -11    9.60    6.70
  -1   0  11   17.60    7.70
  -1   0  11   13.30    5.60
  -1   0  11    5.00    6.90
   0   0 -11  481.25   21.60
   0   0 -11  468.95   22.80
   0   0 -11  372.76   24.70
   0   0  11  414.06   21.10
   0   0  11  453.55   22.90
   0   0  11  447.26   24.00
  -1   0 -11   68.09   14.70
  -1   0 -11   48.10    9.90
   1   0  11   61.09   10.90
   1   0  11   45.90   10.20
   1   0  11   47.70    8.40
   3  -1 -11  -13.80    9.90
   3  -1 -11   -9.40    8.40
   3  -1 -11  -12.80   10.90
   3  -1 -11    5.00    7.70
  -3   1  11   -4.10    7.50
  -3   1  11   -0.40    5.40
  -3   1  11   -6.80    5.90
  -3   1  11  -16.50    8.10
   2  -1 -11   97.49   18.90
   2  -1 -11  151.08   13.20
   2  -1 -11  120.99   15.70
  -2   1  11  117.39   10.90
  -2   1  11  132.09   14.30
  -2   1  11  128.99   14.20
   1  -1 -11  146.19   18.80
   1  -1 -11  191.18   13.50
   1  -1 -11  183.38   14.20
   1  -1 -11  135.39   16.20
  -1   1  11  202.98   15.10
  -1   1  11  162.08   12.00
  -1   1  11  207.78   15.60
   0  -1 -11   12.10    7.00
   0  -1 -11   19.70   10.60
   0  -1 -11   14.50    8.40
   0  -1 -11   23.60    6.30
   0   1  11   21.70    6.90
   0   1  11   14.40    7.10
   0   1  11   15.40    5.70
  -1  -1 -11  641.74   26.50
  -1  -1 -11  541.75   30.00
   1   1  11  500.95   26.50
   1   1  11  646.74   27.80
   1   1  11  579.54   29.10
  -2  -1 -11   51.89    8.20
  -2  -1 -11   38.60    9.50
   2   1  11   45.80   10.50
   2   1  11   51.19   12.10
   2   1  11   28.60    9.10
   3  -2 -11  139.49   17.00
   3  -2 -11  154.28   19.10
  -3   2  11  142.39   15.70
  -3   2  11  155.68   10.80
  -3   2  11  127.59   12.70
  -3   2  11  177.38   15.90
   2  -2 -11  105.39   15.40
   2  -2 -11   89.59   17.50
  -2   2  11  135.59   13.80
  -2   2  11  112.09   11.10
  -2   2  11  123.69   14.50
   1  -2 -11  449.46   21.00
   1  -2 -11  347.77   23.20
   1  -2 -11  359.46   25.00
  -1   2  11  440.06   23.00
  -1   2  11  410.86   21.90
  -1   2  11  380.06   19.80
   0  -2 -11    8.00    9.40
   0  -2 -11   -2.30    7.90
   0  -2 -11   17.10    6.70
   0   2  11    1.90    6.90
   0   2  11    6.70    7.10
   0   2  11    7.50    5.40
  -1  -2 -11   25.10    9.10
  -1  -2 -11   29.20    6.00
   1   2  11   18.20    8.70
   1   2  11   21.70    7.00
   1   2  11   18.50    7.00
   1   2  11   15.40    5.40
  -2  -2 -11  132.49   15.90
  -2  -2 -11  164.88   10.60
   2   2  11  152.78   17.40
   2   2  11  135.39   12.60
   2   2  11  161.18   14.70
  -3  -2 -11   90.89   14.50
  -3  -2 -11   75.89   14.90
   3   2  11   59.69   11.00
   3   2  11   80.09   17.00
   3   2  11   52.19   12.40
   2  -3 -11   44.70   10.00
   2  -3 -11   55.09   11.50
  -2   3  11   96.39   13.80
  -2   3  11   57.59    9.60
  -2   3  11   79.59   13.30
   1  -3 -11    1.90    8.40
   1  -3 -11    8.10    9.70
   1  -3 -11    9.40    6.80
  -1   3  11   10.20    7.20
  -1   3  11   -1.70    6.90
  -1   3  11    2.50    5.40
   0  -3 -11   82.99   16.30
   0  -3 -11  102.19   15.30
   0   3  11  150.48   13.70
   0   3  11  121.19   10.70
   0   3  11  139.59   12.70
  -1  -3 -11  102.09   15.00
   1   3  11  116.19   11.90
   1   3  11  108.49   14.50
   1   3  11   96.29   12.80
  -2  -3 -11  449.56   26.80
  -2  -3 -11  570.54   22.70
   2   3  11  454.45   25.80
   2   3  11  482.05   27.40
  -3  -3 -11   14.60    8.50
   3   3  11   24.10    7.20
   3   3  11   -1.20    8.90
   2  -4 -11  442.86   28.10
   2  -4 -11  459.25   28.50
  -2   4  11  575.14   28.00
  -2   4  11  549.05   26.70
   1  -4 -11  106.99   11.10
   1  -4 -11   56.49   11.30
   1  -4 -11   94.59   15.30
  -1   4  11   93.09   12.40
  -1   4  11   82.99   13.50
   0  -4 -11   19.40    9.50
   0  -4 -11   17.60    8.70
   0   4  11   24.50    7.80
  -1  -4 -11   15.10    8.70
   1   4  11   15.00    6.80
   1   4  11   11.20    7.80
  -2  -4 -11   10.90    6.60
  -2  -4 -11   18.40    9.00
   2   4  11   -5.20    8.20
   2   4  11    4.90    6.50
  -3  -4 -11  156.38   17.30
   3   4  11  173.68   17.80
   3   4  11  159.08   15.00
   2  -5 -11   50.89   11.30
   2  -5 -11   58.69   15.70
  -2   5  11   72.39   14.90
  -2   5  11   86.99   13.20
   1  -5 -11   42.20   10.00
   1  -5 -11   25.00   10.10
  -1   5  11   50.29    9.20
  -1   5  11   45.90    8.70
   0  -5 -11   -9.80    8.60
   0  -5 -11   24.20    8.80
   0   5  11    9.00    7.30
  -1  -5 -11 1047.30   51.19
   1   5  11 1121.29   50.19
   1   5  11 1196.08   50.59
  -2  -5 -11   27.90    7.20
  -2  -5 -11   11.20    9.10
   2   5  11   10.60    8.50
   2   5  11   11.70    7.30
  -3  -5 -11   76.19   15.90
  -3  -5 -11  108.49   10.90
   3   5  11   91.09   16.30
   3   5  11   93.79   12.80
   1  -6 -11  197.78   19.90
  -1   6  11  256.57   18.80
   0  -6 -11    7.10    8.40
   0  -6 -11    8.30    9.70
   0   6  11   21.90    8.30
  -1  -6 -11   78.09   16.20
  -1  -6 -11  135.49   13.70
   1   6  11   97.69   14.30
  -2  -6 -11  467.15   20.30
  -2  -6 -11  392.46   25.90
   2   6  11  426.06   24.80
   2   6  11  416.36   24.40
  -3  -6 -11   18.60    9.50
  -3  -6 -11   20.30    6.30
  -3  -6 -11   22.80    6.90
   3   6  11    4.20    7.10
   3   6  11   10.50    8.90
   0  -7 -11  274.87   22.90
   0   7  11  326.87   21.60
  -1  -7 -11   63.59   13.20
  -1  -7 -11   43.40   11.00
   1   7  11   75.89   14.00
   1   7  11   59.59    8.80
  -2  -7 -11  160.68   14.20
  -2  -7 -11  106.19   18.00
  -2  -7 -11  149.39   11.00
   2   7  11  125.39   15.80
  -3  -7 -11    6.30    7.20
  -3  -7 -11    8.00   10.10
   3   7  11   32.00    9.60
   3   7  11   19.30    8.00
   3   7  11   13.40    6.70
   0  -3 -12   18.70   10.50
   0   3  12   55.59   14.00
   0   3  12   42.20    8.80
_computing_structure_solution     'SHELXT 2014/4 (Sheldrick, 2014)'
;
_shelx_hkl_checksum              69092
_shelx_res_file
;
TITL d8-1232_a.res in P-1
    shelx.res
    created by SHELXL-2016/6 at 15:55:18 on 05-May-2017
REM Old TITL d8-1232 in P-1
REM SHELXT solution in P-1
REM R1 0.077,  Rweak 0.007,  Alpha 0.068,  Orientation as input
REM Formula found by SHELXT:  C9 N2 O5 S Br
CELL  0.71073   6.8884   9.5036   9.6180   73.608   87.634   69.969
ZERR    2.000   0.0004   0.0006   0.0006    0.002    0.002    0.002
LATT  1
SFAC C H N O F S BR
UNIT 18 12 4 8 2 2 2
TEMP -173
SIZE 0.067 0.084 0.328
L.S. 10
BOND $H
LIST 4
ACTA
HTAB
FMAP 2
PLAN 20
WGHT    0.027600    0.283600
FVAR       0.85629
BR1   7    0.585552    0.249885    0.240913    11.00000    0.02001    0.01190 =
         0.02576   -0.00217   -0.00404   -0.00155
S1    6    1.021976   -0.012237    0.319792    11.00000    0.01598    0.01212 =
         0.01985   -0.00224    0.00073   -0.00474
F1    5    0.031591    0.393948    0.203137    11.00000    0.02172    0.01017 =
         0.03632    0.00144   -0.00117   -0.00339
O1    4   -0.261611    1.018267   -0.009672    11.00000    0.01240    0.01179 =
         0.02549   -0.00284    0.00065   -0.00314
O2    4    0.292759    0.568788    0.138955    11.00000    0.01286    0.01557 =
         0.03572   -0.00214   -0.00307   -0.00110
O3    4    1.256621   -0.463191    0.518418    11.00000    0.01727    0.01250 =
         0.03458   -0.00122    0.00075   -0.00391
O4    4    1.407130   -0.291758    0.398593    11.00000    0.01621    0.01390 =
         0.03083   -0.00094    0.00027   -0.00415
N1    3   -0.321255    0.787872    0.068547    11.00000    0.00805    0.01283 =
         0.02721   -0.00342   -0.00050   -0.00229
N3    3    0.012325    0.790684    0.061182    11.00000    0.01106    0.01115 =
         0.02202   -0.00263    0.00020   -0.00392
C2    1   -0.195362    0.874093    0.037525    11.00000    0.01270    0.01339 =
         0.01510   -0.00418    0.00119   -0.00325
C4    1    0.104766    0.629978    0.118538    11.00000    0.01545    0.01284 =
         0.01878   -0.00311   -0.00099   -0.00201
C5    1   -0.044647    0.550906    0.148662    11.00000    0.01928    0.00885 =
         0.01934   -0.00064   -0.00072   -0.00386
C6    1   -0.248083    0.627858    0.123660    11.00000    0.01818    0.01398 =
         0.02265   -0.00366    0.00175   -0.00771
AFIX  43
H6    2   -0.342000    0.572171    0.143905    11.00000   -1.20000
AFIX   0
C7    1    1.046513   -0.203544    0.409671    11.00000    0.01931    0.01232 =
         0.01904   -0.00343   -0.00039   -0.00524
C8    1    0.858031   -0.220482    0.438703    11.00000    0.02045    0.01428 =
         0.02523   -0.00250    0.00015   -0.00716
AFIX  43
H8    2    0.841631   -0.317163    0.487976    11.00000   -1.20000
AFIX   0
C9    1    0.690703   -0.078636    0.387446    11.00000    0.01599    0.01766 =
         0.02917   -0.00526    0.00014   -0.00640
AFIX  43
H9    2    0.549202   -0.068797    0.397146    11.00000   -1.20000
AFIX   0
C10   1    0.757720    0.042732    0.322141    11.00000    0.01593    0.01485 =
         0.02016   -0.00470   -0.00190   -0.00243
C11   1    1.245355   -0.330623    0.447421    11.00000    0.01829    0.01458 =
         0.01956   -0.00491   -0.00080   -0.00536
H1    2   -0.437434    0.833728    0.053716    11.00000    0.02238
H3    2    0.092536    0.845584    0.042919    11.00000    0.02390
H4    2    1.513591   -0.371597    0.425171    11.00000    0.04718
HKLF 4
REM  d8-1232_a.res in P-1
REM R1 =  0.0191 for    2194 Fo > 4sig(Fo)  and  0.0210 for all    2317 data
REM    175 parameters refined using      0 restraints
END
WGHT      0.0280      0.2713
REM Instructions for potential hydrogen bonds
EQIV $1 x-1, y, z
HTAB C6 O2_$1
EQIV $2 -x+2, -y-1, -z+1
HTAB C8 O3_$2
HTAB C9 O4_$1
EQIV $3 -x-1, -y+2, -z
HTAB N1 O1_$3
EQIV $4 -x, -y+2, -z
HTAB N3 O1_$4
EQIV $5 -x+3, -y-1, -z+1
HTAB O4 O3_$5
REM Highest difference peak  0.324,  deepest hole -0.395,  1-sigma level  0.065
Q1    1   0.4412  0.2384  0.2170  11.00000  0.05    0.32
Q2    1   0.9643 -0.2153  0.4402  11.00000  0.05    0.31
Q3    1   0.7202 -0.0065  0.3751  11.00000  0.05    0.30
Q4    1   0.0213  0.5952  0.1491  11.00000  0.05    0.29
Q5    1   0.4530  0.2429  0.3303  11.00000  0.05    0.28
Q6    1   0.8696  0.0170  0.3162  11.00000  0.05    0.27
Q7    1   1.1384 -0.2558  0.4228  11.00000  0.05    0.26
Q8    1  -0.1351  0.5928  0.0946  11.00000  0.05    0.25
Q9    1   0.7195 -0.0231  0.3240  11.00000  0.05    0.24
Q10   1   0.7838  0.2932  0.2511  11.00000  0.05    0.24
Q11   1   1.0502 -0.1260  0.3739  11.00000  0.05    0.24
Q12   1   0.5662  0.2588  0.3653  11.00000  0.05    0.24
Q13   1  -0.2543  0.8192  0.0736  11.00000  0.05    0.23
Q14   1   0.7606  0.2602  0.1428  11.00000  0.05    0.22
Q15   1  -0.1357  0.5923  0.1705  11.00000  0.05    0.21
Q16   1   0.7258  0.2860  0.3424  11.00000  0.05    0.20
Q17   1   0.2999  0.2355  0.2738  11.00000  0.05    0.19
Q18   1   0.7846 -0.1583  0.4083  11.00000  0.05    0.19
Q19   1   0.6286  0.3856  0.2381  11.00000  0.05    0.18
Q20   1   1.0507 -0.1958  0.4403  11.00000  0.05    0.18
;
_shelx_res_checksum              42816
loop_
_space_group_symop_operation_xyz
'x, y, z'
'-x, -y, -z'
loop_
_atom_site_type_symbol
_atom_site_label
_atom_site_fract_x
_atom_site_fract_y
_atom_site_fract_z
_atom_site_U_iso_or_equiv
_atom_site_adp_type
_atom_site_calc_flag
_atom_site_occupancy
Br Br1 0.58555(3) 0.24988(2) 0.24091(2) 0.02083(7) Uani d 1
S S1 1.02198(6) -0.01224(5) 0.31979(5) 0.01651(10) Uani d 1
F F1 0.03159(16) 0.39395(11) 0.20314(12) 0.0250(2) Uani d 1
O O1 -0.26161(18) 1.01827(13) -0.00967(14) 0.0174(3) Uani d 1
O O2 0.29276(19) 0.56879(14) 0.13895(15) 0.0234(3) Uani d 1
O O3 1.25662(19) -0.46319(14) 0.51842(15) 0.0230(3) Uani d 1
O O4 1.4071(2) -0.29176(15) 0.39859(15) 0.0218(3) Uani d 1
N N1 -0.3213(2) 0.78787(17) 0.06855(17) 0.0168(3) Uani d 1
N N3 0.0123(2) 0.79068(16) 0.06118(16) 0.0152(3) Uani d 1
C C2 -0.1954(2) 0.87409(19) 0.03752(18) 0.0141(3) Uani d 1
C C4 0.1048(3) 0.62998(19) 0.11854(19) 0.0167(3) Uani d 1
C C5 -0.0446(3) 0.55091(19) 0.14866(19) 0.0168(3) Uani d 1
C C6 -0.2481(3) 0.6279(2) 0.12366(19) 0.0180(3) Uani d 1
H H6 -0.342000 0.572171 0.143905 0.022 Uiso calc 1
C C7 1.0465(3) -0.20354(19) 0.40967(19) 0.0171(3) Uani d 1
C C8 0.8580(3) -0.2205(2) 0.4387(2) 0.0203(4) Uani d 1
H H8 0.841631 -0.317163 0.487976 0.024 Uiso calc 1
C C9 0.6907(3) -0.0786(2) 0.3874(2) 0.0211(4) Uani d 1
H H9 0.549202 -0.068797 0.397146 0.025 Uiso calc 1
C C10 0.7577(3) 0.0427(2) 0.32214(19) 0.0177(3) Uani d 1
C C11 1.2454(3) -0.3306(2) 0.44742(19) 0.0175(3) Uani d 1
H H1 -0.437(4) 0.834(3) 0.054(2) 0.022(6) Uiso d 1
H H3 0.093(4) 0.846(3) 0.043(2) 0.024(5) Uiso d 1
H H4 1.514(5) -0.372(3) 0.425(3) 0.047(8) Uiso d 1
loop_
_atom_site_aniso_label
_atom_site_aniso_U_11
_atom_site_aniso_U_22
_atom_site_aniso_U_33
_atom_site_aniso_U_12
_atom_site_aniso_U_13
_atom_site_aniso_U_23
Br1 0.02001(11) 0.01190(10) 0.02576(12) -0.00155(7) -0.00404(7) -0.00217(7)
S1 0.0160(2) 0.0121(2) 0.0199(2) -0.00474(16) 0.00073(16) -0.00224(16)
F1 0.0217(5) 0.0102(5) 0.0363(6) -0.0034(4) -0.0012(5) 0.0014(4)
O1 0.0124(6) 0.0118(6) 0.0255(7) -0.0031(4) 0.0007(5) -0.0028(5)
O2 0.0129(6) 0.0156(6) 0.0357(8) -0.0011(5) -0.0031(5) -0.0021(5)
O3 0.0173(6) 0.0125(6) 0.0346(8) -0.0039(5) 0.0007(5) -0.0012(5)
O4 0.0162(6) 0.0139(6) 0.0308(7) -0.0042(5) 0.0003(5) -0.0009(5)
N1 0.0080(7) 0.0128(7) 0.0272(8) -0.0023(6) -0.0005(6) -0.0034(6)
N3 0.0111(7) 0.0111(7) 0.0220(8) -0.0039(5) 0.0002(6) -0.0026(6)
C2 0.0127(8) 0.0134(8) 0.0151(8) -0.0033(6) 0.0012(6) -0.0042(6)
C4 0.0154(8) 0.0128(8) 0.0188(9) -0.0020(6) -0.0010(7) -0.0031(6)
C5 0.0193(8) 0.0088(7) 0.0193(9) -0.0039(6) -0.0007(7) -0.0006(6)
C6 0.0182(8) 0.0140(8) 0.0227(9) -0.0077(7) 0.0018(7) -0.0037(7)
C7 0.0193(9) 0.0123(8) 0.0190(9) -0.0052(6) -0.0004(7) -0.0034(6)
C8 0.0204(9) 0.0143(8) 0.0252(10) -0.0072(7) 0.0002(7) -0.0025(7)
C9 0.0160(9) 0.0177(9) 0.0292(10) -0.0064(7) 0.0001(7) -0.0053(7)
C10 0.0159(8) 0.0148(8) 0.0202(9) -0.0024(6) -0.0019(7) -0.0047(7)
C11 0.0183(8) 0.0146(8) 0.0196(9) -0.0054(7) -0.0008(7) -0.0049(7)
loop_
_atom_type_symbol
_atom_type_description
_atom_type_scat_dispersion_real
_atom_type_scat_dispersion_imag
_atom_type_scat_source
C C 0.0033 0.0016 'International Tables Vol C Tables 4.2.6.8 and 6.1.1.4'
H H 0.0000 0.0000 'International Tables Vol C Tables 4.2.6.8 and 6.1.1.4'
N N 0.0061 0.0033 'International Tables Vol C Tables 4.2.6.8 and 6.1.1.4'
O O 0.0106 0.0060 'International Tables Vol C Tables 4.2.6.8 and 6.1.1.4'
F F 0.0171 0.0103 'International Tables Vol C Tables 4.2.6.8 and 6.1.1.4'
S S 0.1246 0.1234 'International Tables Vol C Tables 4.2.6.8 and 6.1.1.4'
Br Br -0.2901 2.4595 'International Tables Vol C Tables 4.2.6.8 and 6.1.1.4'
loop_
_geom_angle_atom_site_label_1
_geom_angle_atom_site_label_2
_geom_angle_atom_site_label_3
_geom_angle
C10 S1 C7 90.45(8)
C11 O4 H4 108.2(19)
C2 N1 C6 122.94(15)
C2 N1 H1 116.0(17)
C6 N1 H1 121.1(17)
C2 N3 C4 126.93(14)
C2 N3 H3 115.6(15)
C4 N3 H3 117.4(15)
O1 C2 N1 122.87(15)
O1 C2 N3 121.65(15)
N1 C2 N3 115.48(14)
O2 C4 N3 121.07(16)
O2 C4 C5 126.42(15)
N3 C4 C5 112.51(14)
C6 C5 F1 121.13(15)
C6 C5 C4 122.25(15)
F1 C5 C4 116.62(15)
C5 C6 N1 119.82(15)
C5 C6 H6 120.1
N1 C6 H6 120.1
C8 C7 C11 124.66(16)
C8 C7 S1 111.96(13)
C11 C7 S1 123.38(13)
C7 C8 C9 112.72(16)
C7 C8 H8 123.6
C9 C8 H8 123.6
C10 C9 C8 111.60(16)
C10 C9 H9 124.2
C8 C9 H9 124.2
C9 C10 S1 113.27(13)
C9 C10 Br1 125.04(14)
S1 C10 Br1 121.68(10)
O3 C11 O4 123.82(16)
O3 C11 C7 121.27(16)
O4 C11 C7 114.91(15)
loop_
_geom_bond_atom_site_label_1
_geom_bond_atom_site_label_2
_geom_bond_distance
Br1 C10 1.8712(17)
S1 C10 1.7143(18)
S1 C7 1.7308(17)
F1 C5 1.3492(19)
O1 C2 1.237(2)
O2 C4 1.222(2)
O3 C11 1.229(2)
O4 C11 1.319(2)
O4 H4 0.84(3)
N1 C2 1.356(2)
N1 C6 1.375(2)
N1 H1 0.77(2)
N3 C2 1.369(2)
N3 C4 1.389(2)
N3 H3 0.86(2)
C4 C5 1.446(2)
C5 C6 1.335(2)
C6 H6 0.9500
C7 C8 1.370(3)
C7 C11 1.458(2)
C8 C9 1.413(2)
C8 H8 0.9500
C9 C10 1.367(2)
C9 H9 0.9500
loop_
_geom_hbond_atom_site_label_D
_geom_hbond_atom_site_label_H
_geom_hbond_atom_site_label_A
_geom_hbond_site_symmetry_A
_geom_hbond_distance_DH
_geom_hbond_distance_HA
_geom_hbond_distance_DA
_geom_hbond_angle_DHA
_geom_hbond_publ_flag
N1 H1 O1 2_475 0.76(3) 2.05(3) 2.809(2) 173(3) yes
N3 H3 O1 2_575 0.87(3) 1.97(3) 2.837(2) 176(2) yes
O4 H4 O3 2_846 0.84(3) 1.77(3) 2.614(2) 178(4) yes
C6 H6 O2 1_455 0.95 2.53 3.387(3) 150 yes
C8 H8 O3 2_746 0.95 2.42 3.276(2) 150 yes

_cod_database_fobs_code 2020808
