#------------------------------------------------------------------------------
#$Date: 2018-01-17 08:25:23 +0200 (Wed, 17 Jan 2018) $
#$Revision: 205307 $
#$URL: file:///home/coder/svn-repositories/cod/cif/2/02/09/2020905.cif $
#------------------------------------------------------------------------------
#
# This file is available in the Crystallography Open Database (COD),
# http://www.crystallography.net/. The original data for this entry
# were provided by IUCr Journals, http://journals.iucr.org/.
#
# The file may be used within the scientific community so long as
# proper attribution is given to the journal article from which the
# data were obtained.
#
data_2020905
loop_
_publ_author_name
'Liu, Feng-Yi'
'Zhou, Dong-Mei'
'Zhao, Xiao-Lan'
'Kou, Jun-Feng'
_publ_section_title
;
 Complexes of nickel(II) and copper(II) with 1,2,4-triazole-3-carboxylic
 acid and of cobalt(III) with 3-amino-1,2,4-triazole-5-carboxylic acid
;
_journal_coeditor_code           FP3038
_journal_issue                   11
_journal_name_full               'Acta Crystallographica Section C'
_journal_page_first              1010
_journal_page_last               1016
_journal_paper_doi               10.1107/S2053229617012943
_journal_volume                  73
_journal_year                    2017
_chemical_formula_iupac          '[Ni2 (C3 H N3 O2)2 (N H3)6], 4H2 O'
_chemical_formula_moiety         'C6 H20 N12 Ni2 O4, 4(H2 O)'
_chemical_formula_sum            'C6 H28 N12 Ni2 O8'
_chemical_formula_weight         513.78
_chemical_name_systematic
;Bis(\m-1,2,4-triazol-4-ide-3-carboxylato)-\k^3^<i>N</i>^2^,<i>O</i>:<i>N</i>^1^;\k^3^<i>N</i>^1^:<i>N</i>^2^,<i>O</i>-bis[triamminenickel(II)]
tetrahydrate
;
_space_group_crystal_system      triclinic
_space_group_IT_number           2
_space_group_name_Hall           '-P 1'
_space_group_name_H-M_alt        'P -1'
_symmetry_space_group_name_Hall  '-P 1'
_symmetry_space_group_name_H-M   'P -1'
_atom_sites_solution_hydrogens   geom
_atom_sites_solution_primary     direct
_atom_sites_solution_secondary   difmap
_audit_creation_method           SHELXL-2014/7
_cell_angle_alpha                103.16(3)
_cell_angle_beta                 107.48(3)
_cell_angle_gamma                106.69(3)
_cell_formula_units_Z            1
_cell_length_a                   7.1226(14)
_cell_length_b                   9.0134(18)
_cell_length_c                   9.1203(18)
_cell_measurement_reflns_used    4751
_cell_measurement_temperature    293(2)
_cell_measurement_theta_max      24.996
_cell_measurement_theta_min      3.226
_cell_volume                     502.4(3)
_computing_cell_refinement       CrystalStructure
_computing_data_collection
;
CrystalStructure (Rigaku/MSC, 2006)
;
_computing_data_reduction        CrystalStructure
_computing_molecular_graphics
;
SHELXTL (Sheldrick, 2008)
;
_computing_publication_material  SHELXTL
_computing_structure_refinement
;
SHELXL-2014/7 (Sheldrick, 2015)
;
_computing_structure_solution
;
SHELXL-2014/7 (Sheldrick, 2015)
;
_diffrn_ambient_temperature      293(2)
_diffrn_measured_fraction_theta_full 0.996
_diffrn_measured_fraction_theta_max 0.996
_diffrn_measurement_device_type  'Rigaku MM007-HF CCD (Saturn 724+)'
_diffrn_measurement_method       '\w scans at fixed \c = 45\%'
_diffrn_radiation_type           MoK\a
_diffrn_radiation_wavelength     0.71073
_diffrn_reflns_av_R_equivalents  0.0342
_diffrn_reflns_limit_h_max       8
_diffrn_reflns_limit_h_min       -8
_diffrn_reflns_limit_k_max       10
_diffrn_reflns_limit_k_min       -10
_diffrn_reflns_limit_l_max       10
_diffrn_reflns_limit_l_min       -10
_diffrn_reflns_number            3780
_diffrn_reflns_theta_full        24.996
_diffrn_reflns_theta_max         24.996
_diffrn_reflns_theta_min         3.226
_exptl_absorpt_coefficient_mu    1.935
_exptl_absorpt_correction_T_max  0.616
_exptl_absorpt_correction_T_min  0.565
_exptl_absorpt_correction_type   multi-scan
_exptl_absorpt_process_details   SADABS
_exptl_crystal_colour            green
_exptl_crystal_density_diffrn    1.698
_exptl_crystal_density_method    'not measured'
_exptl_crystal_description       block
_exptl_crystal_F_000             268
_exptl_crystal_size_max          0.300
_exptl_crystal_size_mid          0.270
_exptl_crystal_size_min          0.250
_refine_diff_density_max         0.370
_refine_diff_density_min         -0.340
_refine_ls_extinction_method     none
_refine_ls_goodness_of_fit_ref   1.060
_refine_ls_hydrogen_treatment    mixed
_refine_ls_matrix_type           full
_refine_ls_number_parameters     166
_refine_ls_number_reflns         1767
_refine_ls_number_restraints     15
_refine_ls_restrained_S_all      1.065
_refine_ls_R_factor_all          0.0294
_refine_ls_R_factor_gt           0.0275
_refine_ls_shift/su_max          0.000
_refine_ls_shift/su_mean         0.000
_refine_ls_structure_factor_coef Fsqd
_refine_ls_weighting_details
'w=1/[\s^2^(Fo^2^)+(0.0418P)^2^] where P=(Fo^2^+2Fc^2^)/3'
_refine_ls_weighting_scheme      calc
_refine_ls_wR_factor_gt          0.0700
_refine_ls_wR_factor_ref         0.0711
_reflns_number_gt                1641
_reflns_number_total             1767
_reflns_threshold_expression     'I > 2\s(I)'
_cod_data_source_file            fp3038sup1.cif
_cod_data_source_block           I
_cod_original_cell_volume        502.4(2)
_cod_database_code               2020905
_shelx_space_group_comment
;
The symmetry employed for this shelxl refinement is uniquely defined
by the following loop, which should always be used as a source of
symmetry information in preference to the above space-group names.
They are only intended as comments.
;
_shelx_estimated_absorpt_t_min   0.594
_shelx_estimated_absorpt_t_max   0.643
_shelx_hkl_file
;
   0   0   2 1725.11   73.24
   0   0  -2 1723.65   69.89
   0   0   3  109.56    3.96
   0   0   3  109.52    4.05
   0   0  -3  103.88    3.84
   0   0   4   16.66    1.51
   0   0   4    9.94    1.48
   0   0  -4    8.79    1.42
   0   0   5  991.14   40.36
   0   0   5  987.95   40.03
   0   0  -5  971.36   42.00
   0   0   6  383.30   15.96
   0   0   6  383.85   16.59
   0   0  -6  367.53   15.38
   0   0   7   37.93    4.08
   0   0   7   38.66    5.23
   0   0  -7   36.79    3.75
   0   0   8   16.29    2.89
   0   0   8   15.68    3.25
   0   0  -8   15.52    2.82
   0   0   9   26.63    3.98
   0   0   9   27.48    4.37
   0   0  -9   27.14    3.94
   0   0  10   73.98    7.63
   0   0  10   76.77    8.00
   0   0 -10   77.81    7.24
   0   1 -10   18.69    3.97
   0  -1  10   18.16    5.31
   0  -1  10   18.40    3.91
   0   1  -9    3.10    1.92
   0  -1   9    3.66    1.92
   0  -1   9    3.01    1.91
   0   1  -8   18.79    3.26
   0  -1   8   18.69    3.31
   0  -1   8   23.99    4.09
   0   1  -7   53.76    5.05
   0  -1   7   55.62    5.10
   0  -1   7   57.08    4.49
   0   1  -6 1393.57   66.32
   0  -1   6 1436.42   72.70
   0  -1   6 1473.19   67.53
   0   1  -5  339.26   12.97
   0  -1   5  345.94   13.34
   0   1  -4 1179.70   47.26
   0  -1   4 1195.75   47.64
   0   1  -3  194.85    6.48
   0  -1   3  194.90    6.52
   0   1  -2 1329.52   50.78
   0  -1   2 1305.37   50.06
   0   1   1  748.88   23.00
   0   1   1  737.01   20.95
   0  -1  -1  664.77   21.09
   0  -1  -1  721.94   20.18
   0   1   2 1232.68   43.97
   0   1   2 1226.92   46.90
   0  -1  -2 1225.94   44.92
   0  -1  -2 1234.94   45.27
   0   1   3   52.35    2.79
   0   1   3   48.76    2.77
   0  -1  -3   48.16    2.06
   0   1   4 1078.63   41.60
   0   1   4 1071.31   43.96
   0  -1  -4 1064.18   40.62
   0   1   5    7.37    1.44
   0   1   5    7.72    1.78
   0  -1  -5    5.53    1.77
   0   1   6  201.64   11.38
   0   1   6  207.58   10.89
   0  -1  -6  193.17    8.70
   0   1   7  254.65   13.69
   0   1   7  240.13   11.53
   0  -1  -7  242.20   11.13
   0   1   8    3.82    1.61
   0   1   8    2.89    2.06
   0  -1  -8    3.37    1.56
   0   1   9  222.59   14.67
   0   1   9  196.84   11.49
   0  -1  -9  215.99   12.05
   0   1  10   11.88    3.15
   0   1  10   14.81    5.35
   0  -1 -10   11.93    3.12
   0   2 -11    0.07    1.95
   0  -2  11    0.85    1.68
   0  -2  11    2.41    1.88
   0   2 -10  111.49    9.98
   0  -2  10  106.54    9.84
   0  -2  10  122.54    8.73
   0   2  -9  110.80    8.88
   0  -2   9  103.38    8.60
   0  -2   9  104.62    7.29
   0   2  -8   23.21    3.59
   0  -2   8   18.53    3.47
   0  -2   8   22.35    2.82
   0   2  -7  817.19   39.37
   0  -2   7  862.30   36.63
   0  -2   7  805.85   37.64
   0   2  -6    1.30    1.40
   0  -2   6    3.50    1.37
   0   2  -5  845.22   34.38
   0  -2   5  864.55   34.60
   0   2  -4  133.19    5.69
   0  -2   4  138.57    5.55
   0   2  -3  539.68   18.12
   0  -2   3  518.24   17.10
   0   2  -2    8.94    1.23
   0  -2   2    8.70    1.18
   0   2  -1   15.64    1.07
   0  -2   1    2.02    0.79
   0   2   0 1369.73   47.45
   0   2   0 1257.49   46.13
   0  -2   0 1254.92   48.42
   0   2   1   51.61    1.61
   0   2   1   49.04    2.43
   0  -2  -1   52.45    1.57
   0  -2  -1   51.40    2.67
   0   2   2  556.82   18.97
   0   2   2  556.34   16.65
   0  -2  -2  528.31   20.57
   0  -2  -2  570.76   16.68
   0   2   3  294.03    9.82
   0   2   3  303.22   11.21
   0  -2  -3  295.51    9.37
   0  -2  -3  300.73    8.44
   0   2   4   58.79    4.10
   0   2   4   56.62    2.84
   0  -2  -4   60.16    3.38
   0   2   5  290.15   11.05
   0   2   5  293.77   13.74
   0  -2  -5  283.38   12.10
   0   2   6  246.24   10.39
   0   2   6  259.38   13.57
   0  -2  -6  251.16   12.17
   0   2   7    0.17    0.88
   0   2   7    0.85    1.28
   0  -2  -7    0.67    0.84
   0   2   8  315.38   15.26
   0   2   8  343.58   20.44
   0  -2  -8  332.67   15.30
   0   2   9   65.94    7.76
   0   2   9   56.43    5.28
   0  -2  -9   62.86    5.36
   0   3 -11  215.05   17.29
   0  -3  11  218.15   13.75
   0  -3  11  207.89   16.45
   0   3 -10   53.93    7.22
   0  -3  10   49.76    6.82
   0  -3  10   58.21    5.23
   0   3  -9   84.18    8.05
   0  -3   9   87.75    7.89
   0  -3   9   82.95    5.71
   0   3  -8  162.69   11.07
   0  -3   8  174.47    6.44
   0  -3   8  169.78   10.91
   0   3  -7    9.21    2.63
   0  -3   7   10.02    2.58
   0   3  -6  551.72   24.35
   0  -3   6  555.27   24.06
   0   3  -5  775.54   32.10
   0  -3   5  792.83   32.11
   0   3  -4  375.21   14.12
   0  -3   4  378.40   13.59
   0   3  -3 1696.04   73.44
   0  -3   3 1717.75   76.26
   0   3  -2  667.59   23.18
   0  -3   2  669.86   21.52
   0   3  -1    3.94    0.74
   0  -3   1    4.96    0.66
   0   3   0   11.25    0.76
   0   3   0   12.01    1.04
   0  -3   0   11.09    1.12
   0   3   1  581.22   15.99
   0   3   1  548.15   18.87
   0  -3  -1  595.99   16.28
   0  -3  -1  534.34   18.75
   0   3   2  683.20   26.32
   0   3   2  766.99   24.13
   0  -3  -2  765.58   28.58
   0  -3  -2  731.37   23.13
   0   3   3   15.38    2.07
   0   3   3   15.66    1.52
   0  -3  -3   13.20    2.33
   0  -3  -3   13.70    1.33
   0   3   4  485.08   24.78
   0   3   4  489.36   18.27
   0  -3  -4  502.91   18.10
   0   3   5   86.40    4.41
   0   3   5   98.17    9.11
   0  -3  -5   96.94    5.23
   0   3   6    3.30    1.13
   0   3   6    3.88    1.97
   0  -3  -6    3.52    1.44
   0   3   7  193.35    9.26
   0   3   7  210.86   13.95
   0  -3  -7  217.53   11.38
   0   3   8    0.96    1.26
   0   3   8   -0.03    0.73
   0  -3  -8   -0.49    0.74
   0   3   9  193.92   16.12
   0   3   9  181.19   10.76
   0  -3  -9  201.62   13.77
   0   4 -11   24.53    5.13
   0  -4  11    6.86    5.01
   0  -4  11   18.82    4.30
   0   4 -10   83.75    9.75
   0  -4  10   88.79    7.80
   0  -4  10   90.44    9.15
   0   4  -9  317.38   20.34
   0  -4   9  329.56   14.41
   0  -4   9  302.91   18.72
   0   4  -8   11.99    3.23
   0  -4   8   12.80    2.96
   0   4  -7  563.80   27.64
   0  -4   7  555.10   26.62
   0   4  -6   49.90    4.32
   0  -4   6   31.53    3.95
   0   4  -5  200.64    9.37
   0  -4   5  193.15   10.59
   0   4  -4  577.53   21.83
   0  -4   4  565.87   21.20
   0   4  -3   38.43    2.54
   0  -4   3   37.87    2.38
   0   4  -2  640.11   22.25
   0  -4   2  750.79   24.70
   0  -4   2  718.84   23.73
   0  -4   1  698.56   25.02
   0   4   0    2.91    0.54
   0   4   0    3.47    0.76
   0  -4   0    2.40    0.88
   0   4   1  813.65   26.08
   0   4   1  760.64   29.12
   0  -4  -1  780.40   32.83
   0   4   2    4.87    1.47
   0   4   2    6.15    0.80
   0  -4  -2    4.60    1.60
   0  -4  -2    5.90    0.74
   0   4   3 1060.06   48.48
   0   4   3 1078.98   41.77
   0  -4  -3 1127.36   42.05
   0  -4  -3 1048.22   49.66
   0   4   4  307.73   11.54
   0   4   4  320.98   15.75
   0  -4  -4  312.49   10.06
   0   4   5   63.48    3.47
   0   4   5   74.68    8.67
   0  -4  -5   86.59    4.39
   0   4   6  175.20    9.04
   0   4   6  193.30   12.89
   0  -4  -6  193.34    7.74
   0   4   7    9.19    2.43
   0   4   7   12.12    3.55
   0  -4  -7    9.88    2.38
   0   4   8  144.01    9.97
   0   4   8  146.65   14.27
   0  -4  -8  158.09    8.32
   0   5 -11   48.55    7.63
   0  -5  11   37.92    4.24
   0  -5  11   40.51    7.41
   0   5 -10  164.17   14.40
   0  -5  10  160.87   13.53
   0  -5  10  164.04    8.78
   0   5  -9    5.69    2.80
   0  -5   9    4.82    2.68
   0   5  -8  126.11   10.05
   0  -5   8  133.34    9.33
   0   5  -7   56.29    5.94
   0  -5   7   63.26    5.63
   0   5  -6   44.18    4.65
   0  -5   6   42.06    4.26
   0   5  -5  367.74   16.49
   0  -5   5  375.00   15.69
   0   5  -4    4.20    1.69
   0  -5   4    3.50    1.16
   0   5  -3 1719.08   79.82
   0  -5   3 1845.51   83.41
   0  -5   3 1862.35   79.61
   0   5  -2   98.84    3.83
   0  -5   2  101.79    4.68
   0  -5   1  380.75   14.47
   0   5   0  606.13   24.01
   0   5   0  654.19   19.75
   0   5   0  593.25   18.32
   0  -5   0  607.98   22.88
   0   5   1    3.83    0.67
   0   5   1    3.58    1.23
   0  -5  -1    4.20    1.46
   0   5   2 1388.80   55.15
   0   5   2 1309.23   63.24
   0  -5  -2 1561.30   72.29
   0   5   3  453.11   15.12
   0   5   3  429.74   20.80
   0  -5  -3  411.09   21.51
   0  -5  -3  439.99   13.98
   0   5   4  130.15    5.38
   0   5   4  132.88    9.14
   0  -5  -4  136.65    5.21
   0   5   5  503.80   28.31
   0   5   5  515.72   20.20
   0  -5  -5  514.94   18.03
   0   5   6    9.87    2.08
   0   5   6   11.82    3.77
   0  -5  -6   12.90    2.05
   0   5   7  114.62    5.98
   0   5   7  115.11   12.03
   0  -5  -7  116.28    5.91
   0   6 -11   14.70    4.87
   0  -6  11   13.32    4.43
   0  -6  11   10.09    3.01
   0   6 -10    0.55    1.81
   0  -6  10    0.60    1.63
   0  -6  10    0.36    0.45
   0   6  -9  125.19   11.76
   0  -6   9  136.42   11.05
   0   6  -8   54.34    6.41
   0  -6   8   54.09    5.96
   0   6  -7   93.93    7.83
   0  -6   7  107.44    7.44
   0   6  -6  110.66    7.77
   0  -6   6  108.70    7.10
   0   6  -5   54.21    4.76
   0  -6   5   54.44    4.15
   0   6  -4  437.42   18.31
   0  -6   4  480.87   18.85
   0  -6   4  486.25   15.68
   0   6  -3  336.00   13.15
   0  -6   3  393.99   12.91
   0   6  -2  312.32    9.80
   0  -6   2  240.17    9.54
   0   6  -1 1557.54   65.93
   0  -6   1 1559.97   74.72
   0   6   0    2.48    1.06
   0   6   0    3.14    0.68
   0   6   0    3.02    0.77
   0  -6   0    2.02    1.31
   0   6   1  536.47   16.48
   0   6   1  594.33   19.18
   0   6   1  614.31   25.23
   0  -6  -1  562.02   25.30
   0   6   2  115.09    4.14
   0   6   2  127.33    7.47
   0  -6  -2  124.17    8.26
   0   6   3   28.53    1.80
   0   6   3   26.24    3.91
   0  -6  -3   24.31    4.26
   0   6   4  264.36   16.49
   0   6   4  277.09    9.70
   0  -6  -4  282.41    9.23
   0   6   5    0.84    1.14
   0   6   5   -0.18    0.53
   0  -6  -5   -0.09    0.48
   0   6   6   76.06    9.36
   0   7 -10   80.64   10.48
   0  -7  10   78.63    9.14
   0   7  -9    1.11    1.78
   0  -7   9    0.40    1.56
   0   7  -8   82.47    8.48
   0  -7   8   92.50    7.68
   0   7  -7  132.43    9.83
   0  -7   7  144.32    8.96
   0   7  -6   12.43    2.70
   0  -7   6   11.35    2.41
   0   7  -5  597.89   27.33
   0  -7   5  629.04   24.06
   0  -7   5  592.36   25.87
   0   7  -4  149.02   10.18
   0  -7   4  186.94    6.85
   0   7  -3  209.32   11.01
   0  -7   3  241.48   10.75
   0   7  -2  516.28   20.95
   0  -7   2  644.85   24.49
   0   7  -1    1.93    0.85
   0   7  -1    2.70    0.74
   0  -7   1    2.72    1.26
   0   7   0  339.41   11.68
   0   7   0  393.85   12.12
   0  -7   0  380.70   20.88
   0   7   1   39.70    3.79
   0   7   1   38.29    2.23
   0   7   1   37.22    1.96
   0  -7  -1   43.12    4.46
   0   7   2    1.55    1.34
   0   7   2    1.25    0.41
   0   7   2    0.77    0.64
   0  -7  -2    1.62    1.43
   0   7   3    7.05    2.33
   0   7   3    4.29    0.86
   0  -7  -3    5.67    1.55
   0   7   4   -2.04    1.43
   0  -7  -4    0.32    0.92
   0   7   5   91.81   10.04
   0   8 -10   15.76    5.22
   0  -8  10   16.19    4.55
   0   8  -9   39.19    6.33
   0  -8   9   33.97    7.49
   0   8  -8  165.13   12.33
   0  -8   8  159.14   11.18
   0   8  -7   58.92    6.34
   0  -8   7   60.47    5.87
   0   8  -6  410.01   21.29
   0  -8   6  482.45   19.02
   0  -8   6  437.30   17.10
   0   8  -5    1.67    1.42
   0  -8   5    0.21    0.94
   0   8  -4   48.15    3.88
   0  -8   4   61.05    4.51
   0   8  -3   40.22    2.95
   0  -8   3   37.74    3.07
   0   8  -2   55.57    3.80
   0  -8   2   75.15    4.57
   0   8  -1  424.04   14.33
   0   8  -1  386.82   14.37
   0  -8   1  443.48   19.68
   0   8   0   10.24    1.48
   0   8   0   10.88    1.31
   0  -8   0   10.70    2.58
   0   8   1   78.69    2.77
   0   8   1   64.43    2.72
   0  -8  -1   72.89    6.50
   0   8   2   70.42    6.72
   0  -8  -2   78.59    7.48
   0   8   3   -1.24    1.36
   0  -8  -3    0.07    0.88
   0   8   4  150.84   13.22
   0   9  -9   43.62    7.03
   0  -9   9   42.21    6.41
   0   9  -8    6.64    2.81
   0  -9   8    4.32    1.70
   0  -9   8    7.06    1.60
   0   9  -7  197.85   12.22
   0  -9   7  168.71    8.82
   0   9  -6    8.80    3.64
   0  -9   6   12.01    2.28
   0   9  -5   98.85    6.90
   0  -9   5  107.80    5.57
   0   9  -4   70.02    4.82
   0  -9   4   71.24    4.57
   0   9  -3    5.29    1.78
   0   9  -3    6.96    1.68
   0  -9   3    4.35    1.68
   0   9  -2   86.80    4.04
   0   9  -2  123.73    4.38
   0  -9   2   98.40    6.73
   0   9  -1    1.16    0.80
   0   9  -1    0.44    0.73
   0  -9   1    1.49    1.32
   0   9   0  214.05    7.39
   0  -9   0  217.71   13.13
   0  -9  -1  146.64   10.56
   0  -9  -2    5.21    2.72
   0   9   3   74.00    5.16
   0  -9  -3    1.95    3.32
   0  10  -8   66.11    7.78
   0  10  -7    2.98    1.96
   0 -10   7    2.09    1.52
   0  10  -6  133.62    9.50
   0 -10   6  148.29    8.82
   0  10  -5  156.16   11.97
   0 -10   5  195.71   10.99
   0  10  -4   15.88    2.25
   0  10  -4   15.54    2.54
   0 -10   4   20.16    2.61
   0  10  -3   17.35    2.06
   0 -10   3   24.30    3.08
   0  10  -2    0.94    0.84
   0  10  -2    1.27    0.98
   0 -10   2    0.07    1.33
   0 -10   1   55.04    6.11
   0 -10   0   92.83   10.70
   0 -10  -1   -0.06    1.20
   0  11  -5    1.22    1.29
   0 -11   5    1.01    1.59
   0  11  -4   77.40    7.17
   0  11  -4   91.47    6.79
   0 -11   4   97.94    8.84
   0 -11   3    6.82    2.37
   0 -11   2   56.30    6.27
   1 -11   1   55.63    5.60
   1 -11   2    4.75    1.73
  -1  11  -2    4.28    1.84
  -1  11  -2    2.95    1.34
   1 -11   3   41.97    5.25
  -1  11  -3   41.44    4.25
  -1  11  -3   47.45    4.98
   1 -11   4   44.34    3.67
  -1  11  -4   36.36    6.03
  -1  11  -4   46.11    4.30
  -1  11  -5    9.59    2.78
  -1  11  -6   45.94    8.10
   1 -10  -1    0.68    0.84
   1 -10   0   27.53    3.98
  -1  10   0   28.99    3.01
  -1  10   0   26.95    3.04
   1 -10   1   12.82    2.93
  -1  10  -1   20.42    2.04
   1 -10   2   74.72    5.07
  -1  10  -2   62.29    5.86
  -1  10  -2   72.32    5.39
   1 -10   3  174.14   10.30
  -1  10  -3  199.28    9.62
  -1  10  -3  170.29   10.78
   1 -10   4   49.71    4.44
  -1  10  -4   48.97    4.81
   1 -10   5  122.74    6.64
  -1  10  -5  122.25   11.12
  -1  10  -6   -0.36    1.33
  -1  10  -7   74.48    8.36
  -1  10  -8   32.39    6.26
  -1   9   4    9.17    3.53
  -1   9   3   28.76    4.97
  -1   9   2   20.44    2.20
  -1   9   2   21.58    4.86
  -1   9   2   17.51    2.22
   1  -9  -1   64.74    4.08
  -1   9   1   73.51    4.34
  -1   9   1   70.49    4.37
  -1   9   1   67.82    5.47
   1  -9   0   22.92    3.49
  -1   9   0   28.87    2.82
   1  -9   1  209.66   10.23
  -1   9  -1  218.94    9.77
  -1   9  -1  202.50   10.13
   1  -9   2   18.95    3.25
  -1   9  -2   15.26    3.22
  -1   9  -2   22.97    2.23
   1  -9   3   84.92    5.72
  -1   9  -3   78.70    6.93
  -1   9  -3   86.67    5.03
   1  -9   4  119.63    6.19
  -1   9  -4  124.06    7.85
   1  -9   5    2.87    1.10
  -1   9  -5    3.99    1.81
   1  -9   6  355.97   12.72
  -1   9  -6  325.96   19.40
  -1   9  -7  139.53   11.55
   1  -9   8   -0.15    1.22
  -1   9  -8   14.15    3.04
   1  -9   9   -0.78    1.75
  -1   9  -9   20.71    3.23
  -1   8   5   57.59    8.07
  -1   8   4   26.60    4.99
  -1   8   3  119.06    9.58
  -1   8   3  134.97    6.31
  -1   8   2   38.98    3.07
  -1   8   2   42.77    4.53
   1  -8  -1   90.16    6.80
  -1   8   1   94.06    6.20
  -1   8   1   96.78    4.84
   1  -8   0  422.17   22.40
  -1   8   0  442.52   15.93
  -1   8   0  509.86   17.28
   1  -8   1  131.70    8.40
  -1   8  -1  133.85    7.42
  -1   8  -1  139.01    5.64
   1  -8   2  271.15   12.44
  -1   8  -2  258.12   12.90
  -1   8  -2  270.74   12.43
   1  -8   3  277.18   11.13
  -1   8  -3  257.71   12.00
   1  -8   4   27.42    2.29
  -1   8  -4   24.68    3.32
   1  -8   5  546.36   18.58
  -1   8  -5  414.29   22.58
   1  -8   6  135.66    5.09
  -1   8  -6  126.06    9.66
   1  -8   7   79.64    5.27
   1  -8   7   95.77    4.26
  -1   8  -7   87.49    8.72
   1  -8   8   33.44    3.52
  -1   8  -8   35.85    7.92
   1  -8   9    1.18    2.27
  -1   8  -9    3.26    2.48
  -1   7   6  156.13   14.52
   1  -7  -5    8.75    1.81
  -1   7   5    7.34    3.36
  -1   7   5    8.56    1.97
  -1   7   4  176.18   12.43
  -1   7   4  176.79    8.21
  -1   7   3  182.69   11.43
  -1   7   3  200.55    8.34
   1  -7  -2    7.04    1.51
  -1   7   2   10.78    1.56
  -1   7   2   11.16    2.23
   1  -7  -1 1118.95   52.10
  -1   7   1 1115.76   46.57
  -1   7   1 1088.37   53.50
   1  -7   0  274.23   11.91
  -1   7   0  276.14    9.24
  -1   7   0  259.11   12.47
  -1   7   0  263.33    9.67
   1  -7   1 1025.95   40.14
  -1   7  -1  887.42   34.99
  -1   7  -1  817.23   36.43
   1  -7   2  342.34   12.79
  -1   7  -2  500.85   17.76
   1  -7   3   12.11    1.63
  -1   7  -3   15.46    3.05
   1  -7   4  123.42    4.64
  -1   7  -4  106.36    7.24
   1  -7   5   44.85    2.22
  -1   7  -5   48.09    4.96
   1  -7   6  178.80   10.56
  -1   7  -6  163.28   10.94
   1  -7   7  179.37   10.71
  -1   7  -7  115.23   11.00
   1  -7   8    6.79    2.66
  -1   7  -8    5.79    3.01
   1  -7   9   54.15    7.10
  -1   7  -9   58.05    8.06
   1  -7  10   12.22    4.04
  -1   7 -10    8.76    4.64
   1  -6  -7  125.86    6.82
  -1   6   7  132.80    9.05
  -1   6   7  128.53   13.51
   1  -6  -6  117.97    7.29
  -1   6   6  120.45    6.03
  -1   6   6  125.04   11.15
   1  -6  -5  299.84   11.32
  -1   6   5  294.37   11.47
  -1   6   5  303.13   18.09
   1  -6  -4  331.50   11.63
  -1   6   4  324.31   17.44
  -1   6   4  328.76   13.50
   1  -6  -3  112.87    5.34
  -1   6   3  123.70    5.85
  -1   6   3  116.38    7.81
   1  -6  -2  294.05   11.38
  -1   6   2  299.76   13.70
  -1   6   2  298.63   10.98
   1  -6  -1   43.81    3.93
  -1   6   1   49.62    4.49
  -1   6   1   51.47    3.03
   1  -6   0  300.15   11.61
  -1   6   0  283.50   10.27
  -1   6   0  315.68    9.93
   1  -6   1  288.50   11.78
  -1   6  -1  310.10   10.84
  -1   6  -1  320.80   12.20
   1  -6   2  161.64    4.87
  -1   6  -2  111.63    7.62
   1  -6   3  396.58   12.12
  -1   6  -3  337.73   14.54
   1  -6   4   47.32    1.96
  -1   6  -4   43.94    4.19
   1  -6   5  158.19    8.91
  -1   6  -5  146.13    9.48
   1  -6   6  206.09   11.36
  -1   6  -6  202.76   12.44
   1  -6   7   40.50    4.86
  -1   6  -7   41.92    5.63
   1  -6   8  332.22   11.39
   1  -6   8  346.66   20.05
  -1   6  -8  351.94   21.53
   1  -6   9   48.05    2.94
   1  -6   9   52.92    6.86
  -1   6  -9   52.96    7.31
   1  -6  10   43.03    7.25
  -1   6 -10   48.82    7.89
   1  -5  -8  177.52    9.67
  -1   5   8  167.70    9.56
  -1   5   8  169.91   15.96
   1  -5  -7   40.10    3.54
  -1   5   7   35.06    3.50
  -1   5   7   45.36    6.50
   1  -5  -6  238.69    9.96
  -1   5   6  235.37   11.99
  -1   5   6  231.48   15.64
   1  -5  -5   53.49    4.16
  -1   5   5   54.60    5.96
  -1   5   5   58.12    3.45
   1  -5  -4   74.97    4.45
  -1   5   4   77.40    6.27
  -1   5   4   74.68    3.79
   1  -5  -3  171.48    7.09
  -1   5   3  176.21    7.49
  -1   5   3  185.75    9.18
   1  -5  -2  247.19    8.98
   1  -5  -2  265.17    9.19
  -1   5   2  252.94   10.59
  -1   5   2  255.16    9.00
   1  -5  -1   70.20    4.13
  -1   5   1   81.46    3.96
  -1   5   1   77.87    3.55
   1  -5   0   22.87    2.53
  -1   5   0   25.06    1.71
  -1   5   0   28.29    1.59
   1  -5   1  346.52   10.32
  -1   5  -1  339.44   11.23
   1  -5   2  798.65   24.61
  -1   5  -2  596.11   23.44
   1  -5   3  174.66    5.05
  -1   5  -3  185.50    7.89
   1  -5   4  237.98    9.08
  -1   5  -4  142.03    8.40
   1  -5   5   60.61    4.87
  -1   5  -5   71.78    5.50
   1  -5   6   46.83    4.83
  -1   5  -6   50.32    5.47
   1  -5   7  277.67   15.83
   1  -5   7  303.93    9.53
  -1   5  -7  279.37   16.71
   1  -5   8  148.52   11.18
   1  -5   8  156.97    7.15
  -1   5  -8  163.49   11.96
   1  -5   9  120.81   10.66
  -1   5  -9  123.39   11.40
   1  -5  10  126.64   12.47
  -1   5 -10  149.95   13.75
   1  -4  -9   92.17    7.11
  -1   4   9   83.17    6.82
  -1   4   9   91.28   11.16
   1  -4  -8   -0.21    1.03
  -1   4   8    1.54    1.79
  -1   4   8    1.07    1.07
   1  -4  -7  145.25    7.58
  -1   4   7  142.23   11.91
  -1   4   7  138.14    9.37
   1  -4  -6  137.06    6.34
  -1   4   6  121.18    6.19
  -1   4   6  132.22    9.86
   1  -4  -5  261.98   11.92
  -1   4   5  265.32   10.57
  -1   4   5  258.65   14.33
   1  -4  -4 1071.55   44.62
  -1   4   4 1038.86   41.89
  -1   4   4  994.40   47.10
   1  -4  -3   67.83    2.83
  -1   4   3   67.19    4.53
  -1   4   3   66.49    3.72
   1  -4  -2  231.12    7.05
  -1   4   2  283.78    9.93
  -1   4   2  231.96    7.98
   1  -4  -1   77.45    3.55
   1  -4  -1   67.14    2.46
  -1   4   1   63.86    3.08
  -1   4   1   64.04    3.05
   1  -4   0   87.63    3.14
  -1   4   0   94.73    3.10
  -1   4   0   88.87    3.75
   1  -4   1   68.35    2.48
  -1   4  -1   73.14    3.00
  -1   4  -1   72.51    1.80
   1  -4   2  284.34    6.94
  -1   4  -2  283.05    9.94
   1  -4   3  508.49   18.45
  -1   4  -3  466.71   18.03
   1  -4   4  193.27    8.42
  -1   4  -4  197.87    8.95
   1  -4   5   23.07    2.92
  -1   4  -5   23.04    3.14
   1  -4   6  186.09   10.80
   1  -4   6  209.28    6.06
  -1   4  -6  184.47   11.56
   1  -4   7    7.92    2.54
  -1   4  -7    8.49    2.69
   1  -4   8  410.10   22.69
   1  -4   8  454.57   18.15
  -1   4  -8  397.58   22.77
   1  -4   9  154.53    9.46
   1  -4   9  153.80   11.92
  -1   4  -9  148.81   12.23
   1  -4  10   22.03    2.63
   1  -4  10   -4.49    4.35
  -1   4 -10   20.82    4.68
   1  -3  -9    1.34    1.77
  -1   3   9    0.24    2.00
  -1   3   9    1.01    1.31
   1  -3  -8  348.59   16.79
  -1   3   8  331.77   16.42
  -1   3   8  339.15   21.59
   1  -3  -7   69.94    4.84
  -1   3   7   63.95    6.17
  -1   3   7   73.50    7.25
   1  -3  -6  157.70    7.35
  -1   3   6  159.39   10.43
  -1   3   6  149.68    7.34
   1  -3  -5   55.72    4.46
  -1   3   5   58.18    3.87
  -1   3   5   57.12    5.46
   1  -3  -4    0.20    0.56
  -1   3   4    0.61    0.61
  -1   3   4    0.51    0.93
   1  -3  -3 1272.27   51.74
  -1   3   3 1207.76   47.75
  -1   3   3 1338.67   56.80
   1  -3  -2 1745.43   73.46
  -1   3   2 1798.44   77.08
  -1   3   2 1794.66   80.46
   1  -3  -1   81.13    2.42
   1  -3  -1   85.19    2.72
  -1   3   1   82.97    3.35
  -1   3   1   83.34    3.17
   1  -3   0   76.50    3.12
  -1   3   0   89.98    2.89
  -1   3   0   83.07    2.38
   1  -3   1   42.06    1.34
  -1   3  -1   45.92    2.22
   1  -3   2 3869.66  216.62
  -1   3  -2 3868.42  221.45
   1  -3   3 3084.82  172.29
  -1   3  -3 3742.74  204.37
   1  -3   4  382.92   14.69
  -1   3  -4  381.90   15.20
   1  -3   5  391.90   16.52
  -1   3  -5  408.61   17.35
   1  -3   6   15.93    2.76
  -1   3  -6   14.15    2.88
   1  -3   7  184.54    9.24
   1  -3   7  207.79   11.58
  -1   3  -7  190.37   14.43
   1  -3   8  175.18    8.19
   1  -3   8  173.86   11.25
  -1   3  -8  163.90   14.30
   1  -3   9    2.41    1.91
   1  -3   9    1.38    1.27
  -1   3  -9    2.69    2.01
   1  -3  10   63.31    7.60
   1  -3  10   59.37    5.40
  -1   3 -10   67.01    7.66
   1  -2 -10    0.42    1.51
  -1   2  10   -0.37    1.61
  -1   2  10    0.45    1.57
   1  -2  -9  137.48    9.25
  -1   2   9  152.56   12.60
  -1   2   9  135.76    9.09
   1  -2  -8   92.63    6.37
  -1   2   8   98.29    6.58
  -1   2   8   95.43    9.07
   1  -2  -7   27.34    3.78
  -1   2   7   24.41    3.04
  -1   2   7   23.39    4.05
   1  -2  -6    1.73    1.59
  -1   2   6    1.36    1.74
  -1   2   6    5.04    1.77
   1  -2  -5   15.08    1.79
  -1   2   5   17.03    2.56
  -1   2   5   15.22    2.05
   1  -2  -4 1937.54   88.12
  -1   2   4 1841.85   89.36
  -1   2   4 1959.72   89.54
   1  -2  -3  783.98   26.78
  -1   2   3  730.37   27.71
  -1   2   3  794.45   28.79
   1  -2  -2 3036.64  152.10
  -1   2   2 3027.03  153.61
  -1   2   2 2981.62  154.79
   1  -2  -1 2052.18   86.83
  -1   2   1 1937.32   84.89
  -1   2   1 2034.87   86.57
  -1   2   0  256.20    7.80
  -1   2   0  335.27    8.46
  -1   2  -1 7093.13  502.02
   1  -2   2 3447.26  168.96
   1  -2   2 3492.36  188.82
  -1   2  -2 3586.55  194.10
   1  -2   3  448.26   15.72
  -1   2  -3  497.39   16.69
   1  -2   4 1437.84   62.30
  -1   2  -4 1472.20   64.44
   1  -2   5  282.31   10.37
   1  -2   5  261.22   13.16
  -1   2  -5  255.64   11.20
   1  -2   6  454.60   17.09
   1  -2   6  478.09   20.68
  -1   2  -6  468.00   20.57
   1  -2   7  264.04   13.25
   1  -2   7  252.17   16.12
  -1   2  -7  259.66   13.49
   1  -2   8   14.18    3.18
   1  -2   8   16.78    2.40
  -1   2  -8   16.23    3.32
   1  -2   9    1.60    2.70
   1  -2   9    9.42    2.09
  -1   2  -9    9.98    2.75
   1  -2  10    2.94    3.15
   1  -2  10    2.43    2.52
  -1   2 -10    4.96    2.37
   1  -1 -10   56.67    6.10
  -1   1  10   57.62    6.69
  -1   1  10   57.86    7.73
   1  -1  -9  170.74   10.66
  -1   1   9  170.34   10.86
  -1   1   9  172.04   12.55
   1  -1  -8   70.66    7.33
  -1   1   8   74.98    6.12
  -1   1   8   76.67    7.12
   1  -1  -7  167.18    8.75
  -1   1   7  169.32    9.38
  -1   1   7  159.93   10.00
   1  -1  -6   14.09    2.19
  -1   1   6   16.40    2.89
  -1   1   6   16.11    2.37
   1  -1  -5  387.14   14.48
  -1   1   5  412.29   14.09
  -1   1   5  404.32   15.26
   1  -1  -4  705.62   25.50
  -1   1   4  749.61   29.51
   1  -1  -3  618.05   20.30
  -1   1   3  642.64   21.22
   1  -1  -2 2336.88  106.53
  -1   1   2 2370.41  108.51
   1  -1  -1   17.90    1.25
  -1   1   1   16.22    0.97
  -1   1   0 2429.40  106.09
   1  -1   1 1212.06   41.47
  -1   1  -1 1144.41   36.94
  -1   1  -1 1250.57   43.93
   1  -1   2  201.57    6.33
  -1   1  -2  198.20    6.29
  -1   1  -2  195.54    4.97
   1  -1   3  933.39   32.91
   1  -1   3  895.49   34.46
  -1   1  -3  912.91   35.08
   1  -1   4   23.18    2.09
   1  -1   4   25.16    2.25
  -1   1  -4   22.02    2.06
   1  -1   5 1075.81   45.36
   1  -1   5 1045.20   42.66
  -1   1  -5 1069.18   48.11
   1  -1   6  118.85    6.11
   1  -1   6  118.87    6.90
  -1   1  -6  118.76    8.73
   1  -1   7   42.79    4.03
   1  -1   7   32.47    4.58
  -1   1  -7   38.68    5.38
   1  -1   8   53.31    4.67
   1  -1   8   45.47    6.60
  -1   1  -8   52.42    5.10
   1  -1   9   22.58    3.61
   1  -1   9   18.41    4.60
  -1   1  -9   18.80    3.65
   1  -1  10  103.75    8.83
   1  -1  10  105.59    9.42
  -1   1 -10  113.86    9.23
   1   0 -11   79.82    8.67
  -1   0  11   81.05   12.63
  -1   0  11   88.08   12.24
   1   0 -10   16.25    3.58
  -1   0  10   12.26    3.95
  -1   0  10   18.03    3.75
   1   0  -9  195.82   12.17
  -1   0   9  202.76   12.65
  -1   0   9  205.27   12.67
   1   0  -8  290.52   14.77
  -1   0   8  294.94   14.99
  -1   0   8  294.42   15.48
   1   0  -7   11.95    2.56
  -1   0   7   12.30    3.78
  -1   0   7   15.28    1.88
   1   0  -6  850.34   39.59
  -1   0   6  878.15   37.35
   1   0  -5  881.10   35.01
  -1   0   5  906.37   35.90
   1   0  -4  237.96    8.24
  -1   0   4  241.77    8.43
   1   0  -3  323.85   10.25
  -1   0   3  338.98   10.97
   1   0  -2  375.22   11.36
  -1   0   2  374.51   11.74
   1   0  -1 1029.98   33.78
  -1   0   1 1233.66   39.30
  -1   0   0   92.39    1.79
   1   0   1 1303.90   47.18
   1   0   1 1258.94   45.15
  -1   0  -1 1294.66   46.92
  -1   0  -1 1294.24   48.31
   1   0   2  894.76   31.06
   1   0   2  879.49   30.15
  -1   0  -2  913.42   31.17
  -1   0  -2  905.65   31.26
   1   0   3   48.34    3.05
   1   0   3   52.36    2.51
  -1   0  -3   53.95    2.93
  -1   0  -3   52.46    2.71
   1   0   4   27.44    1.91
   1   0   4   21.55    1.95
  -1   0  -4   17.90    1.80
   1   0   5  270.02   10.88
   1   0   5  271.36   10.81
  -1   0  -5  272.07   10.59
   1   0   6  331.51   16.85
   1   0   6  321.92   14.48
  -1   0  -6  329.94   13.98
   1   0   7  542.73   24.02
   1   0   7  564.25   25.73
  -1   0  -7  554.33   24.27
   1   0   8   10.05    2.36
   1   0   8   10.22    2.58
  -1   0  -8   10.43    2.37
   1   0   9   65.36    5.92
   1   0   9   67.61    6.78
  -1   0  -9   73.41    7.84
   1   0  10   49.55    5.86
   1   0  10   54.42    6.54
  -1   0 -10   48.52    5.86
   1   1 -11    6.84    3.27
  -1  -1  11    9.03    3.36
  -1  -1  11    8.50    3.21
   1   1 -10  110.42    9.63
  -1  -1  10  120.08    9.46
  -1  -1  10  110.25    9.24
   1   1  -9  228.40   13.81
  -1  -1   9  222.44   13.91
  -1  -1   9  249.93   14.17
   1   1  -8   42.05    4.01
  -1  -1   8   21.11    2.44
  -1  -1   8   40.03    4.01
   1   1  -7  931.31   44.06
  -1  -1   7 1031.39   47.20
   1   1  -6   39.15    3.62
  -1  -1   6   42.71    3.92
   1   1  -5 1379.42   60.46
  -1  -1   5 1431.80   62.18
   1   1  -4  393.78   13.99
  -1  -1   4  476.92   15.58
   1   1  -3    0.61    0.53
  -1  -1   3    0.24    0.53
   1   1  -2  146.10    5.01
  -1  -1   2  152.30    5.12
  -1  -1   1   66.64    2.10
  -1  -1   0 1241.80   37.63
  -1  -1   0 1097.93   39.96
   1   1   1  839.96   24.49
   1   1   1  807.96   27.14
  -1  -1  -1  758.77   21.83
  -1  -1  -1  778.53   26.51
   1   1   2  910.87   29.56
   1   1   2  878.07   31.69
  -1  -1  -2  837.65   27.23
  -1  -1  -2  894.46   32.05
   1   1   3   61.14    2.86
   1   1   3   60.30    3.23
  -1  -1  -3   57.05    2.86
  -1  -1  -3   58.84    3.31
   1   1   4   24.30    2.69
   1   1   4   31.68    2.56
  -1  -1  -4   31.31    1.89
  -1  -1  -4   31.60    2.44
   1   1   5  506.06   18.81
   1   1   5  525.88   22.16
  -1  -1  -5  506.73   18.67
   1   1   6  275.88   11.61
   1   1   6  290.31   14.11
  -1  -1  -6  282.01   11.39
   1   1   7    6.94    2.38
   1   1   7    7.57    2.37
  -1  -1  -7    8.49    2.31
   1   1   8   74.31    5.43
   1   1   8   77.25    7.06
  -1  -1  -8   77.85    5.49
   1   1   9   27.68    4.88
   1   1   9   24.67    3.62
  -1  -1  -9   30.86    3.73
   1   2 -11  210.95   15.81
  -1  -2  11  192.15   13.66
  -1  -2  11  210.84   15.66
   1   2 -10   64.48    7.86
  -1  -2  10   87.75    7.19
  -1  -2  10   73.73    7.76
   1   2  -9   42.28    5.45
  -1  -2   9   46.60    5.52
   1   2  -8  238.61   13.44
  -1  -2   8  246.77   13.91
   1   2  -7   15.68    3.09
  -1  -2   7   18.14    3.04
   1   2  -6 1276.43   58.79
  -1  -2   6 1320.83   59.65
   1   2  -5  713.21   28.18
  -1  -2   5  715.12   27.79
   1   2  -4    6.94    1.36
  -1  -2   4    8.77    1.29
   1   2  -3   75.89    3.10
  -1  -2   3   67.92    3.81
   1   2  -2  671.64   20.36
  -1  -2   2  649.72   19.85
   1   2  -1 1681.74   63.31
  -1  -2   1 1798.31   68.01
  -1  -2   0 3307.66  174.96
   1   2   1   86.06    3.70
  -1  -2  -1  101.25    3.88
  -1  -2  -1   93.87    1.74
   1   2   2  491.96   16.56
   1   2   2  345.84    9.92
  -1  -2  -2  481.72   12.15
  -1  -2  -2  446.58   15.77
   1   2   3   52.05    3.50
   1   2   3   51.41    2.41
  -1  -2  -3   47.53    2.21
  -1  -2  -3   52.75    3.77
   1   2   4  149.59    7.75
   1   2   4  148.89    6.14
  -1  -2  -4  156.68    5.08
  -1  -2  -4  150.25    8.50
   1   2   5  403.25   18.61
   1   2   5  384.47   15.75
  -1  -2  -5  404.03   15.79
   1   2   6    1.18    0.78
   1   2   6   -0.42    1.25
  -1  -2  -6    1.07    0.74
   1   2   7  377.62   18.44
   1   2   7  379.20   20.91
  -1  -2  -7  400.03   18.79
   1   2   8   41.78    5.83
   1   2   8   38.03    4.73
  -1  -2  -8   38.34    3.68
   1   2   9   93.65    7.00
   1   2   9  100.91   13.12
  -1  -2  -9  104.01    8.77
   1   3 -11   71.97    9.46
  -1  -3  11   79.34    9.64
  -1  -3  11   82.32    7.31
   1   3 -10    5.97    1.98
  -1  -3  10    0.77    0.95
  -1  -3  10    1.52    1.96
   1   3  -9  128.02   10.14
  -1  -3   9  131.27    9.84
   1   3  -8   84.35    7.57
  -1  -3   8  102.26    7.51
   1   3  -7  195.47   11.35
  -1  -3   7  188.03   10.85
   1   3  -6  377.10   16.89
  -1  -3   6  371.37   16.02
   1   3  -5    1.91    1.18
  -1  -3   5    3.38    1.10
   1   3  -4  537.32   19.33
  -1  -3   4  541.75   20.97
   1   3  -3   85.07    3.50
  -1  -3   3  111.25    3.64
  -1  -3   2  524.88   16.01
   1   3  -1   25.38    1.14
  -1  -3   1   30.82    1.78
  -1  -3   1   27.75    1.03
  -1  -3   0   60.92    3.06
   1   3   1 1988.47   94.53
  -1  -3  -1 2062.29   97.13
   1   3   2 1016.00   32.87
   1   3   2  967.85   40.82
  -1  -3  -2  984.65   42.06
  -1  -3  -2 1052.69   33.38
   1   3   3 1555.67   63.99
   1   3   3 1655.05   79.38
  -1  -3  -3 1512.66   74.83
  -1  -3  -3 1709.45   68.46
   1   3   4  645.44   23.72
   1   3   4  690.64   31.81
  -1  -3  -4  683.35   32.67
  -1  -3  -4  730.43   25.32
   1   3   5   66.45    3.84
   1   3   5   70.50    7.94
  -1  -3  -5   68.27    3.05
   1   3   6  253.99   18.70
   1   3   6  232.32   10.87
  -1  -3  -6  256.96    9.43
   1   3   7   90.82    9.01
   1   3   7   79.11    4.79
  -1  -3  -7  101.20    6.25
   1   3   8   70.93    8.61
   1   3   8   64.14    4.67
  -1  -3  -8   67.23    4.76
   1   4 -11    8.37    3.47
  -1  -4  11    5.76    1.56
  -1  -4  11    9.07    3.55
   1   4 -10   70.88    8.34
  -1  -4  10   71.59    8.22
   1   4  -9   22.61    4.86
  -1  -4   9   32.58    4.67
   1   4  -8   34.29    5.01
  -1  -4   8   37.85    4.44
   1   4  -7   54.33    5.56
  -1  -4   7   52.85    4.96
   1   4  -6   25.11    3.46
  -1  -4   6   31.95    3.11
   1   4  -5  361.29   14.55
  -1  -4   5  357.85   13.56
   1   4  -4  118.21    6.49
  -1  -4   4  124.93    5.03
   1   4  -3  903.93   30.70
  -1  -4   3  710.16   26.93
  -1  -4   2 1379.64   55.48
  -1  -4   2 1307.17   50.27
   1   4  -1   23.94    1.06
  -1  -4   1   19.04    1.98
  -1  -4   0 1940.58   91.70
   1   4   1  153.98    7.23
  -1  -4  -1  196.08    8.21
   1   4   2  919.53   28.22
   1   4   2  836.73   37.32
  -1  -4  -2  886.49   40.26
   1   4   3  395.51   19.19
  -1  -4  -3  448.11   12.33
  -1  -4  -3  396.86   20.28
   1   4   4    6.68    2.22
   1   4   4    7.18    0.97
  -1  -4  -4    6.99    2.46
  -1  -4  -4    4.29    1.17
   1   4   5   57.11    3.39
   1   4   5   60.09    6.43
  -1  -4  -5   66.25    3.40
   1   4   6   43.70    6.27
   1   4   6   40.86    2.72
  -1  -4  -6   54.73    3.51
   1   4   7   63.15    8.14
   1   4   7   56.36    4.70
  -1  -4  -7   60.24    3.71
   1   5 -11   20.54    5.61
  -1  -5  11   23.09    7.36
   1   5 -10    0.80    1.34
  -1  -5  10   -0.94    1.27
   1   5  -9  181.64   12.99
  -1  -5   9  175.25   12.33
   1   5  -8   54.31    6.21
  -1  -5   8   55.59    5.56
   1   5  -7   20.34    3.69
  -1  -5   7   24.73    3.34
   1   5  -6  251.25   12.92
  -1  -5   6  275.84   12.39
   1   5  -5   39.37    3.50
  -1  -5   5   40.15    4.18
   1   5  -4 2222.61  112.54
  -1  -5   4 2416.96  122.63
   1   5  -3  989.86   40.07
  -1  -5   3 1071.93   39.63
  -1  -5   2  189.28    8.98
   1   5  -1  106.97    2.63
   1   5  -1   87.40    2.67
  -1  -5   1  107.33    5.22
  -1  -5   0  171.84    8.20
   1   5   1  111.36    6.27
  -1  -5  -1  118.40    7.27
   1   5   2  483.95   22.21
  -1  -5  -2  497.93   24.38
   1   5   3   10.69    0.67
   1   5   3    8.09    3.52
  -1  -5  -3    8.33    2.78
   1   5   4   79.09    2.80
   1   5   4   72.26    7.27
  -1  -5  -4   80.04    2.48
  -1  -5  -4   76.21    7.74
   1   5   5    1.24    1.45
   1   5   5    0.09    0.55
  -1  -5  -5    0.54    0.51
  -1  -5  -5    0.72    0.94
   1   5   6   17.59    4.69
   1   6 -11    2.05    2.55
  -1  -6  11    1.37    2.45
   1   6 -10  257.90   19.04
  -1  -6  10  262.08   17.84
   1   6  -9  173.36   13.25
  -1  -6   9  164.90   11.71
   1   6  -8   86.52    8.01
  -1  -6   8   90.09    6.96
   1   6  -7  181.44   11.09
  -1  -6   7  204.21   10.59
   1   6  -6    2.42    1.34
  -1  -6   6    0.81    1.20
   1   6  -5  364.66   19.20
  -1  -6   5  436.53   16.66
   1   6  -4  161.69    6.56
  -1  -6   4  128.78    5.62
   1   6  -3  119.35    5.44
  -1  -6   3  129.54    5.87
   1   6  -2  347.79   11.77
  -1  -6   2  422.20   15.97
   1   6  -1    0.45    0.35
   1   6  -1    1.20    0.49
  -1  -6   1    1.53    0.98
  -1  -6   0  477.15   21.61
   1   6   1   10.72    2.26
  -1  -6  -1   13.35    2.89
   1   6   2  141.10    9.21
  -1  -6  -2  157.39   10.14
   1   6   3  122.08    9.48
  -1  -6  -3  130.69    9.76
   1   6   4   46.20    6.18
  -1  -6  -4   47.26    6.57
   1   6   5   86.19    5.69
  -1  -6  -5    1.64    3.36
   1   6   6   69.18    9.54
   1   7 -10   50.33    7.83
  -1  -7  10   54.27    7.31
   1   7  -9  124.66   14.45
  -1  -7   9  122.29    9.88
   1   7  -8  295.24   16.90
  -1  -7   8  265.10   15.32
   1   7  -7   53.58    6.87
  -1  -7   7   51.82    4.74
   1   7  -6  111.56    6.61
  -1  -7   6   91.27    5.75
   1   7  -5   76.14    6.31
  -1  -7   5   76.14    4.37
  -1  -7   5   84.90    4.29
   1   7  -4  248.76   10.04
  -1  -7   4  283.66   11.41
  -1  -7   3  359.12   15.25
   1   7  -2    2.06    0.84
   1   7  -2    2.88    0.76
  -1  -7   2    4.81    1.41
   1   7  -1  121.71    3.47
   1   7  -1   94.70    2.68
  -1  -7   1   99.68    6.88
  -1  -7   0    7.32    2.33
  -1  -7  -1   88.82    7.75
   1   7   2  203.32   12.42
  -1  -7  -2  225.35   14.14
   1   7   3   24.34    4.53
  -1  -7  -3   25.81    4.83
   1   7   4  171.05   14.09
  -1  -7  -4  178.29   10.73
   1   8 -10   95.20   10.95
  -1  -8  10   88.10    9.26
   1   8  -9  255.60   21.70
  -1  -8   9  228.74   15.23
   1   8  -8   13.87    3.37
  -1  -8   8   11.81    2.89
   1   8  -7  201.39   14.93
  -1  -8   7  204.82   13.21
   1   8  -6   27.05    3.47
  -1  -8   6   29.29    3.68
  -1  -8   6   26.76    3.03
   1   8  -5   33.50    4.51
  -1  -8   5   46.56    4.47
   1   8  -4  113.33    6.78
  -1  -8   4  127.69    6.96
   1   8  -3  217.60    9.05
  -1  -8   3  267.88   12.33
   1   8  -2   58.76    2.57
   1   8  -2   51.42    2.71
  -1  -8   2   62.92    5.15
  -1  -8   1  146.60    9.64
  -1  -8   0  130.49    9.94
  -1  -8  -1  113.09    9.56
  -1  -8  -2    7.01    2.99
  -1  -8  -3   57.18    8.25
   1   9  -9    2.07    3.21
  -1  -9   9    2.54    1.98
   1   9  -8   42.93    5.97
  -1  -9   8   40.05    5.18
  -1  -9   8   48.28    3.83
   1   9  -7   40.69    4.84
  -1  -9   7   38.10    2.79
  -1  -9   7   45.48    3.84
   1   9  -6   53.67    6.45
  -1  -9   6   59.94    4.55
   1   9  -5  152.93    8.35
  -1  -9   5  205.22    9.78
   1   9  -4   -0.21    0.95
  -1  -9   4   31.68    2.01
   1   9  -3   89.70    5.02
   1   9  -3  102.90    4.86
  -1  -9   3  107.66    7.34
  -1  -9   2   53.73    5.62
  -1  -9   1  102.58    8.86
  -1  -9   0  273.97   17.62
  -1  -9  -1   41.87    6.43
  -1  -9  -2   50.13    7.51
   1  10  -7  116.14    9.24
  -1 -10   7  125.47    9.59
   1  10  -6   39.25    4.38
  -1 -10   6   49.18    5.90
   1  10  -5   28.99    3.93
  -1 -10   5   21.66    4.77
   1  10  -4  103.51    6.61
  -1 -10   4  114.22    8.05
  -1 -10   3   57.58    6.04
  -1 -10   2  125.84   10.29
  -1 -10   1  238.84   16.97
  -2  11   0    5.61    1.96
  -2  11   0   10.23    1.90
  -2  11  -1    3.24    1.50
  -2  11  -1    4.71    2.12
  -2  11  -2   86.45    8.66
  -2  11  -2   99.39    6.52
  -2  11  -3  118.96    7.87
  -2  11  -3  110.18    8.16
  -2  11  -4    4.61    2.30
  -2  11  -4    5.27    2.15
  -2  11  -5   86.18    8.86
  -2  11  -5   92.33    7.89
  -2  11  -6    1.74    2.11
  -2  10   3   53.22    6.66
  -2  10   2   26.87    5.24
  -2  10   2   19.70    2.37
  -2  10   2   28.34    3.27
  -2  10   1   70.43    5.75
  -2  10   1   65.70    5.48
  -2  10   1   77.64    6.02
  -2  10   0    1.57    1.43
  -2  10   0    1.25    1.03
  -2  10  -1  122.38    8.42
  -2  10  -1  119.49    8.87
  -2  10  -2  168.86   11.75
  -2  10  -2  173.89    9.21
  -2  10  -3   89.66    9.44
  -2  10  -3  105.80    7.04
  -2  10  -4  358.26   18.14
  -2  10  -4  339.01   18.85
  -2  10  -5   -1.21    1.70
  -2  10  -6   57.89    7.27
  -2  10  -7   40.03    6.73
  -2   9   4   73.72    6.16
  -2   9   4   66.21    7.98
  -2   9   3   75.53    4.73
  -2   9   3   94.17    7.61
  -2   9   2  446.91   20.07
  -2   9   2  409.23   24.56
  -2   9   1    0.59    0.68
  -2   9   1   -0.51    0.65
  -2   9   1    0.60    0.82
  -2   9   0  281.72   12.02
  -2   9   0  337.82   13.40
  -2   9   0  301.95   15.17
  -2   9  -1  151.06    8.98
  -2   9  -1  136.78    9.43
   2  -9   2   50.24    2.09
  -2   9  -2   50.16    5.44
  -2   9  -2   48.80    4.47
   2  -9   3  200.30    7.04
  -2   9  -3  235.70   11.11
  -2   9  -3  225.50   11.77
   2  -9   4   14.45    0.98
  -2   9  -4   12.52    3.15
  -2   9  -5  119.84    9.51
  -2   9  -6   92.86    9.33
  -2   9  -7   29.41    5.67
  -2   9  -8   34.52    7.03
  -2   8   5  113.70   11.27
  -2   8   5  125.74    8.76
  -2   8   4   22.73    4.34
  -2   8   4   21.48    3.34
  -2   8   3  279.12   15.75
  -2   8   3  283.25   11.50
  -2   8   2    4.46    1.75
  -2   8   2    4.86    1.72
  -2   8   1  266.29   12.13
  -2   8   1  248.98   11.21
  -2   8   0  219.51    8.85
  -2   8   0  194.91    8.77
  -2   8   0  201.62    9.85
   2  -8   1    0.16    0.52
  -2   8  -1    2.26    1.29
  -2   8  -1    4.51    1.01
   2  -8   2  156.71    5.80
  -2   8  -2  183.75   10.55
  -2   8  -2  179.03    8.95
   2  -8   3    5.59    0.75
  -2   8  -3    6.52    1.91
   2  -8   4  245.15    5.87
  -2   8  -4  274.80   14.11
  -2   8  -5   83.09    7.32
  -2   8  -6   47.82    6.36
  -2   8  -7   70.56    8.44
   2  -8   8    1.27    1.06
  -2   8  -8   -0.98    1.98
   2  -8   9    1.07    2.74
  -2   8  -9   52.12    5.07
   2  -7  -7  182.51   11.93
  -2   7   7  179.80   10.22
  -2   7   7  157.22   16.38
   2  -7  -6  104.05    6.23
  -2   7   6  109.39   10.89
  -2   7   6  112.73    8.79
   2  -7  -5   22.29    3.29
  -2   7   5   21.72    5.98
  -2   7   5   23.04    2.68
   2  -7  -4  118.91    7.24
  -2   7   4  118.30   11.45
  -2   7   4  119.84    5.94
  -2   7   3    0.11    0.84
  -2   7   3   -0.62    0.94
  -2   7   2  237.30    9.15
  -2   7   2  230.73   11.18
  -2   7   1  242.55   11.75
  -2   7   1  271.38   11.02
  -2   7   0  147.85    6.47
  -2   7   0  140.72    6.94
  -2   7  -1  107.10    7.84
  -2   7  -1  147.49    6.58
   2  -7   2   44.24    2.00
  -2   7  -2   57.56    5.19
   2  -7   3    3.30    0.45
  -2   7  -3    5.86    1.68
  -2   7  -4  128.12    8.77
  -2   7  -5   12.49    3.06
  -2   7  -6  402.20   23.10
   2  -7   7   -0.12    0.71
  -2   7  -7   -0.01    1.25
   2  -7   8  103.42    6.82
  -2   7  -8  106.53   11.21
   2  -7   9   35.81    4.17
  -2   7  -9   32.43    7.04
   2  -6  -8  136.43   10.92
  -2   6   8  133.50    9.11
  -2   6   8  143.37   14.71
   2  -6  -7   10.32    2.13
  -2   6   7    9.82    2.31
  -2   6   7    6.45    3.88
   2  -6  -6  236.05   11.03
  -2   6   6  239.27   11.66
  -2   6   6  231.75   16.45
   2  -6  -5  327.73   13.53
  -2   6   5  318.56   18.55
  -2   6   5  320.16   15.99
   2  -6  -4   62.61    4.84
  -2   6   4   59.44    5.01
  -2   6   4   63.10    5.72
   2  -6  -3  243.93    9.58
  -2   6   3  232.93   14.54
  -2   6   3  238.87    9.25
  -2   6   2   37.17    3.33
  -2   6   2   39.54    3.50
  -2   6   1   29.93    3.05
  -2   6   1   26.80    2.27
  -2   6   0  600.42   23.20
  -2   6   0  673.10   22.88
  -2   6  -1  124.39    4.15
  -2   6  -1  123.44    4.34
  -2   6  -1  136.56    5.99
  -2   6  -2  101.81    5.64
  -2   6  -3  119.39    7.23
  -2   6  -4   65.79    5.78
  -2   6  -5  263.38   14.94
   2  -6   6    1.28    1.00
  -2   6  -6    3.15    1.83
   2  -6   7  154.41    4.43
   2  -6   7  165.63   11.64
  -2   6  -7  164.61   12.44
   2  -6   8   41.74    6.20
   2  -6   8   41.28    2.42
  -2   6  -8   50.92    6.65
   2  -6   9   18.99    5.52
  -2   6  -9   32.41    5.77
   2  -6  10   57.44    8.75
  -2   6 -10   59.16    9.54
   2  -5  -8    2.27    1.41
  -2   5   8    2.33    2.38
  -2   5   8    0.84    1.44
   2  -5  -7  197.72   10.32
  -2   5   7  202.23   13.05
  -2   5   7  192.62   14.99
   2  -5  -6  289.93   15.18
  -2   5   6  283.59   17.74
  -2   5   6  283.52   12.88
   2  -5  -5   44.13    3.37
  -2   5   5   45.87    5.26
  -2   5   5   44.06    3.52
   2  -5  -4   87.85    4.73
  -2   5   4   91.04    6.91
  -2   5   4   95.76    5.09
   2  -5  -3   49.77    3.10
  -2   5   3   49.95    3.04
  -2   5   3   50.37    4.20
   2  -5  -2  175.57    6.75
  -2   5   2  174.91    6.56
  -2   5   2  172.10    7.40
  -2   5   1 1840.45   83.27
  -2   5   1 1774.31   80.54
  -2   5   0   83.35    3.61
  -2   5   0   90.45    5.14
  -2   5  -1 1152.04   46.13
  -2   5  -1 1080.44   37.54
  -2   5  -2   22.79    2.38
  -2   5  -3  273.64   12.25
  -2   5  -4  818.47   37.33
   2  -5   5   24.03    2.25
  -2   5  -5   27.01    3.82
   2  -5   6  434.75   20.07
   2  -5   6  346.35   10.20
  -2   5  -6  339.58   19.27
   2  -5   7   90.12    3.74
   2  -5   7   85.26    7.48
  -2   5  -7   87.58    8.44
   2  -5   8  127.58    5.88
   2  -5   8  125.28   10.24
  -2   5  -8  129.25   11.24
   2  -5   9  167.19   12.90
   2  -5   9  159.61    8.06
  -2   5  -9  167.58   13.86
   2  -5  10    1.44    1.74
  -2   5 -10   -0.58    1.94
   2  -4  -9   12.01    3.10
  -2   4   9   18.20    4.89
  -2   4   9   12.28    3.09
   2  -4  -8    4.59    1.87
  -2   4   8    4.44    2.92
  -2   4   8    4.18    1.90
   2  -4  -7  202.79   12.78
  -2   4   7  202.54   12.88
  -2   4   7  212.66   15.05
   2  -4  -6   29.12    2.97
  -2   4   6   24.74    3.10
  -2   4   6   32.23    4.51
   2  -4  -5  159.12    7.60
  -2   4   5  164.94    8.13
  -2   4   5  159.00   10.12
   2  -4  -4   33.26    2.66
  -2   4   4   33.12    2.77
  -2   4   4   33.99    3.75
   2  -4  -3  870.76   35.46
  -2   4   3  861.03   35.83
  -2   4   3  850.99   32.45
   2  -4  -2  308.08   11.98
  -2   4   2  303.63   11.06
  -2   4   2  313.16   10.52
   2  -4  -1  147.69    5.45
  -2   4   1  149.66    6.09
  -2   4   1  153.27    5.46
  -2   4   0 1154.25   44.97
  -2   4   0 1092.40   39.71
  -2   4  -1  579.42   15.47
  -2   4  -2 3843.81  227.25
  -2   4  -3 4087.03  253.15
   2  -4   4    8.19    1.21
   2  -4   4    8.10    0.55
  -2   4  -4   10.70    2.07
   2  -4   5  337.33    9.67
   2  -4   5  321.77   15.17
  -2   4  -5  344.42   16.69
   2  -4   6   54.34    2.76
   2  -4   6   51.61    5.24
  -2   4  -6   54.20    5.81
   2  -4   7   97.12    7.67
   2  -4   7   97.93    4.85
  -2   4  -7  112.00    8.59
   2  -4   8  287.59   17.48
  -2   4  -8  309.10   18.33
   2  -4   9    3.24    1.74
   2  -4   9    0.12    0.96
  -2   4  -9    2.65    1.90
   2  -4  10   20.19    2.42
   2  -4  10    8.27    4.44
  -2   4 -10   10.00    4.86
   2  -3 -10    7.42    2.68
  -2   3  10    7.03    3.80
  -2   3  10    4.53    2.48
   2  -3  -9   29.54    4.23
  -2   3   9   29.77    6.09
  -2   3   9   27.54    4.32
   2  -3  -8  190.93   10.79
  -2   3   8  180.72   10.53
  -2   3   8  182.50   14.00
   2  -3  -7   -0.55    1.11
  -2   3   7    1.15    1.53
  -2   3   7    3.72    1.60
   2  -3  -6  112.42    6.55
  -2   3   6  118.07    7.29
  -2   3   6  111.48    8.52
   2  -3  -5    9.37    1.68
  -2   3   5    8.17    2.37
  -2   3   5    8.23    2.49
   2  -3  -4  273.00   11.97
  -2   3   4  282.47   12.43
  -2   3   4  267.07   12.01
   2  -3  -3 2439.48  120.60
  -2   3   3 2340.40  115.56
  -2   3   3 2495.82  121.91
   2  -3  -2   10.83    1.27
  -2   3   2   12.32    1.31
   2  -3  -1 1556.82   65.50
  -2   3   1 1616.21   67.08
  -2   3   0    1.80    0.99
  -2   3  -2 1596.17   70.09
   2  -3   3   83.05    3.12
   2  -3   3   77.98    1.73
  -2   3  -3   90.81    4.59
   2  -3   4  343.57   13.30
   2  -3   4  303.54    8.73
  -2   3  -4  353.54   13.86
   2  -3   5   31.67    3.13
   2  -3   5   25.35    1.74
  -2   3  -5   22.28    3.26
   2  -3   6   54.02    5.07
  -2   3  -6   59.83    7.31
   2  -3   7  160.85    6.41
   2  -3   7  167.97   10.03
  -2   3  -7  167.37   10.33
   2  -3   8    1.35    1.96
   2  -3   8    4.02    1.56
  -2   3  -8    2.91    1.96
   2  -3   9  176.12    9.17
   2  -3   9  185.08   12.85
  -2   3  -9  180.97   13.36
   2  -3  10   34.42    5.91
   2  -3  10   36.86    5.50
  -2   3 -10   41.51    6.39
   2  -2 -10  114.22    9.33
  -2   2  10  103.70    9.68
  -2   2  10  120.96   11.92
   2  -2  -9  110.34    8.21
  -2   2   9  105.70   10.58
  -2   2   9  106.38    8.39
   2  -2  -8   51.55    6.93
  -2   2   8   60.36    6.54
  -2   2   8   59.06    5.46
   2  -2  -7  436.95   23.28
  -2   2   7  445.34   23.90
  -2   2   7  444.02   20.90
   2  -2  -6  249.57   11.54
  -2   2   6  271.58   12.79
  -2   2   6  267.35   10.78
   2  -2  -5  725.17   29.02
  -2   2   5  729.96   29.53
   2  -2  -4 2366.95  118.75
  -2   2   4 2422.54  121.03
   2  -2  -3  665.16   23.33
  -2   2   3  657.76   23.03
   2  -2  -2  814.88   28.84
  -2   2   2  829.57   29.09
   2  -2  -1   63.04    2.81
  -2   2   1   69.25    2.91
  -2   2   0 2160.88   98.17
  -2   2  -1    0.05    0.24
  -2   2  -2  197.65    7.00
  -2   2  -2  199.64    5.32
   2  -2   3  948.02   37.23
  -2   2  -3  968.88   40.87
   2  -2   4    5.19    1.30
  -2   2  -4    4.60    1.89
   2  -2   5   50.59    3.35
   2  -2   5   53.28    4.09
  -2   2  -5   59.34    4.49
   2  -2   6   43.07    3.61
   2  -2   6   38.35    5.49
  -2   2  -6   47.58    5.73
   2  -2   7   59.47    5.20
   2  -2   7   64.12    7.22
  -2   2  -7   70.05    5.60
   2  -2   8  250.52   11.86
   2  -2   8  260.18   18.10
  -2   2  -8  281.35   15.14
   2  -2   9   66.07    6.75
   2  -2   9   67.54    5.49
  -2   2  -9   62.61    7.12
   2  -1 -11   55.19    7.00
  -2   1  11   52.45    8.17
  -2   1  11   48.86    8.43
   2  -1 -10   82.68    7.97
  -2   1  10   90.08    9.41
  -2   1  10   94.84    9.45
   2  -1  -9  218.37   13.12
  -2   1   9  223.08   15.18
  -2   1   9  235.85   14.53
   2  -1  -8  722.62   34.69
  -2   1   8  770.18   33.98
  -2   1   8  753.48   36.64
   2  -1  -7    8.94    2.25
  -2   1   7    9.86    2.45
   2  -1  -6  251.46   11.43
  -2   1   6  284.22   12.88
   2  -1  -5   43.38    3.15
  -2   1   5   48.47    3.50
   2  -1  -4  418.97   15.02
  -2   1   4  440.58   15.77
   2  -1  -3 3979.52  228.78
  -2   1   3 3948.82  226.95
   2  -1  -2  485.19   15.64
  -2   1   2  523.22   16.68
   2  -1  -1  496.77   15.32
  -2   1   1  493.50   15.50
  -2   1   0   31.50    1.77
  -2   1  -1  407.68   12.21
  -2   1  -1  396.16   11.12
   2  -1   2  402.58   11.62
  -2   1  -2  452.94   12.58
  -2   1  -2  435.99   13.88
   2  -1   3  210.94    7.24
   2  -1   3  207.59    7.29
  -2   1  -3  216.73    7.61
  -2   1  -3  236.07    7.04
   2  -1   4   53.99    3.26
   2  -1   4   54.44    3.52
  -2   1  -4   58.21    3.35
  -2   1  -4   51.81    2.00
   2  -1   5  191.08    7.85
   2  -1   5  196.12    8.75
  -2   1  -5  202.91   10.91
   2  -1   6   47.51    4.02
   2  -1   6   44.71    3.50
  -2   1  -6   50.14    4.05
   2  -1   7  144.41    8.32
   2  -1   7  138.97    7.80
  -2   1  -7  152.14    8.50
   2  -1   8   26.47    3.50
   2  -1   8   20.76    4.87
  -2   1  -8   29.09    3.79
   2  -1   9   39.85    4.79
   2  -1   9   36.12    4.67
  -2   1  -9   37.15    4.91
   2   0 -11   29.88    5.84
  -2   0  11   46.25    6.31
  -2   0  11   33.83    6.76
   2   0 -10  143.98   11.23
  -2   0  10  149.44   11.67
  -2   0  10  167.03   12.80
   2   0  -9  296.12   17.04
  -2   0   9  307.31   21.56
  -2   0   9  311.64   14.01
   2   0  -8    5.67    2.08
  -2   0   8    5.00    2.15
   2   0  -7  232.35   11.91
  -2   0   7  238.38   12.42
   2   0  -6  313.35   13.76
  -2   0   6  336.03   14.64
   2   0  -5  584.69   22.69
  -2   0   5  640.27   27.62
   2   0  -4 1837.86   83.88
  -2   0   4 1927.17   87.68
   2   0  -3  378.92   12.17
  -2   0   3  406.70   13.00
   2   0  -2 1193.92   44.16
  -2   0   2 1179.48   43.58
   2   0  -1  828.61   26.80
  -2   0   1  865.74   27.98
  -2   0   0   19.97    1.02
  -2   0  -1  903.62   29.26
  -2   0  -1  861.91   31.20
   2   0   2  140.23    4.77
  -2   0  -2  137.22    4.05
  -2   0  -2  137.03    4.76
   2   0   3  209.78    7.68
   2   0   3  201.83    7.05
  -2   0  -3  213.41    6.77
  -2   0  -3  212.87    7.64
   2   0   4  721.92   29.34
   2   0   4  727.46   28.68
  -2   0  -4  739.67   29.07
  -2   0  -4  776.23   30.59
   2   0   5   79.57    4.82
   2   0   5   76.62    4.39
  -2   0  -5   79.28    4.45
   2   0   6  621.98   26.29
   2   0   6  627.60   31.26
  -2   0  -6  666.69   27.53
   2   0   7    0.62    0.97
   2   0   7    0.66    1.10
  -2   0  -7    0.67    0.96
   2   0   8   87.18    7.15
   2   0   8   89.27    8.07
  -2   0  -8   89.30    6.30
   2   0   9   34.58    4.13
   2   0   9   25.55    4.73
  -2   0  -9   33.24    4.21
   2   1 -11   15.14    6.24
  -2  -1  11   17.90    4.91
  -2  -1  11   19.74    4.73
   2   1 -10  225.94   15.06
  -2  -1  10  219.29   15.11
   2   1  -9    3.58    2.17
  -2  -1   9    5.30    2.33
   2   1  -8  457.49   22.66
  -2  -1   8  494.46   24.47
   2   1  -7  253.23   12.81
  -2  -1   7  266.93   13.51
   2   1  -6   79.68    5.17
  -2  -1   6   77.53    5.17
   2   1  -5   31.77    2.75
  -2  -1   5   36.10    2.87
   2   1  -4  240.02   10.06
  -2  -1   4  254.95    9.05
   2   1  -3   63.60    3.49
  -2  -1   3   66.68    2.86
   2   1  -2 2193.99   97.80
  -2  -1   2 2130.01   95.57
  -2  -1   1  766.64   23.38
  -2  -1   0 2853.88  133.99
  -2  -1   0 2995.00  151.33
  -2  -1  -1   83.73    2.26
  -2  -1  -1   86.35    3.61
   2   1   2  767.80   28.97
  -2  -1  -2  786.65   29.42
  -2  -1  -2  810.89   26.36
   2   1   3  533.88   20.57
   2   1   3  537.69   18.08
  -2  -1  -3  564.94   21.75
  -2  -1  -3  581.99   19.05
   2   1   4  315.88   15.07
   2   1   4  337.49   12.48
  -2  -1  -4  304.13   10.30
  -2  -1  -4  340.92   16.95
   2   1   5 1008.00   42.01
   2   1   5  999.91   46.52
  -2  -1  -5 1094.38   44.21
  -2  -1  -5 1090.13   45.68
   2   1   6   24.41    2.07
   2   1   6   12.53    2.80
  -2  -1  -6   12.26    1.99
   2   1   7  112.92    7.56
   2   1   7  108.67    7.81
  -2  -1  -7  102.10    5.95
   2   1   8   84.80    7.57
   2   1   8   85.31    7.75
  -2  -1  -8   94.37    6.02
   2   2 -11   90.93    9.77
  -2  -2  11  100.17   10.76
  -2  -2  11   92.68    6.08
   2   2 -10   -0.19    1.40
  -2  -2  10    1.01    1.50
   2   2  -9    3.74    2.15
  -2  -2   9    4.16    2.98
   2   2  -8   85.32    6.91
  -2  -2   8   86.06    7.31
   2   2  -7    4.02    1.70
  -2  -2   7    2.42    1.72
   2   2  -6  707.90   30.33
  -2  -2   6  754.66   31.15
   2   2  -5   34.33    2.78
  -2  -2   5   35.67    2.77
   2   2  -4  187.70    6.69
  -2  -2   4  176.99    6.46
   2   2  -3  102.94    3.51
  -2  -2   3  103.80    3.55
  -2  -2   2  757.32   23.13
   2   2  -1 3862.27  200.01
  -2  -2   1 3588.64  185.16
  -2  -2   0   40.54    3.33
  -2  -2  -1 1303.06   55.04
  -2  -2  -1 1299.60   42.70
  -2  -2  -1 1296.67   42.88
   2   2   2  487.25   19.02
  -2  -2  -2  517.05   19.74
  -2  -2  -2  506.96   14.26
   2   2   3   35.69    4.41
   2   2   3   35.34    1.87
  -2  -2  -3   35.84    1.84
  -2  -2  -3   39.12    3.75
   2   2   4  479.09   16.51
   2   2   4  495.10   21.35
  -2  -2  -4  423.71   13.89
  -2  -2  -4  461.94   21.04
   2   2   5   62.69    5.37
   2   2   5   62.05    3.80
  -2  -2  -5   53.86    3.68
  -2  -2  -5   61.92    3.70
   2   2   6  153.76   10.16
   2   2   6  149.15    7.82
  -2  -2  -6  158.58    7.78
   2   2   7  101.99    6.93
   2   2   7  101.81    8.95
  -2  -2  -7  105.35    5.47
   2   2   8   10.54    3.45
   2   2   8    9.31    2.00
  -2  -2  -8    9.15    1.99
   2   3 -11    3.53    2.44
  -2  -3  11    1.36    2.57
   2   3 -10    5.60    2.68
  -2  -3  10    4.79    2.90
   2   3  -9   30.61    4.76
  -2  -3   9   29.53    4.78
   2   3  -8  208.07   12.36
  -2  -3   8  218.76   12.25
   2   3  -7  473.01   21.92
  -2  -3   7  480.17   21.85
   2   3  -6  218.80   10.53
  -2  -3   6  224.62   10.25
   2   3  -5  540.71   20.44
  -2  -3   5  521.20   19.57
   2   3  -4  161.24    7.38
  -2  -3   4  182.36    7.54
   2   3  -3  353.95   10.46
  -2  -3   3  351.29   11.65
   2   3  -2 2723.29  122.83
  -2  -3   2 2297.08  105.49
   2   3  -1   14.14    0.58
  -2  -3   1   15.80    1.75
  -2  -3   0 1082.94   44.67
  -2  -3  -1  703.22   28.40
   2   3   2   43.16    3.58
  -2  -3  -2   38.92    3.89
   2   3   3  310.71   15.11
  -2  -3  -3  314.22   16.22
  -2  -3  -3  341.81    8.85
   2   3   4    7.83    2.27
   2   3   4    6.88    0.98
  -2  -3  -4    5.91    2.31
  -2  -3  -4    8.37    0.97
   2   3   5   20.17    3.81
   2   3   5   20.70    1.95
  -2  -3  -5   20.36    3.99
  -2  -3  -5   23.28    1.94
   2   3   6   15.61    3.77
   2   3   6   18.18    2.14
  -2  -3  -6   13.94    2.11
   2   3   7    2.35    2.21
  -2  -3  -7    2.09    1.30
   2   4 -11  144.71   13.56
  -2  -4  11  149.65   13.40
   2   4 -10    8.65    3.30
  -2  -4  10    8.59    3.27
   2   4  -9   80.65    8.11
  -2  -4   9  103.11    8.16
   2   4  -8  251.83   14.17
  -2  -4   8  257.39   13.84
   2   4  -7    1.51    1.34
  -2  -4   7    0.79    1.28
   2   4  -6  820.47   36.17
  -2  -4   6  847.74   36.11
   2   4  -5  300.49   12.23
  -2  -4   5  327.09   12.20
   2   4  -4  576.67   20.14
  -2  -4   4  546.87   18.98
  -2  -4   3  326.02   10.39
   2   4  -2  165.27    4.38
  -2  -4   2  166.37    4.45
  -2  -4   2  189.94    7.19
  -2  -4   1  387.54   15.17
  -2  -4   0   21.02    2.70
  -2  -4  -1  380.31   17.17
   2   4   2  204.25   10.53
  -2  -4  -2  229.60   12.14
   2   4   3   36.71    5.73
  -2  -4  -3   36.32    4.70
   2   4   4   64.24    6.64
  -2  -4  -4   70.83    2.24
  -2  -4  -4   64.65    6.73
   2   4   5   69.12    7.21
  -2  -4  -5   67.92    2.76
  -2  -4  -5   59.78    4.87
   2   4   6   22.79    5.02
   2   5 -11   50.51    8.21
  -2  -5  11   56.78    8.37
   2   5 -10   82.23    9.09
  -2  -5  10   89.56    8.85
   2   5  -9  333.36   19.54
  -2  -5   9  334.64   18.58
   2   5  -8   31.63    4.58
  -2  -5   8   37.91    4.20
   2   5  -7  451.80   21.73
  -2  -5   7  488.30   21.02
   2   5  -6  137.19    7.64
  -2  -5   6  133.45    6.90
   2   5  -5  163.61    7.39
  -2  -5   5  162.61    6.94
   2   5  -4  307.41   12.53
  -2  -5   4  310.06   10.30
  -2  -5   3  148.24    5.61
   2   5  -2  136.03    4.07
  -2  -5   2  166.29    7.39
  -2  -5   1    7.00    1.87
  -2  -5   0   16.55    2.85
  -2  -5  -1  256.12   13.86
  -2  -5  -2   57.97    6.16
   2   5   3  494.77   25.43
  -2  -5  -3  520.09   32.24
   2   5   4   45.80    5.77
  -2  -5  -4   44.66    6.22
   2   5   5   42.45    6.26
  -2  -5  -5   39.47    4.31
   2   5   6   68.13   11.94
   2   6 -11   96.89   10.76
  -2  -6  11   91.22   10.52
   2   6 -10   69.42   12.14
  -2  -6  10   97.10    9.05
   2   6  -9  108.54    9.70
  -2  -6   9  124.93    9.31
   2   6  -8  234.77   13.92
  -2  -6   8  249.68   13.46
   2   6  -7  118.91    7.98
  -2  -6   7  142.33    7.56
   2   6  -6   35.16    3.52
  -2  -6   6   37.59    4.10
   2   6  -5  390.58   15.62
  -2  -6   5  394.74   14.69
   2   6  -4   34.85    2.74
  -2  -6   4   27.13    2.83
   2   6  -3  554.18   19.64
  -2  -6   3  680.84   27.74
   2   6  -2  369.31    9.70
  -2  -6   2  476.32   22.53
  -2  -6   1   17.38    3.15
  -2  -6   0  102.19    7.67
  -2  -6  -1   38.69    5.21
  -2  -6  -2  248.05   16.24
  -2  -6  -3   92.04    9.24
   2   6   4   11.80    3.56
  -2  -6  -4    9.23    3.75
   2   6   5   77.03    9.65
  -2  -6  -5   85.64    7.23
   2   7 -10   38.59    6.60
  -2  -7  10   44.24    6.26
   2   7  -9  216.00   15.67
  -2  -7   9  286.31   15.61
   2   7  -8   27.27    4.26
  -2  -7   8   29.95    3.87
   2   7  -7   12.06    2.55
  -2  -7   7   10.60    3.03
   2   7  -6   59.26    4.40
  -2  -7   6   56.81    3.82
   2   7  -5   29.76    3.42
  -2  -7   5   28.10    3.24
  -2  -7   5   33.38    3.19
  -2  -7   4  267.49    8.71
  -2  -7   4  511.44   18.23
   2   7  -3  109.58    4.19
  -2  -7   3  123.13    7.52
  -2  -7   2   64.80    5.81
  -2  -7   1  188.59   11.40
  -2  -7   0   -1.04    1.57
  -2  -7  -1  262.27   17.28
  -2  -7  -2  146.73   12.53
  -2  -7  -3   64.30    8.58
   2   8 -10   38.54    7.01
  -2  -8  10   51.48    6.49
   2   8  -9    1.53    1.75
  -2  -8   9    0.88    1.55
   2   8  -8   21.57    3.85
  -2  -8   8   21.17    4.44
   2   8  -7   17.97    4.45
  -2  -8   7   24.13    2.75
   2   8  -6   14.87    3.92
  -2  -8   6   30.98    2.78
  -2  -8   6   25.88    3.34
   2   8  -5   44.70    4.20
  -2  -8   5   50.30    4.62
   2   8  -4    4.86    1.32
  -2  -8   4    5.28    2.02
   2   8  -3  337.95   10.22
   2   8  -3  308.65    9.75
  -2  -8   3  375.15   22.08
  -2  -8   2  487.58   25.41
  -2  -8   1   70.51    7.34
  -2  -8   0  338.43   21.21
  -2  -8  -1    1.12    2.02
  -2  -8  -2   66.63    9.12
   2   9  -8  108.15    8.94
  -2  -9   8  124.15    7.70
  -2  -9   8  110.27    7.60
   2   9  -7   24.60    3.67
  -2  -9   7   27.43    3.86
  -2  -9   7   28.41    3.41
   2   9  -6  105.53    6.42
  -2  -9   6  113.50    8.03
   2   9  -5    4.76    1.55
  -2  -9   5    5.42    2.18
  -2  -9   4  238.31   14.57
  -2  -9   3  161.07   11.43
  -2  -9   2   45.14    6.25
  -2  -9   1  106.38   10.36
  -2  -9   0    1.84    2.37
   2  10  -6   -1.21    1.07
  -2 -10   6    0.35    1.41
  -2 -10   5   51.17    6.10
  -2 -10   4   77.01    7.78
  -2 -10   3   -0.03    1.15
  -3  11   1   79.05    8.00
  -3  11   1   91.40    6.58
  -3  11   0   33.39    5.36
  -3  11   0   33.39    4.00
  -3  11  -1   82.01    6.84
  -3  11  -1   80.44    6.42
  -3  11  -2  206.78   15.45
  -3  11  -2  212.21   13.03
  -3  11  -3   -0.35    1.19
  -3  11  -3   -0.23    1.25
  -3  11  -4  123.67    9.90
  -3  11  -4  115.54   10.58
  -3  11  -5   14.08    3.86
  -3  11  -5   14.49    4.19
  -3  10   3    4.92    1.72
  -3  10   3    4.33    2.30
  -3  10   2  203.08   10.60
  -3  10   2  183.09   13.68
  -3  10   1   44.48    4.20
  -3  10   1   41.83    5.08
  -3  10   1   40.66    4.09
  -3  10   0   57.50    6.75
  -3  10   0   69.25    5.13
  -3  10  -1   99.39    6.84
  -3  10  -1   95.18    6.96
  -3  10  -2   -0.32    1.53
  -3  10  -2    0.95    1.20
  -3  10  -3  150.54   10.00
  -3  10  -3  132.50    9.99
  -3  10  -4   10.13    3.44
  -3  10  -4   12.97    3.08
  -3  10  -5   16.88    4.24
  -3  10  -6   10.42    4.07
  -3  10  -7    0.26    1.75
  -3   9   5  130.80    8.78
  -3   9   5  133.44   15.51
  -3   9   4   10.53    2.82
  -3   9   4    4.67    2.01
  -3   9   3  208.28   12.61
  -3   9   3  197.00   10.04
  -3   9   2    4.48    2.54
  -3   9   2    6.78    1.80
  -3   9   1   49.37    3.82
  -3   9   1   50.94    4.13
  -3   9   0   40.43    3.72
  -3   9   0   47.62    4.03
  -3   9   0   44.74    3.99
  -3   9  -1    9.60    2.24
  -3   9  -1    9.80    2.87
  -3   9  -2   93.09    6.70
  -3   9  -2   83.62    6.59
  -3   9  -3   26.61    3.69
  -3   9  -3   17.46    3.88
  -3   9  -4   76.26    7.42
  -3   9  -5   94.03    9.06
  -3   9  -6    1.57    2.18
  -3   9  -7   49.05    8.03
  -3   9  -8    6.20    4.07
   3  -8  -6    8.21    3.02
  -3   8   6    8.09    3.73
  -3   8   6    9.02    2.49
   3  -8  -5   29.68    3.52
  -3   8   5   27.43    3.72
  -3   8   5   28.59    5.08
  -3   8   4  175.65   12.08
  -3   8   4  187.60   11.81
  -3   8   3   13.61    2.78
  -3   8   3   14.20    3.12
  -3   8   2  290.04   13.36
  -3   8   2  279.32   14.97
  -3   8   1  155.08    8.03
  -3   8   1  162.61    7.34
  -3   8   0    0.12    0.82
  -3   8   0    0.37    0.71
  -3   8  -1  166.39   10.73
  -3   8  -1  147.43    8.53
  -3   8  -2   60.97    5.32
  -3   8  -2   66.55    5.36
  -3   8  -3   93.14    7.18
  -3   8  -4  106.61    8.42
  -3   8  -5    4.01    2.47
  -3   8  -6  116.21   10.96
  -3   8  -7   22.81    5.51
  -3   8  -8   18.38    5.76
   3  -7  -7   21.80    4.48
  -3   7   7   20.45    3.81
  -3   7   7   18.65    5.51
   3  -7  -6   35.68    3.90
  -3   7   6   32.50    5.91
  -3   7   6   34.43    5.48
   3  -7  -5  234.27   14.13
  -3   7   5  231.15   14.97
  -3   7   5  239.31   11.98
   3  -7  -4    7.10    1.82
  -3   7   4    7.41    2.40
  -3   7   4    8.53    1.89
   3  -7  -3  175.37    8.49
  -3   7   3  173.47    9.47
  -3   7   3  179.71    8.67
  -3   7   2   40.21    3.43
  -3   7   2   42.45    4.58
  -3   7   1  142.67    8.99
  -3   7   1  132.08    7.23
  -3   7   0  657.86   30.70
  -3   7   0  591.46   22.96
  -3   7  -1   66.49    2.55
  -3   7  -1   68.06    3.45
  -3   7  -1   65.62    5.27
  -3   7  -2   92.46    6.44
  -3   7  -2   89.52    6.44
  -3   7  -3   95.24    7.47
  -3   7  -4   54.84    7.74
  -3   7  -5  818.31   44.40
  -3   7  -6  110.00   10.32
  -3   7  -7   98.11   10.34
  -3   7  -8   11.51    4.52
  -3   7  -9   12.39    4.94
   3  -6  -8   25.76    5.70
  -3   6   8   30.15    6.81
  -3   6   8   35.44    4.74
   3  -6  -7   17.26    3.04
  -3   6   7   16.97    4.61
  -3   6   7   16.51    3.31
   3  -6  -6  123.77    7.72
  -3   6   6  137.49   11.10
  -3   6   6  129.88    8.21
   3  -6  -5  100.29    6.31
  -3   6   5  108.07    8.31
  -3   6   5  104.94    8.44
   3  -6  -4    6.48    1.59
  -3   6   4    4.88    1.63
  -3   6   4    3.70    2.79
   3  -6  -3    1.85    1.18
  -3   6   3    1.73    1.54
  -3   6   3    2.46    1.79
   3  -6  -2  189.82    8.83
  -3   6   2  204.59    8.67
  -3   6   2  201.42   10.86
  -3   6   1  997.59   42.29
  -3   6   1 1044.20   44.95
  -3   6   0   40.50    3.49
  -3   6   0   36.74    2.40
  -3   6  -1  868.28   38.85
  -3   6  -1  952.51   31.27
  -3   6  -2  197.78   10.14
  -3   6  -3  372.47   18.49
  -3   6  -4 1230.11   62.98
  -3   6  -5  126.51    9.60
  -3   6  -6  229.48   15.42
  -3   6  -7  108.39   10.39
   3  -6   8    0.19    0.95
  -3   6  -8    1.20    1.74
   3  -6   9   -0.89    2.62
  -3   6  -9   51.23    4.75
   3  -5  -9    4.18    1.98
  -3   5   9    2.33    2.03
  -3   5   9   -0.29    3.14
   3  -5  -8   -0.50    1.07
  -3   5   8   -0.20    1.14
  -3   5   8    0.93    2.13
   3  -5  -7  218.60   14.84
  -3   5   7  220.36   12.70
  -3   5   7  226.38   16.33
   3  -5  -6   98.85    6.38
  -3   5   6   86.53    8.41
  -3   5   6   96.14    6.67
   3  -5  -5  217.45   12.86
  -3   5   5  215.82   12.99
  -3   5   5  222.25   13.49
   3  -5  -4  108.07    8.07
  -3   5   4  130.09    7.63
  -3   5   4  110.21    8.05
   3  -5  -3   29.48    2.88
  -3   5   3   25.77    2.80
  -3   5   3   29.83    2.99
   3  -5  -2  813.60   33.45
  -3   5   2  823.42   33.30
  -3   5   2  803.45   31.75
  -3   5   1   70.52    4.06
  -3   5   1   63.58    3.01
  -3   5   0 1666.25   84.44
  -3   5   0 1855.06   78.18
  -3   5  -1  210.78    9.02
  -3   5  -1  196.74    4.72
  -3   5  -2   46.39    3.78
  -3   5  -3  181.49    9.88
  -3   5  -4   56.86    5.57
  -3   5  -5  318.38   17.29
  -3   5  -6  209.63   13.52
   3  -5   7   40.56    2.02
  -3   5  -7   33.81    5.89
   3  -5   8   26.15    3.85
  -3   5  -8   85.18    6.81
   3  -5   9   -1.20    1.25
  -3   5  -9   -1.48    2.15
   3  -4  -9   34.01    4.75
  -3   4   9   30.60    6.78
  -3   4   9   32.37    4.95
   3  -4  -8  142.58    9.57
  -3   4   8  146.51    9.94
  -3   4   8  140.96   12.87
   3  -4  -7   25.12    3.37
  -3   4   7   19.46    4.49
  -3   4   7   20.15    3.51
   3  -4  -6  966.06   45.27
  -3   4   6 1014.32   47.79
  -3   4   6  923.53   48.07
   3  -4  -5  436.53   18.98
  -3   4   5  436.01   22.06
  -3   4   5  444.84   22.92
   3  -4  -4   89.23    5.00
  -3   4   4   81.55    4.09
  -3   4   4   84.82    4.98
   3  -4  -3  665.14   26.11
  -3   4   3  653.49   25.66
   3  -4  -2  127.95    5.84
  -3   4   2  123.57    5.62
   3  -4  -1  593.15   22.29
  -3   4   1  613.39   22.74
  -3   4   0  824.28   32.37
  -3   4  -1   22.48    2.33
  -3   4  -2  173.93    7.73
  -3   4  -3   37.25    3.75
  -3   4  -4  176.29    9.98
  -3   4  -5    1.63    1.52
   3  -4   6    0.06    1.31
   3  -4   6    7.89    0.97
  -3   4  -6    5.59    2.21
   3  -4   7   97.08    4.67
   3  -4   7   93.42    5.55
  -3   4  -7  114.18   11.48
   3  -4   8    3.20    1.40
   3  -4   8    5.36    1.51
  -3   4  -8    3.51    2.52
   3  -4   9  130.43    8.13
  -3   4  -9  138.71   12.15
   3  -3 -10   51.91    6.49
  -3   3  10   45.98    6.17
  -3   3  10   52.40   11.37
   3  -3  -9   52.34    7.66
  -3   3   9   44.90    7.36
  -3   3   9   50.71    6.11
   3  -3  -8   10.61    3.84
  -3   3   8   13.15    3.75
  -3   3   8   12.54    2.94
   3  -3  -7  657.31   31.25
  -3   3   7  673.50   30.33
  -3   3   7  687.23   33.00
   3  -3  -6  150.89    8.81
  -3   3   6  161.86    9.53
   3  -3  -5  519.17   21.89
  -3   3   5  530.50   22.71
   3  -3  -4  569.00   22.36
  -3   3   4  565.34   22.20
   3  -3  -3   43.52    3.00
  -3   3   3   41.76    3.09
   3  -3  -2 1845.19   83.04
  -3   3   2 1662.21   76.02
   3  -3  -1  197.40    7.49
  -3   3   1  201.76    7.44
  -3   3   0  347.54   12.39
  -3   3  -1  226.05    8.35
  -3   3  -2   10.22    0.79
  -3   3  -2    8.97    1.63
  -3   3  -3  214.13    5.19
  -3   3  -3  223.93    9.94
  -3   3  -4  200.70   10.47
   3  -3   5    5.37    1.10
  -3   3  -5    8.14    2.78
   3  -3   6  118.15    5.57
  -3   3  -6  129.74    8.30
   3  -3   7   -1.10    0.69
   3  -3   7   -0.49    1.27
  -3   3  -7    1.08    1.30
   3  -3   8  217.76   11.48
   3  -3   8  231.78   14.52
  -3   3  -8  243.26   18.47
   3  -3   9   53.20    5.69
   3  -3   9   61.30    4.70
  -3   3  -9   62.15    7.35
   3  -2 -10  138.95   11.20
  -3   2  10  129.56   12.92
  -3   2  10  139.28   14.66
   3  -2  -9    6.80    3.74
  -3   2   9    9.57    3.46
  -3   2   9    7.77    2.79
   3  -2  -8  388.57   20.34
  -3   2   8  393.20   20.97
   3  -2  -7   11.70    2.71
  -3   2   7   13.49    2.98
   3  -2  -6  309.63   14.66
  -3   2   6  339.61   15.84
   3  -2  -5  370.61   15.50
  -3   2   5  388.45   16.26
   3  -2  -4  256.86   12.13
  -3   2   4  259.96   10.40
   3  -2  -3 2067.09   97.73
  -3   2   3 1975.89   93.78
   3  -2  -2    2.66    0.79
  -3   2   2    0.68    0.79
   3  -2  -1    2.07    0.78
  -3   2   1    1.68    0.75
  -3   2   0  374.28   12.46
  -3   2  -1  160.86    5.78
  -3   2  -2 2691.27  131.57
  -3   2  -2 2700.13  140.99
  -3   2  -3  438.59   13.93
  -3   2  -3  515.09   19.16
  -3   2  -4  191.04    8.77
  -3   2  -4  196.64    6.74
   3  -2   5  106.19    4.36
   3  -2   5   92.55    4.05
  -3   2  -5  110.52    8.28
   3  -2   6    0.14    1.02
   3  -2   6    2.22    1.17
  -3   2  -6    1.11    1.22
   3  -2   7  174.21    9.81
   3  -2   7  183.41   10.80
  -3   2  -7  193.48   11.03
   3  -2   8   74.21    6.62
   3  -2   8   79.21    6.93
  -3   2  -8   80.97    9.18
   3  -2   9   41.58    5.58
   3  -2   9   40.34    5.61
  -3   2  -9   45.75    7.76
   3  -1 -11   84.55    9.63
  -3   1  11   89.02    9.75
  -3   1  11   89.27   10.75
   3  -1 -10   18.75    4.23
  -3   1  10   17.48    3.20
  -3   1  10   24.61    4.68
   3  -1  -9  350.52   19.94
  -3   1   9  357.64   20.24
   3  -1  -8   70.58    6.32
  -3   1   8   74.02    6.70
   3  -1  -7   59.32    7.18
  -3   1   7   64.78    6.09
   3  -1  -6  182.91    9.61
  -3   1   6  204.29   10.53
   3  -1  -5  103.94    5.81
  -3   1   5  114.53    6.23
   3  -1  -4  664.49   25.32
  -3   1   4  671.56   25.41
   3  -1  -3  880.17   33.06
  -3   1   3  860.38   32.14
   3  -1  -2   78.12    3.33
  -3   1   2   78.87    3.38
   3  -1  -1  365.81   11.64
  -3   1   1  366.75   11.46
  -3   1   0   33.10    1.84
  -3   1  -1  950.69   32.60
  -3   1  -1  924.44   33.37
  -3   1  -1  938.56   32.83
  -3   1  -2   91.75    5.07
  -3   1  -2   93.79    4.25
  -3   1  -3  516.61   19.24
  -3   1  -3  488.92   17.33
   3  -1   4  825.69   34.82
  -3   1  -4  941.08   39.76
  -3   1  -4  912.82   37.21
   3  -1   5    5.52    1.23
   3  -1   5    4.73    0.93
  -3   1  -5    5.32    0.89
  -3   1  -5    5.27    1.56
   3  -1   6  408.23   17.80
   3  -1   6  365.60   17.88
  -3   1  -6  418.39   17.81
   3  -1   7   46.12    5.30
   3  -1   7   55.56    4.66
  -3   1  -7   49.81    6.15
   3  -1   8   57.65    5.64
   3  -1   8   56.22    6.53
  -3   1  -8   65.76    5.80
   3   0 -11   -0.58    1.34
  -3   0  11    0.08    0.93
  -3   0  11    0.88    1.42
   3   0 -10  203.74   14.67
  -3   0  10  243.26   15.91
   3   0  -9   56.65    6.26
  -3   0   9   62.49    6.62
   3   0  -8   27.08    3.87
  -3   0   8   28.10    4.19
   3   0  -7   88.32    6.53
  -3   0   7   98.12    7.36
   3   0  -6   98.74    6.21
  -3   0   6  115.80    7.21
   3   0  -5  416.18   16.70
  -3   0   5  452.06   17.56
   3   0  -4   68.75    3.78
  -3   0   4   68.66    3.85
   3   0  -3  802.68   29.44
  -3   0   3  840.18   32.42
   3   0  -2  278.96    8.60
  -3   0   2  280.24    8.59
   3   0  -1   83.46    2.89
  -3   0   1   89.92    2.93
  -3   0   0 1030.99   36.41
  -3   0  -1  888.79   32.89
  -3   0  -1  853.14   30.80
  -3   0  -1  909.14   32.38
  -3   0  -2  873.86   34.34
  -3   0  -2  977.94   35.41
   3   0   3 1133.62   49.00
  -3   0  -3 1292.25   54.15
  -3   0  -3 1275.95   54.55
   3   0   4    6.36    1.78
  -3   0  -4    5.07    1.49
  -3   0  -4    2.68    1.15
   3   0   5  425.41   18.57
  -3   0  -5  429.53   18.67
  -3   0  -5  434.69   19.00
   3   0   6   55.75    4.85
   3   0   6   61.22    4.20
  -3   0  -6   62.18    4.14
   3   0   7    8.98    2.37
   3   0   7    9.45    2.03
  -3   0  -7    7.68    1.97
   3   0   8   30.09    2.54
   3   0   8   37.10    4.61
  -3   0  -8   36.68    3.86
   3   1 -11   60.22    7.94
  -3  -1  11   67.64    8.74
   3   1 -10    8.18    3.25
  -3  -1  10   11.90    4.79
   3   1  -9   75.18    7.24
  -3  -1   9   82.60    7.79
   3   1  -8   36.40    4.59
  -3  -1   8   40.66    4.86
   3   1  -7   69.66    5.84
  -3  -1   7   78.15    6.28
   3   1  -6  276.06   12.52
  -3  -1   6  308.85   13.64
   3   1  -5    0.76    0.76
  -3  -1   5    0.21    0.82
   3   1  -4  472.98   16.95
  -3  -1   4  487.22   17.18
   3   1  -3 1534.42   64.63
  -3  -1   3 1568.63   65.41
   3   1  -2  264.45    8.64
  -3  -1   2  259.20    8.56
  -3  -1   1 5018.60  308.18
  -3  -1   0  155.72    4.89
  -3  -1   0  134.07    5.64
  -3  -1  -1  357.65   12.60
  -3  -1  -1  294.56    9.37
  -3  -1  -1  349.87    9.80
  -3  -1  -2   89.97    4.98
  -3  -1  -2   94.96    3.53
   3   1   3   33.18    3.00
  -3  -1  -3   39.08    3.46
  -3  -1  -3   35.26    2.38
   3   1   4  290.41   13.46
  -3  -1  -4  312.28   14.78
  -3  -1  -4  312.97   11.77
   3   1   5   87.59    6.33
  -3  -1  -5   93.38    5.42
  -3  -1  -5   93.95    6.72
   3   1   6   -0.39    0.43
  -3  -1  -6   -0.12    0.68
   3   1   7   11.04    3.07
  -3  -1  -7   10.88    1.96
   3   2 -11    3.04    2.61
  -3  -2  11    3.42    2.81
   3   2 -10  113.69   10.64
  -3  -2  10  145.07   11.50
   3   2  -9  103.53    8.57
  -3  -2   9  110.48    9.31
   3   2  -8   51.04    5.07
  -3  -2   8   40.32    5.11
   3   2  -7 1052.43   49.45
  -3  -2   7 1058.34   49.70
   3   2  -6  152.37    7.80
  -3  -2   6  141.72    7.70
   3   2  -5  848.48   34.25
  -3  -2   5  889.13   38.33
   3   2  -4  256.77   10.33
  -3  -2   4  260.09    9.12
   3   2  -3  362.46   11.33
  -3  -2   3  372.34   12.73
  -3  -2   2  684.31   22.29
   3   2  -1    1.28    0.38
  -3  -2   1    0.61    0.36
  -3  -2   0  386.94   15.91
  -3  -2   0  301.24    7.78
  -3  -2   0  350.53    8.57
  -3  -2  -1  115.42    2.97
  -3  -2  -1  106.34    6.14
  -3  -2  -2   44.97    3.87
  -3  -2  -2   45.01    1.91
  -3  -2  -2   40.98    1.57
   3   2   3  177.76    9.00
  -3  -2  -3  208.48   10.78
  -3  -2  -3  182.85    6.40
   3   2   4   -0.30    1.20
  -3  -2  -4    2.88    1.30
  -3  -2  -4    0.95    0.65
   3   2   5  204.21   12.36
  -3  -2  -5  203.10   12.36
  -3  -2  -5  222.27    8.60
   3   2   6   96.86   11.25
  -3  -2  -6  109.99    5.97
   3   2   7   -0.86    2.18
   3   3 -11  164.22   14.02
  -3  -3  11  171.35   15.49
   3   3 -10  157.97   12.27
  -3  -3  10  176.64   13.07
   3   3  -9   31.76    4.67
  -3  -3   9   31.70    4.84
   3   3  -8  705.25   34.53
  -3  -3   8  774.09   36.46
   3   3  -7    0.75    0.98
  -3  -3   7   -0.24    1.02
   3   3  -6  728.80   31.15
  -3  -3   6  778.40   32.43
   3   3  -5  336.42   12.25
  -3  -3   5  283.06   11.36
   3   3  -4  211.54    7.11
  -3  -3   4  187.09    6.68
  -3  -3   3  210.86    7.04
   3   3  -2    8.63    0.83
  -3  -3   2    8.07    0.98
  -3  -3   1 1487.41   69.04
  -3  -3   0  151.12    9.81
  -3  -3  -1   29.87    3.52
  -3  -3  -2   31.08    3.93
  -3  -3  -3    3.40    1.87
   3   3   4  231.97   13.33
  -3  -3  -4  256.26   14.74
  -3  -3  -4  245.40    6.94
   3   3   5  167.76   11.27
  -3  -3  -5  184.15   12.32
  -3  -3  -5  154.50    5.60
   3   3   6    2.84    1.70
  -3  -3  -6    0.09    1.10
   3   4 -11   40.24    7.44
  -3  -4  11   62.13    8.04
   3   4 -10    5.68    2.84
  -3  -4  10    7.83    3.04
   3   4  -9   65.68    7.21
  -3  -4   9   96.82    7.70
   3   4  -8    5.68    2.01
  -3  -4   8    3.48    1.95
   3   4  -7  829.66   38.03
  -3  -4   7  851.70   38.15
   3   4  -6  686.13   29.40
  -3  -4   6  741.32   30.36
   3   4  -5   23.59    3.07
  -3  -4   5   26.47    2.30
   3   4  -4  366.27   14.00
  -3  -4   4  410.98   14.60
   3   4  -3    2.87    0.75
  -3  -4   3    3.16    0.79
   3   4  -2  284.46    7.04
  -3  -4   2  248.54    6.94
  -3  -4   2  280.32   12.42
  -3  -4   1  659.19   28.91
  -3  -4   0  153.45    9.22
  -3  -4  -1  271.35   14.37
  -3  -4  -2   44.90    5.18
  -3  -4  -3  156.03   11.46
  -3  -4  -4   82.15    8.28
  -3  -4  -5    2.67    2.42
   3   5 -11   12.95    4.25
  -3  -5  11   12.70    4.22
   3   5 -10   85.07    8.39
  -3  -5  10   84.75    8.35
   3   5  -9    3.53    1.95
  -3  -5   9    2.60    1.96
   3   5  -8  249.56   13.64
  -3  -5   8  275.00   14.02
   3   5  -7   26.47    3.24
  -3  -5   7   27.92    3.14
   3   5  -6   42.65    3.51
  -3  -5   6   47.95    3.43
   3   5  -5  134.00    7.01
  -3  -5   5  137.85    6.86
  -3  -5   4   59.38    3.30
   3   5  -3  184.95    6.02
  -3  -5   3  210.25   10.39
  -3  -5   3  222.72    6.88
  -3  -5   2  357.66   17.15
  -3  -5   1   24.18    3.63
  -3  -5   0  545.87   26.67
  -3  -5  -1   68.36    6.92
  -3  -5  -2  292.87   18.04
  -3  -5  -3  155.45   12.58
  -3  -5  -4    1.37    1.99
   3   6 -11   79.47    9.81
  -3  -6  11  100.50   13.53
   3   6 -10    5.23    2.38
  -3  -6  10    2.07    2.41
   3   6  -9    4.03    2.39
  -3  -6   9    7.50    2.38
   3   6  -8    1.84    2.12
  -3  -6   8    2.67    1.56
   3   6  -7    0.09    1.42
  -3  -6   7    1.31    1.02
   3   6  -6  166.19    7.51
  -3  -6   6  162.06    7.05
   3   6  -5    3.03    1.21
  -3  -6   5    2.79    1.20
   3   6  -4  337.05   12.37
  -3  -6   4  414.34   18.30
  -3  -6   4  425.61   14.51
   3   6  -3    7.42    0.79
  -3  -6   3    8.15    2.28
  -3  -6   2  263.00   17.62
  -3  -6   1  379.49   20.48
  -3  -6   0   15.26    3.65
  -3  -6  -1  506.25   28.62
  -3  -6  -2  148.55   16.77
  -3  -6  -3   41.20    7.04
   3   7 -10   83.70    8.69
  -3  -7  10   89.48   11.06
   3   7  -9   12.58    3.17
  -3  -7   9   12.70    3.99
   3   7  -8   73.23    8.19
  -3  -7   8   83.83    5.85
   3   7  -7   90.80    6.69
  -3  -7   7  141.82    6.65
   3   7  -6   -0.13    0.71
  -3  -7   6   -0.47    0.70
  -3  -7   5  306.42   10.83
  -3  -7   5  261.41   14.91
   3   7  -4   43.26    2.44
  -3  -7   4   52.95    5.10
  -3  -7   3  229.30   13.83
  -3  -7   2  352.45   24.55
  -3  -7   1   -0.19    1.28
  -3  -7   0  128.04   11.38
  -3  -7  -1    3.50    2.80
  -3  -7  -2  124.97   12.89
   3   8  -9   85.10    7.83
  -3  -8   9   93.31    7.49
   3   8  -8  172.19   10.40
  -3  -8   8  179.00    9.47
   3   8  -7   25.57    3.01
  -3  -8   7   24.34    2.87
   3   8  -6  219.24   11.37
  -3  -8   6  251.82   10.42
  -3  -8   6  261.53   14.60
   3   8  -5   87.68    4.79
  -3  -8   5  105.42    8.27
  -3  -8   4  151.14   10.95
  -3  -8   3  257.15   20.48
  -3  -8   2   15.89    5.48
  -3  -8   1   42.49    6.80
  -3  -8   0    0.79    1.97
   3   9  -7  117.85    9.10
  -3  -9   7  139.25    7.66
  -3  -9   7  153.23   10.72
  -3  -9   6   11.99    3.44
  -3  -9   5   24.58    4.72
  -3  -9   4   96.86   12.43
  -3  -9   3    4.19    3.65
  -3  -9   2  140.14   13.01
  -4  11   1   37.99    3.64
  -4  11   1   34.30    4.75
  -4  11   1   44.51    5.03
  -4  11   0   12.95    3.09
  -4  11   0   12.61    4.02
  -4  11  -1  102.47    8.62
  -4  11  -1  113.83    8.60
  -4  11  -2    9.86    3.20
  -4  11  -2    9.76    3.09
  -4  11  -3   30.41    5.23
  -4  11  -3   29.46    5.20
  -4  11  -4   11.48    3.89
  -4  11  -4   12.12    4.04
  -4  10   3  119.11   10.72
  -4  10   3  110.04    8.48
  -4  10   2   59.57    5.67
  -4  10   2   52.33    6.31
  -4  10   1   51.87    4.96
  -4  10   1   55.37    5.28
  -4  10   0   56.85    3.19
  -4  10   0   55.19    7.18
  -4  10   0   58.86    5.71
  -4  10  -1    2.44    1.76
  -4  10  -1    2.29    1.76
  -4  10  -2   85.32    7.80
  -4  10  -2   85.74    7.76
  -4  10  -3  104.03    9.26
  -4  10  -3  101.36    9.37
  -4  10  -4    0.26    1.40
  -4  10  -4   -0.76    1.39
  -4  10  -5   23.85    5.63
  -4  10  -5   24.62    5.07
  -4  10  -6   -0.93    2.22
  -4   9   5   26.67    5.32
  -4   9   5   31.12    4.46
  -4   9   4  179.22   15.21
  -4   9   4  187.24   14.03
  -4   9   3   47.93    4.78
  -4   9   3   43.99    5.03
  -4   9   2   13.45    2.35
  -4   9   2   12.13    2.77
  -4   9   1   10.35    1.68
  -4   9   1    8.77    3.24
  -4   9   0    1.09    0.80
  -4   9   0    0.73    0.78
  -4   9   0    0.07    1.20
  -4   9  -1  269.47   14.83
  -4   9  -1  237.53   14.18
  -4   9  -2  231.00   13.89
  -4   9  -2  207.56   13.54
  -4   9  -3   91.93    8.60
  -4   9  -3   98.87    8.86
  -4   9  -4  110.63   10.18
  -4   9  -4  118.22    9.71
  -4   9  -5    6.47    3.30
  -4   9  -6   78.06   10.07
  -4   9  -7   73.26   11.04
   4  -8  -6    3.37    1.91
  -4   8   6    3.40    2.85
  -4   8   6    3.17    2.58
   4  -8  -5   23.44    3.84
  -4   8   5   27.25    3.94
  -4   8   5   23.50    4.58
  -4   8   4  176.25   10.35
  -4   8   4  170.74   11.13
  -4   8   3    8.29    2.24
  -4   8   3    6.70    2.12
  -4   8   2   90.04    6.70
  -4   8   2   81.23    7.89
  -4   8   1   51.47    3.98
  -4   8   1   45.29    4.56
  -4   8   0  212.92   12.12
  -4   8   0  258.06    8.26
  -4   8  -1   53.61    5.05
  -4   8  -1   45.27    3.35
  -4   8  -2  196.00   11.86
  -4   8  -2  177.51   11.31
  -4   8  -3  328.02   18.59
  -4   8  -3  306.69   17.82
  -4   8  -4   13.48    3.65
  -4   8  -5  289.20   19.55
  -4   8  -6  112.78   11.34
  -4   8  -7   15.00    5.25
  -4   8  -8   65.79   10.56
   4  -7  -7    6.02    3.50
  -4   7   7    8.49    3.56
  -4   7   7    8.26    3.86
   4  -7  -6   62.50    5.91
  -4   7   6   64.60    6.41
  -4   7   6   61.32    7.52
   4  -7  -5  113.69   10.44
  -4   7   5  115.87   10.73
  -4   7   5  122.84    9.42
   4  -7  -4  107.46    7.41
  -4   7   4  108.17   10.06
  -4   7   4  110.65    7.55
   4  -7  -3  187.50   10.24
  -4   7   3  192.48   10.28
  -4   7   3  181.82   11.83
  -4   7   2    7.46    1.57
  -4   7   2    6.93    1.95
  -4   7   1  192.73    8.80
  -4   7   1  216.20   10.74
  -4   7   0  262.22   14.07
  -4   7   0  309.78   10.53
  -4   7  -1   94.19    2.77
  -4   7  -1  109.37    7.24
  -4   7  -2  348.23   18.30
  -4   7  -2  382.18   18.99
  -4   7  -3    3.70    2.06
  -4   7  -4  271.78   16.56
  -4   7  -5   71.64    8.09
  -4   7  -6   48.58    7.06
  -4   7  -7   44.34    7.42
  -4   7  -8    0.65    2.10
   4  -6  -8   57.73    6.51
  -4   6   8   61.68    7.26
  -4   6   8   58.53    9.32
   4  -6  -7  106.50    8.53
  -4   6   7  115.39    9.15
  -4   6   7  113.40   10.98
   4  -6  -6    5.46    2.21
  -4   6   6    4.92    3.69
  -4   6   6    7.06    2.32
   4  -6  -5  180.08   10.67
  -4   6   5  183.77   11.74
  -4   6   5  191.95   11.02
   4  -6  -4  610.45   28.50
  -4   6   4  606.15   32.11
  -4   6   4  597.97   27.77
   4  -6  -3    5.85    1.98
  -4   6   3    6.77    1.73
  -4   6   3    5.32    1.94
   4  -6  -2  836.59   38.56
  -4   6   2  889.01   39.71
  -4   6   2  837.71   34.64
  -4   6   1  255.68    8.95
  -4   6   1  254.02   12.35
  -4   6   0  353.60   16.26
  -4   6   0  341.24   12.09
  -4   6  -1  210.24   11.16
  -4   6  -2   39.76    4.34
  -4   6  -2   35.14    4.33
  -4   6  -3    1.83    1.65
  -4   6  -4   14.57    3.40
  -4   6  -5  113.47    9.89
  -4   6  -6   98.18    9.72
  -4   6  -7    0.60    1.70
  -4   6  -8    5.18    3.40
   4  -5  -9   15.10    5.19
  -4   5   9   15.38    4.31
  -4   5   9   14.64    5.28
   4  -5  -8  115.27    9.04
  -4   5   8  108.26   11.63
  -4   5   8  111.47    9.85
   4  -5  -7   16.30    3.19
  -4   5   7   12.69    3.98
  -4   5   7   14.48    3.42
   4  -5  -6  553.24   27.37
  -4   5   6  600.62   29.30
  -4   5   6  548.20   29.14
   4  -5  -5  404.48   19.64
  -4   5   5  425.26   21.54
  -4   5   5  414.71   20.28
   4  -5  -4  199.79   10.31
  -4   5   4  174.80    9.85
  -4   5   4  189.45    7.80
   4  -5  -3  187.18    9.66
  -4   5   3  178.64    9.28
   4  -5  -2    0.53    1.29
  -4   5   2    3.16    1.27
  -4   5   1  769.86   33.28
  -4   5   0  733.64   31.98
  -4   5  -1    0.29    0.92
  -4   5  -2   18.20    2.79
  -4   5  -2   18.11    2.86
  -4   5  -3   19.84    3.37
  -4   5  -4  151.38   10.07
  -4   5  -5  323.54   18.85
  -4   5  -6   -0.34    1.43
  -4   5  -7   56.63    7.04
  -4   5  -8    2.04    2.38
   4  -4  -9  126.90   10.38
  -4   4   9  110.75   12.59
  -4   4   9  130.78   11.26
   4  -4  -8    0.50    1.45
  -4   4   8    2.55    1.92
  -4   4   8    0.04    1.55
   4  -4  -7  419.79   21.94
  -4   4   7  421.76   19.62
  -4   4   7  446.52   23.55
   4  -4  -6  140.66    8.89
  -4   4   6  144.81    9.73
   4  -4  -5   73.45    5.74
  -4   4   5   76.60    6.04
   4  -4  -4   98.90    6.30
  -4   4   4   98.57    8.18
   4  -4  -3   29.68    3.16
  -4   4   3   27.02    3.11
   4  -4  -2  762.85   32.79
  -4   4   2  785.68   32.78
  -4   4   1  667.99   27.39
  -4   4   0  303.61   12.82
  -4   4  -1  503.87   21.04
  -4   4  -2   91.26    2.27
  -4   4  -2   78.81    5.46
  -4   4  -2   73.90    5.29
  -4   4  -3  149.09    8.83
  -4   4  -3  144.21    3.30
  -4   4  -4  251.65   13.75
  -4   4  -5    7.13    3.34
  -4   4  -6  232.68   15.31
  -4   4  -7   66.52    7.41
  -4   4  -8   65.30   10.26
   4  -3 -10   54.44    7.65
  -4   3  10   62.91    9.13
  -4   3  10   62.24    7.76
   4  -3  -9   17.59    3.63
  -4   3   9   10.10    3.79
  -4   3   9   14.00    2.92
   4  -3  -8  116.18    9.30
  -4   3   8  125.20    9.83
   4  -3  -7  439.56   22.27
  -4   3   7  473.51   28.99
   4  -3  -6   90.45    7.01
  -4   3   6  101.04    7.69
   4  -3  -5  632.35   28.39
  -4   3   5  654.84   29.53
   4  -3  -4   82.16    5.18
  -4   3   4   74.25    5.27
   4  -3  -3    7.47    1.69
  -4   3   3    7.15    1.67
   4  -3  -2  163.97    7.47
  -4   3   2  163.96    7.35
   4  -3  -1    1.66    0.93
  -4   3   1    1.14    0.91
  -4   3   0  578.85   22.53
  -4   3  -1  193.22    8.37
  -4   3  -2  358.69   14.96
  -4   3  -2  384.63   11.77
  -4   3  -3  337.07   15.72
  -4   3  -3  364.60   12.05
  -4   3  -4   60.97    2.72
  -4   3  -4   68.33    7.27
  -4   3  -5  487.86   24.02
  -4   3  -6   65.96    6.01
  -4   3  -7  203.08   12.90
  -4   3  -8  115.69    9.83
   4  -2 -10   22.40    4.71
  -4   2  10   22.04    5.07
  -4   2  10   20.15    3.66
   4  -2  -9  101.88    9.11
  -4   2   9  106.99    9.75
   4  -2  -8  111.27    8.95
  -4   2   8  128.91   10.12
   4  -2  -7   27.65    4.04
  -4   2   7   32.24    4.43
   4  -2  -6   69.49    5.92
  -4   2   6   82.97    8.53
   4  -2  -5  162.88    8.91
  -4   2   5  180.92    9.36
   4  -2  -4   76.99    4.90
  -4   2   4   75.60    4.77
   4  -2  -3  603.36   23.62
  -4   2   3  623.29   24.04
   4  -2  -2   20.41    2.74
  -4   2   2   17.05    2.04
   4  -2  -1  388.76   14.36
  -4   2   1  404.32   14.44
  -4   2   0   72.84    3.78
  -4   2  -1 1349.92   54.83
  -4   2  -1 1275.00   55.60
  -4   2  -2 1002.46   38.00
  -4   2  -2 1028.60   43.11
  -4   2  -3  221.78   12.52
  -4   2  -3  223.28    7.84
  -4   2  -4  289.49   10.70
  -4   2  -4  330.71   17.22
  -4   2  -5   33.70    3.60
  -4   2  -5   29.10    1.59
  -4   2  -6   70.15    5.82
  -4   2  -7  189.59   11.32
  -4   2  -8    1.18    2.10
   4  -1 -11    2.90    2.78
  -4   1  11    3.04    1.95
  -4   1  11    4.97    3.35
   4  -1 -10   38.17    8.70
  -4   1  10   47.76    6.69
   4  -1  -9   43.71    5.87
  -4   1   9   40.65    6.13
   4  -1  -8    5.60    2.39
  -4   1   8    6.21    2.62
   4  -1  -7   41.16    4.76
  -4   1   7   42.91    5.20
   4  -1  -6    1.10    1.26
  -4   1   6    0.98    1.32
   4  -1  -5  926.64   41.26
  -4   1   5  954.45   41.88
   4  -1  -4  317.63   12.96
  -4   1   4  319.95   12.79
   4  -1  -3  859.63   34.08
  -4   1   3  868.79   34.06
   4  -1  -2  681.39   24.55
  -4   1   2  621.24   22.93
   4  -1  -1    0.59    0.65
  -4   1   1    0.93    0.64
  -4   1   0 1020.54   39.56
  -4   1  -1  823.62   31.00
  -4   1  -1  842.98   32.97
  -4   1  -1  816.01   30.92
  -4   1  -2  122.95    5.23
  -4   1  -2  131.08    5.43
  -4   1  -2  137.60    5.92
  -4   1  -3  461.40   20.19
  -4   1  -3  477.46   21.81
  -4   1  -4   60.47    5.36
  -4   1  -4   70.68    4.64
  -4   1  -5   41.69    3.74
  -4   1  -5   47.53    4.79
  -4   1  -6   49.87    4.21
  -4   1  -7   18.98    4.07
   4   0 -11   90.20   10.49
  -4   0  11  111.87   11.46
   4   0 -10  103.39   10.32
  -4   0  10  121.43   10.81
   4   0  -9  217.52   14.79
  -4   0   9  261.12   15.99
   4   0  -8  233.53   13.85
  -4   0   8  256.10   14.73
   4   0  -7    7.31    2.48
  -4   0   7   10.44    2.73
   4   0  -6  359.73   16.73
  -4   0   6  370.42   17.25
   4   0  -5  496.56   20.82
  -4   0   5  509.38   21.09
   4   0  -4  684.77   29.90
  -4   0   4  707.14   27.33
   4   0  -3 1388.54   59.65
  -4   0   3 1406.46   61.89
   4   0  -2    2.97    0.83
  -4   0   2    2.79    1.11
   4   0  -1  150.53    5.23
  -4   0   1  159.18    6.30
  -4   0   0  102.60    4.41
  -4   0   0   98.86    3.61
  -4   0  -1  320.54   11.92
  -4   0  -1  333.13   12.42
  -4   0  -1  329.71   11.90
  -4   0  -2  462.40   17.66
  -4   0  -2  420.61   15.96
  -4   0  -2  424.68   19.43
  -4   0  -3   22.84    3.57
  -4   0  -3   20.32    2.86
  -4   0  -4  117.36    6.76
  -4   0  -4  116.77    6.39
  -4   0  -5    2.82    1.40
  -4   0  -5    2.11    1.43
  -4   0  -6   36.67    2.50
  -4   0  -6   -0.57    1.47
  -4   0  -7   56.64    4.62
   4   1 -11   15.69    4.67
  -4  -1  11   16.49    5.30
   4   1 -10  282.46   18.92
  -4  -1  10  299.61   20.44
   4   1  -9  443.30   24.37
  -4  -1   9  430.94   24.55
   4   1  -8   30.54    4.26
  -4  -1   8   29.18    4.42
   4   1  -7  355.57   17.88
  -4  -1   7  394.45   19.28
   4   1  -6  408.18   18.02
  -4  -1   6  405.59   18.27
   4   1  -5  571.61   23.36
  -4  -1   5  574.26   23.39
   4   1  -4 1557.44   68.60
  -4  -1   4 1436.32   64.16
   4   1  -3   61.85    3.10
  -4  -1   3   59.70    3.08
   4   1  -2  255.54    9.24
  -4  -1   2  258.59    9.08
  -4  -1   1   20.57    1.70
  -4  -1   0  331.80   13.39
  -4  -1   0  330.84   10.53
  -4  -1  -1   63.54    4.48
  -4  -1  -1   64.92    2.97
  -4  -1  -1   70.33    3.28
  -4  -1  -2    6.85    1.28
  -4  -1  -2    7.09    1.75
  -4  -1  -2    4.30    1.10
  -4  -1  -3   60.04    5.08
  -4  -1  -3   59.80    3.33
  -4  -1  -3   65.46    3.27
  -4  -1  -4  113.39    7.71
  -4  -1  -4  113.07    5.32
  -4  -1  -5  138.49    7.18
  -4  -1  -5  132.70    8.92
  -4  -1  -6  134.52    7.17
  -4  -1  -6  154.94    8.23
   4   2 -11   67.49    8.98
  -4  -2  11   93.45   10.43
   4   2 -10  240.79   16.62
  -4  -2  10  270.06   18.27
   4   2  -9   11.76    3.08
  -4  -2   9   11.12    3.31
   4   2  -8  305.47   16.00
  -4  -2   8  328.35   16.74
   4   2  -7   12.50    2.69
  -4  -2   7   16.97    2.87
   4   2  -6  511.32   22.36
  -4  -2   6  532.65   22.80
   4   2  -5  590.26   23.93
  -4  -2   5  629.86   28.04
   4   2  -4   16.90    2.41
  -4  -2   4   17.44    2.51
   4   2  -3  432.35   15.96
  -4  -2   3  468.23   16.85
  -4  -2   2  434.53   14.38
  -4  -2   1   87.42    3.00
  -4  -2   1   89.93    5.40
  -4  -2   0  853.85   27.20
  -4  -2   0  757.32   33.86
  -4  -2   0  778.53   25.08
  -4  -2  -1  250.70    7.31
  -4  -2  -1  268.64    7.41
  -4  -2  -1  246.30   12.69
  -4  -2  -2   84.08    3.14
  -4  -2  -2   79.60    6.15
  -4  -2  -2   81.19    2.49
  -4  -2  -3  126.49    8.75
  -4  -2  -3  129.08    4.37
  -4  -2  -3  135.06    4.34
  -4  -2  -4  108.00    8.58
  -4  -2  -4  118.33    5.26
  -4  -2  -4  108.46    4.38
  -4  -2  -5  162.56   11.33
  -4  -2  -6    3.39    1.51
   4   3 -11   39.69    6.53
  -4  -3  11   41.49    7.22
   4   3 -10   13.77    3.71
  -4  -3  10   15.88    4.09
   4   3  -9   78.80    6.88
  -4  -3   9   70.09    7.59
   4   3  -8   24.96    3.66
  -4  -3   8   27.15    3.81
   4   3  -7  206.89   10.74
  -4  -3   7  235.48   11.41
   4   3  -6  121.65    6.56
  -4  -3   6  123.69    6.75
   4   3  -5    0.89    0.74
  -4  -3   5    0.14    0.75
   4   3  -4   80.78    4.61
  -4  -3   4   78.27    4.63
  -4  -3   3  289.74   10.00
   4   3  -2  390.24   11.87
  -4  -3   2  371.67   11.17
  -4  -3   1  853.86   39.14
  -4  -3   0    7.98    2.28
  -4  -3  -1  148.53    9.35
  -4  -3  -2  166.41   10.82
  -4  -3  -3   31.25    4.82
  -4  -3  -4  321.44   19.45
  -4  -3  -5    2.39    2.22
   4   4 -11    0.78    1.49
  -4  -4  11   -0.41    1.65
   4   4 -10   66.23    7.68
  -4  -4  10   83.36    8.16
   4   4  -9   90.90    7.83
  -4  -4   9  103.67    8.20
   4   4  -8   36.18    4.18
  -4  -4   8   41.25    4.50
   4   4  -7   58.92    4.65
  -4  -4   7   71.22    6.34
   4   4  -6   19.21    2.27
  -4  -4   6   20.70    3.13
   4   4  -5   38.71    3.49
  -4  -4   5   37.14    3.48
   4   4  -4   -0.49    0.40
  -4  -4   4    1.73    0.60
   4   4  -3  111.20    4.26
  -4  -4   3  129.60    4.17
  -4  -4   2   48.05    5.06
  -4  -4   1  203.45   11.74
  -4  -4   0  824.46   46.50
  -4  -4  -1  226.72   13.88
  -4  -4  -2  216.21   14.36
  -4  -4  -3  154.00   12.65
  -4  -4  -4   20.01    4.90
   4   5 -11   68.51    9.03
  -4  -5  11  104.34   10.09
   4   5 -10   45.36    8.00
  -4  -5  10   49.58    6.57
   4   5  -9   14.53    4.53
  -4  -5   9   19.45    3.60
   4   5  -8   52.51    4.96
  -4  -5   8   61.20    5.17
   4   5  -7  106.89    6.01
  -4  -5   7   89.79    5.78
   4   5  -6  270.21   12.99
  -4  -5   6  282.61   10.85
   4   5  -5  119.13    5.05
  -4  -5   5  125.14    6.03
   4   5  -4   63.63    3.29
  -4  -5   4   65.33    3.22
   4   5  -3  176.06    5.10
  -4  -5   3  200.21   11.41
  -4  -5   2  171.36   11.24
  -4  -5   1  713.61   36.51
  -4  -5   0   38.27    5.59
  -4  -5  -1  110.69   10.13
  -4  -5  -2   15.81    4.41
  -4  -5  -3   30.26    6.12
   4   6 -10   55.42    6.51
  -4  -6  10   57.81    6.66
   4   6  -9   76.55    8.74
  -4  -6   9   80.92    6.67
   4   6  -8   51.98    5.84
  -4  -6   8   42.23    5.16
   4   6  -7  535.89   22.19
  -4  -6   7  474.69   20.06
   4   6  -6  134.79    6.31
  -4  -6   6  150.99    7.89
   4   6  -5  337.47   13.18
  -4  -6   5  403.92   15.06
   4   6  -4  272.51    9.13
  -4  -6   4  316.46   17.21
  -4  -6   4  291.42    9.75
  -4  -6   3   30.17    6.42
  -4  -6   2   78.84    7.91
  -4  -6   1  105.06    9.86
  -4  -6   0   31.74    5.83
  -4  -6  -1   95.87   10.43
  -4  -6  -2   36.25    7.12
   4   7  -9   22.89    5.46
  -4  -7   9   32.80    3.76
   4   7  -8   88.86    6.21
  -4  -7   8   97.62    7.62
   4   7  -7    6.83    2.22
  -4  -7   7    8.03    1.64
  -4  -7   6  149.50    8.18
   4   7  -5  196.15    8.14
  -4  -7   5  213.85   13.79
  -4  -7   5  200.81    8.25
  -4  -7   4   10.88    4.57
  -4  -7   3  155.12   12.31
  -4  -7   2   29.78    5.58
  -4  -7   1   69.31    8.80
  -4  -7   0   82.27   10.18
   4   8  -8    2.47    1.60
  -4  -8   8    5.31    1.58
   4   8  -7   35.98    4.42
  -4  -8   7   47.11    3.59
  -4  -8   7   52.36    6.08
  -4  -8   6   71.62    8.15
  -4  -8   5   89.26    9.33
  -4  -8   4  112.84   10.74
  -4  -8   3    2.29    2.49
  -4  -8   2   10.49    4.15
  -5  11   0   67.91    7.95
  -5  11   0   86.11    8.14
  -5  11  -1    1.55    1.37
  -5  11  -1   -1.07    1.41
  -5  11  -2   62.16    9.89
  -5  11  -2   56.48    7.77
  -5  11  -3   46.57   10.18
  -5  11  -3   54.30    7.87
  -5  10   3   54.59    5.60
  -5  10   3   62.73    6.92
  -5  10   2   10.23    2.97
  -5  10   2   11.32    3.24
  -5  10   1   27.17    3.38
  -5  10   1   23.90    4.48
  -5  10   0    2.74    1.86
  -5  10   0    1.89    0.93
  -5  10   0    1.87    1.20
  -5  10  -1  120.33    9.75
  -5  10  -1  102.73    9.72
  -5  10  -2  105.51    9.98
  -5  10  -2   95.28    9.80
  -5  10  -3    1.44    2.18
  -5  10  -3    1.91    2.22
  -5  10  -4  111.04   11.06
  -5  10  -4   89.43   10.94
  -5  10  -5    3.70    2.66
  -5  10  -5    0.70    2.83
  -5   9   5   33.54    5.45
  -5   9   5   35.55    5.54
  -5   9   4   76.75    9.43
  -5   9   4   97.38    8.47
  -5   9   3   -1.10    1.27
  -5   9   3    0.56    1.29
  -5   9   2  102.59    6.14
  -5   9   2  108.08    8.84
  -5   9   1   27.53    4.52
  -5   9   1   32.53    2.52
  -5   9   0   76.93    7.09
  -5   9   0   74.90    3.78
  -5   9  -1  192.95   13.14
  -5   9  -1  184.06   13.29
  -5   9  -2   41.62    5.83
  -5   9  -2   36.57    5.70
  -5   9  -3  229.14   17.06
  -5   9  -3  266.02   17.59
  -5   9  -4    4.84    3.14
  -5   9  -4    7.36    3.20
  -5   9  -5    7.40    3.38
  -5   9  -5    6.01    3.66
  -5   9  -6   18.60    5.78
   5  -8  -6   66.03    7.42
  -5   8   6   72.16    8.24
  -5   8   6   71.50    8.07
   5  -8  -5   41.21    5.79
  -5   8   5   50.42    5.82
  -5   8   5   43.98    5.65
  -5   8   4  147.19   10.87
  -5   8   4  139.94    9.34
  -5   8   3  623.49   28.83
  -5   8   3  623.88   33.22
  -5   8   2   35.02    4.05
  -5   8   2   38.69    4.73
  -5   8   1   86.46    7.37
  -5   8   1   95.36    5.26
  -5   8   0   66.83    6.47
  -5   8   0   66.00    3.18
  -5   8  -1   25.22    4.06
  -5   8  -1   19.89    2.62
  -5   8  -2  284.08   17.31
  -5   8  -2  259.37   16.61
  -5   8  -3   69.86    7.77
  -5   8  -3   67.66    7.62
  -5   8  -4   -0.17    2.09
  -5   8  -4    4.46    2.25
  -5   8  -5    5.75    3.24
  -5   8  -6   10.50    4.30
   5  -7  -7   50.47    6.94
  -5   7   7   62.91   10.23
  -5   7   7   63.97    8.07
   5  -7  -6   12.18    3.19
  -5   7   6   10.62    3.38
  -5   7   6    7.46    3.32
   5  -7  -5  175.45   12.12
  -5   7   5  170.29   15.24
  -5   7   5  172.78   11.50
   5  -7  -4  476.03   30.13
  -5   7   4  489.02   24.06
  -5   7   4  512.38   26.85
  -5   7   3    2.31    1.32
  -5   7   3    2.54    1.75
  -5   7   2  166.98   10.24
  -5   7   2  163.48    7.19
  -5   7   1   39.50    4.81
  -5   7   1   45.69    3.17
  -5   7   0   30.87    4.62
  -5   7   0   35.50    2.08
  -5   7  -1  391.79   20.71
  -5   7  -2    7.52    2.60
  -5   7  -2    5.11    2.48
  -5   7  -3  127.99   10.16
  -5   7  -3  124.77   10.16
  -5   7  -4   22.49    4.10
  -5   7  -4   16.48    4.56
  -5   7  -5    8.74    3.58
  -5   7  -6   39.25    6.89
  -5   7  -7    4.41    3.53
   5  -6  -8  106.08    9.94
  -5   6   8   95.41   12.08
  -5   6   8  112.76   11.19
   5  -6  -7   39.45    5.31
  -5   6   7   30.52    5.92
  -5   6   7   35.50    5.80
   5  -6  -6   30.57    4.93
  -5   6   6   35.05    5.23
  -5   6   6   40.77    5.39
   5  -6  -5  190.42   12.37
  -5   6   5  192.26   12.57
  -5   6   5  203.52   12.75
   5  -6  -4    2.75    2.14
  -5   6   4    5.67    1.16
  -5   6   4    2.69    2.13
   5  -6  -3  415.28   20.50
  -5   6   3  377.18   14.02
  -5   6   3  411.08   19.86
  -5   6   2   73.85    6.15
  -5   6   1  226.07   12.40
  -5   6   0  177.59   10.81
  -5   6  -1    3.16    1.55
  -5   6  -1    1.01    0.95
  -5   6  -2   98.41    7.76
  -5   6  -2   87.69    7.33
  -5   6  -3  161.44   10.97
  -5   6  -3  170.88   11.16
  -5   6  -4   21.24    4.17
  -5   6  -5  282.55   19.02
  -5   6  -6    2.05    2.30
  -5   6  -7   43.61    7.60
   5  -5  -9  171.95   14.07
  -5   5   9  163.62   16.22
  -5   5   9  182.56   15.94
   5  -5  -8   52.95    6.65
  -5   5   8   55.06    8.12
  -5   5   8   52.20    7.51
   5  -5  -7   52.20    6.25
  -5   5   7   53.16    4.73
  -5   5   7   60.17    7.15
   5  -5  -6  266.85   16.29
  -5   5   6  318.94   18.26
   5  -5  -5    1.70    1.41
  -5   5   5    0.49    1.47
   5  -5  -4  154.14    9.96
  -5   5   4  158.57    9.98
   5  -5  -3   99.25    7.39
  -5   5   3   93.16    7.01
   5  -5  -2    1.97    1.52
  -5   5   2    2.13    1.49
  -5   5   1  385.57   18.30
  -5   5   0   67.07    5.76
  -5   5  -1  169.92   10.04
  -5   5  -2  108.06    7.49
  -5   5  -2  104.49    7.69
  -5   5  -3   96.44    7.27
  -5   5  -3   85.69    6.81
  -5   5  -4  367.96   20.31
  -5   5  -5    0.47    1.48
  -5   5  -6  201.10   15.41
  -5   5  -7   59.53    8.26
   5  -4  -9   20.45    4.45
  -5   4   9   17.47    3.44
  -5   4   9   16.96    4.97
   5  -4  -8   56.95    6.83
  -5   4   8   60.21    7.63
   5  -4  -7  201.35   13.51
  -5   4   7  222.02   15.18
   5  -4  -6   17.90    3.57
  -5   4   6   20.87    3.98
   5  -4  -5   19.55    3.35
  -5   4   5   20.48    3.55
   5  -4  -4  165.03    9.80
  -5   4   4  166.07   10.04
   5  -4  -3    1.52    1.21
  -5   4   3    0.02    1.15
   5  -4  -2  679.52   30.78
  -5   4   2  650.37   29.44
  -5   4   1   36.22    3.86
  -5   4   0  478.90   21.28
  -5   4  -1   41.79    2.44
  -5   4  -1    0.61    1.35
  -5   4  -2   25.67    3.74
  -5   4  -2   28.61    3.65
  -5   4  -2   32.14    1.75
  -5   4  -3  373.10   16.78
  -5   4  -3  325.65   15.09
  -5   4  -3  270.54    9.30
  -5   4  -4    2.14    1.68
  -5   4  -5  397.52   26.33
  -5   4  -6  124.83   10.89
  -5   4  -7   13.76    4.21
   5  -3 -10    5.79    2.99
  -5   3  10    1.14    2.26
  -5   3  10   10.61    3.32
   5  -3  -9    2.23    2.16
  -5   3   9    1.96    2.41
   5  -3  -8  110.73    9.74
  -5   3   8  119.00   11.06
   5  -3  -7   -0.41    1.29
  -5   3   7   -0.43    1.48
   5  -3  -6  235.34   13.45
  -5   3   6  249.61   14.38
   5  -3  -5    2.94    1.57
  -5   3   5    1.28    1.61
   5  -3  -4  137.71    8.36
  -5   3   4  137.83    8.37
   5  -3  -3  105.01    7.05
  -5   3   3  118.89    6.82
   5  -3  -2   41.38    4.10
  -5   3   2   46.51    3.94
  -5   3   1  988.94   43.46
  -5   3   0  304.38   13.37
  -5   3  -1  382.95   13.30
  -5   3  -1  329.85   15.28
  -5   3  -2  497.90   22.21
  -5   3  -2  523.91   23.19
  -5   3  -2  569.48   20.35
  -5   3  -3    3.34    1.38
  -5   3  -3    2.23    1.54
  -5   3  -3    2.75    1.06
  -5   3  -4  164.44   11.96
  -5   3  -4  148.98    6.86
  -5   3  -5   46.98    5.42
  -5   3  -6   17.23    3.80
  -5   3  -7   70.95    7.05
   5  -2 -10   24.51    5.20
  -5   2  10   20.44    5.27
   5  -2  -9   92.17    9.29
  -5   2   9  101.14   10.75
   5  -2  -8   60.01    7.00
  -5   2   8   71.95    8.02
   5  -2  -7  458.93   24.78
  -5   2   7  549.35   28.16
   5  -2  -6   30.80    4.34
  -5   2   6   36.17    4.57
   5  -2  -5  192.21   13.35
  -5   2   5  201.70   10.95
   5  -2  -4  809.76   36.11
  -5   2   4  823.15   36.37
   5  -2  -3    8.28    1.96
  -5   2   3    9.00    1.92
   5  -2  -2 1203.10   54.10
  -5   2   2 1167.80   55.62
  -5   2   1   34.75    3.08
  -5   2   0  325.52   13.08
  -5   2  -1  159.78    5.69
  -5   2  -1  171.67    6.17
  -5   2  -1  168.35    9.61
  -5   2  -2   20.94    3.41
  -5   2  -2   20.64    2.56
  -5   2  -2   21.64    1.93
  -5   2  -3   88.22    5.43
  -5   2  -3   85.46    5.18
  -5   2  -3   94.12    7.16
  -5   2  -4    3.21    1.85
  -5   2  -4    1.53    1.38
  -5   2  -5   18.49    2.23
  -5   2  -5   13.09    3.04
  -5   2  -6   58.04    5.97
  -5   2  -7    8.87    2.59
   5  -1 -11   47.31   10.58
  -5   1  11   48.03    8.12
   5  -1 -10   81.47    9.24
  -5   1  10   86.54    9.90
   5  -1  -9   29.96    5.15
  -5   1   9   32.08    5.90
   5  -1  -8  589.21   31.99
  -5   1   8  635.26   33.84
   5  -1  -7  171.48   11.16
  -5   1   7  194.10   14.79
   5  -1  -6  554.47   26.60
  -5   1   6  587.99   27.63
   5  -1  -5  785.27   38.00
  -5   1   5 1019.76   43.83
   5  -1  -4  218.20   10.15
  -5   1   4  207.15    9.81
   5  -1  -3  616.65   26.19
  -5   1   3  725.30   28.57
   5  -1  -2  185.88    7.95
  -5   1   2  171.54    7.53
  -5   1   1    4.86    1.65
  -5   1   0  235.65    9.15
  -5   1  -1   58.00    3.44
  -5   1  -1   56.86    3.51
  -5   1  -1   54.58    3.50
  -5   1  -2  499.32   22.06
  -5   1  -2  474.79   19.09
  -5   1  -2  489.08   19.09
  -5   1  -3   23.32    3.05
  -5   1  -3   21.00    3.36
  -5   1  -3   22.74    2.61
  -5   1  -4    5.71    1.68
  -5   1  -4    5.32    1.61
  -5   1  -4    4.59    1.37
  -5   1  -5   28.21    4.04
  -5   1  -5   15.74    2.78
  -5   1  -6   14.92    1.51
  -5   1  -6   -2.00    0.99
   5   0 -11   66.23    9.39
  -5   0  11   69.51   10.24
   5   0 -10   53.49    7.40
  -5   0  10   55.35    7.73
   5   0  -9  340.73   21.09
  -5   0   9  346.47   21.02
   5   0  -8   -1.15    1.20
  -5   0   8    0.70    1.26
   5   0  -7   86.25    7.10
  -5   0   7   99.13    7.29
   5   0  -6   61.19    5.43
  -5   0   6   63.82    5.49
   5   0  -5  169.24    9.17
  -5   0   5  181.00    9.27
   5   0  -4 1426.58   66.69
  -5   0   4 1441.87   66.65
   5   0  -3  263.64   12.52
  -5   0   3  271.13   10.45
   5   0  -2  154.19    6.54
  -5   0   2  162.45    7.87
  -5   0   1  253.50    9.04
  -5   0   0    8.81    2.70
  -5   0   0   13.18    1.44
  -5   0  -1  643.72   29.95
  -5   0  -1  611.20   24.53
  -5   0  -1  645.64   25.68
  -5   0  -2  245.63    9.11
  -5   0  -2  262.03    9.81
  -5   0  -2  254.46   13.93
  -5   0  -3   20.07    3.78
  -5   0  -3   15.91    2.56
  -5   0  -3   24.04    2.96
  -5   0  -4   99.13    6.16
  -5   0  -4   98.43    6.96
  -5   0  -4  115.59    7.29
  -5   0  -5   -0.28    0.66
  -5   0  -5    1.09    0.86
  -5   0  -5   -0.13    1.27
  -5   0  -6   80.93    5.06
  -5   0  -6   71.54    4.64
   5   1 -11   54.88    8.47
  -5  -1  11   60.30   12.07
   5   1 -10  140.54   12.30
  -5  -1  10  147.51   12.57
   5   1  -9    0.94    1.76
  -5  -1   9    1.74    1.82
   5   1  -8   19.11    3.80
  -5  -1   8   24.40    3.86
   5   1  -7   97.40    7.05
  -5  -1   7  104.52    7.54
   5   1  -6   66.78    5.38
  -5  -1   6   74.69    5.53
   5   1  -5  460.71   19.75
  -5  -1   5  478.55   20.21
   5   1  -4   24.68    3.60
  -5  -1   4   34.55    2.84
   5   1  -3  145.71    7.48
  -5  -1   3  148.07    6.14
   5   1  -2  157.94    5.86
  -5  -1   2  145.63    6.69
  -5  -1   1   13.42    1.75
  -5  -1   0  390.96   12.51
  -5  -1   0  374.73   12.14
  -5  -1   0  394.06   17.49
  -5  -1  -1   56.84    3.18
  -5  -1  -1   62.61    5.00
  -5  -1  -1   63.84    3.46
  -5  -1  -2  247.42    9.50
  -5  -1  -2  264.29   13.53
  -5  -1  -2  293.88   10.97
  -5  -1  -3  373.99   18.76
  -5  -1  -3  386.50   14.41
  -5  -1  -3  334.21   14.21
  -5  -1  -4   -0.37    0.76
  -5  -1  -4    1.21    1.16
  -5  -1  -4    0.51    0.52
  -5  -1  -5  138.73   12.81
   5   2 -11  179.48   15.94
  -5  -2  11  216.12   17.70
   5   2 -10    0.16    1.26
  -5  -2  10   -0.37    1.32
   5   2  -9  236.42   14.77
  -5  -2   9  225.12   14.87
   5   2  -8  113.96    8.81
  -5  -2   8  131.44    8.89
   5   2  -7   32.44    3.91
  -5  -2   7   31.96    3.82
   5   2  -6    4.35    2.07
  -5  -2   6    4.07    2.18
   5   2  -5    2.05    1.14
  -5  -2   5    2.94    1.21
   5   2  -4   98.30    6.12
  -5  -2   4  101.24    4.89
   5   2  -3  193.22    8.24
  -5  -2   3  191.24    8.31
  -5  -2   2   49.46    2.97
  -5  -2   1  152.17    8.70
  -5  -2   1  134.95    4.80
  -5  -2   0  112.94    3.86
  -5  -2   0   94.98    7.35
  -5  -2   0  107.09    3.54
  -5  -2  -1  484.73   13.96
  -5  -2  -1  502.87   23.15
  -5  -2  -1  363.72   12.23
  -5  -2  -2  329.83    9.37
  -5  -2  -2  277.28   16.19
  -5  -2  -2  289.80    8.64
  -5  -2  -3   37.16    5.14
  -5  -2  -4  230.59   15.10
   5   3 -11    8.24    4.91
  -5  -3  11    9.09    4.04
   5   3 -10   98.72   12.41
  -5  -3  10  112.28   10.30
   5   3  -9  147.89   10.84
  -5  -3   9  161.54   10.99
   5   3  -8    3.06    1.92
  -5  -3   8    4.53    1.89
   5   3  -7  225.21   13.97
  -5  -3   7  215.72   13.02
   5   3  -6    2.23    1.01
  -5  -3   6   -0.01    0.97
   5   3  -5  357.64   15.73
  -5  -3   5  338.49   14.98
   5   3  -4  199.27    9.32
  -5  -3   4  258.85    8.49
   5   3  -3   69.34    3.43
  -5  -3   3   60.08    3.35
  -5  -3   2  414.54   12.94
  -5  -3   2  469.69   22.25
  -5  -3   1   12.38    3.03
  -5  -3   0  334.18   18.42
  -5  -3  -1   89.12   10.21
  -5  -3  -2    8.31    3.00
  -5  -3  -3   96.23    9.60
  -5  -3  -4    1.02    1.91
   5   4 -10   52.13    6.32
  -5  -4  10   41.93    5.61
   5   4  -9  109.96   11.57
  -5  -4   9  125.70    8.45
   5   4  -8  322.75   16.73
  -5  -4   8  321.93   15.51
   5   4  -7   27.27    4.58
  -5  -4   7   33.13    3.18
   5   4  -6  378.14   17.71
  -5  -4   6  350.44   14.09
   5   4  -5  312.12   13.34
  -5  -4   5  293.58   12.35
   5   4  -4   41.61    2.60
  -5  -4   4   29.13    2.54
   5   4  -3  787.78   28.12
  -5  -4   3  733.89   25.72
  -5  -4   3  804.32   39.35
  -5  -4   2   25.00    4.46
  -5  -4   1  261.93   16.04
  -5  -4   0  120.32   10.42
  -5  -4  -1   -0.31    1.43
  -5  -4  -2   36.75    8.22
  -5  -4  -3    5.41    3.28
   5   5 -10   12.36    3.59
  -5  -5  10   14.34    3.36
   5   5  -9  129.93    9.62
  -5  -5   9  146.91    9.00
   5   5  -8   -0.59    0.81
  -5  -5   8    0.58    0.74
   5   5  -7  314.51   17.02
  -5  -5   7  307.94   15.80
   5   5  -6   97.29    6.45
  -5  -5   6   95.56    4.86
   5   5  -5   -1.26    1.98
  -5  -5   5   69.67    2.76
   5   5  -4  221.38    8.00
  -5  -5   4  223.12   13.99
  -5  -5   4  212.85    7.50
  -5  -5   3   -0.84    1.66
  -5  -5   2  213.33   14.97
  -5  -5   1   82.21    8.76
  -5  -5   0   25.81    5.37
  -5  -5  -1   95.79   10.73
   5   6  -9    9.61    3.53
  -5  -6   9    8.94    2.45
   5   6  -8  123.46    7.79
  -5  -6   8  120.13    9.01
   5   6  -7    2.10    1.89
  -5  -6   7    4.72    1.72
  -5  -6   6   51.61    4.25
   5   6  -5   70.81    4.11
  -5  -6   5   74.55    4.04
  -5  -6   5   82.07    7.88
  -5  -6   4    3.68    2.53
  -5  -6   3   51.13    7.04
  -5  -6   2   16.00    4.63
  -5  -6   1   12.08    4.31
  -5  -6   0  188.30   16.60
   5   7  -8    8.99    2.24
  -5  -7   8    9.28    2.07
   5   7  -7   44.76    4.21
  -5  -7   7   37.51    3.25
  -5  -7   6  128.03   11.46
  -5  -7   5    1.78    2.26
  -5  -7   4   63.75    8.45
  -5  -7   3   17.17    4.97
  -5  -7   2    1.74    2.57
  -6  10   2  165.76    8.77
  -6  10   2  190.72   14.70
  -6  10   1  108.21   10.77
  -6  10   0   41.78    6.14
  -6  10   0   33.99    4.07
  -6  10  -1   90.65    9.66
  -6  10  -1   90.33   10.02
  -6  10  -2    2.38    2.44
  -6  10  -2    1.51    2.35
  -6  10  -3   48.37    8.15
  -6  10  -3   48.63    8.24
  -6   9   4    5.88    2.39
  -6   9   4    9.87    3.42
  -6   9   3  183.26   12.50
  -6   9   3  212.14   15.50
  -6   9   2   49.62    3.67
  -6   9   2   37.18    6.64
  -6   9   1   88.56    9.51
  -6   9   1  111.65    5.78
  -6   9   0   67.43    4.55
  -6   9   0    0.54    2.74
  -6   9  -1   15.23    4.04
  -6   9  -1   12.88    4.15
  -6   9  -2  132.59   11.69
  -6   9  -2  115.89   11.54
  -6   9  -3   31.52    6.26
  -6   9  -3   32.38    6.24
  -6   9  -4    2.20    2.37
  -6   9  -4    0.62    2.37
   6  -8  -6   76.35   12.63
  -6   8   6  106.42    9.24
  -6   8   6   82.35   13.90
   6  -8  -5   28.02    5.45
  -6   8   5   34.33    4.73
  -6   8   5   33.18    5.80
  -6   8   4  142.79   11.64
  -6   8   4  160.36   13.02
  -6   8   3    5.85    2.42
  -6   8   3    7.77    2.96
  -6   8   2   44.29    3.26
  -6   8   2   45.67    5.94
  -6   8   1   32.63    4.99
  -6   8   1   30.72    2.88
  -6   8   0    8.61    2.49
  -6   8   0    4.35    0.85
  -6   8  -1  196.36   14.10
  -6   8  -1  189.08   10.24
  -6   8  -2   44.05    6.45
  -6   8  -2   39.51    6.31
  -6   8  -3   61.71    7.91
  -6   8  -3   51.93    7.70
  -6   8  -4   56.87    8.12
  -6   8  -4   62.58    8.50
  -6   8  -5    1.86    2.22
  -6   8  -5    0.73    2.36
   6  -7  -7   33.80    6.39
  -6   7   7   35.66    6.26
  -6   7   7   39.62    7.08
   6  -7  -6    2.67    2.06
  -6   7   6    0.53    2.50
  -6   7   6    1.13    2.21
   6  -7  -5  148.68   12.33
  -6   7   5  174.02   13.35
  -6   7   5  149.74   10.46
   6  -7  -4   87.20    8.28
  -6   7   4   78.47    6.68
  -6   7   4   86.08    8.78
  -6   7   3  109.58    6.55
  -6   7   3  101.41    9.23
  -6   7   2  116.52    5.87
  -6   7   2  112.64    9.27
  -6   7   1   18.96    3.75
  -6   7   1   17.66    1.70
  -6   7   0   69.07    6.36
  -6   7   0   51.79    2.50
  -6   7  -1   36.26    5.50
  -6   7  -1   38.73    3.50
  -6   7  -2  148.29   11.69
  -6   7  -2  146.84   11.40
  -6   7  -3  130.15   11.13
  -6   7  -3  118.89   10.86
  -6   7  -4    0.50    1.41
  -6   7  -4   -0.09    1.43
  -6   7  -5   45.78    7.36
  -6   7  -5   54.43    7.81
   6  -6  -8   51.80    8.15
  -6   6   8   61.96    8.57
  -6   6   8   63.75    9.25
   6  -6  -7    1.48    1.76
  -6   6   7    0.68    1.85
  -6   6   7    0.12    2.00
   6  -6  -6   90.14    8.37
  -6   6   6   58.92    5.04
  -6   6   6  109.17    9.20
   6  -6  -5   38.40    5.61
  -6   6   5   36.16    6.04
   6  -6  -4   99.50    8.90
  -6   6   4   99.88   11.70
   6  -6  -3   92.18    8.31
  -6   6   3  101.38    8.11
  -6   6   2    4.19    2.11
  -6   6   1   58.52    5.92
  -6   6   0   32.60    4.62
  -6   6  -1  114.89    8.95
  -6   6  -1  110.18    3.27
  -6   6  -2  172.02   11.47
  -6   6  -2  139.86   10.69
  -6   6  -3   12.60    3.49
  -6   6  -3   12.44    3.43
  -6   6  -4  227.28   15.81
  -6   6  -4  239.24   16.14
  -6   6  -5   19.50    4.53
  -6   6  -5   24.23    5.09
  -6   6  -6   55.12    8.39
   6  -5  -8    5.11    2.27
  -6   5   8   -0.58    1.53
  -6   5   8    5.82    2.64
   6  -5  -7   12.12    3.75
  -6   5   7   14.07    4.37
   6  -5  -6   30.89    5.14
  -6   5   6   31.91    5.70
   6  -5  -5   34.99    5.18
  -6   5   5   36.95    5.50
   6  -5  -4   54.46    6.25
  -6   5   4   59.26    6.21
   6  -5  -3   81.08    7.25
  -6   5   3   75.51    6.82
  -6   5   2  353.63   18.33
  -6   5   1   25.70    3.76
  -6   5   0  247.87   13.63
  -6   5  -1  134.50    9.64
  -6   5  -1  151.59    5.21
  -6   5  -2   56.24    5.95
  -6   5  -2   61.30    2.53
  -6   5  -2   50.64    7.63
  -6   5  -3  306.84    8.95
  -6   5  -3  268.51   16.59
  -6   5  -3  262.92   16.27
  -6   5  -4   22.79    4.16
  -6   5  -4   20.89    5.73
  -6   5  -5   49.94    6.31
  -6   5  -5   61.71    6.90
  -6   5  -6   26.22    7.59
   6  -4  -9   15.29    4.52
  -6   4   9   14.28    5.35
   6  -4  -8  132.74   11.96
  -6   4   8  158.64   14.20
   6  -4  -7    7.08    3.23
  -6   4   7   12.23    3.75
   6  -4  -6  306.18   18.48
  -6   4   6  329.50   20.21
   6  -4  -5  133.35    9.73
  -6   4   5  129.59    9.60
   6  -4  -4   86.31    7.16
  -6   4   4   83.90    7.14
   6  -4  -3  547.61   27.40
  -6   4   3  538.34   26.14
  -6   4   2   14.59    2.93
  -6   4   1  622.52   33.35
  -6   4   0  161.40    9.36
  -6   4  -1   -0.06    0.48
  -6   4  -1    0.52    1.09
  -6   4  -1    1.55    0.66
  -6   4  -2   37.93    2.59
  -6   4  -2   41.74    4.39
  -6   4  -2   35.65    4.24
  -6   4  -3   15.02    4.44
  -6   4  -3   16.74    3.29
  -6   4  -3   18.71    2.00
  -6   4  -4  131.90    9.59
  -6   4  -4  120.41    4.61
  -6   4  -4  132.42   11.28
  -6   4  -5   50.97    5.54
  -6   4  -5   52.86    6.38
  -6   4  -6    5.60    2.48
  -6   4  -6    6.39    2.98
   6  -3 -10   21.04    5.78
  -6   3  10   26.49    6.88
   6  -3  -9  135.05   12.65
  -6   3   9  151.71   15.04
   6  -3  -8   10.68    3.71
  -6   3   8   12.42    4.25
   6  -3  -7  646.13   37.03
  -6   3   7  780.77   42.67
   6  -3  -6  317.82   18.20
  -6   3   6  333.90   19.33
   6  -3  -5   36.78    4.46
  -6   3   5   33.90    4.42
   6  -3  -4  325.18   17.05
  -6   3   4  336.59   16.57
   6  -3  -3   12.09    2.85
  -6   3   3   12.96    2.69
   6  -3  -2  686.01   32.09
  -6   3   2  691.63   31.54
  -6   3   1  534.86   24.12
  -6   3   0    2.01    1.76
  -6   3  -1   83.26    5.57
  -6   3  -1   79.02    4.55
  -6   3  -1   76.49    5.54
  -6   3  -2    0.82    1.10
  -6   3  -2    1.31    1.12
  -6   3  -2    0.60    0.90
  -6   3  -3  117.87    9.74
  -6   3  -3  115.42    7.82
  -6   3  -3  127.41    6.75
  -6   3  -4   64.77    5.72
  -6   3  -4   51.52    5.09
  -6   3  -4   52.17    3.46
  -6   3  -5    3.56    2.54
  -6   3  -5    0.47    1.60
  -6   3  -5    2.51    0.66
   6  -2 -10   14.57    4.78
  -6   2  10   16.22    5.75
   6  -2  -9    1.02    1.96
  -6   2   9    1.47    2.28
   6  -2  -8  330.33   21.10
  -6   2   8  372.00   28.49
   6  -2  -7  132.26   10.67
  -6   2   7  150.16   11.19
   6  -2  -6  124.77    8.88
  -6   2   6  123.22    9.04
   6  -2  -5  131.96    8.49
  -6   2   5  136.29    8.47
   6  -2  -4    4.16    1.69
  -6   2   4    2.43    1.64
   6  -2  -3  600.90   31.20
  -6   2   3  577.93   26.04
   6  -2  -2  248.52   11.85
  -6   2   2  240.13   11.58
  -6   2   1  140.58    9.38
  -6   2   0  268.28   11.86
  -6   2  -1   44.26    3.71
  -6   2  -1   44.59    3.68
  -6   2  -1   46.42    3.03
  -6   2  -2   93.20    5.84
  -6   2  -2   94.05    5.83
  -6   2  -2  100.34    6.41
  -6   2  -3  195.13    9.86
  -6   2  -3  192.53   10.67
  -6   2  -3  194.86   10.19
  -6   2  -4    0.20    1.29
  -6   2  -4    1.11    1.09
  -6   2  -4    1.08    1.21
  -6   2  -5  148.74   12.14
  -6   2  -5  125.66   10.42
  -6   2  -5  136.43    7.70
   6  -1 -10    0.74    2.22
  -6   1  10    2.10    2.33
   6  -1  -9  106.62   10.52
  -6   1   9  122.32   11.38
   6  -1  -8   12.48    3.74
  -6   1   8   15.57    3.86
   6  -1  -7  117.00    9.62
  -6   1   7  149.32    9.96
   6  -1  -6  119.89   10.94
  -6   1   6  126.26    8.50
   6  -1  -5    0.72    1.24
  -6   1   5   -0.07    0.92
   6  -1  -4   84.46    5.78
  -6   1   4   81.66    7.14
   6  -1  -3    7.84    1.89
  -6   1   3    6.71    1.80
   6  -1  -2   22.41    2.70
  -6   1   2   25.71    2.70
  -6   1   1  272.03   11.18
  -6   1   0   55.27    5.04
  -6   1   0   51.22    3.61
  -6   1  -1  354.83   14.18
  -6   1  -1  378.51   18.03
  -6   1  -1  342.93   16.28
  -6   1  -2   88.94    5.21
  -6   1  -2   96.42    7.26
  -6   1  -2   89.21    6.45
  -6   1  -3   73.42    5.98
  -6   1  -3   74.85    6.42
  -6   1  -3   69.77    6.90
  -6   1  -4  114.46    6.61
  -6   1  -4  114.17    7.37
  -6   1  -4  121.49    7.44
  -6   1  -5   24.54    3.54
  -6   1  -5   22.78    4.19
  -6   1  -5   28.23    3.74
   6   0 -10  125.90   11.71
  -6   0  10  111.26   11.47
   6   0  -9   35.27    5.91
  -6   0   9   41.21    5.94
   6   0  -8   60.02    6.66
  -6   0   8   63.92    6.62
   6   0  -7  188.87   11.92
  -6   0   7  196.16   11.89
   6   0  -6  111.52    7.72
  -6   0   6  116.51    7.69
   6   0  -5   30.72    3.49
  -6   0   5   32.29    3.54
   6   0  -4   41.01    3.62
  -6   0   4   40.44    4.67
   6   0  -3   41.69    4.79
  -6   0   3   49.05    3.39
  -6   0   2   64.52    3.86
  -6   0   1    4.18    1.48
  -6   0   0  135.14    6.94
  -6   0   0  137.28    7.74
  -6   0   0  132.03    5.76
  -6   0  -1    2.04    0.89
  -6   0  -1    1.98    1.41
  -6   0  -1    1.98    0.95
  -6   0  -2  266.34   12.17
  -6   0  -2  283.92   13.32
  -6   0  -2  269.21   13.91
  -6   0  -3  249.52   16.01
  -6   0  -3  244.18   11.48
  -6   0  -3  215.84   10.26
  -6   0  -4    5.35    1.46
  -6   0  -4    5.87    2.26
  -6   0  -4    6.26    1.63
   6   1 -10   22.63    5.14
  -6  -1  10   22.73    4.69
   6   1  -9   82.96    8.41
  -6  -1   9   84.29    7.78
   6   1  -8  159.60   11.18
  -6  -1   8  161.62   13.40
   6   1  -7   36.85    4.71
  -6  -1   7   46.03    4.59
   6   1  -6  234.86   12.13
  -6  -1   6  245.11   12.08
   6   1  -5   31.53    3.27
  -6  -1   5   31.08    3.28
   6   1  -4  357.52   17.13
  -6  -1   4  346.87   14.28
   6   1  -3  242.13   11.63
  -6  -1   3  236.02    9.38
  -6  -1   2   40.34    3.22
  -6  -1   1  156.36    7.03
  -6  -1   1  169.58    9.65
  -6  -1   0   69.06    4.00
  -6  -1   0   74.86    6.16
  -6  -1   0   69.47    4.16
  -6  -1  -1  383.62   14.73
  -6  -1  -1  325.66   12.90
  -6  -1  -1  362.66   18.79
  -6  -1  -2  236.01    9.77
  -6  -1  -2  254.80   14.47
  -6  -1  -2  263.40   10.76
  -6  -1  -3    1.38    1.66
  -6  -1  -4   21.83    4.29
   6   2 -10  105.20   10.64
  -6  -2  10  113.19    9.88
   6   2  -9   64.83    9.28
  -6  -2   9   66.26    6.65
   6   2  -8    5.69    2.46
  -6  -2   8    8.43    3.06
   6   2  -7  201.24   11.26
  -6  -2   7  201.31   11.13
   6   2  -6   60.60    4.82
  -6  -2   6   59.37    4.64
   6   2  -5  477.33   19.94
  -6  -2   5  454.19   20.90
   6   2  -4  887.17   37.04
  -6  -2   4  850.02   37.28
   6   2  -3    0.78    0.81
  -6  -2   3    0.07    0.78
  -6  -2   2  706.00   24.45
  -6  -2   2  608.60   31.42
  -6  -2   1  113.56    3.84
  -6  -2   1  108.26    8.56
  -6  -2   1   99.96    4.26
  -6  -2   0   57.77    6.07
  -6  -2   0   57.15    2.85
  -6  -2   0   53.37    2.51
  -6  -2  -1   99.43    8.51
  -6  -2  -3   63.80    7.61
   6   3 -10   67.00    7.55
  -6  -3  10   56.78    7.13
   6   3  -9    6.65    2.67
  -6  -3   9    6.93    2.51
   6   3  -8  213.53   12.53
  -6  -3   8  212.35   11.82
   6   3  -7   67.85    7.02
  -6  -3   7   67.95    5.19
   6   3  -6  217.16   10.41
  -6  -3   6  225.39   12.29
   6   3  -5  131.13    7.86
  -6  -3   5  128.99    7.53
   6   3  -4    4.15    2.40
  -6  -3   4   55.98    2.41
  -6  -3   3  261.79    9.75
  -6  -3   2   83.50    3.28
  -6  -3   2  105.20    8.39
  -6  -3   1   43.90    5.95
  -6  -3   0   85.24   11.19
  -6  -3  -1   -0.64    1.61
  -6  -3  -2  110.28   10.85
   6   4  -9  140.05   10.44
  -6  -4   9  150.21   12.75
   6   4  -8    2.25    1.59
  -6  -4   8    2.18    1.49
   6   4  -7   50.65    4.41
  -6  -4   7   47.41    5.46
   6   4  -6    9.96    1.85
  -6  -4   6    9.46    2.34
   6   4  -5   -2.04    0.90
  -6  -4   5   -0.31    1.08
   6   4  -4  122.23    5.95
  -6  -4   4  115.30    5.40
  -6  -4   3   24.38    6.65
  -6  -4   2  165.46   12.95
  -6  -4   1   25.47    5.26
  -6  -4   0    1.91    2.26
   6   5  -9    0.98    1.50
  -6  -5   9    1.16    1.39
   6   5  -8  212.74   11.59
  -6  -5   8  187.75   12.94
   6   5  -7   97.67    5.97
  -6  -5   7   88.61    7.12
   6   5  -6   12.17    2.35
  -6  -5   6   16.67    2.52
   6   5  -5   50.27    3.79
  -6  -5   5   48.03    3.63
  -6  -5   4    5.16    3.04
  -6  -5   3   53.46   10.18
  -6  -5   2   64.75    8.66
  -6  -5   1   -0.38    1.81
   6   6  -7    6.21    2.33
  -6  -6   7    8.79    2.23
  -6  -6   5   41.76    7.33
  -6  -6   4   54.20    8.37
  -6  -6   3   38.70    7.49
  -7   9   3   49.27    6.11
  -7   9   3   63.78    8.56
  -7   9   2   23.79    2.53
  -7   9   2   17.23    5.51
  -7   9   1   80.56    9.62
  -7   9   0    4.83    1.99
  -7   9   0   -0.58    1.26
  -7   9  -1   13.20    4.05
  -7   9  -1    8.07    4.25
  -7   9  -2   29.94    6.32
  -7   9  -2   25.16    6.26
  -7   8   5   35.68    5.05
  -7   8   5   46.01    7.58
  -7   8   4   43.18    7.79
  -7   8   4   46.50    6.13
  -7   8   3   -0.06    2.39
  -7   8   3    2.99    1.67
  -7   8   2   32.89    3.62
  -7   8   2   36.09    6.09
  -7   8   1   18.61    4.54
  -7   8   1   17.94    2.18
  -7   8   0   61.64    4.53
  -7   8   0   -0.76    2.60
  -7   8  -1   70.27    8.97
  -7   8  -1   81.29    9.14
  -7   8  -2   28.39    6.01
  -7   8  -2   32.59    6.15
  -7   8  -3   51.74    8.09
  -7   8  -3   58.19    8.50
   7  -7  -6   20.11    5.22
  -7   7   6   18.19    4.44
  -7   7   6   18.66    5.51
   7  -7  -5   59.96    8.66
  -7   7   5   66.48    4.48
  -7   7   5   67.93    9.17
  -7   7   4    0.99    1.16
  -7   7   4   23.59    2.94
  -7   7   3   82.98    9.16
  -7   7   2    5.23    2.71
  -7   7   1   65.49    7.69
  -7   7   0   33.21    5.40
  -7   7  -1   76.20    8.76
  -7   7  -1   76.50    8.44
  -7   7  -2  163.94   13.76
  -7   7  -2  192.46   14.23
  -7   7  -3    1.84    2.06
  -7   7  -3    0.69    2.09
  -7   7  -4   26.46    5.90
  -7   7  -4   27.34    5.87
   7  -6  -7   56.69    8.42
  -7   6   7   59.94    9.48
   7  -6  -6   13.26    4.39
  -7   6   6   13.35    4.61
   7  -6  -5  218.42   16.99
  -7   6   5  233.37   17.83
   7  -6  -4  236.69   17.19
  -7   6   4  242.64   17.40
  -7   6   3    1.48    1.90
  -7   6   2  119.10    9.89
  -7   6   1   95.69    8.63
  -7   6   0   91.92    8.46
  -7   6  -1  285.20   13.93
  -7   6  -1  284.00   18.05
  -7   6  -1  296.63    9.46
  -7   6  -2   -0.71    1.41
  -7   6  -2    1.49    1.41
  -7   6  -3   53.48    7.05
  -7   6  -3   57.79    7.25
  -7   6  -4    9.44    3.38
  -7   6  -4    5.97    4.58
   7  -5  -8   42.15    7.65
  -7   5   8   49.97    9.13
   7  -5  -7    8.38    3.80
  -7   5   7   10.17    4.21
   7  -5  -6  143.09   12.79
  -7   5   6  151.17   13.61
   7  -5  -5  494.65   30.70
  -7   5   5  534.23   31.38
   7  -5  -4    2.03    2.01
  -7   5   4    1.16    1.95
  -7   5   3  400.77   22.41
  -7   5   2   64.08    6.47
  -7   5   1  117.76    9.12
  -7   5   0  182.54   11.82
  -7   5  -1    3.73    2.06
  -7   5  -1    4.02    2.04
  -7   5  -1    3.02    1.07
  -7   5  -2   60.36    3.42
  -7   5  -2   64.47    6.58
  -7   5  -2   67.88    6.57
  -7   5  -3   22.53    6.11
  -7   5  -3   27.17    4.55
  -7   5  -4   24.27    4.10
  -7   5  -4    8.53    4.23
   7  -4  -8   32.92    6.52
  -7   4   8   39.39    7.86
   7  -4  -7   92.15   10.38
  -7   4   7  107.66   11.55
   7  -4  -6  150.79   12.42
  -7   4   6  165.25   13.46
   7  -4  -5   48.57    6.39
  -7   4   5   49.31    6.30
   7  -4  -4  132.57   10.24
  -7   4   4  123.37    9.64
   7  -4  -3    4.92    2.30
  -7   4   3    4.95    2.20
  -7   4   2  154.40    9.91
  -7   4   1  236.16   13.27
  -7   4   0    1.67    1.49
  -7   4  -1   83.49    6.85
  -7   4  -1   78.00    6.70
  -7   4  -1   86.47    4.96
  -7   4  -2   55.17    3.91
  -7   4  -2   50.06    5.53
  -7   4  -2   49.20    5.49
  -7   4  -3   61.59    4.53
  -7   4  -3   54.07    7.90
  -7   4  -3   57.74    6.34
  -7   4  -4  174.40   11.96
  -7   4  -4  167.90   15.75
   7  -3  -9   -0.07    2.09
  -7   3   9    2.29    2.58
   7  -3  -8   60.02    8.16
  -7   3   8   69.76    9.77
   7  -3  -7   42.53    6.27
  -7   3   7   44.38    6.88
   7  -3  -6    1.37    1.86
  -7   3   6    2.01    1.93
   7  -3  -5   37.13    5.12
  -7   3   5   33.72    4.79
   7  -3  -4   35.57    4.94
  -7   3   4   37.14    4.54
   7  -3  -3   90.09    7.49
  -7   3   3   89.90    6.90
  -7   3   2  108.07    7.39
  -7   3   1   37.41    4.12
  -7   3   0   80.24    8.15
  -7   3   0   92.08    4.93
  -7   3  -1   34.79    5.37
  -7   3  -1   36.78    4.04
  -7   3  -1   41.12    3.82
  -7   3  -2   20.71    3.01
  -7   3  -2   19.42    3.27
  -7   3  -2   20.24    3.19
  -7   3  -3   94.54    7.14
  -7   3  -3  101.37    9.57
  -7   3  -3   95.03    5.46
  -7   3  -4    7.80    2.57
  -7   3  -4    8.90    1.85
  -7   3  -4    8.14    3.62
   7  -2  -9   69.98   12.53
  -7   2   9   81.70   10.72
   7  -2  -8  185.45   14.72
  -7   2   8  201.35   15.60
   7  -2  -7   45.91    6.15
  -7   2   7   46.53    6.45
   7  -2  -6  194.94   13.89
  -7   2   6  256.79   14.56
   7  -2  -5  100.08    8.01
  -7   2   5   99.86    7.65
   7  -2  -4   25.72    5.36
  -7   2   4   28.75    3.79
   7  -2  -3   18.34    3.08
  -7   2   3   14.19    3.81
  -7   2   2   26.22    4.38
  -7   2   1  163.48    8.74
  -7   2   0   26.55    3.00
  -7   2   0   27.08    3.18
  -7   2  -1   11.83    2.05
  -7   2  -1    9.80    2.19
  -7   2  -1   11.43    2.20
  -7   2  -2   20.62    2.44
  -7   2  -2   14.10    2.77
  -7   2  -2   11.52    2.56
  -7   2  -3   73.28    5.45
  -7   2  -3   72.92    7.25
  -7   2  -3   77.91    7.92
   7  -1  -9   52.24    7.73
  -7   1   9   55.92    8.82
   7  -1  -8   78.86   12.14
  -7   1   8  103.59    9.77
   7  -1  -7  222.25   14.58
  -7   1   7  226.20   14.23
   7  -1  -6  102.95    8.16
  -7   1   6  102.02    7.89
   7  -1  -5   19.94    3.18
  -7   1   5   13.69    3.09
   7  -1  -4  140.84    8.78
  -7   1   4  144.58   10.19
   7  -1  -3   70.17    5.57
  -7   1   3   71.66    6.68
  -7   1   2  423.03   18.55
  -7   1   1   48.23    3.86
  -7   1   1   47.67    4.27
  -7   1   0  132.97    6.98
  -7   1   0  137.92    7.10
  -7   1   0  142.19   10.08
  -7   1  -1  104.34    6.16
  -7   1  -1  106.30    5.88
  -7   1  -1  108.46    7.22
  -7   1  -2   50.21    3.95
  -7   1  -2   47.45    4.12
  -7   1  -3   84.12    7.06
  -7   1  -3   90.11    6.83
  -7   1  -3   83.85    6.10
   7   0 -10   17.02    5.09
  -7   0  10   18.35    5.30
   7   0  -9    5.56    2.91
  -7   0   9    4.68    3.21
   7   0  -8  155.81   12.13
  -7   0   8  157.80   12.47
   7   0  -7    0.98    1.37
  -7   0   7   -0.05    1.86
   7   0  -6  378.04   19.69
  -7   0   6  388.13   22.71
   7   0  -5  210.19   11.50
  -7   0   5  206.15   13.34
   7   0  -4  125.77    9.74
  -7   0   4  128.17    8.97
   7   0  -3  446.47   19.90
  -7   0   3  466.74   21.95
  -7   0   2   40.24    4.26
  -7   0   1  318.43   19.55
  -7   0   1  292.26   14.22
  -7   0   0  347.42   17.96
  -7   0   0  322.83   14.99
  -7   0   0  332.04   15.53
  -7   0  -1    1.97    1.56
  -7   0  -1    2.64    1.83
  -7   0  -1    3.42    1.44
  -7   0  -2   73.06    5.47
  -7   0  -2   74.70    5.99
   7   1  -9   49.08    7.43
  -7  -1   9   71.83    7.54
   7   1  -8    3.03    2.02
  -7  -1   8    2.25    2.12
   7   1  -7  134.06    9.70
  -7  -1   7  155.16   12.71
   7   1  -6  174.42   10.33
  -7  -1   6  187.67   10.48
   7   1  -5   83.64    5.70
  -7  -1   5   69.85    5.26
   7   1  -4  228.36   13.50
  -7  -1   4  247.65   10.38
  -7  -1   3    0.06    0.56
  -7  -1   2  106.72    7.95
  -7  -1   2   93.57    5.84
  -7  -1   1  186.29   11.59
  -7  -1   1  148.02    7.42
  -7  -1   1  178.63    7.13
  -7  -1   0   21.03    2.41
  -7  -1   0   21.78    2.72
  -7  -1   0   21.19    4.04
   7   2  -9    6.36    2.72
  -7  -2   9    4.74    2.70
   7   2  -8   44.94    5.66
  -7  -2   8   52.55    5.68
   7   2  -7   66.25    6.29
  -7  -2   7   81.03    6.44
   7   2  -6   56.88    5.35
  -7  -2   6   86.16    5.78
   7   2  -5  116.29    6.84
  -7  -2   5  123.52    8.45
   7   2  -4    2.87    1.21
  -7  -2   4    2.97    1.50
  -7  -2   3   42.00    3.52
  -7  -2   2   17.99    1.99
  -7  -2   2   16.92    4.05
  -7  -2   1   15.89    4.02
   7   3  -9   97.59    9.63
  -7  -3   9  132.45    9.49
   7   3  -8   12.37    3.00
  -7  -3   8   10.51    3.81
   7   3  -7   61.34    5.88
  -7  -3   7   84.72    5.76
   7   3  -6  119.67    7.08
  -7  -3   6  116.30    8.68
   7   3  -5    4.15    1.43
  -7  -3   5    4.61    1.80
   7   3  -4   53.67    3.53
  -7  -3   4   94.18    4.93
  -7  -3   3   65.13    7.96
  -7  -3   2   -0.02    1.20
   7   4  -8   13.91    3.16
  -7  -4   8   16.67    2.98
   7   4  -7   66.82    5.40
  -7  -4   7   67.28    6.68
   7   4  -6    0.33    1.18
  -7  -4   6    0.58    1.11
  -7  -4   4   93.31   10.47
  -7  -4   3   52.04    7.97
  -8   8   3  126.06    7.87
  -8   8   3  126.14   14.40
  -8   8   2   13.41    6.51
  -8   8   1  115.02   12.47
  -8   8   0    5.58    4.46
  -8   8   0  109.35    7.21
   8  -7  -5   56.95    8.80
  -8   7   5   54.41    9.62
  -8   7   4  269.13   28.22
  -8   7   3   21.85    5.59
  -8   7   2   85.70    9.83
  -8   7   1   52.11    7.37
  -8   7   0   20.26    3.32
  -8   7   0    0.95    2.12
  -8   7  -1  157.32   14.21
  -8   7  -1  195.19   15.36
   8  -6  -6   32.09    6.91
  -8   6   6   28.01    7.25
   8  -6  -5  158.57   15.55
  -8   6   5  171.73   15.85
  -8   6   4    4.54    3.08
  -8   6   3   30.40    7.53
  -8   6   2   19.95    4.53
  -8   6   1   11.63    4.90
  -8   6   0  161.25    7.59
  -8   6   0    1.13    3.31
  -8   6  -1    4.27    2.64
  -8   6  -1    4.42    2.71
  -8   6  -2   70.96    8.29
  -8   6  -2   70.66    8.47
   8  -5  -7    0.79    2.16
  -8   5   7    0.77    2.45
   8  -5  -6   60.05    9.30
  -8   5   6   70.19    9.58
   8  -5  -5    0.49    2.14
  -8   5   5    1.94    2.13
   8  -5  -4  111.96   10.92
  -8   5   4  115.51   10.64
  -8   5   3   34.79    5.54
  -8   5   2    0.60    1.47
  -8   5   1    6.95    2.79
  -8   5   0    0.98    1.06
  -8   5   0   -0.22    0.74
  -8   5   0   -0.32    0.68
  -8   5  -1   68.14    7.32
  -8   5  -1   71.68    7.27
  -8   5  -2   69.15    7.58
  -8   5  -2   72.11    7.80
   8  -4  -7   79.13   10.14
  -8   4   7   84.28   11.13
   8  -4  -6    1.12    2.37
  -8   4   6    3.36    2.50
   8  -4  -5  153.87   13.23
  -8   4   5  165.52   12.80
   8  -4  -4  117.76   10.55
  -8   4   4  121.95   10.32
  -8   4   3   31.12    4.82
  -8   4   2   13.71    3.27
  -8   4   1    2.33    1.84
  -8   4   0   71.88    6.91
  -8   4   0   76.35    4.76
  -8   4  -1   36.04    4.77
  -8   4  -1   28.19    6.29
  -8   4  -1   37.47    4.02
  -8   4  -2    9.71    3.24
  -8   4  -2   13.66    4.06
   8  -3  -8   59.73    9.15
  -8   3   8   73.81   11.17
   8  -3  -7    0.75    1.28
  -8   3   7   -0.76    1.36
   8  -3  -6  106.01   10.54
  -8   3   6  118.54   13.79
   8  -3  -5  118.29   10.63
  -8   3   5  117.74   12.64
   8  -3  -4   21.31    4.50
  -8   3   4   24.18    4.20
  -8   3   3  193.30   12.28
  -8   3   2    6.24    3.11
  -8   3   1  155.49   12.42
  -8   3   0   46.69    5.05
  -8   3   0   45.98    4.98
  -8   3   0   47.18    6.41
  -8   3  -1    4.12    1.79
  -8   3  -1    2.00    1.81
  -8   3  -2   99.21    8.01
  -8   3  -2   93.87    7.51
   8  -2  -8   -0.12    1.15
  -8   2   8    0.18    1.40
   8  -2  -7  111.64   11.24
  -8   2   7  150.52   12.80
   8  -2  -6    1.64    2.16
  -8   2   6    3.18    1.99
   8  -2  -5  109.58    9.44
  -8   2   5  112.60    8.68
   8  -2  -4  195.69   12.99
  -8   2   4  199.52   11.81
  -8   2   3    0.91    1.29
  -8   2   2  432.05   21.52
  -8   2   1  159.24    9.13
  -8   2   1  141.60    8.94
  -8   2   0   54.57    4.82
  -8   2   0   55.21    5.00
  -8   2  -1  158.85    9.41
  -8   2  -1  146.79   11.28
   8  -1  -8   98.82   10.29
  -8   1   8  110.82   15.83
   8  -1  -7   15.46    3.90
  -8   1   7   14.50    4.39
   8  -1  -6   31.38    6.78
  -8   1   6   37.06    5.28
   8  -1  -5  181.39   14.80
  -8   1   5  172.18   10.99
   8  -1  -4    1.38    1.26
  -8   1   4    0.03    1.09
  -8   1   3  286.32   14.18
  -8   1   2   13.70    2.47
  -8   1   1   89.45    6.01
  -8   1   0   95.14    7.62
  -8   1   0   96.92    6.20
  -8   1  -1    8.27    2.27
  -8   1  -1    9.97    2.69
   8   0  -8   22.27    4.93
  -8   0   8   27.61    5.56
   8   0  -7  108.81   12.37
  -8   0   7  127.49   13.64
   8   0  -6   88.45   10.08
  -8   0   6  100.82    8.36
   8   0  -5    0.43    1.22
  -8   0   5    0.63    1.16
   8   0  -4   16.23    3.39
  -8   0   4   29.34    3.16
  -8   0   3    0.47    0.84
  -8   0   2   21.42    3.37
  -8   0   1   78.59    5.10
  -8   0   1   71.49    5.97
  -8   0   0    0.72    0.86
   8   1  -8   93.22   11.94
  -8  -1   8  111.61   10.35
   8   1  -7   50.58    8.25
  -8  -1   7   68.14    8.77
   8   1  -6    3.71    2.83
  -8  -1   6    5.71    2.20
   8   1  -5  143.65    9.22
  -8  -1   5  148.42    8.94
  -8  -1   4   13.63    3.21
  -8  -1   3   30.65    3.91
  -8  -1   2   32.38    2.71
   8   2  -7    4.32    2.84
  -8  -2   7    4.53    2.26
   8   2  -6  148.04    9.44
  -8  -2   6  156.57   10.01
   8   2  -5    4.35    2.15
  -8  -2   5    3.31    1.61
  -8  -2   4   23.38    3.64
  -9   5   4   93.62   10.77
  -9   5   3    3.05    2.58
  -9   5   2   30.71    5.60
   9  -4  -5   46.96    7.95
  -9   4   5   60.61    7.67
  -9   4   4   38.62    6.43
  -9   4   3  154.80   16.05
  -9   4   2   26.02    4.81
   9  -3  -5   50.20    6.93
  -9   3   5   40.89    6.32
  -9   3   4  169.74   12.66
  -9   3   3   27.67    4.63
  -9   3   2   50.95    5.92
   9  -2  -5   73.89    8.16
  -9   2   5   67.38   10.43
  -9   2   4    9.20    3.62
  -9   2   3   44.94    5.15
  -9   1   5    3.15    2.20
  -9   1   4   98.83   10.22
   0   0   0    0.00    0.00
;
_shelx_hkl_checksum              47185
_shelx_res_file
;
    1.res created by SHELXL-2014/7
TITL 1 in P-1
CELL  0.71073    7.1226    9.0134    9.1203   103.160   107.480   106.690
ZERR  1           0.0014    0.0018    0.0018     0.030     0.030     0.030
LATT 1
SFAC
SFAC C   2.3100 20.8439  1.0200 10.2075  1.5886  0.5687  0.8650 51.6512  =
        0.2156  0.0033  0.0016 11.5000 0.680 12.01000
SFAC
SFAC H   0.4930 10.5109  0.3229 26.1257  0.1402  3.1424  0.0408 57.7998  =
        0.0030  0.0000  0.0000  0.6240 0.350  1.00800
SFAC
SFAC N  12.2126  0.0057  3.1322  9.8933  2.0125 28.9975  1.1663  0.5826  =
       -11.5290  0.0061  0.0033 19.6000 0.680 14.01000
SFAC
SFAC Ni 12.8376  3.8785  7.2920  0.2565  4.4438 12.1763  2.3800 66.3422  =
        1.0341  0.3393  1.1124 4570.0000 1.500 58.69000
SFAC
SFAC O   3.0485 13.2771  2.2868  5.7011  1.5463  0.3239  0.8670 32.9089  =
        0.2508  0.0106  0.0060 32.5000 0.680 16.00000
UNIT 6 28 12 2 8
omit 3 1 6
omit -2 -1 3
omit 2 -2 1
OMIT   0.00  50.00
L.S. 10
ACTA
BOND $H
FMAP 2
PLAN 20
dfix 0.87 n6 h6c
dfix 0.87 n6 h6b
dfix 0.87 n6 h6a
dfix 0.87 n5 h5c
dfix 0.87 n5 h5b
dfix 0.87 n5 h5a
dfix 0.87 n3 h3c
dfix 0.87 n3 h3b
dfix 0.87 n3 h3a
dfix 1.46 h4wa h4wb
dfix 0.82 o4w h4wa o4w h4wb
dfix 1.46 h3wa h3wb
dfix 0.82 o3w h3wa o3w h3wb
HTAB
EQIV $1 x-1, y, z
HTAB N3 O1_$1
EQIV $2 -x+1, -y+2, -z+1
HTAB N3 O4W_$2
HTAB N5 O3W_$1
HTAB N5 O2_$2
EQIV $3 -x+1, -y+1, -z+1
HTAB N6 O3W_$3
HTAB N6 O4W
EQIV $4 -x+2, -y+2, -z+1
HTAB O3W O1_$4
HTAB O3W O4W
EQIV $5 x, y, z+1
HTAB O4W N4_$5
HTAB O4W O2_$2
size 0.25 0.27 0.30
FREE H4WA H4WB
WGHT    0.041800
FVAR       0.80754
NI1   4    0.157733    0.709679    0.197864    11.00000    0.01801    0.01723 =
         0.01874    0.00403    0.00777    0.00398
N1    3    0.235537    0.601043    0.009441    11.00000    0.01778    0.01801 =
         0.02213    0.00356    0.00807    0.00422
N2    3    0.139286    0.470181   -0.134107    11.00000    0.02206    0.01718 =
         0.02221    0.00414    0.01000    0.00407
N3    3    0.018094    0.821266    0.040420    11.00000    0.02581    0.02586 =
         0.02998    0.00902    0.01116    0.00986
H3A   2   -0.038304    0.751972   -0.053508    11.00000   -1.20000
H3B   2   -0.084628    0.843605    0.049116    11.00000   -1.20000
H3C   2    0.110777    0.906853    0.056851    11.00000   -1.20000
N4    3    0.444707    0.637867   -0.130120    11.00000    0.02586    0.02700 =
         0.03335    0.00386    0.01741    0.00259
N5    3    0.137989    0.868299    0.397041    11.00000    0.03635    0.02683 =
         0.02785    0.00457    0.01646    0.00788
H5A   2    0.068916    0.822792    0.454188    11.00000   -1.20000
H5B   2    0.068694    0.926097    0.367690    11.00000   -1.20000
H5C   2    0.260483    0.937104    0.470738    11.00000   -1.20000
N6    3    0.306206    0.592770    0.345304    11.00000    0.03111    0.02840 =
         0.03034    0.00941    0.00724    0.00774
H6A   2    0.218729    0.511435    0.356023    11.00000   -1.20000
H6B   2    0.377417    0.552692    0.298501    11.00000   -1.20000
H6C   2    0.397312    0.659260    0.441662    11.00000   -1.20000
O1    5    0.715287    0.949047    0.145508    11.00000    0.02603    0.02893 =
         0.05769   -0.00500    0.02454   -0.00604
O2    5    0.469559    0.887615    0.251566    11.00000    0.02291    0.02325 =
         0.02934    0.00143    0.01104    0.00356
O3W   5    0.948042    0.754084    0.638343    11.00000    0.04618    0.03989 =
         0.04302    0.00324    0.02170    0.00443
H3WA  2    1.069814    0.819640    0.693571    11.00000   -1.50000
H3WB  2    0.846690    0.775242    0.652472    11.00000   -1.50000
O4W   5    0.608289    0.821931    0.695306    11.00000    0.04728    0.03109 =
         0.03834    0.01331    0.02287    0.01314
H4WA  2    0.578710    0.768586    0.753631    11.00000   -1.50000
H4WB  2    0.570565    0.901610    0.699829    11.00000   -1.50000
C1    1    0.413058    0.696890    0.005359    11.00000    0.01874    0.02066 =
         0.02608    0.00592    0.01021    0.00622
C2    1    0.269710    0.497653   -0.212701    11.00000    0.02855    0.02612 =
         0.02871    0.00209    0.01627    0.00407
AFIX  43
H2    2    0.242211    0.426544   -0.314958    11.00000   -1.20000
AFIX   0
C3    1    0.547104    0.858450    0.144467    11.00000    0.01997    0.02159 =
         0.03027    0.00223    0.00768    0.00596
HKLF 4
REM  1 in P-1
REM R1 =  0.0275 for    1641 Fo > 4sig(Fo)  and  0.0294 for all    1767 data
REM    166 parameters refined using     15 restraints
END
WGHT      0.0418      0.0000
REM Instructions for potential hydrogen bonds
HTAB N3 O1_$1
HTAB N3 O4W_$2
HTAB N5 O3W_$1
HTAB N5 O2_$2
HTAB N6 O3W_$3
HTAB N6 O4W
HTAB O3W O1_$4
HTAB O3W O4W
HTAB O4W N4_$5
HTAB O4W O2_$2
REM Highest difference peak  0.370,  deepest hole -0.340,  1-sigma level  0.074
Q1    1   0.1917  0.6689  0.0922  11.00000  0.05    0.37
Q2    1   0.0800  0.7850  0.1184  11.00000  0.05    0.35
Q3    1   0.2050  0.6363  0.2838  11.00000  0.05    0.35
Q4    1   0.4648  0.7832  0.0676  11.00000  0.05    0.34
Q5    1   0.3882  0.5908 -0.1673  11.00000  0.05    0.29
Q6    1   0.9256  0.8124  0.5838  11.00000  0.05    0.27
Q7    1   0.1278  0.7588  0.3004  11.00000  0.05    0.27
Q8    1   0.2612  0.6105  0.4090  11.00000  0.05    0.26
Q9    1   0.0723  0.8148 -0.0435  11.00000  0.05    0.26
Q10   1   0.4389  0.6544 -0.0590  11.00000  0.05    0.24
Q11   1   0.1927  0.5479 -0.0442  11.00000  0.05    0.24
Q12   1   0.7801  0.9987  0.1468  11.00000  0.05    0.23
Q13   1   0.5196  0.6537 -0.1337  11.00000  0.05    0.21
Q14   1  -0.0801  0.7565 -0.0052  11.00000  0.05    0.21
Q15   1  -0.2130  0.8775  0.3877  11.00000  0.05    0.20
Q16   1   0.4687  0.9022  0.3037  11.00000  0.05    0.20
Q17   1   0.2646  1.0994  0.4124  11.00000  0.05    0.20
Q18   1   0.2889  0.6408  0.4965  11.00000  0.05    0.20
Q19   1   0.3470  0.6734  0.0206  11.00000  0.05    0.20
Q20   1   0.6703  0.7387  0.1425  11.00000  0.05    0.20
;
_shelx_res_checksum              97725
loop_
_space_group_symop_operation_xyz
'x, y, z'
'-x, -y, -z'
loop_
_atom_site_type_symbol
_atom_site_label
_atom_site_fract_x
_atom_site_fract_y
_atom_site_fract_z
_atom_site_U_iso_or_equiv
_atom_site_adp_type
_atom_site_calc_flag
_atom_site_occupancy
Ni Ni1 0.15773(4) 0.70968(3) 0.19786(3) 0.01892(12) Uani d 1
N N1 0.2355(3) 0.60104(19) 0.0094(2) 0.0205(4) Uani d 1
N N2 0.1393(3) 0.4702(2) -0.1341(2) 0.0215(4) Uani d 1
N N3 0.0181(3) 0.8213(2) 0.0404(2) 0.0273(4) Uani d 1
H H3A -0.038(4) 0.752(3) -0.054(2) 0.033 Uiso d 1
H H3B -0.085(3) 0.844(3) 0.049(3) 0.033 Uiso d 1
H H3C 0.111(3) 0.907(2) 0.057(3) 0.033 Uiso d 1
N N4 0.4447(3) 0.6379(2) -0.1301(2) 0.0303(4) Uani d 1
N N5 0.1380(3) 0.8683(2) 0.3970(2) 0.0313(4) Uani d 1
H H5A 0.069(4) 0.823(3) 0.454(3) 0.038 Uiso d 1
H H5B 0.069(4) 0.926(3) 0.368(3) 0.038 Uiso d 1
H H5C 0.260(3) 0.937(3) 0.471(3) 0.038 Uiso d 1
N N6 0.3062(3) 0.5928(2) 0.3453(3) 0.0322(4) Uani d 1
H H6A 0.219(4) 0.511(3) 0.356(3) 0.039 Uiso d 1
H H6B 0.377(4) 0.553(3) 0.299(3) 0.039 Uiso d 1
H H6C 0.397(4) 0.659(3) 0.442(2) 0.039 Uiso d 1
O O1 0.7153(3) 0.94905(19) 0.1455(2) 0.0432(5) Uani d 1
O O2 0.4696(2) 0.88761(18) 0.25157(18) 0.0277(4) Uani d 1
O O3W 0.9480(3) 0.7541(2) 0.6383(2) 0.0469(5) Uani d 1
H H3WA 1.070(3) 0.820(3) 0.694(4) 0.070 Uiso d 1
H H3WB 0.847(3) 0.775(4) 0.652(4) 0.070 Uiso d 1
O O4W 0.6083(3) 0.8219(2) 0.6953(2) 0.0375(4) Uani d 1
H H4WA 0.579(5) 0.769(3) 0.754(3) 0.056 Uiso d 1
H H4WB 0.571(5) 0.902(3) 0.700(4) 0.056 Uiso d 1
C C1 0.4131(3) 0.6969(2) 0.0054(2) 0.0222(4) Uani d 1
C C2 0.2697(4) 0.4977(3) -0.2127(3) 0.0294(5) Uani d 1
H H2 0.2422 0.4265 -0.3150 0.035 Uiso calc 1
C C3 0.5471(3) 0.8585(3) 0.1445(3) 0.0262(5) Uani d 1
loop_
_atom_site_aniso_label
_atom_site_aniso_U_11
_atom_site_aniso_U_22
_atom_site_aniso_U_33
_atom_site_aniso_U_12
_atom_site_aniso_U_13
_atom_site_aniso_U_23
Ni1 0.01801(18) 0.01723(18) 0.01874(17) 0.00398(13) 0.00777(12) 0.00403(12)
N1 0.0178(8) 0.0180(8) 0.0221(8) 0.0042(7) 0.0081(7) 0.0036(7)
N2 0.0221(9) 0.0172(9) 0.0222(8) 0.0041(8) 0.0100(7) 0.0041(7)
N3 0.0258(10) 0.0259(10) 0.0300(10) 0.0099(9) 0.0112(8) 0.0090(8)
N4 0.0259(10) 0.0270(9) 0.0333(10) 0.0026(8) 0.0174(8) 0.0039(8)
N5 0.0363(11) 0.0268(10) 0.0278(10) 0.0079(9) 0.0165(9) 0.0046(8)
N6 0.0311(11) 0.0284(11) 0.0303(10) 0.0077(9) 0.0072(9) 0.0094(9)
O1 0.0260(9) 0.0289(9) 0.0577(11) -0.0060(8) 0.0245(8) -0.0050(8)
O2 0.0229(8) 0.0233(7) 0.0293(8) 0.0036(7) 0.0110(6) 0.0014(6)
O3W 0.0462(11) 0.0399(10) 0.0430(10) 0.0044(9) 0.0217(9) 0.0032(8)
O4W 0.0473(10) 0.0311(9) 0.0383(9) 0.0131(8) 0.0229(8) 0.0133(7)
C1 0.0187(10) 0.0207(10) 0.0261(10) 0.0062(9) 0.0102(8) 0.0059(8)
C2 0.0285(12) 0.0261(11) 0.0287(11) 0.0041(10) 0.0163(10) 0.0021(9)
C3 0.0200(11) 0.0216(10) 0.0303(11) 0.0060(9) 0.0077(9) 0.0022(9)
loop_
_atom_type_symbol
_atom_type_description
_atom_type_scat_dispersion_real
_atom_type_scat_dispersion_imag
_atom_type_scat_source
C C 0.0033 0.0016 'International Tables Vol C Tables 4.2.6.8 and 6.1.1.4'
H H 0.0000 0.0000 'International Tables Vol C Tables 4.2.6.8 and 6.1.1.4'
N N 0.0061 0.0033 'International Tables Vol C Tables 4.2.6.8 and 6.1.1.4'
Ni Ni 0.3393 1.1124 'International Tables Vol C Tables 4.2.6.8 and 6.1.1.4'
O O 0.0106 0.0060 'International Tables Vol C Tables 4.2.6.8 and 6.1.1.4'
loop_
_geom_angle_atom_site_label_1
_geom_angle_atom_site_label_2
_geom_angle_atom_site_label_3
_geom_angle_site_symmetry_1
_geom_angle_site_symmetry_3
_geom_angle
N2 Ni1 N1 2_565 . 99.08(7)
N2 Ni1 N3 2_565 . 90.35(8)
N1 Ni1 N3 . . 86.20(8)
N2 Ni1 N5 2_565 . 93.72(9)
N1 Ni1 N5 . . 166.82(7)
N3 Ni1 N5 . . 90.62(8)
N2 Ni1 N6 2_565 . 90.82(8)
N1 Ni1 N6 . . 90.24(8)
N3 Ni1 N6 . . 176.38(8)
N5 Ni1 N6 . . 92.72(9)
N2 Ni1 O2 2_565 . 176.40(6)
N1 Ni1 O2 . . 77.32(7)
N3 Ni1 O2 . . 89.58(8)
N5 Ni1 O2 . . 89.88(8)
N6 Ni1 O2 . . 89.05(8)
C1 N1 N2 . . 106.05(17)
C1 N1 Ni1 . . 114.02(13)
N2 N1 Ni1 . . 138.46(13)
C2 N2 N1 . . 104.97(16)
C2 N2 Ni1 . 2_565 133.02(14)
N1 N2 Ni1 . 2_565 121.86(14)
Ni1 N3 H3A . . 106.7(17)
Ni1 N3 H3B . . 118.6(19)
H3A N3 H3B . . 101(3)
Ni1 N3 H3C . . 106.5(19)
H3A N3 H3C . . 117(3)
H3B N3 H3C . . 107(3)
C1 N4 C2 . . 101.33(18)
Ni1 N5 H5A . . 118.3(16)
Ni1 N5 H5B . . 112.4(18)
H5A N5 H5B . . 101(2)
Ni1 N5 H5C . . 113.6(17)
H5A N5 H5C . . 104(2)
H5B N5 H5C . . 106(2)
Ni1 N6 H6A . . 114.2(19)
Ni1 N6 H6B . . 107.5(19)
H6A N6 H6B . . 106(2)
Ni1 N6 H6C . . 113.8(18)
H6A N6 H6C . . 108(3)
H6B N6 H6C . . 106(2)
C3 O2 Ni1 . . 115.74(12)
H3WA O3W H3WB . . 120(3)
H4WA O4W H4WB . . 116(3)
N1 C1 N4 . . 113.83(17)
N1 C1 C3 . . 118.14(18)
N4 C1 C3 . . 127.96(19)
N2 C2 N4 . . 113.81(18)
N2 C2 H2 . . 123.1
N4 C2 H2 . . 123.1
O1 C3 O2 . . 126.26(18)
O1 C3 C1 . . 119.6(2)
O2 C3 C1 . . 114.12(18)
loop_
_geom_bond_atom_site_label_1
_geom_bond_atom_site_label_2
_geom_bond_site_symmetry_2
_geom_bond_distance
_geom_bond_publ_flag
Ni1 N2 2_565 2.0745(19) y
Ni1 N1 . 2.0825(18) y
Ni1 N3 . 2.106(2) y
Ni1 N5 . 2.110(2) y
Ni1 N6 . 2.114(2) y
Ni1 O2 . 2.1651(18) y
N1 C1 . 1.327(3) ?
N1 N2 . 1.367(2) ?
N2 C2 . 1.337(3) ?
N2 Ni1 2_565 2.0745(19) ?
N3 H3A . 0.831(16) ?
N3 H3B . 0.833(17) ?
N3 H3C . 0.805(16) ?
N4 C1 . 1.341(3) ?
N4 C2 . 1.348(3) ?
N5 H5A . 0.904(17) ?
N5 H5B . 0.848(17) ?
N5 H5C . 0.863(17) ?
N6 H6A . 0.861(17) ?
N6 H6B . 0.857(17) ?
N6 H6C . 0.864(17) ?
O1 C3 . 1.237(3) ?
O2 C3 . 1.272(3) ?
O3W H3WA . 0.814(17) ?
O3W H3WB . 0.835(17) ?
O4W H4WA . 0.827(17) ?
O4W H4WB . 0.833(17) ?
C1 C3 . 1.508(3) ?
C2 H2 . 0.9300 ?
loop_
_geom_hbond_atom_site_label_D
_geom_hbond_atom_site_label_H
_geom_hbond_atom_site_label_A
_geom_hbond_site_symmetry_A
_geom_hbond_distance_DH
_geom_hbond_distance_HA
_geom_hbond_distance_DA
_geom_hbond_angle_DHA
N3 H3B O1 1_455 0.833(17) 2.204(18) 3.010(3) 163(2)
N3 H3C O4W 2_676 0.805(16) 2.65(2) 3.307(3) 139(2)
N5 H5A O3W 1_455 0.904(17) 2.232(18) 3.123(3) 168(2)
N5 H5C O2 2_676 0.863(17) 2.473(19) 3.286(3) 157(2)
N6 H6A O3W 2_666 0.861(17) 2.367(19) 3.193(3) 161(3)
N6 H6C O4W . 0.864(17) 2.205(17) 3.067(3) 175(3)
O3W H3WA O1 2_776 0.814(17) 2.07(2) 2.805(3) 151(3)
O3W H3WB O4W . 0.835(17) 1.987(18) 2.821(3) 177(4)
O4W H4WA N4 1_556 0.827(17) 1.988(19) 2.802(3) 168(3)
O4W H4WB O2 2_676 0.833(17) 1.973(18) 2.795(2) 169(3)

_cod_database_fobs_code 2020905
