#------------------------------------------------------------------------------
#$Date: 2019-02-26 05:47:57 +0200 (Tue, 26 Feb 2019) $
#$Revision: 213850 $
#$URL: file:///home/coder/svn-repositories/cod/cif/2/02/15/2021525.cif $
#------------------------------------------------------------------------------
#
# This file is available in the Crystallography Open Database (COD),
# http://www.crystallography.net/. The original data for this entry
# were provided by IUCr Journals, http://journals.iucr.org/.
#
# The file may be used within the scientific community so long as
# proper attribution is given to the journal article from which the
# data were obtained.
#
data_2021525
loop_
_publ_author_name
'Moreno-Fuquen, Rodolfo'
'Arango-Daravi\~na, Kevin'
'Becerra, Diana'
'Castillo, Juan-Carlos'
'Kennedy, Alan R.'
'Mac\'ias, Mario A.'
_publ_section_title
;
 Catalyst- and solvent-free synthesis of
 2-fluoro-<i>N</i>-(3-methylsulfanyl-1<i>H</i>-1,2,4-triazol-5-yl)benzamide
 through a microwave-assisted Fries rearrangement: X-ray structural and
 theoretical studies
;
_journal_coeditor_code           YO3062
_journal_issue                   3
_journal_name_full               'Acta Crystallographica Section C'
_journal_page_first
;
;
_journal_paper_doi               10.1107/S2053229619002572
_journal_volume                  75
_journal_year                    2019
_chemical_formula_iupac          'C10 H9 F N4 O S'
_chemical_formula_moiety         'C10 H9 F N4 O S'
_chemical_formula_sum            'C10 H9 F N4 O S'
_chemical_formula_weight         252.27
_chemical_name_systematic
(5-Amino-3-methylsulfanyl-1<i>H</i>-1,2,4-triazol-1-yl)(2-fluorophenyl)methanon
_space_group_crystal_system      triclinic
_space_group_IT_number           2
_space_group_name_Hall           '-P 1'
_space_group_name_H-M_alt        'P -1'
_symmetry_space_group_name_Hall  '-P 1'
_symmetry_space_group_name_H-M   'P -1'
_atom_sites_solution_hydrogens   mixed
_atom_sites_solution_primary     iterative
_atom_sites_solution_secondary   difmap
_audit_creation_method           SHELXL-2016/6
_cell_angle_alpha                94.487(9)
_cell_angle_beta                 108.668(11)
_cell_angle_gamma                97.565(9)
_cell_formula_units_Z            2
_cell_length_a                   7.6599(9)
_cell_length_b                   7.8079(8)
_cell_length_c                   10.0140(12)
_cell_measurement_reflns_used    5358
_cell_measurement_temperature    298(2)
_cell_measurement_theta_max      27.4530
_cell_measurement_theta_min      3.5530
_cell_volume                     557.83(12)
_computing_cell_refinement
;
CrysAlis PRO (Agilent, 2014)
;
_computing_data_collection
;
CrysAlis PRO (Agilent, 2014)
;
_computing_data_reduction
;
CrysAlis PRO (Agilent, 2014)
;
_computing_molecular_graphics
;
Mercury (Macrae <i>et al.</i>,  2008)
;
_computing_publication_material
;
SHELXL2014 (Sheldrick, 2015)
;
_computing_structure_refinement
;
SHELXL2014 (Sheldrick, 2015)
;
_computing_structure_solution
;
SUPERFLIP (Palatinus & Chapuis, 2007)
;
_diffrn_ambient_temperature      298(2)
_diffrn_detector                 'CCD plate'
_diffrn_detector_area_resol_mean 5.3072
_diffrn_measured_fraction_theta_full 0.999
_diffrn_measured_fraction_theta_max 0.998
_diffrn_measurement_device       'four-circle diffractometer'
_diffrn_measurement_device_type
;
Agilent SuperNova Dual Source diffractometer with an Atlas detector'
;
_diffrn_measurement_method       '\w scans'
_diffrn_radiation_type           MoK\a
_diffrn_radiation_wavelength     0.71073
_diffrn_reflns_av_R_equivalents  0.0441
_diffrn_reflns_av_unetI/netI     0.0291
_diffrn_reflns_limit_h_max       9
_diffrn_reflns_limit_h_min       -9
_diffrn_reflns_limit_k_max       10
_diffrn_reflns_limit_k_min       -9
_diffrn_reflns_limit_l_max       12
_diffrn_reflns_limit_l_min       -12
_diffrn_reflns_number            12256
_diffrn_reflns_theta_full        25.242
_diffrn_reflns_theta_max         27.097
_diffrn_reflns_theta_min         2.846
_diffrn_source                   'SuperNova (Mo) X-ray Source'
_exptl_absorpt_coefficient_mu    0.292
_exptl_absorpt_correction_T_max  1.00000
_exptl_absorpt_correction_T_min  0.85591
_exptl_absorpt_correction_type   multi-scan
_exptl_absorpt_process_details
;
(CrysAlis PRO; Agilent, 2014)
;
_exptl_crystal_colour            colorless
_exptl_crystal_density_diffrn    1.502
_exptl_crystal_description       parallelepiped
_exptl_crystal_F_000             260
_exptl_crystal_size_max          0.380
_exptl_crystal_size_mid          0.340
_exptl_crystal_size_min          0.220
_refine_diff_density_max         0.273
_refine_diff_density_min         -0.218
_refine_ls_extinction_method     none
_refine_ls_goodness_of_fit_ref   0.892
_refine_ls_hydrogen_treatment    mixed
_refine_ls_matrix_type           full
_refine_ls_number_parameters     225
_refine_ls_number_reflns         2450
_refine_ls_number_restraints     159
_refine_ls_restrained_S_all      0.875
_refine_ls_R_factor_all          0.0491
_refine_ls_R_factor_gt           0.0424
_refine_ls_shift/su_max          0.001
_refine_ls_shift/su_mean         0.000
_refine_ls_structure_factor_coef Fsqd
_refine_ls_weighting_details
'w=1/[\s^2^(Fo^2^)+(0.0563P)^2^+0.4216P] where P=(Fo^2^+2Fc^2^)/3'
_refine_ls_weighting_scheme      calc
_refine_ls_wR_factor_gt          0.1100
_refine_ls_wR_factor_ref         0.1164
_reflns_number_gt                2107
_reflns_number_total             2450
_reflns_threshold_expression     'I > 2\s(I)'
_cod_data_source_file            yo3062sup1.cif
_cod_data_source_block           Compound_3
_cod_database_code               2021525
_shelx_space_group_comment
;
The symmetry employed for this shelxl refinement is uniquely defined
by the following loop, which should always be used as a source of
symmetry information in preference to the above space-group names.
They are only intended as comments.
;
_shelx_estimated_absorpt_t_min   0.897
_shelx_estimated_absorpt_t_max   0.939
_shelx_hkl_file
;
   0   0   2 70943.2 1553.16  11
   0   0  -2 68618.2 1551.22  11
   0   0  -2 63991.0 1613.46   5
   0   0   2 65687.7 1541.84   7
   0   0  -3 1776.01 118.335   1
   0   0  -3 1743.62 158.071   5
   0   0   3 1936.33 113.076   9
   0   0  -3 1816.82 126.432  11
   0   0   3 1916.25 128.721  11
   0   0  -3 1076.70 70.4298   3
   0   0  -3 1924.16 121.150   8
   0   0   3 1538.56 114.930   7
   0   0   3 1899.12 143.467   2
   0   0   4 128.317 35.2440   9
   0   0   4 104.539 37.7143   2
   0   0  -4 133.985 39.3189   1
   0   0  -4 107.629 22.8103   3
   0   0  -4 164.331 60.5181   5
   0   0   4 180.490 50.3466  11
   0   0   4 127.593 40.9827   7
   0   0  -4 170.048 41.0420   8
   0   0  -4 147.428 42.9514  11
   0   0   5 423.107 67.6373   9
   0   0  -5 395.514 71.1819   1
   0   0  -5 370.762 71.4760  11
   0   0   5 440.395 89.1351   2
   0   0  -5 325.839 39.1907   3
   0   0   5 404.699 71.7264   7
   0   0   5 434.244 80.5963  11
   0   0  -5 437.981 72.9054   8
   0   0  -5 369.055 93.7335   5
   0   0  -6 595.776 100.688   1
   0   0   6 485.847 93.0410   7
   0   0  -6 654.611 110.794  11
   0   0  -6 571.908 92.4480   8
   0   0  -6 719.869 146.377   5
   0   0  -6 554.980 44.2603   3
   0   0   6 361.050 71.5673   9
   0   0   6 577.739 115.469   2
   0   0   6 667.439 113.988  11
   0   0  -7 5190.59 326.496   8
   0   0  -7 6191.42 469.344   5
   0   0   7 6035.73 354.558   7
   0   0  -7 6184.68 374.297  11
   0   0   7 5535.05 305.865   9
   0   0   7 6365.53 378.277  11
   0   0  -7 6250.63 353.340   1
   0   0  -8 304.420 81.7531   1
   0   0  -8 127.697 52.5333  10
   0   0   8 244.600 79.6662  11
   0   0  -8 406.955 132.322   5
   0   0  -8 89.3371 30.2350   8
   0   0   8 133.535 44.9244   9
   0   0   8 171.334 64.3688   7
   0   0  -8 219.570 75.9569  11
   0   0  -9 228.694 74.5162   1
   0   0  -9 47.3830 18.1916   8
   0   0  -9 162.524 68.2184  11
   0   0   9 153.867 69.0215  11
   0   0  -9 119.371 65.7379   5
   0   0 -10 1180.11 170.104   1
   0   0  10 1087.98 182.055  11
   0   0 -10 1065.46 229.936   5
   0   0 -11 1659.02 311.596   5
   0   0  11 1798.53 244.752  11
   0   0 -12 162.967 107.054   5
   0   0  12 177.927 89.4464   6
   0   1 -12 1763.91 336.565   5
   0  -1  12 2205.10 333.438   6
   0   1 -11 150.085 60.1913   1
   0  -1  11 89.1675 44.3826  11
   0   1 -11 129.131 105.064   5
   0  -1  10 2633.84 277.228  11
   0   1 -10 2499.10 361.422   5
   0   1 -10 2706.10 281.468   1
   0  -1   9 1857.33 221.680  11
   0   1  -9 1832.28 222.106   1
   0   1  -9 1803.57 209.059  11
   0  -1   9 1667.00 135.468   9
   0   1  -9 2188.69 310.543   5
   0   1  -8 4162.35 401.401   5
   0  -1   8 4002.44 307.300  11
   0  -1   8 3875.74 208.690   9
   0   1  -8 3087.64 280.180   8
   0   1  -8 3794.08 294.364  11
   0   1  -8 4021.15 316.919   1
   0  -1   8 3847.80 298.291   7
   0   1  -7 19357.1 722.956  11
   0   1  -7 20705.3 770.400   1
   0  -1   7 19893.4 734.869  11
   0  -1   7 17474.9 565.012   9
   0   1  -7 19638.5 891.928   5
   0   1  -7 18231.9 727.668   8
   0  -1   7 19597.4 731.834   7
   0   1  -6 732.513 139.947   5
   0  -1   6 700.258 128.637   2
   0   1  -6 622.491 98.7063  11
   0  -1   6 786.199 112.249  11
   0  -1   6 661.524 68.0155   9
   0  -1   6 634.369 101.722   7
   0  -1   5 26655.3 825.554   7
   0   1  -5 26806.1 943.813   5
   0   1  -5 27365.6 811.489  11
   0   1  -5 27446.0 675.326   3
   0  -1   5 26918.9 819.039  11
   0  -1   5 22911.6 669.653   9
   0  -1   5 26197.9 901.656   2
   0  -1   4 7653.52 327.891   7
   0  -1   4 7599.03 370.862   2
   0  -1   4 5322.89 208.226   9
   0   1  -4 8143.52 322.355  11
   0   1  -4 8150.94 249.825   3
   0  -1   4 7813.72 322.717  11
   0  -1   4 7993.80 267.027   3
   0   1  -4 8365.62 400.256   5
   0   1  -4 7020.31 314.368   7
   0  -1   3 142663. 3510.79   2
   0  -1   3 159046. 3384.80   3
   0   1  -3 144992. 3521.09   5
   0   1  -3 144452. 3424.55  11
   0  -1   3 148988. 3432.09  11
   0  -1   3 158492. 3457.36   7
   0   1  -3 148213. 3363.47   3
   0   1  -3 134428. 3432.10   7
   0   1  -2-0.38889 5.51390   3
   0  -1   2 18.0290 11.0758  11
   0  -1   2 13.1424 7.92494   3
   0   1  -2 2.41346 7.08705  11
   0   1  -2 7.52562 15.2850   5
   0  -1   2 8.83538 5.91113   2
   0  -1   2 30.4440 13.1112   7
   0  -1   1 53104.3 1284.61   2
   0   1  -1 53853.6 1265.95   5
   0  -1  -1 1634.59 75.5457   1
   0  -1  -1 1781.64 109.637   9
   0   1   2 4600.92 205.755  10
   0  -1  -2 5384.89 262.459   5
   0   1   2 5135.75 180.576   1
   0   1   2 5441.86 239.577  11
   0   1   2 5761.76 185.674   8
   0  -1  -2 5216.58 178.483   1
   0   1   3 13684.6 402.615   8
   0   1   3 12941.2 471.989   9
   0   1   3 13289.2 405.082   1
   0  -1  -3 13170.5 404.444   8
   0  -1  -3 13620.0 403.403   1
   0  -1  -3 13125.5 446.137  10
   0  -1  -3 13838.4 537.891   5
   0   1   3 14060.9 484.844  11
   0   1   4 92792.7 2325.92  11
   0   1   4 93431.1 2311.95   9
   0  -1  -4 93621.7 2220.20   8
   0  -1  -4 93328.9 2445.58   5
   0  -1  -4 93009.0 2213.71   1
   0  -1  -4 92449.1 2284.61  10
   0  -1  -5 5373.82 299.930  10
   0   1   5 5435.59 306.827   9
   0  -1  -5 5294.92 376.435   5
   0   1   5 5365.99 314.493  11
   0  -1  -5 6117.70 277.960   8
   0  -1  -5 5453.55 261.600   1
   0  -1  -6 5736.08 292.710   1
   0   1   6 6046.95 346.166   9
   0   1   6 5873.74 376.431   2
   0  -1  -6 5658.91 422.560   5
   0   1   6 5905.28 354.796  11
   0  -1  -6 5619.08 296.855   8
   0   1   6 5715.75 436.932   5
   0  -1  -7 15556.7 617.824  10
   0   1   7 13929.8 581.439   7
   0   1   7 16976.3 663.269  11
   0  -1  -7 16363.6 795.434   5
   0  -1  -7 14097.4 540.861   8
   0  -1  -7 16885.2 561.967   1
   0  -1  -8 9270.34 622.796   5
   0   1   8 8951.39 493.959  11
   0  -1  -8 7599.40 442.627  10
   0   1   8 8125.98 445.097   9
   0  -1  -8 9671.98 423.972   1
   0   1   8 9649.70 474.210   7
   0  -1  -9 5673.61 334.168   1
   0   1   9 4113.95 325.034   9
   0   1   9 5178.17 393.999  11
   0  -1  -9 4191.49 447.893   5
   0  -1 -10 378.004 86.2648   1
   0   1  10 361.405 106.453  11
   0  -1 -10 232.323 102.248   5
   0   1  11 694.013 156.946  11
   0  -1 -11 972.638 236.788   5
   0   2 -12 583.744 181.041   5
   0  -2  12 482.231 165.927   6
   0   2 -12 638.392 154.692   1
   0   2 -11 1597.72 240.793   1
   0   2 -11 1660.57 310.479   5
   0  -2  11 1331.29 201.527  11
   0  -2  11 1563.81 267.144   6
   0   2 -10 1599.63 278.119   5
   0   2 -10 1812.45 250.996   1
   0  -2  10 1731.89 270.510   6
   0  -2  10 1959.43 235.958  11
   0  -2   9 947.527 157.654  11
   0   2  -9 886.219 164.455   1
   0   2  -9 905.265 146.404  11
   0   2  -9 898.292 196.817   5
   0  -2   8 480.701 102.094  11
   0   2  -8 482.606 97.6475  11
   0  -2   8 452.842 104.343   7
   0   2  -8 517.585 135.542   5
   0  -2   7 6394.14 374.591  11
   0  -2   7 5934.50 369.344   7
   0   2  -7 6051.60 350.713  11
   0   2  -7 6493.80 467.501   5
   0  -2   6 26413.2 1036.83   5
   0  -2   6 28881.9 913.767  11
   0  -2   6 27981.7 817.284   3
   0   2  -6 28233.0 920.986   7
   0   2  -6 28168.3 1043.33   5
   0  -2   6 28763.8 1038.68   2
   0  -2   6 27495.9 918.436   7
   0   2  -6 26305.8 880.098  11
   0  -2   5 37737.0 1194.72   2
   0  -2   5 38300.5 1019.24   3
   0   2  -5 36720.5 1190.48   5
   0  -2   5 37980.6 1103.69   7
   0  -2   5 36517.7 1072.23  11
   0   2  -5 34934.0 1059.54  11
   0   2  -5 36252.4 1092.32   7
   0   2  -4 3236.02 242.123   5
   0  -2   4 3950.16 264.503   5
   0  -2   4 4223.71 244.051   7
   0   2  -4 3753.31 228.941   7
   0  -2   4 3758.29 203.502   3
   0  -2   4 3645.57 217.300  11
   0   2  -4 3857.20 222.486  11
   0  -2   4 3787.86 263.446   2
   0   2  -3 155019. 3340.33   9
   0   2  -3 156085. 3521.01   7
   0   2  -3 158812. 3509.52  11
   0  -2   3 154723. 3546.21   5
   0  -2   3 165519. 3487.55   3
   0   2  -3 163014. 3553.01   5
   0  -2   3 156848. 3526.44   7
   0  -2   3 157805. 3580.12   2
   0  -2   2 281558. 5968.61   7
   0   2  -2 237877. 5840.00   9
   0  -2   2 265705. 5979.50   2
   0  -2   2 266519. 5852.69   9
   0  -2   2 277597. 5941.31   5
   0   2  -2 279886. 5951.92  11
   0   2  -2 236178. 5913.32   5
   0  -2   2 254846. 5931.17  11
   0  -2   2 283181. 5950.08   3
   0  -2   1 116951. 2857.25   7
   0   2  -1 120987. 2773.35   4
   0   2  -1 119032. 2806.52   6
   0  -2   1 119514. 2863.79   3
   0   2  -1 122307. 2826.43   9
   0  -2   1 131075. 2804.66   5
   0  -2   1 121462. 2823.68   9
   0  -2   0 125043. 2835.16   4
   0   2   0 130405. 2828.74   6
   0  -2   0 117955. 2906.53   7
   0   2   0 120622. 2841.25   4
   0  -2   0 123516. 2913.96   9
   0  -2  -1 202017. 4660.99   5
   0   2   1 204965. 4590.80   1
   0  -2  -1 195654. 4688.04   9
   0  -2  -1 207151. 4651.49   4
   0   2   2 18660.2 522.938   1
   0   2   2 19641.1 652.666   5
   0  -2  -2 19439.9 641.607   5
   0  -2  -2 18750.2 522.613   1
   0  -2  -3 2820.34 222.352   5
   0   2   3 2729.94 206.955  11
   0   2   3 2203.80 126.697   8
   0   2   3 2583.59 172.960  10
   0   2   3 2564.85 138.987   1
   0   2   3 2742.65 227.271   5
   0  -2  -3 2766.51 137.411   1
   0   2   4 975.775 128.395  11
   0   2   4 1065.13 156.742   5
   0  -2  -4 1082.10 87.7401   1
   0   2   4 934.052 83.6533   8
   0  -2  -4 1060.81 151.660   5
   0   2   4 1122.38 94.2999   1
   0   2   4 1071.54 145.357   9
   0   2   4 1059.80 117.570  10
   0   2   5 4632.29 313.027  11
   0  -2  -5 4476.03 352.068   5
   0  -2  -5 4401.88 214.679   1
   0   2   5 4275.83 223.835   1
   0   2   5 4602.59 372.399   5
   0   2   6 1293.09 169.786  11
   0   2   6 1418.55 221.143   5
   0   2   6 1486.61 181.652   9
   0  -2  -6 1399.06 120.976   1
   0  -2  -6 1450.82 210.981   5
   0   2   7 3461.88 298.127   9
   0  -2  -7 3607.86 219.556   1
   0   2   7 3354.61 297.325  11
   0  -2  -7 3776.18 372.197   5
   0  -2  -8 1496.79 143.505   1
   0   2   8 1679.34 218.582  11
   0  -2  -8 1572.99 251.113   5
   0   2   8 804.232 158.136   9
   0  -2  -8 1230.84 107.962   3
   0   2   9 2994.71 315.294  11
   0  -2  -9 3032.70 380.984   5
   0  -2  -9 2835.53 211.873   1
   0  -2 -10 486.711 168.783   5
   0   2  10 611.590 148.880  11
   0  -2 -11 1792.67 329.880   5
   0   2  11 1413.70 241.879  11
   0  -3  11-1.99093 61.1357   6
   0  -3  11 60.3943 48.5155  11
   0   3 -11 170.094 113.126   5
   0   3 -11 133.164 103.666   1
   0   3 -10 1303.85 249.404   5
   0   3 -10 1095.88 204.920   1
   0  -3  10 910.791 198.850   6
   0  -3  10 997.571 163.027  11
   0   3  -9 532.827 114.728  11
   0  -3   9 666.246 159.256   6
   0   3  -9 735.031 186.056   5
   0  -3   9 616.577 132.607  11
   0  -3   8 1756.03 203.834  11
   0   3  -8 1371.78 172.727  11
   0  -3   8 1585.79 161.685   3
   0   3  -8 1572.08 201.561   7
   0   3  -8 1638.24 245.212   5
   0  -3   8 1453.10 216.836   6
   0  -3   7 5010.21 333.372  11
   0   3  -7 4434.76 330.094   7
   0   3  -7 4677.34 390.703   5
   0  -3   7 4590.72 283.482   3
   0  -3   7 4619.28 368.919   6
   0   3  -7 4420.40 307.351  11
   0  -3   7 4774.73 347.430   7
   0  -3   6 393.898 87.0673  11
   0  -3   6 293.638 90.9289   5
   0  -3   6 464.439 82.9722   3
   0  -3   6 352.613 92.5449   6
   0   3  -6 484.768 90.0474  11
   0  -3   6 389.371 102.521   2
   0  -3   6 407.585 90.9301   7
   0   3  -6 349.370 80.8037   7
   0   3  -6 392.207 95.1595   5
   0   3  -5 13622.8 556.208  11
   0  -3   5 14559.5 548.451   3
   0   3  -5 15012.7 637.153   5
   0  -3   5 14255.1 659.501   2
   0   3  -5 14702.0 595.276   7
   0  -3   5 14434.9 566.893  11
   0  -3   5 14052.7 591.236   7
   0  -3   4 88.7874 40.4368   7
   0   3  -4 65.3764 36.3427  11
   0  -3   4 40.3478 34.9179   5
   0  -3   4 60.8362 29.2953  11
   0   3  -4 55.4401 16.0718   5
   0  -3   4 105.916 38.7611   3
   0   3  -4 103.359 33.2148   7
   0  -3   4 69.0227 33.8817   2
   0   3  -4 115.531 21.9833   9
   0  -3   3 7158.94 342.413   5
   0   3  -3 7208.07 351.001  11
   0  -3   3 7972.93 364.384   3
   0   3  -3 7744.51 357.666   5
   0  -3   3 7414.86 365.986   7
   0  -3   3 7395.61 279.354   9
   0   3  -3 7482.04 276.677   9
   0   3  -3 9001.36 391.040   7
   0  -3   3 7784.06 362.096   6
   0  -3   3 7567.33 384.251   2
   0  -3   2 33072.8 949.098   6
   0  -3   2 38317.7 1032.06   7
   0  -3   2 32511.0 929.155   5
   0   3  -2 35075.5 904.340   4
   0   3  -2 33412.5 1006.57  11
   0  -3   2 33981.2 928.861   9
   0   3  -2 33111.9 927.576   9
   0  -3   2 35155.6 1013.46   3
   0   3  -2 35130.8 1001.90   2
   0  -3   1 2947.01 142.810   4
   0  -3   1 2872.76 202.551   7
   0   3  -1 2942.58 147.810   4
   0   3  -1 2980.92 192.581   9
   0  -3   1 2970.73 164.723   6
   0  -3   1 2972.21 189.796   9
   0   3  -1 2892.49 165.064   6
   0   3  -1 3049.94 191.981   2
   0  -3   1 3058.90 209.158   3
   0  -3   0 54404.7 1391.83   9
   0   3   0 46994.2 1240.19   6
   0   3   0 49925.6 1270.83   4
   0   3   0 54593.8 1404.40   9
   0   3   0 52428.3 1326.28   1
   0  -3   0 51087.7 1262.67   4
   0  -3   0 50805.2 1381.81   7
   0  -3  -1 8774.82 360.255   4
   0  -3  -1 9158.13 377.413   5
   0  -3  -1 10257.4 440.450   9
   0   3   1 8744.57 342.836   1
   0  -3  -2 68489.6 1807.99   4
   0  -3  -2 71553.8 1812.30   5
   0   3   2 66554.8 1677.05   1
   0  -3  -3 6588.44 390.308   4
   0  -3  -3 6857.05 283.160   1
   0  -3  -3 6930.18 389.782   5
   0   3   3 6908.23 282.022   1
   0   3   4 2303.15 145.507   8
   0   3   4 2054.96 231.923   5
   0  -3  -4 2218.42 144.350   1
   0   3   4 2073.91 184.161  10
   0  -3  -4 2193.77 230.807   5
   0   3   4 2185.30 149.088   1
   0   3   4 2474.56 233.666  11
   0   3   4 2463.80 238.707   9
   0   3   5 135.037 67.2125   5
   0   3   5 86.5139 27.3924   8
   0  -3  -5 133.011 64.7585   5
   0  -3  -5 105.766 33.0864   1
   0   3   5 77.3390 38.4673  10
   0   3   5 108.667 51.2111   9
   0  -3  -5 57.0888 45.1142   4
   0   3   5 104.088 30.8883   1
   0   3   5 73.6346 43.1069  11
   0  -3  -6 7002.35 498.964   5
   0  -3  -6 6760.81 291.112   1
   0   3   6 6408.62 437.933   9
   0   3   6 6163.82 302.789   1
   0   3   6 6536.22 445.466  11
   0  -3  -7 1372.06 144.015   3
   0   3   7 1579.70 214.189  11
   0  -3  -7 1677.57 134.616   1
   0  -3  -7 1750.72 256.996   5
   0  -3  -8 2492.71 330.655   5
   0  -3  -8 2516.54 173.765   1
   0   3   8 2556.32 294.837  11
   0  -3  -8 1975.07 172.693   3
   0   3   9 700.207 163.785  11
   0  -3  -9 879.598 205.718   5
   0   3  10 174.331 83.3917  11
   0  -3 -10 221.403 116.758   5
   0   4 -11 1452.40 258.122   1
   0  -4  11 1648.96 282.269   6
   0   4 -11 997.316 232.394   5
   0  -4  10 3390.72 325.017  11
   0  -4  10 3854.16 413.159   6
   0   4 -10 3217.85 396.614   5
   0  -4   9 335.011 82.8532   3
   0  -4   9 356.150 98.4616  11
   0  -4   9 393.240 116.679   6
   0   4  -9 242.897 92.2222   5
   0   4  -9 334.149 107.920   7
   0   4  -8 2787.81 286.897   7
   0  -4   8 2547.17 235.599   3
   0  -4   8 2428.13 254.417  11
   0  -4   8 3222.88 332.840   6
   0   4  -8 2305.89 288.314   5
   0   4  -8 2748.25 259.797  11
   0   4  -7 3372.68 280.246  11
   0  -4   7 3328.67 267.324   3
   0  -4   7 3584.91 333.019   6
   0   4  -7 3326.35 305.597   7
   0   4  -7 2895.49 301.830   5
   0  -4   7 3447.40 286.713  11
   0   4  -6 242.714 71.5517  11
   0  -4   6 260.415 70.3977   3
   0  -4   6 214.358 75.7712   6
   0  -4   6 231.694 70.9798  11
   0   4  -6 305.106 91.3670   2
   0   4  -6 310.782 85.9753   7
   0  -4   6 292.394 82.9049   7
   0  -4   6 205.821 70.6723   5
   0   4  -6 249.494 77.9070   5
   0   4  -5 67710.0 1765.82   7
   0   4  -5 60498.8 1700.86  11
   0  -4   5 61586.9 1748.26   7
   0   4  -5 60258.3 1732.60   5
   0   4  -5 62003.2 1783.67   2
   0   4  -5 55611.3 1422.01   9
   0  -4   5 60556.7 1685.11   3
   0  -4   5 62209.2 1750.58   6
   0  -4   5 61745.0 1813.11   2
   0   4  -4 730.279 117.814  11
   0   4  -4 926.578 135.525   7
   0  -4   4 1120.24 146.306   3
   0   4  -4 888.588 87.3771   9
   0   4  -4 1027.37 145.629   2
   0  -4   4 774.100 128.409   7
   0   4  -4 921.910 116.646   4
   0   4  -4 905.846 126.994   5
   0  -4   4 856.721 140.819   2
   0  -4   4 703.079 116.748   5
   0  -4   3 26115.8 810.030   5
   0   4  -3 24375.9 761.124   9
   0   4  -3 25773.7 876.925   7
   0  -4   3 25310.7 827.418   6
   0   4  -3 25556.7 869.629  11
   0  -4   3 25740.8 876.471   3
   0   4  -3 24986.8 756.303   4
   0  -4   3 24723.3 872.174   7
   0  -4   2 992.803 104.309   5
   0   4  -2 671.577 97.5316   9
   0  -4   2 816.620 121.076   7
   0   4  -2 659.282 109.631  11
   0   4  -2 725.531 105.370   2
   0  -4   2 842.374 103.326   6
   0  -4   2 724.327 116.987   3
   0   4  -2 805.785 84.1211   4
   0  -4   1 8071.90 420.605   7
   0   4  -1 8495.30 406.578   9
   0   4  -1 8561.57 337.482   6
   0   4  -1 7957.90 377.929   2
   0  -4   1 8269.10 419.888   3
   0  -4   1 8213.41 300.265   4
   0   4  -1 7916.73 309.913   4
   0   4   0 6552.19 327.444   1
   0   4   0 7068.69 278.916   6
   0  -4   0 6242.10 275.869   4
   0   4   0 6860.44 380.574   9
   0   4   0 6166.39 286.410   4
   0  -4  -1 73.7935 28.9201   4
   0  -4  -1 39.5656 25.0429   5
   0   4   1 106.786 43.5640   1
   0  -4  -2 129.070 45.8301   4
   0  -4  -2 124.300 47.9231   5
   0   4   2 109.313 36.9590   1
   0   4   3 10375.5 502.494   7
   0   4   3 9501.70 390.974   1
   0  -4  -3 10289.4 507.217   5
   0   4   4 5423.80 262.935   8
   0   4   4 5167.95 332.575  10
   0   4   4 5193.31 391.044  11
   0   4   4 5677.52 406.993   9
   0  -4  -4 4905.38 376.662   4
   0   4   4 5387.31 274.306   1
   0  -4  -4 5282.36 379.597   5
   0   4   5 1147.84 154.314  10
   0   4   5 1415.16 203.041  11
   0   4   5 1158.48 109.287   8
   0  -4  -5 955.261 177.842   4
   0  -4  -5 1085.76 181.592   5
   0  -4  -5 1311.55 125.507   1
   0   4   5 1222.61 123.581   1
   0   4   6 2476.85 245.626  10
   0  -4  -6 2288.47 219.982   3
   0   4   6 2575.84 186.197   1
   0   4   6 2798.73 176.367   8
   0  -4  -6 2671.80 312.021   5
   0  -4  -6 3017.70 190.583   1
   0   4   6 2646.90 294.312  11
   0  -4  -7 946.833 135.992   3
   0   4   7 1457.81 228.796  11
   0  -4  -7 1306.43 122.793   1
   0  -4  -7 1345.66 235.165   5
   0  -4  -8 166.731 54.6586   3
   0  -4  -8 327.306 115.638   5
   0   4   8 203.941 89.4684  11
   0   4   9 2185.57 301.126  11
   0  -4  -9 2076.96 325.713   5
   0   4  10 1750.90 282.892  11
   0  -4 -10 2008.76 339.230   5
   0   5 -11-61.5144 18.2729   5
   0  -5  11 45.4573 13.3157   6
   0  -5  10 160.932 101.803   6
   0   5 -10 93.4575 61.3662   7
   0  -5  10 62.4669 44.4611  11
   0   5 -10 148.454 77.1218   5
   0  -5   9 24.7536 26.4108   6
   0   5  -9 87.6649 80.8475   5
   0  -5   9 74.0523 39.5826   3
   0   5  -9 106.949 53.3872   7
   0   5  -8 1790.17 250.144   5
   0   5  -8 1868.46 245.999   7
   0  -5   8 1829.12 221.081   3
   0  -5   8 2079.45 276.838   6
   0   5  -7 1066.29 185.494   2
   0   5  -7 1199.20 184.948   5
   0   5  -7 1277.42 179.854  11
   0  -5   7 1158.00 175.976   3
   0  -5   7 1147.64 192.724   6
   0   5  -7 1180.37 191.164   7
   0   5  -6 64.4549 32.0547   4
   0  -5   6 54.6079 44.3875   5
   0   5  -6 68.0125 18.5160   9
   0   5  -6 79.9836 39.9335   7
   0   5  -6 88.2585 49.0031  11
   0  -5   6 92.7536 50.6384   3
   0   5  -6 81.9704 51.4478   5
   0   5  -6 71.3418 8.99713   2
   0  -5   6 135.006 47.0069   6
   0   5  -5 1198.61 174.503   7
   0  -5   5 1158.23 168.894   3
   0   5  -5 1165.26 148.069   4
   0   5  -5 975.111 157.894  11
   0   5  -5 1176.22 175.058   2
   0   5  -5 1012.62 101.410   9
   0  -5   5 1117.89 163.617   6
   0   5  -4 11612.0 572.827  11
   0   5  -4 12076.3 581.451   2
   0  -5   4 12264.0 594.659   3
   0   5  -4 11824.7 584.060   7
   0   5  -4 11376.3 457.654   9
   0   5  -4 11170.3 471.850   4
   0  -5   4 10958.5 508.550   5
   0  -5   4 12765.3 560.988   6
   0   5  -3 6722.08 419.801  11
   0   5  -3 6587.93 308.168   4
   0  -5   3 6277.72 408.999   7
   0   5  -3 6402.54 347.154   9
   0   5  -3 6634.91 411.247   7
   0  -5   3 6723.42 421.898   3
   0  -5   3 6194.17 334.035   5
   0  -5   2 136.244 52.0642   7
   0   5  -2 90.8173 41.4860  11
   0   5  -2 106.484 35.5236   4
   0  -5   2 111.452 36.0438   6
   0  -5   2 108.643 34.0043   5
   0   5  -2 159.120 51.2878   9
   0  -5   2 136.292 58.1235   3
   0   5  -1 9742.11 391.661   6
   0  -5   1 9421.75 503.856   7
   0  -5   1 8868.90 343.124   4
   0   5  -1 8579.04 356.471   4
   0   5  -1 9349.63 442.653   2
   0  -5   1 9523.49 504.434   3
   0   5  -1 10057.7 497.218   9
   0   5  -1 8823.12 455.377   1
   0   5   0 6481.01 316.663   4
   0   5   0 6214.13 355.128   1
   0   5   0 5868.82 280.033   6
   0  -5   0 6578.35 411.773   3
   0  -5   0 6666.38 301.227   4
   0   5   0 6925.03 425.683   9
   0   5   1 803.361 133.920   7
   0  -5  -1 841.611 143.622   3
   0   5   1 1008.11 161.466   9
   0  -5  -1 768.299 116.585   5
   0  -5  -1 813.640 111.733   4
   0   5   1 784.769 88.4538   6
   0   5   1 870.481 116.456   1
   0  -5  -2 897.381 128.513   4
   0  -5  -2 870.803 129.776   5
   0   5   2 754.625 108.144   1
   0   5   2 955.200 150.027   7
   0  -5  -3 5438.04 379.174   5
   0   5   3 5789.56 398.795   7
   0   5   3 5802.07 313.102   1
   0   5   4 1801.25 220.806   7
   0  -5  -4 1844.83 225.419   5
   0   5   4 1997.14 253.784  11
   0  -5  -4 1670.67 200.960   3
   0  -5  -4 1345.36 197.499   4
   0   5   4 1929.87 169.461   1
   0   5   5 626.883 158.483  11
   0   5   5 567.776 81.3756   8
   0  -5  -5 678.389 146.678   5
   0  -5  -5 554.290 116.856   3
   0   5   5 648.745 132.480   7
   0   5   5 722.481 134.059  10
   0   5   5 674.514 98.5922   1
   0  -5  -6 9552.40 549.653   3
   0   5   6 12222.6 722.922  11
   0   5   6 11772.1 611.597  10
   0   5   6 9721.71 442.400   1
   0  -5  -6 12627.6 722.371   5
   0   5   6 12408.9 438.509   8
   0  -5  -7 2291.15 311.590   5
   0   5   7 2637.70 327.358  11
   0  -5  -7 1789.57 216.769   3
   0  -5  -8 875.180 206.541   5
   0  -5  -8 615.473 123.292   3
   0   5   8 816.898 187.572  11
   0  -5  -9 47.5697 58.9238   5
   0   5   9-52.3956 71.0503  11
   0   6 -10 807.780 183.805   7
   0   6 -10 396.354 116.707   4
   0  -6  10 439.505 153.278   6
   0   6 -10 300.644 114.883   5
   0   6  -9 1078.18 206.820   7
   0   6  -9 524.777 146.071   5
   0   6  -9 977.416 199.550   4
   0  -6   9 996.488 206.467   6
   0  -6   9 900.386 169.574   3
   0   6  -8-3.76805 13.7616   7
   0  -6   8 4.72078 5.89029   3
   0   6  -8 43.1582 42.8989   4
   0   6  -8 27.2956 37.8936   5
   0  -6   8 46.9940 40.5244   6
   0   6  -7 2989.98 331.749   2
   0  -6   7 3085.79 316.764   3
   0  -6   7 2922.22 312.225   6
   0   6  -7 2611.18 270.706   4
   0   6  -7 3144.01 328.596   7
   0  -6   6 277.039 85.0088   5
   0  -6   6 1472.66 222.732   3
   0   6  -6 1661.82 229.200   7
   0  -6   6 1801.86 231.868   6
   0   6  -6 1162.55 160.635   4
   0   6  -6 895.426 98.9668   9
   0   6  -6 1576.94 228.306   2
   0   6  -5 2849.18 292.254   2
   0  -6   5 2764.41 271.704   6
   0   6  -5 2496.92 198.224   9
   0  -6   5 2937.32 308.995   3
   0   6  -5 2405.18 213.313   4
   0   6  -5 2583.11 280.153   7
   0   6  -4 3851.74 250.522   4
   0   6  -4 4508.61 347.780   2
   0  -6   4 3492.58 270.847   5
   0  -6   4 4240.25 361.019   3
   0  -6   4 4303.94 320.310   6
   0   6  -4 4474.89 361.381   7
   0   6  -4 4058.61 279.535   9
   0   6  -3 879.192 105.743   4
   0   6  -3 1035.27 159.107   2
   0  -6   3 559.517 100.727   5
   0  -6   3 1223.12 202.426   3
   0   6  -3 1208.95 187.290   7
   0  -6   3 1523.41 171.020   6
   0   6  -3 683.305 126.922   9
   0   6  -2 2843.10 261.897   9
   0   6  -2 2674.89 271.968   7
   0  -6   2 2214.88 185.835   5
   0  -6   2 3033.90 302.278   3
   0   6  -2 2765.72 249.214   2
   0   6  -2 2277.28 169.217   4
   0   6  -1 21.6357 20.6343   6
   0   6  -1 30.5636 23.9289   9
   0  -6   1 45.0771 32.2831   3
   0   6  -1 29.0202 13.8043   4
   0  -6   1-3.71147 16.6649   4
   0   6  -1 4.88407 27.6480   7
   0  -6   1 23.4621 29.1452   5
   0   6   0 6217.23 426.372   7
   0  -6   0 5836.05 348.730   5
   0  -6   0 5974.29 302.027   4
   0  -6   0 6892.81 459.991   3
   0   6   0 6582.46 395.123   1
   0   6   0 5586.11 288.978   6
   0  -6  -1 1762.24 172.049   4
   0   6   1 1917.72 195.867   1
   0  -6  -1 1624.16 223.986   3
   0  -6  -1 1739.56 187.765   5
   0   6   1 1943.85 230.692   7
   0   6   1 1593.83 135.402   6
   0   6   2 338.018 77.7618   1
   0   6   2 412.672 109.334   7
   0  -6  -2 276.645 88.4481   5
   0   6   2 371.407 61.3822   6
   0  -6  -2 481.680 118.388   3
   0  -6  -3 3767.78 317.115   5
   0  -6  -3 3914.83 348.058   3
   0  -6  -3 2753.61 268.331   4
   0   6   3 3411.57 259.671   1
   0   6   3 3760.30 339.740   7
   0   6   4 4975.59 402.963   7
   0   6   4 4846.98 306.255   1
   0  -6  -4 3212.02 320.756   4
   0  -6  -4 4742.23 390.155   3
   0  -6  -4 4970.95 393.776   5
   0   6   4 4953.06 447.856  11
   0   6   5 507.420 145.353  11
   0   6   5 563.297 99.1001   1
   0   6   5 601.260 140.623   7
   0   6   5 583.305 129.940  10
   0   6   5 422.875 73.1051   8
   0  -6  -5 440.670 119.311   5
   0  -6  -5 462.159 113.987   3
   0  -6  -6 484.682 137.213   5
   0   6   6 686.316 178.910  11
   0  -6  -6 451.418 118.717   3
   0   6   6 632.444 134.621  10
   0   6   6 375.419 113.250   7
   0   6   7 72.5119 52.1751   7
   0   6   7 217.633 95.9880  11
   0  -6  -7 133.327 78.6873   5
   0   6   7 140.958 60.4002  10
   0  -6  -7 149.803 67.4621   3
   0  -6  -8 43.0199 51.8368   3
   0  -6  -8 35.8080 47.1809   5
   0   6   8-30.3599 21.2825   7
   0  -7   9 248.220 106.843   3
   0  -7   9 276.978 121.897   6
   0   7  -9 214.327 79.9411   7
   0   7  -8 326.844 97.9848   4
   0  -7   8 269.001 97.7645   3
   0   7  -8 390.302 127.643   7
   0  -7   8 286.311 105.737   6
   0  -7   7 5220.82 445.821   6
   0   7  -7 5277.77 466.510   2
   0  -7   7 5861.85 485.598   3
   0   7  -7 5972.50 490.177   7
   0   7  -7 4724.30 355.826   4
   0  -7   6 35.4014 34.8891   6
   0   7  -6-34.5055 52.4382   7
   0  -7   6 41.5747 40.6262   3
   0   7  -6-17.2496 36.8314   2
   0   7  -6-0.14346 31.0999   4
   0  -7   5 607.259 153.266   3
   0  -7   5 380.910 93.7685   5
   0   7  -5 551.453 132.346   7
   0  -7   5 584.963 129.354   6
   0   7  -5 474.080 128.840   2
   0   7  -5 440.978 84.9590   4
   0   7  -4 1631.84 220.924   2
   0  -7   4 1806.77 257.081   3
   0  -7   4 1590.96 200.064   6
   0   7  -4 1424.80 184.921   9
   0   7  -4 1342.30 136.936   4
   0   7  -4 1739.94 242.015   7
   0  -7   3 1353.37 155.697   5
   0   7  -3 1827.91 248.343   7
   0  -7   3 1823.66 258.534   3
   0   7  -3 1380.20 131.677   4
   0   7  -3 1516.50 199.633   9
   0   7  -3 1662.23 214.367   2
   0  -7   2 71.3649 35.2700   5
   0  -7   2 84.8774 38.5491   3
   0   7  -2 18.5744 19.4613   7
   0   7  -2 49.2070 23.4513   4
   0   7  -2 20.7426 28.8373   2
   0  -7   1 206.581 50.3253   4
   0  -7   1 149.707 68.5059   3
   0   7  -1 165.699 63.7746   2
   0  -7   1 134.625 44.3118   5
   0   7  -1 179.537 89.6137   7
   0   7   0 1269.39 203.587   7
   0  -7   0 1339.11 217.950   3
   0   7   0 313.170 63.7462   6
   0  -7   0 627.731 93.3394   4
   0  -7   0 949.772 135.284   5
   0   7   0 1010.43 150.193   2
   0  -7  -1 2876.51 319.131   3
   0  -7  -1 2803.55 225.093   4
   0  -7  -1 2800.33 247.617   5
   0   7   1 3271.85 330.234   7
   0   7   1 1701.19 149.688   6
   0   7   2-6.25554 17.7658   6
   0  -7  -2 50.5080 40.5367   5
   0  -7  -2 36.4137 50.3961   3
   0   7   2-0.95835 13.1182   7
   0  -7  -3 1095.04 195.953   3
   0   7   3 1065.83 153.137   1
   0   7   3 1086.14 197.451   7
   0  -7  -3 941.808 157.934   4
   0  -7  -3 1115.71 174.122   5
   0   7   4 301.978 121.117  11
   0  -7  -4 414.439 112.074   5
   0   7   4 232.559 97.8854   7
   0  -7  -4 304.805 101.180   3
   0   7   5 1188.26 245.618  11
   0   7   5 1026.57 203.451   7
   0   7   5 1280.77 204.955  10
   0  -7  -5 1474.49 235.104   5
   0  -7  -5 1460.18 225.716   3
   0   7   6 387.215 124.241   7
   0  -7  -6 521.114 135.030   3
   0   7   6 389.939 107.589  10
   0  -7  -6 764.930 178.238   5
   0   7   6 812.057 201.411  11
   0  -7  -7 2325.48 330.442   5
   0   7   7 2680.91 380.669  11
   0   7   7 675.287 175.208   7
   0  -7  -7 930.358 186.519   3
   0   7   7 1538.62 235.088  10
   0  -8   8 662.744 177.298   3
   0  -8   8 228.103 102.093   6
   0   8  -8 488.678 137.179   7
   0  -8   7 843.595 180.744   6
   0  -8   7 898.333 205.224   3
   0   8  -7 882.076 194.412   2
   0   8  -7 1312.63 242.945   7
   0   8  -6 135.707 85.3541   7
   0  -8   6 154.924 63.8409   6
   0  -8   6 108.684 77.1304   3
   0   8  -6 47.8155 45.0245   2
   0   8  -5 81.3392 63.5626   2
   0   8  -5 132.060 83.0419   7
   0  -8   5 57.4569 42.0728   6
   0  -8   5 75.1497 62.0634   3
   0   8  -4 388.589 114.636   2
   0   8  -4 351.692 132.161   7
   0  -8   4 459.590 144.443   3
   0  -8   3 2062.33 304.802   3
   0   8  -3 2308.64 266.175   2
   0   8  -3 2547.34 321.708   7
   0  -8   2 526.394 162.643   3
   0   8  -2 459.736 132.649   7
   0   8  -2 472.243 108.474   2
   0   8  -1 352.605 97.9638   2
   0  -8   1 366.138 118.431   3
   0  -8   1 264.097 76.5139   5
   0   8  -1 365.495 113.652   7
   0  -8   0 639.842 123.237   5
   0   8   0 908.702 180.791   7
   0  -8   0 919.216 198.408   3
   0   8   0 842.286 143.428   2
   0  -8  -1 252.844 104.238   3
   0  -8  -1 368.799 94.5809   5
   0   8   1 300.523 114.342   7
   0  -8  -2 143.619 69.7471   3
   0  -8  -2 63.4552 51.0115   5
   0   8   2 64.4269 37.7650   7
   0   8   3 188.376 88.4649   7
   0  -8  -3 348.428 118.421   3
   0  -8  -3 326.823 98.0196   5
   0   8   4 629.325 164.786   7
   0  -8  -4 843.989 170.423   5
   0  -8  -4 964.605 201.945   3
   0   8   4 1177.92 250.003  11
   0  -8  -5 554.565 142.912   5
   0   8   5 773.371 202.454  11
   0   8   5 192.919 78.3701   7
   0  -8  -5 374.946 133.697   3
   0   8   5 277.553 100.883  10
   0   9  -6 225.691 92.4601   2
   0  -9   6 392.995 137.355   3
   0   9  -6 221.587 104.641   7
   0   9  -5 58.4048 65.2766   7
   0  -9   5-13.2419 42.2927   3
   0   9  -5 77.1317 55.7737   2
   0   9  -4 528.893 158.336   7
   0  -9   4 619.665 183.674   3
   0   9  -4 525.715 136.568   2
   0  -9   3 778.997 199.177   3
   0   9  -3 546.508 126.005   2
   0   9  -3 789.737 184.394   7
   0   9  -2 13.4556 40.2211   2
   0   9  -2 15.0387 41.0854   7
   0  -9   2 99.0421 86.7963   3
   0  -9   1 290.074 123.765   3
   0   9  -1 223.349 92.9106   7
   0   9  -1 336.826 107.564   2
   0   9   0 285.402 119.799   7
   0   9   0 262.036 85.5213   2
   0  -9   0 464.066 150.025   3
   0   9   1 1983.36 306.021   7
   0  -9  -1 2281.86 340.966   3
   0   9   2 15.6408 63.1769   7
   0  -9  -2 257.593 106.039   3
   0  -9  -3 469.339 156.919   3
   0   9   3 313.364 122.170   7
  -1  10  -1 65.5261 52.5985   2
  -1   9   4 72.5260 79.3932  11
  -1   9   4-1.78657 35.6416   7
   1  -9  -4 51.7800 8.43987   3
  -1   9   3 136.762 79.4674   7
  -1   9   3 236.756 108.924  11
   1  -9  -3 304.344 126.870   3
   1  -9  -2-27.2524 24.7964   3
  -1   9   2-43.1029 47.6612   7
  -1   9   1 464.054 133.722   7
  -1   9   1 648.209 143.327   2
   1  -9  -1 794.495 198.022   3
  -1   9   0 2.20475 15.1297   2
   1  -9   0-1.76219 50.3783   3
  -1   9   0 23.3193 27.1425   7
   1  -9   1 61.1645 44.1423   3
  -1   9  -1 87.2161 45.9678   2
  -1   9  -1 38.9920 34.2620   7
   1  -9   2-22.2790 64.9716   3
  -1   9  -2 83.5283 58.6301   7
  -1   9  -2-20.9007 40.9619   2
  -1   9  -3 296.226 108.658   2
   1  -9   3 495.435 159.477   3
  -1   9  -3 351.104 131.216   7
   1  -9   4 614.827 178.396   3
  -1   9  -4 703.302 186.681   7
  -1   9  -4 468.231 135.441   2
   1  -9   5 1.15362 30.4560   3
  -1   9  -5 23.9451 39.6221   7
  -1   9  -5 97.9098 64.0884   2
   1  -9   6 24.2916 44.5760   3
  -1   9  -6 34.5225 45.2473   2
  -1   9  -6 40.8610 69.9297   7
  -1   8   6 193.206 97.1836  11
  -1   8   6 192.701 91.4727  10
   1  -8  -6 210.750 94.2551   3
   1  -8  -5 368.115 126.439   3
  -1   8   5 838.182 214.911  11
  -1   8   5 334.500 117.295   7
   1  -8  -4 16.3753 23.4819   3
  -1   8   4 59.7262 55.1335   7
  -1   8   4-10.4342 55.8082  11
  -1   8   3 3629.13 414.929  11
   1  -8  -3 3317.70 381.625   3
  -1   8   3 2901.80 351.780   7
  -1   8   2 316.047 113.524   7
   1  -8  -2 315.071 109.295   3
   1  -8  -1 620.070 162.304   3
  -1   8   1 415.804 120.716   7
   1  -8   0-59.5716 62.0913   3
  -1   8   0 50.8105 33.3826   2
  -1   8   0 42.7842 52.6962   7
  -1   8  -1 1192.79 197.983   2
  -1   8  -1 1297.79 231.348   7
   1  -8   1 1420.61 249.270   3
   1  -8   2 1.21254 48.5098   3
  -1   8  -2-48.2266 46.8527   7
  -1   8  -2 23.0563 27.1774   2
  -1   8  -3 173.249 78.4438   7
   1  -8   3 163.726 64.5002   3
  -1   8  -3 204.329 84.6057   2
   1  -8   4 986.520 206.965   3
  -1   8  -4 1039.12 207.390   7
  -1   8  -4 712.673 166.936   2
  -1   8  -5 178.492 73.3063   2
   1  -8   5 209.491 89.7162   3
   1  -8   5 73.5215 49.1029   6
  -1   8  -5 230.986 85.2709   7
   1  -8   6 296.355 120.967   3
  -1   8  -6 265.210 99.3308   7
   1  -8   6 159.227 76.0690   6
  -1   8  -6 134.182 81.3922   2
   1  -8   7 213.301 91.7140   6
  -1   8  -7 347.490 132.699   2
   1  -8   7 263.517 106.095   3
  -1   8  -7 213.984 88.8420   7
  -1   8  -8-50.6009 49.3861   2
   1  -8   8 61.6312 65.6395   6
  -1   7   7 1822.28 308.265  11
   1  -7  -7 1025.99 198.008   3
   1  -7  -7 1658.85 256.139   5
  -1   7   7 578.256 156.177   7
  -1   7   7 1180.20 189.852  10
   1  -7  -6 2769.09 307.899   5
  -1   7   6 1666.05 272.251   7
  -1   7   6 2399.70 269.866  10
   1  -7  -6 2181.26 282.600   3
  -1   7   6 3015.28 385.956  11
   1  -7  -5 485.782 132.650   3
  -1   7   5 751.829 190.328  11
   1  -7  -5 765.378 146.058   5
  -1   7   5 502.650 135.698   7
   1  -7  -4 386.310 99.6930   5
   1  -7  -4 301.148 82.5060   4
   1  -7  -4 225.273 85.6765   3
  -1   7   4 263.948 98.5495   7
  -1   7   4 440.655 137.086  11
   1  -7  -3 515.063 101.084   5
  -1   7   3 579.731 157.764  11
  -1   7   3 747.648 165.605   7
  -1   7   3 413.147 85.5410   6
   1  -7  -3 462.568 127.743   3
  -1   7   2 18.7865 20.8916   6
  -1   7   2-36.0176 51.6374   7
   1  -7  -2-21.1487 16.2916   4
   1  -7  -2-3.95835 39.2730   3
   1  -7  -2 3.43160 8.93863   5
  -1   7   1 670.218 111.928   6
   1  -7  -1 876.685 93.4525   4
   1  -7  -1 1050.30 107.750   5
   1  -7  -1 994.222 185.059   3
  -1   7   1 1124.72 196.908   7
   1  -7   0 177.752 70.5122   3
  -1   7   0 227.896 79.5941   7
  -1   7   0 160.711 57.1408   6
   1  -7   0 28.3177 17.3609   5
   1  -7   0 238.766 43.4112   5
   1  -7   1 782.433 72.3445   5
  -1   7  -1 632.468 114.022   6
   1  -7   1 957.259 183.426   3
  -1   7  -1 1038.56 178.789   7
  -1   7  -1 1023.40 167.666   2
   1  -7   1 333.441 46.1503   5
  -1   7  -2 156.185 51.2080   6
  -1   7  -2 161.266 77.4326   7
   1  -7   2 94.2057 54.0680   3
  -1   7  -2 201.212 78.0677   2
   1  -7   2 150.756 33.3333   5
  -1   7  -2 259.558 85.9633   9
   1  -7   3 2300.62 167.124   5
  -1   7  -3 2428.86 247.931   9
  -1   7  -3 2668.75 296.607   7
  -1   7  -3 2589.13 289.915   2
   1  -7   3 2863.22 328.543   3
  -1   7  -4 1639.61 117.409   4
   1  -7   4 1849.75 229.304   6
   1  -7   4 2178.42 291.910   3
  -1   7  -4 2268.38 219.954   9
   1  -7   4 2006.51 178.389   5
  -1   7  -4 2139.54 263.819   7
  -1   7  -4 2433.21 282.421   2
   1  -7   5 281.796 105.929   3
  -1   7  -5 208.501 90.1932   2
  -1   7  -5 389.628 111.696   7
  -1   7  -5 329.873 63.3169   4
   1  -7   5 372.243 103.302   6
   1  -7   6-12.8033 39.9207   3
  -1   7  -6 45.6413 29.1550   4
  -1   7  -6 27.6000 18.5887   7
  -1   7  -6 5.19680 30.4562   2
   1  -7   6-2.98121 31.5007   6
  -1   7  -7 917.657 195.492   2
   1  -7   7 1126.77 215.998   6
   1  -7   7 1083.45 215.043   3
  -1   7  -7 1251.48 215.522   7
  -1   7  -8 124.532 83.9874   7
   1  -7   8 70.5733 54.6596   3
   1  -7   8 58.4631 49.6470   6
  -1   7  -8 0.32647 20.9202   2
  -1   7  -9-14.6504 49.5018   5
   1  -7   9-86.0821 74.8311   6
   1  -7   9 69.5750 63.4445   3
  -1   7  -9 32.9159 14.5532   7
  -1   6   9 880.032 220.320  11
   1  -6  -9 1060.72 227.776   5
   1  -6  -8 37.1904 44.1173   3
   1  -6  -8 113.813 80.3455   5
  -1   6   8-17.0358 22.9796  11
  -1   6   7 1355.50 248.152  11
  -1   6   7 1240.90 189.067  10
   1  -6  -7 1386.24 226.467   5
   1  -6  -7 1188.13 188.721   3
  -1   6   6 789.698 167.682   7
   1  -6  -6 1075.04 189.472   5
   1  -6  -6 825.420 152.452   3
  -1   6   6 1162.59 159.048   1
  -1   6   6 985.017 159.489  10
  -1   6   6 1066.01 216.731  11
  -1   6   5 1079.38 160.589  10
   1  -6  -5 1011.78 166.257   5
   1  -6  -5 360.468 102.033   4
  -1   6   5 1126.46 191.425   7
  -1   6   5 956.678 93.7276   8
  -1   6   5 1032.47 200.091  11
   1  -6  -5 867.228 159.698   3
  -1   6   5 1115.50 153.828   1
  -1   6   4 964.793 193.750  11
   1  -6  -4 676.023 144.060   3
   1  -6  -4 933.324 144.739   5
  -1   6   4 865.898 138.205   1
  -1   6   4 739.401 157.004   7
   1  -6  -4 502.241 107.943   4
   1  -6  -3 138.775 47.0558   4
   1  -6  -3 213.434 62.9842   5
  -1   6   3 38.9025 37.2921  11
  -1   6   3 265.996 74.9662   1
  -1   6   3 146.412 68.9844   7
   1  -6  -3 122.747 67.9872   3
   1  -6  -2 2957.81 211.774   5
  -1   6   2 2860.82 295.733   7
  -1   6   2 2872.82 248.531   1
   1  -6  -2 2673.87 285.383   3
   1  -6  -2 2480.17 196.186   4
  -1   6   2 1617.27 168.981   6
  -1   6   1 6648.69 373.691   6
   1  -6  -1 8697.33 336.888   4
  -1   6   1 8622.79 471.935   1
  -1   6   1 8733.05 522.582   7
   1  -6  -1 9113.69 354.309   5
   1  -6  -1 8065.97 524.211   3
   1  -6   0-5.99777 7.03830   5
  -1   6   0-48.4180 48.3238   7
  -1   6   0-0.19425 22.5581   9
   1  -6   0 7.49616 30.1888   3
  -1   6   0 23.2832 30.0523   6
   1  -6   0 9.10564 7.91077   5
   1  -6   0 8.15794 10.3705   4
  -1   6  -1 2204.74 199.251   6
  -1   6  -1 2492.76 248.641   2
   1  -6   1 1222.68 91.1552   5
  -1   6  -1 2429.11 254.188   7
   1  -6   1 2784.07 286.668   3
  -1   6  -1 2727.42 262.633   9
  -1   6  -2 263.261 71.0773   6
   1  -6   2 249.706 85.1328   3
  -1   6  -2 235.295 77.7945   7
  -1   6  -2 206.654 77.0311  11
   1  -6   2 256.369 43.5211   5
  -1   6  -2 213.442 70.3778   2
  -1   6  -2 255.184 81.5089   9
  -1   6  -3 530.002 117.855  11
   1  -6   3 634.853 120.138   6
   1  -6   3 772.794 150.992   3
  -1   6  -3 415.930 50.5120   4
   1  -6   3 556.383 81.5304   5
  -1   6  -3 536.464 100.158   9
  -1   6  -3 566.927 125.670   2
  -1   6  -3 616.847 128.967   7
   1  -6   4 6106.55 409.400   6
   1  -6   4 4743.79 299.995   5
   1  -6   4 5434.45 426.563   3
  -1   6  -4 5817.64 397.962  11
  -1   6  -4 5484.01 315.035   9
  -1   6  -4 5388.14 416.286   2
  -1   6  -4 5265.19 399.346   7
  -1   6  -4 5013.60 256.460   4
   1  -6   5 3403.71 320.578   6
  -1   6  -5 2841.04 217.044   4
  -1   6  -5 3267.57 312.841   7
  -1   6  -5 2808.11 189.607   9
  -1   6  -5 3267.63 291.677  11
   1  -6   5 3369.63 333.723   3
  -1   6  -5 3169.29 325.133   2
   1  -6   6 2196.00 269.932   6
   1  -6   6 949.812 162.733   5
  -1   6  -6 1816.32 194.081   4
   1  -6   6 1908.11 254.570   3
  -1   6  -6 2392.46 291.740   2
  -1   6  -6 2013.86 230.179  11
  -1   6  -6 1777.01 212.873   5
  -1   6  -6 2020.74 251.368   7
  -1   6  -7 1859.73 246.687   7
  -1   6  -7 1678.37 208.831   4
   1  -6   7 1872.62 253.713   3
  -1   6  -7 2171.39 288.008   2
   1  -6   7 2160.64 282.659   6
  -1   6  -7 1521.45 213.976   5
  -1   6  -8-41.0589 42.5641   7
   1  -6   8-8.97457 42.3369   6
  -1   6  -8 3.30899 36.8229   2
  -1   6  -8 5.68776 34.7550   5
   1  -6   8 74.9923 42.9495   3
  -1   6  -9 40.7229 41.7527   7
   1  -6   9 26.1913 45.6021   6
   1  -6   9 32.8077 34.4784   3
  -1   6  -9-20.8769 64.1217   5
  -1   6 -10 1091.76 236.751   5
   1  -6  10 2392.05 350.527   6
  -1   6 -10 2583.54 322.678   7
   1  -5 -10 63.9784 68.3134   5
  -1   5  10 76.3482 71.1693  11
  -1   5   9 173.570 90.4118  11
   1  -5  -9 217.327 102.488   5
   1  -5  -8 853.836 126.972   1
  -1   5   8 1002.52 208.874  11
   1  -5  -8 1085.55 218.209   5
   1  -5  -8 593.591 115.953   3
  -1   5   7 590.919 152.197  11
   1  -5  -7 761.930 118.945   1
   1  -5  -7 708.140 157.589   5
  -1   5   7 636.696 125.076  10
   1  -5  -7 669.443 127.249   3
  -1   5   7 706.057 118.325   1
   1  -5  -6 2247.21 268.437   5
  -1   5   6 2458.39 307.219  11
   1  -5  -6 2011.02 224.311   3
   1  -5  -6 2429.05 214.207   1
  -1   5   6 2149.88 210.074   1
  -1   5   6 2101.85 218.453  10
  -1   5   5 57.9766 34.6977  10
   1  -5  -5 25.4797 19.8016   5
   1  -5  -5 1.28533 21.2162   4
  -1   5   5-2.80045 18.2725  11
  -1   5   5 4.84362 4.14780   8
   1  -5  -5 44.9377 31.0180   1
   1  -5  -5-8.23863 27.7523   3
  -1   5   5-13.1329 25.0932   1
   1  -5  -4 994.041 148.648   5
  -1   5   4 1078.87 186.057  11
  -1   5   4 1001.60 133.614   1
   1  -5  -4 986.459 153.345   3
   1  -5  -4 1109.75 140.751   1
  -1   5   3 5418.80 325.282   1
   1  -5  -3 5178.43 365.866   3
   1  -5  -3 5131.82 330.817   4
  -1   5   3 5415.13 386.091   7
  -1   5   3 5592.29 418.955  11
   1  -5  -3 5452.97 325.883   5
  -1   5   2 10212.2 537.195   7
  -1   5   2 11364.4 594.238   9
   1  -5  -2 9679.06 428.505   4
   1  -5  -2 9902.36 419.516   5
   1  -5  -2 10230.3 533.372   3
  -1   5   2 10168.3 475.656   1
   1  -5  -1 88.1409 30.0234   4
   1  -5  -1 116.422 32.3676   5
  -1   5   1 63.6218 49.5317   9
  -1   5   1 94.3142 32.6197   6
  -1   5   1 94.4940 44.9684   1
   1  -5  -1 66.6931 51.3166   3
  -1   5   0 15777.9 525.423   6
  -1   5   0 18215.4 619.057   1
   1  -5   0 13078.3 313.418   4
   1  -5   0 18055.5 680.587   3
   1  -5   0 16306.2 392.358   5
  -1   5   0 20180.9 701.774   9
  -1   5  -1 7792.35 424.183   7
   1  -5   1 7469.75 436.059   3
  -1   5  -1 7487.71 402.554   9
  -1   5  -1 6949.63 349.742   6
  -1   5  -1 8022.71 410.515   1
  -1   5  -2 1399.75 171.432   1
   1  -5   2 1465.46 188.876   3
  -1   5  -2 1580.38 168.990   6
  -1   5  -2 1365.15 155.223   9
   1  -5   2 1307.63 103.696   5
  -1   5  -2 1434.26 174.842   7
  -1   5  -2 1653.28 191.626   2
  -1   5  -2 1493.94 177.440  11
  -1   5  -2 705.357 59.4212   4
   1  -5   2 1505.15 186.836   7
   1  -5   3 4069.59 243.622   5
   1  -5   3 4960.42 361.252   3
  -1   5  -3 4829.66 323.746  11
   1  -5   3 5203.85 339.762   6
  -1   5  -3 4976.23 354.951   2
   1  -5   3 4674.83 341.509   7
  -1   5  -3 4556.51 213.345   4
  -1   5  -3 4507.59 327.530   7
  -1   5  -3 4768.87 280.219   9
  -1   5  -4 1443.80 196.364   2
  -1   5  -4 1256.47 141.102   5
   1  -5   4 1301.25 175.251   6
   1  -5   4 1297.03 148.801   5
  -1   5  -4 1426.60 126.643   9
   1  -5   4 1427.14 192.729   3
   1  -5   4 1389.78 185.111   7
  -1   5  -4 1339.81 176.060   7
  -1   5  -4 1371.23 166.629  11
  -1   5  -4 1313.77 128.841   4
   1  -5   5 1400.92 194.298   3
  -1   5  -5 1624.65 104.810   9
  -1   5  -5 1375.41 204.433   2
  -1   5  -5 1499.76 177.736  11
  -1   5  -5 1411.11 189.004   7
  -1   5  -5 1181.57 164.113   5
   1  -5   5 1603.62 206.921   6
  -1   5  -6 155.904 64.2736   2
  -1   5  -6 66.6356 42.5832   5
   1  -5   6 106.734 46.8254   3
  -1   5  -6 98.6817 46.9483  11
   1  -5   6 66.7838 41.2647   6
   1  -5   6 74.7008 49.3805   5
  -1   5  -6 141.823 58.2188   7
  -1   5  -7 747.027 148.168   5
  -1   5  -7 892.041 163.272   7
   1  -5   7 769.951 142.662   3
  -1   5  -7 870.960 174.826   2
  -1   5  -7 959.878 144.113  11
   1  -5   7 717.598 159.807   6
   1  -5   8 1915.41 272.810   6
  -1   5  -8 2016.05 251.095   7
   1  -5   8 1881.98 238.710   3
  -1   5  -8 2167.23 296.982   2
  -1   5  -8 1389.22 225.878   5
  -1   5  -9 1135.40 190.521   7
   1  -5   9 1229.21 193.017   3
  -1   5  -9 736.060 178.167   5
   1  -5   9 1021.09 207.831   6
   1  -5  10 15.6372 32.7277   6
  -1   5 -10-60.4017 55.2389   7
  -1   5 -10-55.6854 66.9063   5
   1  -4 -10 365.767 136.079   5
  -1   4  10 436.311 148.139  11
  -1   4   9 176.226 80.6844  11
   1  -4  -9 317.844 120.281   5
   1  -4  -8 5812.64 501.837   5
   1  -4  -8 6137.01 343.577   1
  -1   4   8 6352.40 500.900  11
   1  -4  -8 5089.52 326.033   3
  -1   4   8 5431.73 351.134   1
   1  -4  -7 85.3525 63.3791   5
  -1   4   7 32.7829 43.3125  11
  -1   4   7 14.3890 3.07898   1
   1  -4  -7-1.71768 14.2229   3
   1  -4  -7 11.1361 24.4224   1
   1  -4  -6 853.234 115.010   1
   1  -4  -6 701.929 115.223   3
   1  -4  -6 750.605 153.307   5
  -1   4   6 775.344 168.098   5
  -1   4   6 695.624 150.253  11
  -1   4   6 753.475 116.991  10
  -1   4   6 846.743 119.087   1
  -1   4   5 735.161 108.807   1
  -1   4   5 387.387 40.8571   8
   1  -4  -5 782.601 139.236   5
   1  -4  -5 695.561 117.814   3
  -1   4   5 800.774 153.194  11
  -1   4   5 887.890 119.376  10
   1  -4  -5 816.365 108.804   1
  -1   4   5 720.321 144.219   5
   1  -4  -4 8251.65 438.188   3
  -1   4   4 9239.62 500.706   5
  -1   4   4 9095.08 416.985   1
  -1   4   4 9529.19 535.537   9
   1  -4  -4 9196.14 472.741   5
   1  -4  -4 9110.25 409.395   1
  -1   4   4 9329.37 527.966  11
   1  -4  -3 5483.16 318.841   5
   1  -4  -3 5565.58 335.949   4
  -1   4   3 5574.75 303.802   1
   1  -4  -3 5470.83 305.640   1
   1  -4  -3 5735.43 342.580   3
  -1   4   3 5795.34 386.206  11
   1  -4  -2 2121.96 170.413   4
  -1   4   2 2144.22 181.562   1
   1  -4  -2 2288.74 186.720   1
   1  -4  -2 2155.79 202.262   3
   1  -4  -2 2418.82 170.988   5
   1  -4  -1 75688.8 1752.79   5
  -1   4   1 77381.6 2007.68   9
  -1   4   1 71341.6 1880.27   1
   1  -4  -1 69890.9 1746.17   4
   1  -4  -1 68588.2 1938.64   3
   1  -4   0 4524.78 179.904   5
  -1   4   0 5582.84 304.426   1
  -1   4   0 5503.52 280.558   6
   1  -4   0 5322.79 329.104   3
  -1   4   0 5510.29 325.956   9
   1  -4   1 953.928 130.344   7
  -1   4  -1 879.732 116.821   9
   1  -4   1 1075.68 141.445   3
  -1   4  -1 1158.07 134.848   1
  -1   4  -1 1146.75 124.034   6
   1  -4   1 787.661 60.4830   5
   1  -4   2 417.885 78.8728   6
   1  -4   2 423.217 89.7415   3
  -1   4  -2 376.313 80.1203   7
  -1   4  -2 361.640 74.3262   1
  -1   4  -2 448.153 47.0177   4
  -1   4  -2 516.883 87.7251  11
  -1   4  -2 521.714 83.0891   9
  -1   4  -2 490.775 86.8622   6
   1  -4   2 403.385 83.3513   7
   1  -4   2 460.489 59.5057   5
  -1   4  -3 331.609 71.3227  11
   1  -4   3 331.263 61.7499   5
   1  -4   3 266.913 69.3524   3
  -1   4  -3 361.480 79.7798   7
  -1   4  -3 285.148 58.9081   5
  -1   4  -3 292.335 53.0803   9
   1  -4   3 350.120 79.8354   7
   1  -4   4 2798.97 237.663   7
  -1   4  -4 2331.94 133.042   9
   1  -4   4 2596.99 216.349   5
   1  -4   4 2809.59 248.452   6
  -1   4  -4 2929.26 219.106   5
  -1   4  -4 2774.96 213.439  11
  -1   4  -4 2772.18 230.687   7
   1  -4   4 2921.71 250.942   3
  -1   4  -4 2802.10 258.578   2
   1  -4   5 24386.8 880.191   7
  -1   4  -5 24547.2 882.517   5
  -1   4  -5 24986.0 958.956   2
   1  -4   5 24734.4 929.306   6
  -1   4  -5 22795.0 852.160   7
  -1   4  -5 23824.6 806.920  11
   1  -4   5 23826.7 888.320   3
  -1   4  -6 2027.16 215.347   7
   1  -4   6 1964.59 213.638   7
   1  -4   6 1965.68 215.902   3
  -1   4  -6 2084.12 250.477   2
   1  -4   6 1863.53 232.878   6
   1  -4   6 1472.96 201.644   5
  -1   4  -6 1937.07 183.720  11
  -1   4  -6 1976.23 227.755   5
  -1   4  -7 9252.87 510.655   7
  -1   4  -7 8808.34 435.939  11
   1  -4   7 8535.53 497.387   3
  -1   4  -7 8819.95 554.592   5
  -1   4  -7 10436.9 612.848   2
   1  -4   7 8138.36 541.077   6
   1  -4   8 254.625 80.3383   3
   1  -4   8 234.050 66.8233  11
   1  -4   8 326.740 105.603   6
  -1   4  -8 226.727 81.6462   7
  -1   4  -8 289.008 73.3463  11
  -1   4  -8 400.008 119.192   5
  -1   4  -9 0.90055 42.3328   5
   1  -4   9 6.73620 25.3132  11
   1  -4   9 37.9423 40.5358   6
  -1   4  -9-35.9138 25.2079   7
  -1   4 -10 1847.32 306.280   5
   1  -4  10 1936.47 299.858   6
   1  -4  11 230.404 113.296   6
  -1   4 -11 102.536 79.7270   5
  -1   3  11 735.544 191.544  11
   1  -3 -11 823.049 215.731   5
   1  -3 -10-5.83608 37.5998   5
  -1   3  10-25.6645 46.7573  11
   1  -3  -9 4056.98 280.858   1
  -1   3   9 3537.34 365.353  11
   1  -3  -9 3480.97 402.447   5
   1  -3  -8 5270.75 279.168   3
   1  -3  -8 5671.31 486.807   5
   1  -3  -8 5827.29 333.315   1
  -1   3   8 4987.14 426.552  11
  -1   3   7 6745.67 376.352   1
   1  -3  -7 6057.19 319.380   3
  -1   3   7 7119.15 478.784  11
   1  -3  -7 7507.48 521.154   5
   1  -3  -7 7378.72 367.337   1
  -1   3   6 4072.07 339.687  11
   1  -3  -6 3827.94 244.513   3
  -1   3   6 4112.74 267.908   1
   1  -3  -6 4298.82 258.061   1
  -1   3   6 4139.78 373.974   5
   1  -3  -6 3947.27 344.541   5
  -1   3   6 4052.83 333.871   9
   1  -3  -5 13.0317 9.29377   3
   1  -3  -5 14.2147 15.5004   1
   1  -3  -5 18.6365 3.86253   5
  -1   3   5 23.0769 27.8131   9
  -1   3   5 13.1176 7.15851   5
  -1   3   5-0.74176 8.92911  10
  -1   3   5 13.3288 9.91753   1
  -1   3   5 39.7988 44.2622  11
  -1   3   4 40851.9 1155.60  10
   1  -3  -4 41896.2 1198.96   3
   1  -3  -4 43402.7 1168.58   1
   1  -3  -4 43010.7 1293.94   5
  -1   3   4 44604.7 1341.70   5
  -1   3   4 43673.7 1337.84  11
  -1   3   4 42121.7 1188.08   1
   1  -3  -3 10207.5 433.298   3
   1  -3  -3 10578.0 450.973   5
  -1   3   3 11379.5 512.315  11
  -1   3   3 10078.5 408.330   1
   1  -3  -3 10470.9 406.981   1
  -1   3   3 10194.0 460.084   5
  -1   3   2 20703.6 732.102  11
  -1   3   2 20855.6 650.159   5
   1  -3  -2 20280.6 629.548   5
   1  -3  -2 20571.8 687.902   3
  -1   3   2 19861.5 644.772   1
   1  -3  -2 20768.3 648.098   1
  -1   3   1 1664.07 136.784   1
   1  -3  -1 1523.22 102.055   4
   1  -3  -1 1655.26 99.3529   5
   1  -3  -1 1611.63 150.223   3
   1  -3  -1 1579.17 136.168   1
   1  -3   0 86610.9 2236.04   3
  -1   3   0 90912.1 2199.88   1
  -1   3   0 90107.2 2168.68   6
  -1   3  -1 3059.50 202.034   7
   1  -3   1 2583.55 118.356   5
  -1   3  -1 2939.46 189.976   6
  -1   3  -1 3202.28 192.086   9
   1  -3   1 2926.11 214.432   3
  -1   3  -1 3116.45 204.893   1
   1  -3   1 3042.56 205.275   7
  -1   3  -2 2809.07 208.334   3
  -1   3  -2 2987.19 165.539   5
  -1   3  -2 2959.99 208.330   6
   1  -3   2 3083.30 207.792   7
   1  -3   2 2919.50 166.417   5
  -1   3  -2 2941.12 166.502   9
  -1   3  -2 2845.04 183.116  11
  -1   3  -2 3030.47 203.931   7
   1  -3   2 2837.23 212.253   3
   1  -3   3 42342.6 1186.15   7
  -1   3  -3 42521.1 1127.83  11
   1  -3   3 44011.8 1229.84   3
  -1   3  -3 40778.4 1170.43   7
  -1   3  -3 42666.1 1161.18   5
  -1   3  -3 39237.6 1026.90   9
   1  -3   3 42382.6 1173.23   5
  -1   3  -3 44009.1 1217.12   3
   1  -3   4 18.6692 17.8518   7
  -1   3  -4-11.7052 24.7061   5
   1  -3   4 18.9981 19.0548   3
  -1   3  -4 64.5094 31.8770   3
   1  -3   4 24.2671 22.7586   5
   1  -3   4 1.84059 30.4870   2
  -1   3  -4-8.16813 2.56572  11
  -1   3  -4 12.3903 12.6602   7
  -1   3  -5 1963.59 207.103   5
  -1   3  -5 1901.56 154.542  11
   1  -3   5 1715.80 177.951   3
   1  -3   5 2050.74 232.436   2
  -1   3  -5 1592.53 165.517   7
  -1   3  -5 1847.65 171.130   3
   1  -3   5 1807.24 178.256   7
   1  -3   5 1698.17 147.221  11
  -1   3  -6 8157.40 431.877   7
   1  -3   6 6363.73 466.885   5
  -1   3  -6 8421.63 379.402  11
  -1   3  -6 8422.77 403.859   3
   1  -3   6 8965.53 445.131   7
   1  -3   6 8413.08 388.435  11
   1  -3   6 8435.60 501.072   6
   1  -3   6 8863.33 447.669   3
  -1   3  -6 8986.73 529.354   2
  -1   3  -6 8957.29 518.919   5
   1  -3   7 4416.47 317.332   7
   1  -3   7 4205.68 273.326  11
   1  -3   7 4119.35 301.848   3
  -1   3  -7 4478.42 318.904   7
  -1   3  -7 4501.73 270.499  11
   1  -3   7 4566.06 382.947   6
  -1   3  -7 4465.19 389.560   5
  -1   3  -8 3670.90 380.215   5
  -1   3  -8 3406.90 248.297  11
   1  -3   8 3452.84 353.824   6
  -1   3  -8 3485.85 292.422   7
   1  -3   8 2987.35 245.201  11
   1  -3   8 3157.03 284.509   7
   1  -3   9 899.450 138.727  11
  -1   3  -9 961.454 200.410   5
   1  -3   9 926.351 189.138   6
  -1   3 -10 1966.65 318.240   5
   1  -3  10 2519.17 339.010   6
  -1   3 -11 72.8749 42.8878   1
  -1   3 -11 127.866 72.9587   5
   1  -3  11 149.033 83.8974   6
  -1   2  11 325.702 109.864  11
   1  -2 -11 473.841 176.371   5
   1  -2 -10 1750.11 295.872   5
  -1   2  10 1522.54 237.731  11
   1  -2 -10 1552.00 181.930   1
   1  -2  -9 104.343 52.2713   1
   1  -2  -9 54.2655 41.0717   5
  -1   2   9 65.2012 40.0783  11
   1  -2  -8 348.924 75.9986   1
   1  -2  -8 258.426 96.4873   5
  -1   2   8 159.522 63.0427   9
   1  -2  -8 232.100 33.3264   3
  -1   2   8 316.666 107.649  11
   1  -2  -7 102.358 59.2635   5
  -1   2   7 81.6790 43.3661   9
   1  -2  -7 27.4223 17.6351   1
   1  -2  -7 107.342 28.8768   3
  -1   2   7 93.6265 55.3017  11
  -1   2   6 2560.09 205.674   1
  -1   2   6 2456.26 234.072   9
   1  -2  -6 2560.15 267.569   5
   1  -2  -6 2724.11 202.799   1
   1  -2  -6 2600.32 158.576   3
  -1   2   6 2945.79 297.373   5
  -1   2   6 2360.45 238.604  11
  -1   2   5 2359.48 241.460   5
   1  -2  -5 2204.78 170.769   1
  -1   2   5 2023.40 170.104   1
   1  -2  -5 2520.19 241.460   5
   1  -2  -5 2157.73 147.386   3
  -1   2   5 2361.39 223.034  11
   1  -2  -4 8753.49 341.258   3
   1  -2  -4 9080.97 360.765   1
  -1   2   4 9055.52 453.791   5
  -1   2   4 8751.69 371.476   1
   1  -2  -4 8976.63 438.314   5
  -1   2   4 8613.21 335.730  10
  -1   2   4 9075.08 445.558  11
   1  -2  -3 46.8084 19.3791   3
  -1   2   3 38.8773 19.3282   1
   1  -2  -3 20.5748 21.5083   5
  -1   2   3 13.1935 18.8518  11
   1  -2  -3 13.9692 5.78878   1
  -1   2   3 31.6262 22.4792   5
   1  -2  -2 113.279 31.4088   3
   1  -2  -2 107.118 27.9160   1
  -1   2   2 114.556 31.5511   1
  -1   2   2 151.728 44.5855  11
   1  -2  -2 116.463 30.6889   5
  -1   2   2 72.6739 24.7479   5
  -1   2   1 225225. 5030.11   5
   1  -2  -1 218638. 5134.01   3
   1  -2  -1 221473. 5018.00   5
  -1   2   1 233647. 5111.83   1
   1  -2   0 550890. 12225.0   3
  -1   2   0 594276. 12200.2   1
  -1   2  -1 36196.9 974.698   6
  -1   2  -1 34929.0 952.828   7
  -1   2  -1 35219.7 876.895   4
  -1   2  -1 35565.6 879.354   5
   1  -2   1 36607.0 890.242   5
  -1   2  -1 35625.4 971.840   1
   1  -2   1 37512.8 1007.24   3
   1  -2   1 37487.6 965.602   7
   1  -2   2 2115.87 160.280   3
   1  -2   2 1946.29 142.456   5
   1  -2   2 1991.28 137.089   7
  -1   2  -2 2176.09 159.251   6
  -1   2  -2 1875.47 133.067   7
  -1   2  -2 2115.50 156.684   3
  -1   2  -2 1866.49 112.215  11
  -1   2  -2 1953.86 137.314   5
   1  -2   3 7515.55 311.233   7
  -1   2  -3 6940.57 300.974   7
  -1   2  -3 7546.21 330.809   3
   1  -2   3 6805.29 365.411   2
  -1   2  -3 7372.96 266.502  11
   1  -2   3 6853.06 262.057  11
  -1   2  -3 7363.96 346.307   5
   1  -2   3 7157.80 335.367   3
   1  -2   3 7065.94 353.236   5
   1  -2   4 13049.4 578.380   2
  -1   2  -4 12787.1 472.519   7
  -1   2  -4 13089.0 556.669   5
   1  -2   4 13096.7 573.296   5
  -1   2  -4 13600.2 430.961  11
   1  -2   4 13189.2 507.081   3
   1  -2   4 12454.5 472.655   7
   1  -2   4 12321.5 420.873  11
  -1   2  -4 13180.0 484.527   3
  -1   2  -5 5679.06 300.526   7
   1  -2   5 5713.56 270.933  11
   1  -2   5 6028.28 394.958   2
  -1   2  -5 5461.98 287.405   3
   1  -2   5 6184.15 326.168   3
  -1   2  -5 5811.85 266.894  11
  -1   2  -5 5705.34 379.597   5
   1  -2   5 5762.84 303.289   7
  -1   2  -6 1198.63 140.578   7
   1  -2   6 1122.54 184.026   5
  -1   2  -6 1322.43 128.935   3
   1  -2   6 1062.87 132.932   7
  -1   2  -6 1070.04 173.641   5
   1  -2   6 1139.12 123.414  11
  -1   2  -6 1180.28 159.576   8
   1  -2   6 1226.04 173.082   6
   1  -2   6 1381.50 194.022   2
  -1   2  -6 1155.05 119.256  11
   1  -2   7 616.741 105.373   7
  -1   2  -7 543.174 86.2097  11
   1  -2   7 499.731 119.104   6
   1  -2   7 541.152 94.6479  11
  -1   2  -7 561.912 81.9637   3
  -1   2  -7 538.014 132.163   5
   1  -2   8 40.3569 29.1325  11
   1  -2   8 76.1566 55.5925   6
   1  -2   8 129.386 51.7234   7
  -1   2  -8 131.522 70.6436   5
  -1   2  -8 119.421 39.3937  11
  -1   2  -8 92.0506 34.3830   3
   1  -2   9 488.932 105.183  11
  -1   2  -9 277.282 107.667   5
   1  -2   9 505.012 144.722   6
   1  -2   9 320.267 85.2173   7
  -1   2 -10 9854.63 591.961   1
   1  -2  10 9958.46 684.636   6
  -1   2 -10 9783.68 726.983   5
   1  -2  10 8808.66 492.915  11
   1  -2  11 76.0169 65.6272   6
  -1   2 -11 196.421 97.1460   1
  -1   2 -11 153.242 80.7145   5
   1  -1 -12 1221.80 285.818   5
  -1   1  12 1303.13 236.944  11
   1  -1 -11 521.199 119.384   1
   1  -1 -11 529.323 178.151   5
  -1   1  11 385.001 118.661  11
   1  -1 -10 922.185 220.436   5
   1  -1 -10 1195.42 172.926   1
  -1   1  10 1079.40 194.490  11
   1  -1  -9 1456.57 184.851   1
   1  -1  -9 1079.99 146.900  10
   1  -1  -9 711.571 107.903   8
   1  -1  -9 1641.26 263.511   5
  -1   1   9 1120.99 168.339   9
  -1   1   9 1523.92 213.621  11
   1  -1  -8 3986.54 257.063   8
   1  -1  -8 5904.77 358.182   1
  -1   1   8 5273.24 353.003   9
  -1   1   8 5781.63 404.806  11
   1  -1  -8 5786.88 473.534   5
   1  -1  -7 23137.0 868.973  11
  -1   1   7 19308.2 770.738   7
   1  -1  -7 21170.8 750.978   1
   1  -1  -7 18241.1 635.012   8
   1  -1  -7 19362.4 696.955  10
  -1   1   7 22040.3 838.960  11
   1  -1  -7 20602.0 917.391   5
   1  -1  -6 67.9992 33.6367   1
  -1   1   6 83.6474 45.7626  11
   1  -1  -6 66.5255 24.4151   8
   1  -1  -6 44.2868 30.0190  11
   1  -1  -6 47.7753 23.0706   5
  -1   1   6 45.5972 33.9125   9
  -1   1   6 109.350 57.4802   5
   1  -1  -6 51.2725 16.3903  10
   1  -1  -5 41166.5 1018.53   3
  -1   1   5 47018.1 1295.82  11
   1  -1  -5 47467.3 1223.27   1
   1  -1  -5 37825.9 1063.75   8
   1  -1  -5 47525.3 1370.45   5
   1  -1  -5 48057.3 1317.24  11
  -1   1   5 44119.6 1361.20   5
  -1   1   5 41960.0 1200.21   1
   1  -1  -5 44982.0 1141.38  10
  -1   1   4 59318.0 1629.36   5
   1  -1  -4 61374.3 1597.51  11
   1  -1  -4 59337.3 1615.30   5
   1  -1  -4 57387.6 1383.33   8
   1  -1  -4 56286.4 1380.15   3
  -1   1   4 60196.2 1577.57  11
  -1   1   4 59097.5 1514.94   1
   1  -1  -4 57909.0 1507.33   1
   1  -1  -4 60575.2 1429.78  10
   1  -1  -3 48815.1 1296.79   5
  -1   1   3 47170.9 1236.85   1
   1  -1  -3 48126.0 1161.39   3
  -1   1   3 47781.6 1300.95   5
   1  -1  -3 47374.3 1232.43   1
  -1   1   3 48888.7 1292.95  11
  -1   1   2 9373.11 358.119  11
  -1   1   2 9385.63 326.549   1
   1  -1  -2 9461.53 308.207   3
   1  -1  -2 9748.25 344.500   5
  -1   1   2 9064.26 336.535   5
  -1   1   1 133629. 3117.37   5
  -1   1   1 143804. 3177.07  11
   1  -1  -1 138160. 3167.49   3
   1  -1  -1 140132. 3094.06   8
  -1   1   1 135009. 3152.87   1
   1  -1   0 8776.66 306.276   3
  -1   1   0 7872.57 255.260  11
  -1   1   0 9045.14 245.320   4
  -1   1   0 8415.05 277.952   1
  -1   1  -1 2820.60 144.452   4
  -1   1  -1 2763.69 138.574   1
   1  -1   1 2955.92 164.461   3
   1  -1   1 2898.04 123.137   7
  -1   1  -1 2536.73 146.428   6
  -1   1  -1 2744.01 119.119   7
  -1   1  -1 2813.08 154.792   8
  -1   1  -1 2883.98 146.535   5
   1  -1   2 5060.17 193.156   7
   1  -1   2 5510.78 248.876   3
   1  -1   2 5247.09 260.688   2
  -1   1  -2 4876.84 241.170   6
  -1   1  -2 5213.19 238.565   3
  -1   1  -2 5316.42 259.414   5
   1  -1   2 5532.98 175.427   9
  -1   1  -2 5254.81 252.324   8
  -1   1  -2 5079.05 192.965   7
  -1   1  -2 5232.55 171.916   9
   1  -1   3 8287.52 269.314   9
   1  -1   3 10219.0 331.375   7
   1  -1   3 9427.79 412.021   2
  -1   1  -3 9814.88 365.228   3
  -1   1  -3 10174.0 302.757  11
  -1   1  -3 9408.17 325.766   7
  -1   1  -3 9867.31 432.149   5
  -1   1  -3 8943.54 277.125   9
   1  -1   3 10122.2 380.197   3
  -1   1  -3 9584.17 396.639   8
   1  -1   3 9842.19 299.951  11
   1  -1   4 22735.3 598.401   9
   1  -1   4 23180.1 675.378   7
  -1   1  -4 24077.1 653.239  11
   1  -1   4 23250.6 650.553  11
  -1   1  -4 20676.1 597.991   9
  -1   1  -4 23530.9 838.507   5
  -1   1  -4 23298.2 784.575   2
  -1   1  -4 24235.7 781.979   8
  -1   1  -4 22369.7 673.053   7
  -1   1  -4 23640.1 698.105   3
   1  -1   4 23191.6 800.618   2
   1  -1   5 5385.22 261.069  11
  -1   1  -5 5331.18 377.177   5
   1  -1   5 5476.46 358.970   2
  -1   1  -5 5384.97 325.960   8
  -1   1  -5 5202.10 255.691  11
   1  -1   5 5166.52 332.764   6
   1  -1   5 5112.22 209.091   9
  -1   1  -5 5685.09 267.134   3
   1  -1   5 5128.53 266.645   7
   1  -1   6 2733.43 266.046   2
   1  -1   6 2489.59 144.937   9
  -1   1  -6 2460.02 169.305   3
   1  -1   6 2714.60 200.871   7
   1  -1   6 2609.53 192.410  11
  -1   1  -6 2621.75 190.723  11
   1  -1   6 2565.95 246.605   6
  -1   1  -6 2389.09 228.332   8
   1  -1   6 2871.55 303.223   5
  -1   1  -6 2611.72 281.384   5
  -1   1  -7 28943.8 963.524  11
   1  -1   7 31232.3 1150.08   6
  -1   1  -7 32706.0 1257.70   5
   1  -1   7 31408.8 989.260   7
   1  -1   7 32122.9 987.403  11
   1  -1   7 30778.2 853.251   9
  -1   1  -7 31624.6 1099.59   8
  -1   1  -7 32334.1 891.045   3
  -1   1  -8 6144.81 509.601   5
  -1   1  -8 5454.74 337.090  11
   1  -1   8 5913.44 354.753  11
  -1   1  -8 6173.49 387.800   1
   1  -1   8 5738.04 264.382   9
   1  -1   8 5742.00 355.391   7
   1  -1   8 5896.71 444.134   6
  -1   1  -8 6020.03 264.026   3
   1  -1   9 1985.35 210.956   7
   1  -1   9 2213.16 223.273  11
  -1   1  -9 1957.49 302.645   5
   1  -1   9 2047.30 278.829   6
  -1   1  -9 2447.63 245.746   1
  -1   1 -10 14.9908 38.8804   5
   1  -1  10-31.0148 44.1115   6
  -1   1 -10-62.4638 48.4234   1
   1  -1  10 1.55393 24.5205  11
   1  -1  11 1933.17 302.259   6
  -1   1 -11 2228.94 364.372   5
   1   0 -12 1143.34 269.815   5
  -1   0  12 1126.54 214.701  11
  -1   0  11 916.333 179.306  11
   1   0 -11 832.912 219.588   5
   1   0 -11 1267.64 196.381   1
   1   0 -10 660.674 181.401   5
   1   0 -10 984.517 162.903   1
   1   0 -10 389.277 92.7347   8
  -1   0  10 874.722 167.796  11
   1   0  -9 1158.29 234.857   5
   1   0  -9 855.836 145.437  10
  -1   0   9 1240.48 189.790  11
   1   0  -9 1298.14 178.622   1
   1   0  -9 683.163 116.757   8
   1   0  -8 830.470 137.204   1
  -1   0   8 874.131 150.607  11
   1   0  -8 907.329 181.213   5
   1   0  -8 880.043 147.385  11
   1   0  -8 417.540 84.1463   8
  -1   0   8 743.026 135.523   7
  -1   0   8 606.084 106.136   9
   1   0  -7 6254.04 370.707   1
  -1   0   7 5595.15 356.184   7
  -1   0   7 6178.75 412.908   2
   1   0  -7 5643.99 371.074  11
  -1   0   7 4641.76 293.030   9
   1   0  -7 5801.00 439.986   5
  -1   0   7 5867.89 380.650  11
   1   0  -6 56863.9 1604.98  11
   1   0  -6 55381.5 1690.36   5
   1   0  -6 57883.9 1570.19   1
  -1   0   6 55058.7 1555.96   7
  -1   0   6 52010.6 1568.39  11
  -1   0   5 14589.4 567.589  11
   1   0  -5 13268.3 531.367   1
   1   0  -5 13188.1 541.807  11
   1   0  -5 13720.4 608.193   5
  -1   0   5 13926.3 538.201   7
  -1   0   4 11478.7 487.070   7
   1   0  -4 15211.2 576.718   5
   1   0  -4 14259.3 522.042  11
   1   0  -4 15078.2 523.090   1
  -1   0   4 15161.2 540.055  11
  -1   0   3 11851.3 426.026   7
   1   0  -3 12120.1 454.793   5
   1   0  -3 11509.1 423.023   1
  -1   0   3 11587.2 424.387   1
  -1   0   3 12586.5 443.939  11
  -1   0   2 11533.5 376.849   1
   1   0  -2 11118.2 382.884   5
  -1   0   2 11268.4 371.840   7
  -1   0   2 10829.2 375.627  11
  -1   0   0 117216. 2645.88   1
  -1   0   0 117192. 2645.71  11
  -1   0  -1 177374. 4073.87   9
  -1   0  -1 174572. 4100.78   8
  -1   0  -1 187198. 4161.99   5
  -1   0  -1 180330. 4076.66   2
   1   0   1 192247. 4157.15   4
   1   0   1 185951. 4084.53   2
  -1   0  -1 167459. 4068.79   6
  -1   0  -1 182583. 4016.44   1
  -1   0  -2 31964.5 893.686   2
   1   0   2 32279.3 902.797   2
  -1   0  -2 32143.9 866.837   9
  -1   0  -2 32831.6 979.784   5
   1   0   2 34793.0 839.482  11
   1   0   2 35753.5 814.295   7
   1   0   2 32928.2 894.759   6
   1   0   2 31678.0 861.910   9
  -1   0  -2 36801.5 930.419   8
   1   0   3 2676.96 135.840   7
   1   0   3 2706.02 175.938   8
  -1   0  -3 2598.85 214.258   5
  -1   0  -3 2709.92 158.651   9
   1   0   3 2581.10 152.584   9
  -1   0  -3 2555.43 174.370   8
   1   0   3 2866.32 150.490  11
   1   0   3 2685.97 185.639   2
   1   0   4 4959.48 294.612   2
  -1   0  -4 4679.73 329.836   5
   1   0   4 4452.66 228.139   9
   1   0   4 4792.27 232.024  11
  -1   0  -4 4669.36 269.381   8
  -1   0  -4 4133.79 228.749   9
  -1   0  -4 4635.06 246.118   3
   1   0   4 4896.96 223.158   7
   1   0   5 13.7202 8.16475   7
   1   0   5 9.86851 12.2591   2
  -1   0  -5 1.16504 7.64403   3
  -1   0  -5 10.2386 13.3760   8
  -1   0  -5 14.2066 31.9697   5
   1   0   5 22.1488 11.6452   9
   1   0   5 23.5826 14.0086  11
   1   0   6 1539.25 148.038   7
  -1   0  -6 1447.48 139.864   1
  -1   0  -6 1546.83 170.791   8
   1   0   6 1446.89 138.267   9
   1   0   6 1479.16 192.394   2
   1   0   6 1560.68 155.563  11
  -1   0  -6 1483.30 215.565   5
  -1   0  -6 1428.90 129.715   3
   1   0   6 1556.12 231.324   5
  -1   0  -7 24.9342 11.1357   3
  -1   0  -7 37.1543 26.9865   1
   1   0   7 26.3241 20.7458   9
   1   0   7 16.6670 25.7561  11
   1   0   7 21.9186 8.63769   7
  -1   0  -7 22.2800 5.43991  10
  -1   0  -7-9.07940 40.0393   5
  -1   0  -7 9.58596 13.6496   8
  -1   0  -8 10690.7 583.947   8
  -1   0  -8 13261.9 444.393   3
  -1   0  -8 13851.8 556.667   1
   1   0   8 12499.0 526.751   9
  -1   0  -8 12696.8 773.733   5
   1   0   8 12823.2 584.277  11
   1   0   8 12575.0 554.558   7
  -1   0  -9 73.6409 42.8274   1
   1   0   9 112.750 51.2047   7
   1   0   9 54.2082 48.5110  11
  -1   0  -9 41.5609 20.6260   5
   1   0   9 140.207 70.8646   6
  -1   0 -10 3423.55 433.823   5
   1   0  10 3028.10 352.097   6
   1   0  10 3309.98 302.619  11
   1   0  11 2035.91 303.606   6
  -1   0 -11 1572.23 311.121   5
   1   1 -12 946.998 180.963   1
   1   1 -12 838.263 231.203   5
  -1  -1  12 557.329 147.110  11
   1   1 -11 914.351 228.851   5
   1   1 -11 1053.19 196.001   1
  -1  -1  11 712.920 162.809  11
  -1  -1  10 1810.21 243.922  11
   1   1 -10 1451.49 265.113   5
   1   1 -10 1651.80 223.977   1
   1   1  -9 1486.71 206.006   1
  -1  -1   9 1587.37 212.535  11
  -1  -1   9 1556.58 145.519   9
   1   1  -9 1162.45 159.681   8
   1   1  -9 1705.21 260.169   5
  -1  -1   8 605.221 124.933  11
   1   1  -8 672.395 155.134   5
   1   1  -8 621.465 119.466  11
  -1  -1   8 488.110 76.0069   9
   1   1  -8 526.688 110.717   1
  -1  -1   8 581.763 117.315   7
   1   1  -7 12981.7 582.676  11
  -1  -1   7 13009.2 605.337  11
   1   1  -7 13034.1 605.215   1
  -1  -1   7 12381.7 571.706   7
  -1  -1   7 13084.5 687.948   5
   1   1  -7 9515.68 601.143   5
  -1  -1   6 425.737 89.5039  11
  -1  -1   6 418.679 85.8526   7
  -1  -1   6 428.547 95.3894   2
   1   1  -6 427.308 92.5783   1
   1   1  -6 559.522 99.9751  11
   1   1  -6 457.051 107.961   5
  -1  -1   5 13663.2 370.959   3
  -1  -1   5 14311.0 582.234   2
  -1  -1   5 14482.3 564.934  11
   1   1  -5 13879.6 549.979  11
   1   1  -5 12974.4 533.231   7
   1   1  -5 12972.3 593.831   5
   1   1  -5 14308.6 578.831   1
  -1  -1   5 13782.1 545.705   7
  -1  -1   4 3571.04 225.313   7
  -1  -1   4 3592.93 145.718   3
  -1  -1   4 3685.53 171.684   9
   1   1  -4 3791.88 252.000   5
   1   1  -4 3443.22 220.228   7
   1   1  -4 3595.32 226.464  11
  -1  -1   4 3721.85 239.220   2
  -1  -1   4 3757.73 235.733  11
  -1  -1   3 32.5628 21.2662   7
  -1  -1   3 31.5964 18.6286  11
  -1  -1   3 45.3943 15.5604   9
   1   1  -3 3.96135 19.9181   5
  -1  -1   2 239398. 5495.60   7
  -1  -1   2 227926. 5515.91  11
   1   1  -2 232851. 5520.44   5
  -1  -1   2 237841. 5449.51   9
   1   1  -2 238709. 5512.36   4
  -1  -1   1 32946.0 881.138  11
  -1  -1   1 34728.8 861.908   9
  -1  -1   1 33062.4 852.431   7
   1   1  -1 32898.3 870.865   4
   1   1   0 4042.96 192.719   4
  -1  -1   0 3976.79 188.020   9
  -1  -1   0 3741.86 153.728   7
   1   1   1 82.7687 16.5957   6
   1   1   1 45.1305 20.1417   4
   1   1   1 78.9559 16.5467   2
   1   1   1 64.7468 26.2526  10
  -1  -1  -1 115.577 32.6094   9
   1   1   1 79.6175 16.8409   7
  -1  -1  -2 89397.2 2272.57   5
   1   1   2 87255.5 2165.08  10
   1   1   2 81611.6 2117.24   8
   1   1   2 87707.5 2105.29   2
  -1  -1  -2 90682.9 2176.54   9
   1   1   3 3853.83 217.787   2
   1   1   3 3853.31 230.330   9
   1   1   3 4017.77 215.676   8
  -1  -1  -3 3523.78 210.605   8
   1   1   3 3777.44 217.104  11
  -1  -1  -3 3803.65 234.488   9
  -1  -1  -3 3555.82 269.653   5
   1   1   4 16330.5 595.971   2
  -1  -1  -4 16466.7 577.919   8
  -1  -1  -4 16475.7 621.174  10
  -1  -1  -4 16290.0 702.905   5
  -1  -1  -4 15414.6 583.396   9
   1   1   4 16235.9 561.441   8
  -1  -1  -4 15770.7 439.530   1
   1   1   4 15454.8 566.810  11
   1   1   4 15881.6 594.482   9
  -1  -1  -5 9699.76 555.018   5
   1   1   5 9660.31 468.376   2
  -1  -1  -5 9683.00 434.301   8
  -1  -1  -5 9333.90 324.921   1
   1   1   5 9397.71 428.831  11
   1   1   5 9598.79 444.316   9
   1   1   6 6534.41 403.371   2
  -1  -1  -6 6128.69 265.355   1
  -1  -1  -6 6410.74 389.270  10
   1   1   6 5796.69 344.990  11
  -1  -1  -6 5879.65 456.402   5
   1   1   6 6070.36 319.518   7
  -1  -1  -6 5715.18 343.322   8
  -1  -1  -7 404.486 122.555   5
   1   1   7 515.675 91.2668   7
  -1  -1  -7 516.536 85.3842   3
  -1  -1  -7 394.569 89.2026   8
   1   1   7 461.566 97.2476  11
  -1  -1  -7 402.073 102.895  10
  -1  -1  -7 492.045 70.2436   1
   1   1   8 8712.77 449.120   7
   1   1   8 9688.86 512.469  11
  -1  -1  -8 10225.7 402.844   1
  -1  -1  -8 8662.93 381.546   3
   1   1   8 7946.46 464.436   9
  -1  -1  -8 10108.4 692.741   5
  -1  -1  -8 6984.62 444.185   8
  -1  -1  -9 464.970 152.589   5
   1   1   9 180.181 66.8955   9
   1   1   9 36.0351 27.7326   7
   1   1   9 297.542 91.2076  11
  -1  -1  -9 415.643 77.3642   1
   1   1  10 325.545 113.791   6
   1   1  10 300.808 94.5466  11
  -1  -1 -10 359.578 140.202   5
  -1  -1 -11 126.484 78.9513   5
   1   1  11 141.955 78.1583   6
   1   2 -12 980.584 194.534   1
   1   2 -12 1011.68 244.582   5
  -1  -2  12 1006.51 198.751  11
  -1  -2  11 2237.30 286.001  11
   1   2 -11 2339.41 356.149   5
   1   2 -11 2508.55 309.375   1
   1   2 -10 6239.54 559.081   5
  -1  -2  10 6246.85 464.264  11
   1   2 -10 6141.57 479.083   1
  -1  -2   9 40.3162 16.4190   9
  -1  -2   9 153.409 61.0322  11
  -1  -2   9 126.561 26.1492   9
   1   2  -9 147.778 66.0880   1
   1   2  -9 145.148 82.5569   5
  -1  -2   8 9639.93 505.997  11
   1   2  -8 9791.17 496.622  11
   1   2  -8 9415.65 586.269   5
   1   2  -8 8936.84 518.473   1
  -1  -2   8 8603.71 262.046   9
   1   2  -7 112.465 49.5430   7
   1   2  -7 162.961 61.1751  11
  -1  -2   7 137.822 73.1822   5
  -1  -2   7 118.048 53.7191  11
  -1  -2   7 159.925 35.8302   3
  -1  -2   7 141.349 56.6270   7
  -1  -2   7 164.173 31.9096   9
   1   2  -7 122.164 52.1226   5
  -1  -2   6 13434.7 640.636   2
   1   2  -6 15018.8 612.583   7
  -1  -2   6 13884.6 600.303  11
  -1  -2   6 13243.9 419.072   9
  -1  -2   6 12815.6 648.130   5
   1   2  -6 14860.0 673.516   5
  -1  -2   6 14024.3 601.089   7
   1   2  -6 14480.5 603.455  11
  -1  -2   6 14120.4 452.169   3
   1   2  -5 52265.6 1481.16   7
   1   2  -5 51265.4 1492.22  11
  -1  -2   5 52671.2 1338.32   3
  -1  -2   5 52649.9 1294.00   9
  -1  -2   5 50554.6 1512.10   2
  -1  -2   5 54245.5 1498.52  11
   1   2  -5 54894.0 1561.03   5
  -1  -2   5 55154.8 1502.80   7
  -1  -2   4 23526.6 629.158   9
  -1  -2   4 22138.4 759.589   2
  -1  -2   4 22615.9 749.492   7
  -1  -2   4 22379.4 753.763  11
   1   2  -4 21987.4 775.573   5
   1   2  -4 21461.5 745.325  11
   1   2  -3 9929.15 406.438   4
  -1  -2   3 9461.09 392.258   2
  -1  -2   3 10553.0 415.097   7
  -1  -2   3 9737.42 339.365   9
   1   2  -3 9505.86 411.195  11
   1   2  -3 9686.84 337.621   9
  -1  -2   3 9953.75 417.909  11
   1   2  -3 9967.31 416.378   5
  -1  -2   2 40050.1 1110.37   7
   1   2  -2 41277.5 1061.35   2
  -1  -2   2 41965.9 1077.19   9
  -1  -2   2 41668.9 1144.09  11
   1   2  -2 43194.8 1106.81   4
  -1  -2   2 39810.5 1064.43   2
   1   2  -2 40783.1 1066.14   9
   1   2  -1 44055.7 1164.04   4
   1   2  -1 44679.6 1077.25   2
  -1  -2   1 43978.8 1085.51   2
  -1  -2   1 43202.9 1167.20   7
   1   2  -1 45194.4 1172.18   9
  -1  -2   1 48012.3 1194.88   9
  -1  -2   0 4208.18 211.277   7
   1   2   0 4262.36 226.580   4
  -1  -2   0 4257.80 237.666   9
  -1  -2  -1 2100.52 170.805   9
   1   2   1 2171.47 142.517   7
   1   2   1 2031.33 169.364   4
   1   2   2 38143.5 1008.71   7
   1   2   2 35905.5 1050.52  10
  -1  -2  -2 36152.1 1091.60   9
   1   2   2 36739.5 873.220   1
  -1  -2  -2 38240.3 1154.37   5
  -1  -2  -3 4392.26 282.619   9
   1   2   3 3851.81 253.348  10
   1   2   3 4058.56 230.493   8
  -1  -2  -3 4647.57 326.169   5
   1   2   4 6884.86 369.244  11
   1   2   4 7040.51 459.271   5
  -1  -2  -4 5982.35 367.169   9
   1   2   4 6381.93 313.313   8
  -1  -2  -4 6262.28 421.130   5
   1   2   5 619.722 93.0837   8
   1   2   5 789.085 119.594   2
  -1  -2  -5 616.024 47.8092   1
  -1  -2  -5 651.197 141.494   4
  -1  -2  -5 746.025 147.376   5
   1   2   5 659.657 115.692  11
   1   2   5 835.264 164.509   5
   1   2   5 675.257 124.139   9
   1   2   6 1570.98 194.270   9
   1   2   6 1553.43 191.612  11
  -1  -2  -6 1543.06 89.6250   1
  -1  -2  -6 1673.91 240.194   5
   1   2   6 1678.23 193.279   2
  -1  -2  -7 7323.59 563.077   5
   1   2   7 7923.14 461.199  11
   1   2   7 4811.65 383.779   9
  -1  -2  -7 6776.12 242.783   1
   1   2   8 1760.68 220.216  11
   1   2   8 1389.87 173.512   7
  -1  -2  -8 1234.26 91.8766   1
  -1  -2  -8 1593.23 269.598   5
  -1  -2  -9 3937.36 460.400   5
   1   2   9 4222.50 370.781  11
   1   2  10 2433.16 297.994  11
  -1  -2 -10 2254.30 368.359   5
   1   2  10 2100.98 292.052   6
   1   3 -12 253.501 110.066   1
  -1  -3  12 190.542 89.8889   6
   1   3 -12 26.6774 21.9242   5
  -1  -3  12 206.008 85.8848  11
   1   3 -11 150.395 89.1102   1
  -1  -3  11 101.171 53.1092  11
   1   3 -11-8.59444 20.5521   5
  -1  -3  10 58.1103 58.3166  11
   1   3 -10-43.1769 60.1197   5
   1   3 -10-32.7537 46.8833   1
  -1  -3   9 151.595 45.5046   3
   1   3  -9 302.049 102.148   5
  -1  -3   9 303.571 97.8290  11
   1   3  -8 10010.1 550.278  11
   1   3  -8 9018.72 600.885   5
  -1  -3   8 10136.2 417.757   3
   1   3  -8 10312.3 565.915   7
  -1  -3   8 10164.5 565.998  11
   1   3  -7 600.057 119.522  11
   1   3  -7 650.867 139.654   5
  -1  -3   7 586.436 117.065  11
  -1  -3   7 821.740 103.192   3
   1   3  -7 619.616 120.175   7
  -1  -3   7 287.960 38.2856   9
  -1  -3   6 9.70504 21.3917   5
  -1  -3   6 31.9859 32.6729   2
   1   3  -6-4.25386 15.1207  11
   1   3  -6 66.3386 39.6876   7
  -1  -3   6-11.5829 21.6400   7
   1   3  -6 18.4883 32.3795   5
  -1  -3   6 8.02340 31.1180  11
  -1  -3   6-0.36629 10.1405   3
  -1  -3   6 2.60886 0.89446   9
   1   3  -5 1003.29 144.506   5
   1   3  -5 1010.67 138.447   7
  -1  -3   5 1032.40 141.605   7
  -1  -3   5 1113.59 122.185   3
  -1  -3   5 1080.03 142.034  11
  -1  -3   5 1074.33 149.887   2
  -1  -3   5 1033.05 90.8728   9
   1   3  -5 1099.49 147.692  11
   1   3  -4 107806. 2506.47   9
   1   3  -4 107813. 2641.42   2
  -1  -3   4 109776. 2690.64  11
  -1  -3   4 101316. 2506.68   9
   1   3  -4 104588. 2647.96   4
  -1  -3   4 105598. 2675.68   7
   1   3  -4 101893. 2673.83  11
   1   3  -4 102111. 2679.05   5
  -1  -3   4 109487. 2689.56   5
  -1  -3   4 103840. 2668.68   2
  -1  -3   3 1419.76 140.014   2
   1   3  -3 1466.74 137.432   2
   1   3  -3 1445.19 155.981  11
   1   3  -3 1442.96 123.188   9
  -1  -3   3 1459.70 156.822  11
  -1  -3   3 1529.48 152.297   5
  -1  -3   3 1576.51 158.863   7
  -1  -3   3 1466.91 126.298   9
   1   3  -3 1482.58 141.649   4
  -1  -3   2 17445.4 579.811   4
  -1  -3   2 17855.8 601.994   9
  -1  -3   2 18683.5 540.733   6
   1   3  -2 17080.6 587.067   9
  -1  -3   2 17306.0 628.752   7
  -1  -3   2 18057.9 607.476   5
  -1  -3   2 17087.0 567.696   2
   1   3  -2 17630.9 590.824   4
   1   3  -2 17427.5 558.879   2
  -1  -3   1 4784.87 246.796   4
   1   3  -1 5043.31 261.648   4
   1   3  -1 4887.02 209.432   2
   1   3  -1 5026.48 278.322   9
  -1  -3   1 4030.29 171.285   6
  -1  -3   1 4997.71 276.766   7
  -1  -3   1 5347.49 287.939   9
  -1  -3   0 24993.9 770.049   4
   1   3   0 24662.1 784.899   4
  -1  -3   0 25410.7 828.737   9
  -1  -3   0 22984.9 771.812   7
  -1  -3  -1 1234.07 139.024   4
   1   3   1 1101.00 94.4885   1
   1   3   1 1059.69 134.342   4
  -1  -3  -1 1126.52 142.180   9
   1   3   1 1230.83 127.714   7
  -1  -3  -2-15.5149 23.6426   9
   1   3   2 26.6399 12.6329   7
  -1  -3  -2 39.0637 30.7421   5
   1   3   2 66.4586 21.0682   1
  -1  -3  -2 42.0517 35.8610   4
  -1  -3  -3 22709.8 886.800   5
   1   3   3 23226.4 602.368   1
   1   3   3 21502.3 780.999  10
   1   3   3 21492.6 755.956   7
  -1  -3  -3 21896.9 843.553   9
   1   3   4 3087.81 211.356   8
   1   3   4 2770.15 127.862   1
   1   3   4 3112.17 266.613  11
  -1  -3  -4 3322.58 287.850   9
   1   3   4 2714.63 238.454  10
   1   3   4 2965.62 274.454   9
  -1  -3  -4 3236.37 310.845   4
  -1  -3  -4 2712.92 285.419   5
   1   3   5 964.688 156.741   9
  -1  -3  -5 1082.71 190.112   5
   1   3   5 865.550 144.564  10
   1   3   5 975.389 156.191  11
   1   3   5 1020.16 122.732   8
  -1  -3  -6 31893.8 1314.19   5
   1   3   6 32002.7 1182.53  11
   1   3   6 35249.7 1141.97   2
   1   3   7 3182.27 310.066  11
  -1  -3  -7 2797.90 348.965   5
  -1  -3  -8 921.182 211.472   5
   1   3   8 996.755 181.699  11
  -1  -3  -9 116.254 79.9862   5
   1   3   9 15.1576 11.6524  11
   1   3  10 53.9573 33.1214   6
   1   3  10 76.0290 31.0630  11
  -1  -3 -10 178.649 100.124   5
   1   4 -11 3104.52 414.441   5
  -1  -4  11 3263.29 352.859  11
   1   4 -11 2869.44 372.361   1
  -1  -4  11 2957.44 373.567   6
   1   4 -10 500.337 135.675   7
  -1  -4  10 413.225 145.446   6
  -1  -4  10 435.745 116.533  11
   1   4 -10 429.401 136.015   5
  -1  -4   9 2699.82 317.852   6
  -1  -4   9 2665.00 223.816   3
   1   4  -9 2902.76 315.024   7
  -1  -4   9 3089.71 315.819  11
   1   4  -9 2259.45 314.117   5
  -1  -4   8 1261.22 152.480   3
  -1  -4   8 1084.53 176.949  11
  -1  -4   8 1148.81 190.987   6
   1   4  -8 1013.10 184.410   5
   1   4  -8 1284.35 195.205   7
   1   4  -7 952.697 166.675   5
   1   4  -7 1063.99 165.081  11
   1   4  -7 1260.08 183.210   7
  -1  -4   7 1019.85 165.924   6
  -1  -4   7 966.091 130.202   3
  -1  -4   7 1144.28 174.367  11
   1   4  -6 2264.19 233.900   4
   1   4  -6 2123.30 231.061   7
  -1  -4   6 2150.33 227.254   6
  -1  -4   6 2319.58 148.233   9
  -1  -4   6 2384.03 257.926   2
  -1  -4   6 2463.67 217.820   3
   1   4  -6 1907.04 227.241   5
  -1  -4   6 2374.49 248.408  11
   1   4  -6 2294.32 239.535  11
  -1  -4   6 1804.12 229.737   5
  -1  -4   5 9.84971 20.0369   2
   1   4  -5 118.180 49.3554   4
   1   4  -5 63.5486 41.7723   7
  -1  -4   5 146.730 53.4741   6
   1   4  -5 146.386 59.9248   2
  -1  -4   5 83.4826 32.6284   9
  -1  -4   5 44.2704 17.9007  11
   1   4  -5 19.7828 14.8712  11
  -1  -4   5 54.7708 30.6174   3
  -1  -4   5 73.1968 33.1582   7
   1   4  -5 63.0054 24.6847   9
   1   4  -4 46760.9 1423.45  11
  -1  -4   4 46136.1 1264.37   9
   1   4  -4 43683.4 1239.09   9
  -1  -4   4 48643.7 1379.51   3
  -1  -4   4 46931.8 1410.41   7
  -1  -4   4 43741.3 1358.10   2
   1   4  -4 46412.0 1329.11   4
  -1  -4   4 46251.3 1367.19   5
   1   4  -3 10676.6 450.950   2
   1   4  -3 11127.8 463.489   4
  -1  -4   3 10334.7 467.622   5
  -1  -4   3 9925.73 421.229   6
  -1  -4   3 10712.9 458.143   9
   1   4  -3 11504.5 552.433  11
   1   4  -3 10327.4 441.591   9
  -1  -4   3 10599.5 469.953   2
  -1  -4   3 10535.8 507.867   7
   1   4  -2 145.579 60.9619  11
  -1  -4   2 180.787 53.6882   7
   1   4  -2 143.041 47.3904   9
  -1  -4   2 158.518 55.1021   9
   1   4  -2 201.909 55.0769   4
   1   4  -2 156.186 44.0689   2
  -1  -4   2 195.025 49.2311   4
  -1  -4   2 144.082 37.0586   6
  -1  -4   1 3595.59 268.200   9
   1   4  -1 3595.22 238.062   4
   1   4  -1 3866.77 273.796   9
  -1  -4   1 3778.02 273.597   7
  -1  -4   1 3753.86 230.559   4
   1   4  -1 3531.30 203.392   2
   1   4   0 4819.99 292.211   4
   1   4   0 4983.99 332.825   9
  -1  -4   0 4176.13 291.842   7
  -1  -4   0 4515.37 275.644   4
  -1  -4   0 4676.95 320.011   9
   1   4   1 15857.7 530.631   1
  -1  -4  -1 16411.8 680.295   9
   1   4   1 13979.1 385.493   6
  -1  -4  -1 17100.2 635.684   4
   1   4   1 16323.4 646.598   4
  -1  -4  -2 4863.09 355.259   5
   1   4   2 5074.85 243.019   1
  -1  -4  -2 4837.21 357.654   9
   1   4   3 15212.3 477.789   1
   1   4   3 15388.3 720.292   9
  -1  -4  -3 13823.5 683.952   9
  -1  -4  -3 14487.3 705.185   5
   1   4   3 13690.2 626.801  10
  -1  -4  -3 14482.8 690.838   4
   1   4   4 7472.99 443.858  10
  -1  -4  -4 8063.78 516.881   5
  -1  -4  -4 6857.84 484.192   4
   1   4   4 7402.59 286.503   1
   1   4   4 7804.75 433.845   7
   1   4   4 7902.74 383.865   8
   1   4   5 1471.45 179.761   7
   1   4   5 1280.81 90.4331   1
  -1  -4  -5 1651.08 242.289   5
   1   4   5 1322.94 187.267  10
   1   4   5 1525.52 217.107  11
   1   4   6 402.357 102.283  11
  -1  -4  -6 329.129 116.013   5
  -1  -4  -7 1078.11 227.638   5
   1   4   7 1256.94 206.593  11
  -1  -4  -8-42.9049 72.1530   5
   1   4   8-6.19124 29.1383  11
   1   4   9 151.393 74.3812  11
  -1  -4  -9 130.763 84.3202   5
  -1  -5  11 188.470 95.8238  11
   1   5 -11 155.314 95.0455   5
   1   5 -11 155.045 92.3758   7
   1   5 -11 96.9914 46.9130   4
  -1  -5  11 57.2848 19.8505   6
  -1  -5  10 1247.56 228.515   6
   1   5 -10 861.207 182.132   7
   1   5 -10 879.712 206.814   4
  -1  -5  10 1190.25 208.384  11
   1   5 -10 609.893 164.119   5
  -1  -5   9 233.714 74.2832   3
   1   5  -9 146.142 77.4445   4
  -1  -5   9 262.265 92.3708   6
  -1  -5   9 47.3476 36.3463  11
   1   5  -9 332.747 108.165   7
   1   5  -9 105.697 60.4173   5
   1   5  -8 1687.84 240.580   7
  -1  -5   8 2238.42 276.370   6
   1   5  -8 1745.13 254.467   5
  -1  -5   8 1811.40 241.662  11
   1   5  -8 1824.39 248.973   4
  -1  -5   8 1877.72 214.418   3
  -1  -5   7 28874.7 1084.23  11
   1   5  -7 25882.6 1066.12   7
  -1  -5   7 26877.2 991.627   3
  -1  -5   7 27717.8 1071.60   6
   1   5  -7 26429.4 1036.08   4
   1   5  -7 25160.1 1075.68   5
  -1  -5   6 6121.01 453.098   5
  -1  -5   6 8472.76 371.495   9
   1   5  -6 8414.24 482.339   4
   1   5  -6 9916.62 381.035   9
   1   5  -6 9118.56 537.691   7
  -1  -5   6 8928.74 505.784   6
  -1  -5   6 8968.82 501.818   3
  -1  -5   5 617.890 126.990   2
  -1  -5   5 516.546 88.5098   9
   1   5  -5 553.749 104.479   4
  -1  -5   5 548.738 105.467   6
   1   5  -5 697.393 129.504   2
  -1  -5   5 509.372 122.116   5
   1   5  -5 635.638 130.698  11
  -1  -5   5 593.338 123.564   3
   1   5  -5 563.581 86.2177   9
   1   5  -5 467.018 115.462   7
   1   5  -4 10097.5 488.417   2
  -1  -5   4 9857.20 530.274   3
   1   5  -4 9806.65 547.928  11
  -1  -5   4 9508.68 447.925   9
   1   5  -4 8955.28 508.421   7
   1   5  -4 9447.72 462.349   4
   1   5  -4 8676.96 425.210   9
  -1  -5   3 1148.87 168.947   7
   1   5  -3 880.283 148.606   7
   1   5  -3 867.903 121.492   4
  -1  -5   3 869.993 127.496   5
   1   5  -3 871.548 151.550  11
  -1  -5   3 986.690 136.524   9
  -1  -5   3 1145.26 124.889   6
   1   5  -3 801.371 122.659   9
  -1  -5   2 63.6692 27.9050   4
  -1  -5   2 7.14834 17.1018   5
   1   5  -2 50.1005 24.7122   4
   1   5  -2 64.7653 26.1649  11
   1   5  -2 21.8111 12.6607   2
  -1  -5   2 48.9751 31.8858   9
   1   5  -2 33.9639 25.0892   9
  -1  -5   2 17.0786 2.74589   6
  -1  -5   2 56.5467 36.9266   7
  -1  -5   1 853.851 113.652   4
  -1  -5   1 1100.65 158.881   7
   1   5  -1 997.979 114.497   2
   1   5  -1 801.866 147.967  11
   1   5  -1 1093.61 159.159   9
  -1  -5   1 956.935 150.992   9
   1   5  -1 964.243 130.581   4
   1   5  -1 1101.50 157.447   7
   1   5   0 85.4259 42.1117   4
   1   5   0 26.2489 19.4400   2
  -1  -5   0 7.69115 11.5402   7
   1   5   0-2.31363 6.25858   7
   1   5   0-11.0495 14.4205   9
   1   5   0 37.0466 21.4906   1
  -1  -5   0 2.07899 14.0190   9
  -1  -5   0 18.4125 22.5153   4
   1   5   1 17980.9 748.004   4
   1   5   1 16953.8 463.927   6
   1   5   1 18785.4 651.551   1
  -1  -5  -1 18804.6 773.357   5
   1   5   1 20397.2 783.469   7
  -1  -5  -1 18293.0 807.680   9
   1   5   2 300.358 62.8496   1
  -1  -5  -2 288.509 92.2440   5
  -1  -5  -2 234.268 78.2875   9
   1   5   2 319.158 83.9296   7
   1   5   2 282.364 37.1788   6
  -1  -5  -2 334.175 87.0967   4
  -1  -5  -3 3220.32 312.715   4
   1   5   3 4436.64 334.221   7
  -1  -5  -3 4067.37 362.284   5
   1   5   3 3960.82 229.891   1
   1   5   4 11.7536 20.9985   7
  -1  -5  -4 7.24818 29.0081   5
   1   5   4-8.91857 11.6360   1
   1   5   4 23.8030 19.0450  10
   1   5   5 1483.08 117.465   1
  -1  -5  -5 1563.40 242.195   5
   1   5   5 1621.60 240.321  11
   1   5   5 1541.05 214.109  10
   1   5   5 1445.82 200.723   7
   1   5   6 2381.51 273.592   7
   1   5   6 2921.74 334.135  11
   1   5   6 2381.51 281.201  10
  -1  -5  -6 2741.23 343.003   5
   1   5   7 4070.45 372.120   7
   1   5   7 5080.23 470.952  11
  -1  -5  -7 5246.80 514.701   5
   1   5   8 978.333 181.760   7
   1   5   8 1383.39 244.360  11
  -1  -5  -8 1212.57 256.273   5
  -1  -5  -8 551.867 119.453   3
   1   5   9 45.3769 61.0350   7
   1   6 -10 893.958 209.932   4
   1   6 -10 975.197 218.195   5
  -1  -6  10 1152.69 229.976   6
   1   6 -10 900.861 199.357   7
  -1  -6   9 265.835 107.867   6
   1   6  -9 223.139 81.3534   7
  -1  -6   9 260.517 84.5684   3
   1   6  -9 334.746 114.716   4
   1   6  -8 2973.81 319.209   4
  -1  -6   8 3110.13 335.888   6
  -1  -6   8 3269.57 323.077   3
   1   6  -8 3631.65 372.294   7
   1   6  -7 0.73798 27.8360   7
   1   6  -7-45.5699 44.3744   4
  -1  -6   7 100.890 61.2253   3
  -1  -6   7-82.3191 54.6992   6
  -1  -6   6 4627.61 388.586   3
   1   6  -6 5969.76 445.358   7
  -1  -6   6 4868.68 366.730   6
  -1  -6   6 2492.04 289.950   5
   1   6  -6 4790.47 381.645   2
   1   6  -6 4559.48 345.769   4
   1   6  -6 4933.85 288.877   9
   1   6  -5 1341.14 157.342   9
  -1  -6   5 1408.08 166.809   9
   1   6  -5 1486.62 199.460   2
  -1  -6   5 1361.30 200.028   5
  -1  -6   5 1599.25 191.681   6
  -1  -6   5 1598.92 220.934   3
   1   6  -5 1405.78 212.891   7
   1   6  -5 1241.28 165.549   4
  -1  -6   4 1886.65 238.118   3
  -1  -6   4 1824.80 188.964   6
  -1  -6   4 1757.72 201.347   5
  -1  -6   4 2104.97 217.083   9
   1   6  -4 1907.43 195.415   4
   1   6  -4 2234.08 227.324   2
   1   6  -4 2037.10 247.777   7
   1   6  -4 1977.93 205.265   9
   1   6  -3 3780.05 337.613   7
   1   6  -3 3066.28 277.252   9
  -1  -6   3 3670.93 304.484   9
   1   6  -3 3185.60 252.611   4
  -1  -6   3 3595.60 334.675   3
   1   6  -2 2025.30 241.814   7
   1   6  -2 1951.16 226.912   9
  -1  -6   2 2187.67 238.876   9
  -1  -6   2 1849.25 174.405   4
   1   6  -2 1495.23 170.101   4
  -1  -6   1 5849.78 420.372   9
   1   6  -1 4982.71 331.554   4
   1   6  -1 6659.89 441.269   7
   1   6  -1 6139.25 328.213   2
  -1  -6   1 4662.45 304.720   4
   1   6   0 1351.81 191.690   7
   1   6   0 1258.63 161.108   1
  -1  -6   0 1289.88 198.142   9
   1   6   0 1135.50 131.265   2
   1   6   0 1204.80 165.110   4
   1   6   1 1932.62 230.652   7
   1   6   1 1666.94 176.128   1
  -1  -6  -1 1891.16 226.620   5
  -1  -6  -1 1736.92 243.488   9
  -1  -6  -2 338.874 91.2560   4
  -1  -6  -2 432.348 119.979   5
   1   6   2 196.706 27.4450   6
   1   6   2 379.521 80.9514   1
   1   6   2 335.965 97.3938   7
   1   6   3 2664.25 284.843   7
   1   6   3 1893.52 115.781   6
   1   6   3 2511.59 199.890   1
  -1  -6  -3 2558.19 295.498   5
   1   6   4 1078.38 184.926   7
  -1  -6  -4 1165.19 202.903   5
   1   6   4 1293.16 134.812   1
   1   6   4 1177.97 191.143  10
   1   6   5 746.483 158.087   7
   1   6   5 1199.98 225.625  11
   1   6   5 852.850 162.839  10
  -1  -6  -5 1166.42 224.348   5
   1   6   5 967.239 139.040   8
   1   6   6 1422.01 250.115  11
  -1  -6  -6 1119.50 227.702   5
   1   6   6 1245.35 213.020  10
   1   6   6 1049.99 139.028   8
   1   6   6 1010.10 185.342   7
   1   6   7 108.714 49.4942   7
   1   6   7 132.958 71.7818  11
  -1  -6  -7 33.5143 24.9594   5
  -1  -6  -7 71.8519 48.2950   3
   1   6   8 249.166 89.1488   7
   1   7  -9 2018.88 304.423   7
   1   7  -9 1671.90 246.149   4
  -1  -7   9 2056.38 279.574   3
  -1  -7   9 1305.32 238.047   6
   1   7  -8 2038.50 298.363   7
  -1  -7   8 1956.65 267.114   6
  -1  -7   8 1967.31 273.297   3
   1   7  -8 1736.71 239.594   4
  -1  -7   7 5135.47 422.250   6
  -1  -7   7 5080.27 449.711   3
   1   7  -7 4583.52 375.388   4
   1   7  -7 5565.53 484.110   7
   1   7  -6 74.5351 46.7043   7
  -1  -7   6 82.1432 32.6052   3
   1   7  -6 160.238 86.3670   2
   1   7  -6 113.343 66.4454   4
  -1  -7   6 53.3808 30.9695   6
  -1  -7   5 106.523 28.1602   5
   1   7  -5 171.443 57.3753   4
   1   7  -5 158.411 74.3323   7
  -1  -7   5 216.629 94.5471   3
   1   7  -5 116.204 48.0213   2
  -1  -7   5 187.172 59.6541   6
   1   7  -5 206.742 67.1194   9
   1   7  -4 5074.18 340.750   4
  -1  -7   4 6394.64 377.273   6
   1   7  -4 6113.60 407.917   2
   1   7  -4 6560.21 485.061   7
  -1  -7   4 6114.56 488.302   3
  -1  -7   4 3986.35 335.808   5
  -1  -7   3 92.5540 50.4864   5
   1   7  -3 103.130 44.8769   2
   1   7  -3 110.584 63.8888   7
  -1  -7   3 138.883 69.6909   3
   1   7  -3 103.972 42.7633   4
   1   7  -2 726.968 120.292   4
   1   7  -2 897.343 170.309   7
  -1  -7   2 694.190 111.069   4
  -1  -7   2 936.071 181.867   3
   1   7  -2 912.342 139.173   2
   1   7  -1 4262.92 378.165   7
   1   7  -1 3177.07 273.679   4
  -1  -7   1 4074.03 387.074   3
   1   7   0 991.589 183.751   7
  -1  -7   0 720.940 162.538   3
  -1  -7   0 563.677 124.372   5
  -1  -7  -1 4291.33 339.503   4
  -1  -7  -1 4965.85 404.822   5
   1   7   1 5019.96 307.149   2
   1   7   1 5726.37 445.933   7
  -1  -7  -2 551.473 120.528   4
   1   7   2 1023.15 144.266   1
   1   7   2 924.968 174.498   7
  -1  -7  -2 1080.79 194.068   5
  -1  -7  -3 1166.36 201.968   5
   1   7   3 1190.90 198.858   7
  -1  -7  -4 542.624 143.675   5
   1   7   4 363.859 110.081   7
   1   7   4 331.895 102.073  10
  -1  -7  -4 501.626 132.151   3
   1   7   5 115.463 65.8801   7
  -1  -7  -5 108.597 68.2726   5
  -1  -7  -5 131.357 72.9055   3
   1   7   5 151.346 71.9750  10
   1   7   5 100.270 62.1913  11
  -1  -7  -6 16.0574 16.9333   5
   1   7   6 56.8199 49.1862   7
   1   7   6 77.2253 69.8263  10
   1   7   6 8.70875 41.0669  11
  -1  -7  -6 6.14809 51.0574   3
   1   8  -8 990.108 216.561   7
  -1  -8   8 562.739 147.196   6
  -1  -8   8 747.422 190.881   3
  -1  -8   7 251.432 95.7787   6
   1   8  -7 568.000 162.886   7
  -1  -8   7 405.068 134.018   3
   1   8  -6 282.091 102.812   2
   1   8  -6 342.569 125.762   7
  -1  -8   6 438.204 108.767   6
  -1  -8   6 261.713 98.1892   3
   1   8  -5 671.649 140.288   2
  -1  -8   5 565.446 120.142   6
   1   8  -5 496.570 142.189   7
  -1  -8   5 619.567 161.847   3
   1   8  -4 84.9705 51.9911   7
   1   8  -4 237.249 77.8577   2
  -1  -8   4 244.585 94.9585   3
   1   8  -3 78.3605 52.2183   2
   1   8  -3 116.351 71.0824   7
  -1  -8   3 101.776 56.2125   3
   1   8  -3 113.604 60.0696   4
   1   8  -2 57.3794 49.4253   4
   1   8  -2 12.7356 19.6567   7
   1   8  -2-20.7978 15.7451   2
  -1  -8   2-42.9842 66.1907   3
   1   8  -1 333.961 110.931   7
  -1  -8   1 262.610 98.0135   3
   1   8  -1 326.482 85.4229   2
   1   8   0 84.8831 26.6812   7
  -1  -8   0 101.155 51.5439   5
  -1  -8   0 211.260 101.663   3
   1   8   1 21.7693 47.7621   7
  -1  -8  -1 3.36665 13.0986   5
  -1  -8  -1 2.73669 8.69470   3
  -1  -8  -2-14.5166 62.3326   3
   1   8   2-7.72616 50.4290   7
  -1  -8  -2 4.31199 22.0149   5
  -1  -8  -3 470.212 134.069   5
   1   8   3 252.168 110.420   7
  -1  -8  -3 204.149 94.2265   3
   1   8   4 65.5697 62.4541   7
  -1  -8  -4 69.8165 73.3334   3
   1   8   4 127.214 62.4224  10
  -1  -8  -4 173.694 96.7847   5
   1   8   5 181.156 62.0275   7
   1   8   5 626.385 163.881  10
  -1  -8  -5 439.729 123.335   3
   1   8   5 719.612 203.777  11
  -1  -9   6 241.407 116.176   3
   1   9  -6 180.378 88.1403   2
   1   9  -6 310.568 125.887   7
   1   9  -5 39.4388 59.2651   7
   1   9  -5-34.2267 33.5388   2
   1   9  -4 2116.02 313.777   7
   1   9  -4 1897.58 248.232   2
  -1  -9   4 2243.13 342.343   3
   1   9  -3 388.714 132.668   7
  -1  -9   3 411.454 144.400   3
   1   9  -3 464.851 119.952   2
  -1  -9   2 89.4665 54.9282   3
   1   9  -2 47.7052 51.6767   7
   1   9  -1-48.9691 49.6503   7
  -1  -9   1-48.0507 75.1425   3
   1   9   0 22.2837 69.8073   7
  -1  -9   0 1.77511 54.9704   3
   1   9   1 369.428 136.402   7
  -1  -9  -1 102.119 64.9816   3
  -1  -9  -2 980.406 227.433   3
   1   9   2 346.509 133.097   7
  -2   9   4 13.7495 62.9205   7
   2  -9  -4 17.9120 51.5511   3
  -2   9   4-36.2774 17.6324  11
  -2   9   3 10.3385 53.1325  11
   2  -9  -3-5.81943 49.1425   3
  -2   9   3 72.5017 80.1622   7
   2  -9  -2 34.0906 60.4957   3
  -2   9   2 141.011 83.1217  11
  -2   9   2 121.493 77.1434   7
  -2   9   1 108.433 72.6640   7
   2  -9  -1 6.52951 32.0074   3
  -2   9   1 100.410 57.3909  11
   2  -9   0 172.056 102.095   3
  -2   9   0 201.987 88.6984   2
  -2   9   0 202.990 82.4048   7
   2  -9   1 404.353 151.350   3
  -2   9  -1 353.767 127.138   2
  -2   9  -1 479.170 145.186   7
  -2   9  -2-51.9014 21.0270   7
  -2   9  -2-154.241 78.7329   2
   2  -9   2 15.4731 15.9662   3
  -2   9  -3 616.631 159.057   7
  -2   9  -3 512.877 141.845   2
   2  -9   3 737.536 202.572   3
  -2   9  -4 564.031 153.243   7
  -2   9  -4 181.284 122.405   2
   2  -9   4 506.490 161.452   3
   2  -9   5 186.785 108.755   3
  -2   9  -5 232.377 99.1232   7
  -2   9  -5 34.5512 44.2313   2
  -2   8   6 0.35488 34.2449   7
   2  -8  -6 90.1020 78.7454   3
  -2   8   6 81.8574 41.4225  10
  -2   8   5 31.1857 49.4548   7
   2  -8  -5 210.201 98.1399   3
  -2   8   5 325.790 141.388  11
  -2   8   4 266.701 104.541  11
  -2   8   4 205.678 117.868   7
   2  -8  -4 111.473 59.8094   3
   2  -8  -3 262.740 112.221   3
  -2   8   3 229.846 94.9939   7
  -2   8   3 286.527 116.338  11
   2  -8  -2 28.3216 32.1855   3
  -2   8   2-23.8921 38.1582   7
  -2   8   2 20.3246 33.2776  11
   2  -8  -1 392.734 125.766   3
  -2   8   1 356.057 119.765   7
   2  -8   0 95.7993 53.1739   3
  -2   8   0 99.4126 77.9839   7
  -2   8  -1 210.791 90.6242   2
  -2   8  -1 251.394 98.1494   7
   2  -8   1 272.742 116.977   3
  -2   8  -2-37.3192 39.7204   7
   2  -8   2 33.6589 48.4931   3
  -2   8  -2 31.6156 38.7287   2
   2  -8   3 486.948 151.255   3
  -2   8  -3 376.934 115.983   7
  -2   8  -3 242.898 99.6535   2
  -2   8  -4 240.488 95.3057   2
   2  -8   4 263.458 106.048   3
  -2   8  -4 229.949 88.2461   7
  -2   8  -5 2073.36 302.012   2
   2  -8   5 2621.15 356.653   3
  -2   8  -5 2454.14 310.366   7
  -2   8  -6-46.2034 67.8810   2
   2  -8   6 70.3439 16.3923   6
  -2   8  -6 30.4491 21.1280   7
   2  -8   7 813.147 202.074   3
  -2   8  -7 906.358 185.927   7
   2  -8   7 625.129 167.930   6
  -2   8  -7 564.131 167.760   2
  -2   7   8 261.906 117.961  11
   2  -7  -8 270.870 110.055   5
  -2   7   8-11.3045 91.6062   7
   2  -7  -8 77.8333 63.5138   3
  -2   7   7 80.9515 55.4125  10
  -2   7   7 66.7856 18.4810   7
   2  -7  -7 156.663 69.0785   5
   2  -7  -7 6.15129 31.2533   3
  -2   7   7-18.9350 51.0224  11
  -2   7   6 529.113 156.999  11
  -2   7   6 550.129 119.472  10
  -2   7   6 491.227 143.593   7
   2  -7  -6 532.127 137.414   3
   2  -7  -6 564.444 124.044   5
  -2   7   5 71.2667 54.5213   7
   2  -7  -5-12.5818 17.7937   5
   2  -7  -5 31.4602 31.2455   3
  -2   7   5 53.7806 62.5741  11
  -2   7   4 1137.94 210.826   7
   2  -7  -4 1446.81 229.135   3
   2  -7  -4 1525.86 164.820   5
  -2   7   4 1537.31 255.161  11
   2  -7  -3 414.096 67.2406   5
   2  -7  -3 470.205 141.452   3
  -2   7   3 466.389 136.838  11
   2  -7  -3 454.251 82.6402   4
  -2   7   3 326.873 118.288   7
  -2   7   2 2020.76 260.334   7
  -2   7   2 1743.60 249.634  11
   2  -7  -2 1163.17 95.9490   4
  -2   7   2 1424.07 177.586   6
   2  -7  -2 1646.34 241.774   3
   2  -7  -1 1221.20 210.201   3
  -2   7   1 1228.40 204.345   7
  -2   7   1 741.724 132.034   6
  -2   7   0 1340.95 207.576   7
  -2   7   0 1155.87 164.810   6
   2  -7   0 1564.28 235.713   3
  -2   7  -1 986.468 179.704   7
   2  -7   1 898.635 182.702   3
  -2   7  -1 730.736 153.456   2
  -2   7  -2 387.738 120.480   2
  -2   7  -2 418.048 109.534   7
   2  -7   2 388.114 116.800   3
  -2   7  -2 309.285 106.037   9
   2  -7   3 1965.96 282.340   3
  -2   7  -3 1938.47 259.055   2
  -2   7  -3 1774.74 240.440   7
  -2   7  -3 1976.98 221.583   9
  -2   7  -4 29.4800 28.2401   2
  -2   7  -4 51.0004 28.3776   7
  -2   7  -4 4.56008 12.3550  11
   2  -7   4 6.23043 38.4065   3
  -2   7  -5 943.233 172.266   7
  -2   7  -5 771.414 174.735   2
   2  -7   5 806.094 182.646   3
   2  -7   5 728.467 156.411   6
  -2   7  -6 296.444 99.3289   7
  -2   7  -6 177.308 102.222   2
   2  -7   6 497.894 135.484   6
   2  -7   6 257.201 106.837   3
   2  -7   7 223.188 105.717   3
  -2   7  -7 189.456 78.7214   7
  -2   7  -7 60.3629 54.1393   2
   2  -7   7 226.577 107.281   6
   2  -7   8 147.709 88.7957   6
   2  -7   8 77.3413 44.9089   3
  -2   7  -8 190.316 91.1662   2
  -2   7  -8 236.025 100.656   7
  -2   6   9 1332.10 269.699  11
   2  -6  -9 825.672 205.383   5
   2  -6  -8 1152.98 170.551   1
  -2   6   8 1204.93 248.732  11
   2  -6  -8 1029.30 198.348   5
   2  -6  -8 575.640 133.493   3
  -2   6   7-26.4731 35.6139  10
   2  -6  -7-4.14428 20.3543   1
   2  -6  -7-30.2181 44.6053   5
  -2   6   7-5.43115 33.1414  11
   2  -6  -7 55.6023 45.1940   3
  -2   6   6 45.0934 35.7542  11
   2  -6  -6-10.1862 30.1227   1
  -2   6   6 29.1204 27.7157  10
   2  -6  -6 30.3574 24.2973   5
   2  -6  -6 80.2380 43.1584   3
  -2   6   5 23.2511 15.4630  11
   2  -6  -5 15.9306 36.7572   3
   2  -6  -5 41.1126 31.3099   5
   2  -6  -5-27.2956 30.3431   1
   2  -6  -5 25.4553 25.0011   4
  -2   6   4 1921.06 254.300   7
  -2   6   4 1880.78 267.636  11
   2  -6  -4 1952.68 219.055   1
   2  -6  -4 1963.44 187.223   5
   2  -6  -4 1634.54 227.423   3
  -2   6   3 634.608 141.191   7
   2  -6  -3 595.586 94.7991   4
   2  -6  -3 638.641 136.649   3
   2  -6  -3 673.458 89.1834   5
  -2   6   3 541.097 138.369  11
  -2   6   2 2580.49 286.870  11
  -2   6   2 2289.92 265.905   7
   2  -6  -2 2142.38 144.204   4
   2  -6  -2 2229.75 261.499   3
   2  -6  -2 1307.08 105.137   5
   2  -6  -1 11931.7 658.117   3
  -2   6   1 12392.0 564.826   6
  -2   6   1 12337.8 651.656   7
   2  -6   0 1207.58 191.840   3
  -2   6   0 1125.45 155.987   6
  -2   6   0 1105.93 181.976   9
  -2   6   0 1452.43 200.466   7
  -2   6  -1 58.5346 52.8149   9
  -2   6  -1 28.7632 3.83296   7
  -2   6  -1 24.9344 19.8964   6
   2  -6   1 27.6768 46.8590   3
   2  -6   2 1555.46 225.438   3
  -2   6  -2 1667.53 195.534   9
  -2   6  -2 1678.71 200.165   6
  -2   6  -2 1656.91 224.149   2
  -2   6  -2 1597.80 211.061   7
  -2   6  -3 1904.35 226.764   7
  -2   6  -3 1587.14 198.085  11
   2  -6   3 1441.94 124.729   5
  -2   6  -3 1779.85 184.142   9
   2  -6   3 1705.95 239.118   3
  -2   6  -3 1738.38 232.353   2
  -2   6  -4 18.4480 8.48229   4
  -2   6  -4-7.20305 12.1205   7
  -2   6  -4 23.7261 51.8669   2
  -2   6  -4-0.35508 5.03612   4
   2  -6   4 35.6275 20.1636   6
  -2   6  -4-16.2804 22.3937  11
   2  -6   4 28.1691 6.60760   5
   2  -6   4 68.3451 43.2984   3
  -2   6  -4 14.6296 15.4430   9
  -2   6  -5 8569.18 581.005   2
  -2   6  -5 7935.95 497.257   7
   2  -6   5 8887.02 555.463   6
  -2   6  -5 7996.25 440.167  11
  -2   6  -5 7718.83 400.325   4
  -2   6  -5 7184.14 404.750   5
  -2   6  -5 7057.02 310.843   9
   2  -6   5 7398.90 537.685   3
  -2   6  -6 800.079 158.619   7
  -2   6  -6 1020.61 195.960   2
   2  -6   6 1024.69 193.003   6
  -2   6  -6 901.434 152.634   5
   2  -6   6 297.827 93.5048   5
   2  -6   6 935.993 180.417   3
  -2   6  -7 1238.28 195.694   7
  -2   6  -7 1584.04 260.579   2
   2  -6   7 1215.68 223.777   6
   2  -6   7 1246.89 215.662   3
  -2   6  -7 893.318 164.359   5
  -2   6  -8 1032.98 180.571   7
  -2   6  -8 1098.20 223.638   2
   2  -6   8 1073.50 220.383   6
   2  -6   8 938.748 188.938   3
  -2   6  -8 495.497 135.337   5
   2  -6   9 599.803 167.215   6
  -2   6  -9 772.963 198.172   2
  -2   6  -9 534.768 137.282   7
  -2   6  -9 205.101 88.8264   5
   2  -6   9 668.154 166.330   3
  -2   5  10 245.005 108.057  11
   2  -5 -10 180.616 109.450   5
  -2   5   9 1408.47 257.955  11
   2  -5  -9 1161.90 165.704   1
   2  -5  -9 1120.16 225.616   5
  -2   5   8 855.713 191.213  11
   2  -5  -8 811.067 140.019   3
   2  -5  -8 1108.75 210.855   5
   2  -5  -8 1267.72 171.324   1
   2  -5  -7 6949.75 414.710   1
  -2   5   7 6186.08 515.116  11
  -2   5   7 6380.83 417.335   1
   2  -5  -7 6014.69 413.195   3
   2  -5  -7 6700.23 485.840   5
  -2   5   7 5938.27 362.107  10
  -2   5   6-8.27652 49.3306   5
  -2   5   6-32.8381 33.5043  10
  -2   5   6 71.4515 43.4666  11
   2  -5  -6-1.53611 12.0684   5
   2  -5  -6 7.42325 22.5969   3
  -2   5   6-9.54971 30.2012   1
   2  -5  -6 50.6049 35.7462   1
   2  -5  -5 76.8668 37.2643   1
   2  -5  -5 147.258 57.9104   5
  -2   5   5 165.854 61.7307   5
  -2   5   5 124.377 51.6931   1
   2  -5  -5 78.1067 40.3489   3
  -2   5   5 220.718 84.7269  11
   2  -5  -4 2936.61 252.664   1
  -2   5   4 2462.44 232.928   5
   2  -5  -4 2840.15 226.246   5
   2  -5  -4 2721.09 264.693   3
  -2   5   4 2728.52 295.888  11
  -2   5   4 2945.77 252.910   1
   2  -5  -3 642.949 114.317   1
   2  -5  -3 795.972 99.2568   5
  -2   5   3 722.286 117.562   1
   2  -5  -3 743.068 133.179   3
  -2   5   3 813.459 154.392  11
   2  -5  -3 621.779 101.555   4
   2  -5  -2 400.425 61.2457   4
   2  -5  -2 352.867 98.2022   3
  -2   5   2 304.568 86.6288   7
  -2   5   2 384.954 109.306   9
   2  -5  -2 318.312 85.8398   1
   2  -5  -2 374.842 52.1569   5
  -2   5   2 311.014 85.2742  11
  -2   5   2 445.090 93.3663   1
  -2   5   1 1180.55 167.663   7
  -2   5   1 953.203 132.053   6
   2  -5  -1 1285.88 179.817   3
  -2   5   1 1295.15 178.216   9
  -2   5   1 1108.88 153.054   1
  -2   5   0 33759.2 1130.29   7
   2  -5   0 32003.2 1156.43   3
  -2   5   0 31580.9 1073.19   6
  -2   5   0 35559.6 1142.35   9
  -2   5   0 33623.8 1101.20   1
  -2   5  -1 1091.59 153.469   7
  -2   5  -1 1036.01 152.971   1
  -2   5  -1 1172.73 153.942   6
   2  -5   1 1031.47 165.754   3
  -2   5  -1 1246.12 160.643   9
  -2   5  -1 1262.43 179.979   3
  -2   5  -2 373.260 93.5094   1
  -2   5  -2 359.101 79.6460   9
  -2   5  -2 436.290 96.3859   7
   2  -5   2 460.611 117.659   3
  -2   5  -2 430.231 106.595   3
  -2   5  -2 377.665 87.0629   6
  -2   5  -2 281.791 87.1525   2
  -2   5  -3 9185.40 479.881   7
  -2   5  -3 8687.94 433.957  11
  -2   5  -3 10103.8 539.641   3
  -2   5  -3 8984.23 537.749   2
  -2   5  -3 9047.51 498.570   6
   2  -5   3 9407.77 507.130   6
   2  -5   3 8974.15 533.811   3
   2  -5   3 8025.95 371.659   5
   2  -5   3 8919.63 488.666   7
  -2   5  -3 8066.51 326.365   4
  -2   5  -3 8691.13 402.812   9
  -2   5  -3 10215.5 383.278   5
   2  -5   4 80.4396 35.6732   7
  -2   5  -4 91.0172 40.0854  11
  -2   5  -4 100.986 47.1954   7
  -2   5  -4 113.553 52.8411   2
   2  -5   4 40.0178 34.9266   6
   2  -5   4 60.7078 30.2899   5
   2  -5   4 58.5672 30.6497   3
  -2   5  -4 55.5152 29.6131   5
  -2   5  -4 38.9245 20.9343   9
  -2   5  -4 103.683 41.6627   4
   2  -5   5 711.906 133.446   7
  -2   5  -5 594.331 109.594   5
  -2   5  -5 617.698 117.698   7
  -2   5  -5 750.259 157.540   2
   2  -5   5 799.241 155.519   6
  -2   5  -5 557.842 54.5253   9
  -2   5  -5 589.782 97.6216  11
   2  -5   5 802.932 153.443   3
  -2   5  -5 206.963 36.1508   9
  -2   5  -5 529.211 109.201   4
  -2   5  -6 4688.00 417.543   2
  -2   5  -6 4483.15 273.066  11
   2  -5   6 1678.24 235.484   5
   2  -5   6 4663.44 405.338   6
  -2   5  -6 3882.31 333.796   4
   2  -5   6 4415.58 383.645   3
  -2   5  -6 4619.14 348.665   7
  -2   5  -6 4163.06 343.752   5
  -2   5  -7 947.506 194.754   2
   2  -5   7 863.192 169.687   3
  -2   5  -7 822.662 165.729   5
   2  -5   7 925.280 197.169   6
  -2   5  -7 791.545 146.626   7
  -2   5  -8 3153.91 310.791   7
   2  -5   8 3298.98 377.712   6
   2  -5   8 3190.88 339.811   3
  -2   5  -8 2940.58 365.294   2
  -2   5  -8 2542.10 318.583   5
   2  -5   9 93.0581 57.5225   6
  -2   5  -9 53.5832 63.9994   5
  -2   5  -9 15.3025 19.5110   7
   2  -5  10 112.457 69.9602   6
  -2   5 -10 104.751 66.2897   5
   2  -4 -11 440.210 151.566   5
  -2   4  11 594.873 174.542  11
  -2   4  10 59.2819 31.8094  11
   2  -4 -10 119.642 84.6334   5
  -2   4   9 37.7999 39.1428  11
   2  -4  -9 2.72038 29.2335   1
   2  -4  -9-69.1996 53.1199   5
   2  -4  -8 402.786 93.1025   1
   2  -4  -8 379.956 84.6019   3
   2  -4  -8 399.257 122.852   5
  -2   4   8 469.355 134.819  11
  -2   4   8 406.207 97.8094   1
   2  -4  -7 171.894 57.0113   1
  -2   4   7 143.476 53.9926   1
   2  -4  -7 80.4915 31.8245   5
   2  -4  -7 148.713 54.6757   3
  -2   4   7 187.213 79.3615  11
  -2   4   6 1734.36 193.794   1
   2  -4  -6 1771.94 186.746   1
   2  -4  -6 1565.67 181.453   3
  -2   4   6 1643.20 232.894  11
  -2   4   6 1678.48 155.772  10
  -2   4   6 1554.42 225.560   5
   2  -4  -6 1785.65 217.717   5
  -2   4   5 43.3579 40.4439  11
  -2   4   5 99.6282 43.6103   1
  -2   4   5 92.1017 41.6390   5
   2  -4  -5 104.682 44.8894   1
  -2   4   5 79.6301 33.8649  10
   2  -4  -5 91.8286 48.1849   5
   2  -4  -5 23.3159 8.17230   3
   2  -4  -4 2598.83 216.814   1
   2  -4  -4 2588.10 236.483   3
  -2   4   4 2652.36 266.450  11
   2  -4  -4 2763.19 217.741   5
  -2   4   4 2553.65 221.292   1
  -2   4   4 2610.93 231.518   5
  -2   4   3 2780.79 208.162   5
   2  -4  -3 2978.17 230.472   1
   2  -4  -3 2645.59 236.639   3
  -2   4   3 3038.69 273.130  11
   2  -4  -3 2784.16 189.392   5
  -2   4   3 3111.09 237.119   1
  -2   4   2 4203.73 307.018  11
   2  -4  -2 4186.02 193.880   5
   2  -4  -2 4133.42 274.709   1
  -2   4   2 4247.68 206.374   5
   2  -4  -2 4326.48 307.460   3
  -2   4   2 4157.45 278.413   1
   2  -4  -1 70778.8 1435.28   1
  -2   4   1 69943.5 1475.37  11
   2  -4  -1 67228.7 1506.18   3
   2  -4  -1 65541.6 1070.50   4
  -2   4   1 71621.5 1431.02   1
  -2   4   0 108769. 2761.83   1
  -2   4   0 113310. 2752.51   6
   2  -4   0 105274. 2822.22   3
  -2   4   0 109167. 2777.02   7
  -2   4  -1 53.4071 27.8614   1
  -2   4  -1 64.9071 32.2602   7
  -2   4  -1 21.6126 10.7877   6
   2  -4   1 65.0062 36.1814   3
   2  -4   2 8905.89 431.504   7
  -2   4  -2 8985.44 448.975   1
  -2   4  -2 8656.52 420.111   7
  -2   4  -2 8223.19 295.058   4
  -2   4  -2 8936.72 469.607   3
   2  -4   2 9029.69 482.395   3
  -2   4  -2 8939.43 320.170   5
   2  -4   2 7731.48 321.641   5
  -2   4  -2 8693.81 442.335   6
  -2   4  -3 6731.95 325.021  11
  -2   4  -3 7254.59 381.029   7
   2  -4   3 7416.07 442.040   3
  -2   4  -3 7824.45 436.670   3
  -2   4  -3 7158.02 421.156   6
   2  -4   3 7888.51 439.806   6
  -2   4  -3 7230.09 409.462   1
   2  -4   3 6889.07 351.484   5
   2  -4   3 7316.19 392.617   7
  -2   4  -3 7012.54 327.474   4
  -2   4  -3 7429.04 342.165   5
   2  -4   4 4923.26 315.784   7
   2  -4   4 4330.05 305.266   5
  -2   4  -4 4876.32 253.029  11
  -2   4  -4 4684.09 300.746   4
   2  -4   4 4504.15 343.990   6
  -2   4  -4 4784.77 337.237   3
  -2   4  -4 4851.43 336.431   1
   2  -4   4 4513.83 345.123   3
  -2   4  -4 3425.42 195.523   9
  -2   4  -4 4653.70 296.039   5
  -2   4  -4 5210.69 315.263   7
  -2   4  -4 3698.79 189.652   9
  -2   4  -4 4821.62 370.231   2
  -2   4  -5 2068.87 202.920   7
  -2   4  -5 2141.51 256.366   2
   2  -4   5 2234.76 255.812   6
   2  -4   5 1898.82 227.601   3
  -2   4  -5 2106.36 157.749  11
   2  -4   5 2175.78 211.471   7
  -2   4  -5 2117.87 220.769   3
  -2   4  -5 2072.40 221.988   4
  -2   4  -5 2019.63 213.568   5
  -2   4  -6 3865.87 287.265   7
  -2   4  -6 3384.93 287.489   3
   2  -4   6 3603.27 285.794   7
  -2   4  -6 3607.53 211.202  11
   2  -4   6 3975.04 358.296   6
   2  -4   6 3474.92 319.049   3
  -2   4  -6 3948.66 372.657   2
  -2   4  -6 3570.98 326.538   4
   2  -4   6 2048.59 260.957   5
  -2   4  -6 3618.50 322.176   5
  -2   4  -7 112.373 54.2102   5
  -2   4  -7 351.450 92.2649   7
  -2   4  -7 237.097 93.8815   2
   2  -4   7 215.049 68.7613   7
   2  -4   7 193.002 87.9055   6
   2  -4   7 258.713 87.0682   3
  -2   4  -7 143.859 52.9028   3
  -2   4  -7 238.206 50.1345  11
  -2   4  -8 1437.62 232.774   5
   2  -4   8 1664.06 257.374   6
  -2   4  -8 1647.63 258.248   2
  -2   4  -8 1895.25 218.622   7
   2  -4   9 198.571 97.9017   6
  -2   4  -9 94.5066 26.8885   5
  -2   4 -10 1605.96 290.708   5
   2  -4  10 2435.38 350.455   6
  -2   3  11 202.623 93.5281  11
   2  -3 -11 280.964 126.381   5
  -2   3  10 2348.35 320.012  11
   2  -3 -10 2545.23 254.230   1
   2  -3 -10 2181.11 330.152   5
   2  -3  -9 6662.97 549.977   5
  -2   3   9 7468.47 550.683  11
   2  -3  -9 6944.56 425.347   1
  -2   3   8 1081.07 195.696  11
   2  -3  -8 1058.92 115.467   3
   2  -3  -8 1171.34 215.825   5
   2  -3  -8 1230.70 163.558   1
  -2   3   8 1176.36 170.683   1
   2  -3  -7 6608.52 339.057   3
  -2   3   7 6540.89 471.754  11
  -2   3   7 7012.66 416.205   1
   2  -3  -7 7309.16 494.744   5
   2  -3  -7 7597.24 411.518   1
  -2   3   6 8447.91 444.891   1
  -2   3   6 8830.96 532.128   5
  -2   3   6 8427.15 512.647  11
   2  -3  -6 8438.22 500.362   5
   2  -3  -6 8214.98 395.696   3
   2  -3  -6 8643.05 432.963   1
   2  -3  -5 21.9785 16.8910   5
  -2   3   5 78.5288 37.4589   1
  -2   3   5 37.2490 19.3079  10
  -2   3   5 52.1254 31.9760   5
  -2   3   5 1.69704 14.7367  11
   2  -3  -5 42.1922 22.1801   1
   2  -3  -5 126.322 42.1436   3
   2  -3  -4 12956.8 514.381   1
  -2   3   4 12585.9 542.104   5
   2  -3  -4 12296.3 515.156   3
  -2   3   4 12743.0 533.127   1
   2  -3  -4 11678.8 516.418   5
  -2   3   4 13336.5 598.568  11
  -2   3   3 5340.52 340.976  11
   2  -3  -3 5227.80 266.236   5
  -2   3   3 4632.10 171.555   8
  -2   3   3 5261.57 290.079   3
  -2   3   3 5586.78 304.332   1
   2  -3  -3 5473.86 312.792   3
  -2   3   3 5242.73 278.653   5
   2  -3  -3 5174.04 286.816   1
  -2   3   2 5207.95 227.417   5
  -2   3   2 4942.56 303.162  11
  -2   3   2 5344.04 290.770   1
   2  -3  -2 5125.77 281.322   1
  -2   3   2 4892.21 215.034   8
   2  -3  -2 4694.68 214.236   5
   2  -3  -2 5134.80 307.169   3
   2  -3  -1 47015.7 1346.47   3
  -2   3   1 47820.5 1295.56   1
  -2   3   1 43826.7 1087.86   5
  -2   3   1 46996.8 1299.56  11
  -2   3   1 49466.7 1223.76   8
   2  -3  -1 48327.0 1123.98   4
  -2   3   0 1261.49 132.646   1
  -2   3   0 1351.22 135.310   7
   2  -3   0 1323.67 152.617   3
  -2   3   0 1253.27 130.239  11
  -2   3   0 1381.86 140.676   6
   2  -3   1 4765.29 306.922   3
  -2   3  -1 4517.47 255.500   7
  -2   3  -1 4321.84 180.844   5
  -2   3  -1 4331.74 174.780   4
  -2   3  -1 4615.21 280.074   6
  -2   3  -1 4517.83 267.934   1
  -2   3  -2 2287.02 155.885   4
  -2   3  -2 2591.75 202.273   1
  -2   3  -2 2451.92 164.950   5
  -2   3  -2 2418.04 178.863   7
   2  -3   2 2250.83 215.794   3
  -2   3  -2 2527.60 216.081   3
   2  -3   2 2395.05 170.940   5
   2  -3   2 2454.34 182.934   7
  -2   3  -2 2137.81 194.513   6
  -2   3  -3 8964.57 386.480   7
  -2   3  -3 8590.14 445.757   6
  -2   3  -3 9018.66 448.398   3
  -2   3  -3 8800.42 423.634   1
   2  -3   3 9167.24 468.385   3
   2  -3   3 8040.92 412.069   5
   2  -3   3 8939.08 392.686   7
  -2   3  -3 9300.59 413.149   5
  -2   3  -3 9167.46 461.096   8
  -2   3  -3 9141.27 320.940   9
  -2   3  -3 9184.96 412.537   4
  -2   3  -3 8239.70 309.669  11
  -2   3  -4 760.152 129.693   8
  -2   3  -4 637.649 116.608   4
  -2   3  -4 692.088 111.140   1
  -2   3  -4 750.092 70.6006  11
   2  -3   4 691.637 99.5552   7
  -2   3  -4 671.692 97.4960   7
  -2   3  -4 646.908 56.1363   9
   2  -3   4 647.060 118.310   5
  -2   3  -4 698.300 113.387   3
   2  -3   4 641.920 120.125   3
  -2   3  -4 663.845 111.427   5
   2  -3   5 15.3059 13.0385   7
  -2   3  -5 30.5747 25.8663   7
  -2   3  -5-51.0212 34.2092   5
   2  -3   5 44.1410 37.8097   6
  -2   3  -5 3.96350 9.31613  11
  -2   3  -5-9.75501 16.5094   3
   2  -3   5 12.6634 23.3454   5
  -2   3  -5-5.87944 33.2897   2
  -2   3  -5 0.17348 18.8853   4
   2  -3   5-22.9359 36.4080   3
  -2   3  -6 9390.55 557.631   2
  -2   3  -6 9226.57 331.888  11
   2  -3   6 9445.33 550.231   6
   2  -3   6 5689.50 477.573   5
   2  -3   6 9095.91 520.592   3
  -2   3  -6 9132.07 467.111   3
  -2   3  -6 9288.00 556.935   5
  -2   3  -6 9315.36 566.023   4
   2  -3   6 9769.42 449.466   7
  -2   3  -6 9453.61 443.084   7
   2  -3   7 14347.1 600.083   7
  -2   3  -7 14345.7 604.272   7
  -2   3  -7 15138.1 769.272   2
  -2   3  -7 13278.6 737.804   5
   2  -3   7 15287.3 761.863   6
  -2   3  -7 13566.1 595.216   3
  -2   3  -7 12772.1 453.191  11
   2  -3   8 3858.10 297.638   7
   2  -3   8 4159.52 402.823   6
  -2   3  -8 4182.88 417.495   5
   2  -3   8 3885.44 218.956  11
   2  -3   9 508.704 142.368   6
  -2   3  -9 567.535 162.524   5
  -2   3 -10 77.3759 51.0020   5
   2  -3  10 230.698 109.658   6
   2  -2 -12 511.371 182.665   5
  -2   2  12 644.873 179.650  11
  -2   2  11 1149.49 222.095  11
   2  -2 -11 1085.40 174.486   1
   2  -2 -11 1095.14 242.956   5
   2  -2 -10 97.3213 59.7950   1
   2  -2 -10 18.2084 51.9355   5
  -2   2  10 66.6212 56.3596  11
  -2   2   9 4.90330 29.3261  11
   2  -2  -9 44.6914 52.5131   1
   2  -2  -9 22.8737 21.6544   5
   2  -2  -8 1534.13 185.034   1
  -2   2   8 1400.79 212.111  11
   2  -2  -8 1286.30 220.183   5
  -2   2   8 1188.83 178.118   9
   2  -2  -7 9680.36 474.468   1
   2  -2  -7 7694.68 317.484   3
  -2   2   7 8738.37 525.260  11
  -2   2   7 9335.13 484.686   1
   2  -2  -7 9218.78 560.033   5
   2  -2  -6 17789.8 676.014   1
  -2   2   6 17386.9 688.400   1
   2  -2  -6 16452.8 553.845   3
   2  -2  -6 16711.2 753.954   5
  -2   2   6 18695.4 768.253  11
  -2   2   6 17753.1 784.693   5
   2  -2  -6 18815.5 791.722  11
   2  -2  -5 21246.2 675.452   3
   2  -2  -5 20349.4 795.304   5
  -2   2   5 21791.1 822.980  11
  -2   2   5 21521.3 762.063   1
  -2   2   5 22251.9 833.103   5
   2  -2  -5 23448.2 766.297   1
  -2   2   4 3285.59 254.868  11
  -2   2   4 2923.66 135.819  10
  -2   2   4 3536.04 236.338   1
  -2   2   4 3434.77 245.876   5
   2  -2  -4 3676.19 232.747   1
  -2   2   4 3583.17 197.288   3
   2  -2  -4 3285.26 234.916   5
   2  -2  -4 3488.59 212.583   3
  -2   2   3 5699.44 275.603   3
   2  -2  -3 5627.19 286.959   3
  -2   2   3 5636.79 319.120  11
   2  -2  -3 5964.93 289.592   5
  -2   2   3 5984.10 304.679   1
  -2   2   3 5388.04 280.250   5
   2  -2  -3 5483.92 283.303   1
  -2   2   2 591.179 83.8566   1
  -2   2   2 552.949 84.9296  11
   2  -2  -2 573.891 70.4006   5
  -2   2   2 508.599 64.2634   5
   2  -2  -2 581.841 86.9757   3
  -2   2   2 625.105 58.2944   8
  -2   2   1 6213.82 258.547   8
  -2   2   1 6475.29 294.923   1
   2  -2  -1 6447.53 327.454   3
  -2   2   1 6610.19 231.073   5
  -2   2   1 6289.04 291.170  11
   2  -2  -1 6483.95 240.870   4
  -2   2   0 239849. 5462.19   1
  -2   2   0 220341. 5468.44   6
   2  -2   0 239656. 5550.92   3
   2  -2   0 242395. 5371.81   4
  -2   2   0 238945. 5361.20   4
  -2   2   0 230573. 5401.60  11
  -2   2   0 255168. 5475.82   8
  -2   2  -1 2476.40 169.635   1
  -2   2  -1 2063.14 117.570  11
  -2   2  -1 2361.09 180.047   6
  -2   2  -1 2502.89 150.279   7
   2  -2   1 2411.40 198.130   3
  -2   2  -1 2209.95 152.988   5
  -2   2  -1 2367.04 145.496   4
   2  -2   1 2544.41 157.896   4
  -2   2  -1 2283.29 178.103   8
   2  -2   2 30666.3 829.022   7
  -2   2  -2 30060.4 821.115   7
   2  -2   2 30590.9 917.352   5
  -2   2  -2 30896.3 898.685   5
  -2   2  -2 29026.3 881.615   1
  -2   2  -2 29425.0 925.514   6
   2  -2   2 31457.0 973.127   3
  -2   2  -2 29499.0 893.913   4
  -2   2  -2 29747.2 947.179   3
  -2   2  -2 31060.9 954.021   8
  -2   2  -2 29371.9 813.701   9
   2  -2   3 1192.39 106.767   7
  -2   2  -3 1187.41 104.740   7
  -2   2  -3 1178.24 89.1760   9
   2  -2   3 1330.69 156.751   5
  -2   2  -3 1304.06 148.722   6
  -2   2  -3 1142.24 123.371   1
  -2   2  -3 1344.36 150.491   5
   2  -2   3 1341.68 157.486   3
  -2   2  -3 1196.81 143.142   4
  -2   2  -3 1269.47 144.571   3
  -2   2  -3 1250.92 150.224   8
  -2   2  -4 12601.6 562.946   2
   2  -2   4 12374.8 421.301   7
  -2   2  -4 12429.3 418.747   7
  -2   2  -4 12716.5 574.600   4
  -2   2  -4 12253.9 509.598   3
   2  -2   4 12034.5 540.773   3
  -2   2  -4 11190.7 462.290   1
  -2   2  -4 7828.97 297.269  11
  -2   2  -4 12528.7 563.489   5
   2  -2   4 12975.1 590.171   2
  -2   2  -4 11723.0 348.749   9
  -2   2  -4 12340.4 551.713   8
   2  -2   5 3165.97 201.405   7
  -2   2  -5 2758.22 137.450   9
  -2   2  -5 3161.81 281.039   2
  -2   2  -5 3301.05 296.967   5
  -2   2  -5 3279.47 246.301   3
   2  -2   5 3252.76 309.294   5
   2  -2   5 3252.76 278.372   6
   2  -2   5 2643.34 134.407  11
  -2   2  -5 2824.78 136.605  11
  -2   2  -5 3301.35 203.590   7
  -2   2  -5 3173.24 297.474   4
   2  -2   5 3441.14 304.028   2
  -2   2  -5 2904.81 270.379   8
  -2   2  -6 6742.20 452.600   2
  -2   2  -6 6591.20 367.248   3
   2  -2   6 5639.44 458.999   5
   2  -2   6 6658.38 265.174  11
  -2   2  -6 6556.81 470.067   5
   2  -2   6 6578.61 437.872   6
   2  -2   6 6704.47 334.078   7
  -2   2  -6 5771.78 454.669   4
   2  -2   7 1476.54 156.834   7
  -2   2  -7 1504.37 235.440   5
   2  -2   7 1432.93 208.551   6
  -2   2  -7 1286.78 149.910   3
   2  -2   7 1379.23 119.710  11
   2  -2   8 3094.93 337.078   6
   2  -2   8 3085.67 247.717   7
   2  -2   8 3270.63 209.775  11
  -2   2  -8 3499.72 384.294   5
  -2   2  -8 3027.24 235.122   3
   2  -2   9 435.786 139.514   6
  -2   2  -9 336.815 125.692   5
   2  -2  10 486.814 156.033   6
  -2   2 -10 460.677 120.783   1
  -2   2 -10 282.487 114.997   5
   2  -2  11 3868.23 458.811   6
  -2   2 -11 3591.48 471.788   5
   2  -1 -12 2770.06 419.448   5
  -2   1  12 2478.71 339.874  11
   2  -1 -12 3120.41 323.275   1
   2  -1 -11-45.4017 45.4295   1
   2  -1 -11 12.5017 54.5119   5
  -2   1  11 26.3196 40.6198  11
  -2   1  10 2769.06 322.791  11
   2  -1 -10 2652.06 359.462   5
   2  -1 -10 2742.74 282.889   1
   2  -1  -9 688.228 131.583   1
   2  -1  -9 221.229 53.1975   8
   2  -1  -9 561.361 90.1845  10
  -2   1   9 387.612 103.707   9
   2  -1  -9 605.537 166.988   5
  -2   1   9 547.583 134.783  11
   2  -1  -8 11265.9 652.050   5
  -2   1   8 11018.7 595.944  11
   2  -1  -8 11103.5 539.595   1
   2  -1  -8 10333.1 407.639  10
   2  -1  -7 171.056 43.2926  10
  -2   1   7 204.820 71.1823   7
   2  -1  -7 258.866 81.2603  11
   2  -1  -7 167.337 74.8250   5
  -2   1   7 224.896 84.3818   5
  -2   1   7 252.986 78.9253  11
   2  -1  -7 229.131 64.0477   1
  -2   1   6 86.9140 45.9409   5
  -2   1   6 65.4958 42.0835  11
   2  -1  -6 46.6892 32.6508   5
   2  -1  -6 70.8513 35.9516   1
   2  -1  -6 55.5266 51.1211  11
   2  -1  -6 62.4798 22.1900  10
  -2   1   6 87.2071 46.9901   1
  -2   1   5 1230.06 142.565   1
  -2   1   5 1234.09 154.500  11
   2  -1  -5 1185.28 138.509   1
   2  -1  -5 1117.77 76.0442  10
   2  -1  -5 1213.79 154.080   5
  -2   1   5 1252.67 85.6394   3
  -2   1   5 1172.96 153.672   5
  -2   1   4 5417.51 321.838  11
  -2   1   4 5675.50 303.789   1
  -2   1   4 5391.04 229.079   3
   2  -1  -4 5236.97 243.886   3
   2  -1  -4 5973.87 327.855   5
  -2   1   4 5332.69 314.721   5
   2  -1  -4 5641.16 304.398   1
  -2   1   3 18330.7 606.985   1
  -2   1   3 18543.5 635.945  11
  -2   1   3 18668.8 563.862   3
   2  -1  -3 18363.2 574.173   3
  -2   1   3 15884.4 602.232   5
   2  -1  -3 17359.1 596.615   5
   2  -1  -2 8945.39 342.926   4
  -2   1   2 9083.72 361.440  11
  -2   1   2 8755.11 336.469   5
  -2   1   2 8636.04 349.834   1
   2  -1  -2 8647.67 365.234   3
   2  -1  -2 8243.48 284.933   8
  -2   1   1 7561.41 290.719   4
   2  -1  -1 7940.99 344.505   3
  -2   1   1 7343.98 290.867  11
  -2   1   1 7587.00 284.274   8
   2  -1  -1 7834.93 291.859   4
  -2   1   1 7150.46 296.130   1
   2  -1  -1 7701.73 286.676   8
  -2   1   0 37540.8 983.228   6
   2  -1   0 36909.2 1050.44   3
  -2   1   0 35404.4 957.043   4
   2  -1   0 35859.2 900.171  11
  -2   1   0 35251.1 973.660   8
   2  -1   0 35584.6 961.367   4
  -2   1   0 37201.2 902.188  11
  -2   1   0 35285.1 947.500   1
  -2   1  -1 5225.90 180.849   7
  -2   1  -1 5338.72 270.306   5
  -2   1  -1 5067.04 253.837   6
   2  -1   1 5316.52 291.095   3
  -2   1  -1 5335.42 261.808   4
   2  -1   1 5274.91 264.802   4
  -2   1  -1 5240.88 233.255   9
  -2   1  -1 4822.07 221.165   1
  -2   1  -1 5300.77 269.641   8
  -2   1  -1 4907.44 257.868   2
   2  -1   2 20738.6 530.156   7
  -2   1  -2 19475.9 518.758   7
  -2   1  -2 20879.3 703.668   4
  -2   1  -2 21101.1 599.150   9
  -2   1  -2 20218.7 667.673   6
  -2   1  -2 21243.9 710.312   3
  -2   1  -2 19293.0 668.212   2
  -2   1  -2 19586.8 597.247   1
   2  -1   2 20883.9 597.820   9
  -2   1  -2 21086.6 699.168   8
  -2   1  -2 20135.9 707.091   5
  -2   1  -3 31648.7 873.092   9
   2  -1   3 31384.5 814.670   7
  -2   1  -3 35079.0 821.691   7
  -2   1  -3 31094.6 887.940   1
  -2   1  -3 32619.4 1006.73   2
  -2   1  -3 32302.0 999.247   3
  -2   1  -3 31219.5 1041.12   5
   2  -1   3 32375.9 993.557   6
   2  -1   3 32283.3 874.259   9
   2  -1   3 33458.1 1092.42   5
  -2   1  -3 32758.5 1060.82   4
   2  -1   3 32208.8 1020.50   2
  -2   1  -3 33391.3 1026.80   8
   2  -1   4 2484.71 141.284   7
  -2   1  -4 2523.39 220.032   2
   2  -1   4 2399.60 119.691  11
   2  -1   4 2670.88 160.286   9
   2  -1   4 2526.52 220.766   6
  -2   1  -4 2419.20 169.586   1
  -2   1  -4 2460.71 205.628   3
  -2   1  -4 2368.07 237.521   5
  -2   1  -4 2525.96 159.264   9
  -2   1  -4 2560.73 258.060   4
  -2   1  -4 2748.12 235.966   8
   2  -1   4 2617.72 235.533   2
   2  -1   5 15387.6 507.997   7
  -2   1  -5 16459.4 694.003   8
  -2   1  -5 16207.6 679.257   2
   2  -1   5 15600.1 519.376   9
   2  -1   5 16207.6 488.527  11
   2  -1   5 16045.8 676.807   6
  -2   1  -5 14602.8 602.134   3
   2  -1   5 16065.0 787.274   5
  -2   1  -5 15835.7 749.749   5
  -2   1  -5 16189.6 529.129   9
  -2   1  -5 15573.3 760.893   4
   2  -1   5 16447.4 710.172   2
   2  -1   6 708.942 91.5543   7
  -2   1  -6 564.032 134.390   5
   2  -1   6 708.201 83.7657  11
  -2   1  -6 632.944 102.343   3
   2  -1   6 615.202 122.563   6
   2  -1   6 825.034 93.5712   9
  -2   1  -6 650.551 125.217   8
  -2   1  -7 1018.03 128.994   3
   2  -1   7 934.671 115.245   7
   2  -1   7 928.454 161.020   6
  -2   1  -7 1052.75 195.893   5
   2  -1   7 1014.96 115.832  11
   2  -1   7 933.725 103.403   9
   2  -1   8 15242.1 601.050   7
   2  -1   8 16432.4 823.695   6
   2  -1   8 17101.4 608.878  11
   2  -1   8 13972.4 525.836   9
  -2   1  -8 16320.2 615.361   3
  -2   1  -8 16311.6 909.934   5
   2  -1   9 305.044 116.019   6
   2  -1   9 308.273 72.5925  11
  -2   1  -9 262.912 114.381   5
  -2   1  -9 387.950 91.8269   1
   2  -1  10 1482.76 258.888   6
  -2   1 -10 1370.81 276.278   5
   2  -1  11 785.090 195.946   6
  -2   1 -11 1281.13 285.298   5
  -2   0  12 534.645 155.614  11
   2   0 -12 736.656 157.337   1
   2   0 -12 494.782 174.018   5
   2   0 -11 5299.71 541.074   5
   2   0 -11 5095.41 427.567   1
  -2   0  11 4828.15 446.572  11
   2   0 -10 4275.43 368.163   1
   2   0 -10 4344.84 453.976   5
   2   0 -10 4061.18 287.856  10
  -2   0  10 3497.93 282.631   9
  -2   0  10 4385.91 399.452  11
  -2   0   9 830.667 161.082  11
   2   0  -9 1009.73 166.291   1
   2   0  -9 1067.00 205.665   5
   2   0  -8 1290.31 182.946   1
  -2   0   8 1206.63 184.545  11
   2   0  -8 1408.48 221.949   5
   2   0  -7 3393.15 283.299   1
  -2   0   7 3365.18 326.319   5
  -2   0   7 3103.02 270.355   7
  -2   0   7 3425.29 297.912  11
   2   0  -7 3309.21 320.087   5
   2   0  -7 3471.14 297.095  11
  -2   0   6 17820.7 698.878   7
   2   0  -6 17154.2 697.329   1
   2   0  -6 17781.0 718.026  11
  -2   0   6 17475.3 722.982  11
   2   0  -6 17952.6 759.048   5
   2   0  -5 52801.6 1395.79   5
  -2   0   5 51847.2 1363.78  11
  -2   0   5 50299.2 1316.98   7
   2   0  -5 51254.8 1348.01  11
   2   0  -5 47628.1 1310.18   1
  -2   0   4 25982.1 736.748   3
   2   0  -4 28003.3 893.302   5
  -2   0   4 27309.5 870.834   1
  -2   0   4 29263.2 902.136  11
  -2   0   4 27190.7 856.005   7
  -2   0   3 67558.3 1720.69   7
   2   0  -3 67929.8 1753.74   4
   2   0  -3 69449.5 1757.45   5
  -2   0   3 65989.0 1735.07   1
  -2   0   3 66801.5 1744.87  11
  -2   0   2 7701.40 326.958   1
  -2   0   2 7758.67 309.158   7
   2   0  -2 7698.45 331.365   4
  -2   0   2 7599.60 324.557  11
  -2   0   2 8021.08 321.302   9
   2   0  -1 1669.14 130.414   4
  -2   0   1 1777.55 108.433   7
  -2   0   1 1686.75 122.095   1
  -2   0   1 1761.38 106.335  10
   2   0  -1 1729.21 111.801  10
  -2   0   1 1656.45 120.364  11
  -2   0   1 1935.76 135.359   9
  -2   0   0 30065.5 746.627   7
  -2   0   0 31354.1 824.236   6
   2   0   0 30447.5 800.689  11
  -2   0   0 30840.9 806.960   1
  -2   0   0 31399.8 857.409   9
  -2   0   0 32022.6 812.036  11
   2   0   0 31145.9 885.752   4
   2   0   1 922.169 67.4893   1
  -2   0  -1 966.864 90.3587   6
   2   0   1 924.806 88.5491   6
  -2   0  -1 801.133 95.7356   8
  -2   0  -1 769.649 86.5259   9
  -2   0  -1 928.976 70.3090   1
   2   0   1 966.792 112.935   4
  -2   0  -1 936.161 88.1746   2
   2   0   1 905.449 69.0203  11
  -2   0  -2 135657. 3152.83   2
   2   0   2 133358. 3154.77   6
   2   0   2 134249. 3153.71   9
  -2   0  -2 129612. 3146.63   9
   2   0   2 133651. 3291.44   4
  -2   0  -2 130479. 3298.03   5
  -2   0  -2 134868. 3215.82   8
   2   0   2 132632. 3166.58   2
  -2   0  -2 145376. 3176.48   6
  -2   0  -2 130432. 3030.42   1
  -2   0  -3 4312.10 254.924   2
   2   0   3 4570.23 156.102   7
  -2   0  -3 4239.95 178.464   1
   2   0   3 4900.42 271.815   6
   2   0   3 4494.22 267.992   2
  -2   0  -3 4977.67 337.661   5
   2   0   3 4418.18 244.852   9
   2   0   3 4522.33 205.051  11
  -2   0  -3 4657.47 286.454   8
  -2   0  -3 4642.27 251.358   9
   2   0   4 14615.4 426.953   7
  -2   0  -4 15036.3 579.880   2
   2   0   4 14275.8 472.468  11
  -2   0  -4 14468.5 436.763   1
   2   0   4 14219.7 573.775   6
   2   0   4 14267.2 526.830   9
  -2   0  -4 14505.4 536.668   9
  -2   0  -4 14139.9 579.152   3
  -2   0  -4 14947.6 688.752   5
  -2   0  -4 12771.3 574.925   8
   2   0   4 14181.3 589.171   2
  -2   0  -5 1810.28 198.326   8
   2   0   5 1607.83 120.667   7
   2   0   5 1633.44 180.514   6
  -2   0  -5 1614.63 173.584   3
   2   0   5 1734.03 241.802   5
  -2   0  -5 2090.25 221.820  10
   2   0   5 1614.48 135.063  11
  -2   0  -5 1659.60 225.522   5
  -2   0  -5 1630.08 157.049   9
  -2   0  -5 1792.93 121.400   1
  -2   0  -5 1772.10 240.024   4
   2   0   5 1652.46 153.796   9
   2   0   5 1789.46 199.821   2
   2   0   6 7469.79 322.605   7
  -2   0  -6 7713.51 542.571   5
   2   0   6 8140.33 463.414   6
  -2   0  -6 5706.51 276.701   1
  -2   0  -6 7213.90 396.575   3
   2   0   6 8057.05 359.368  11
  -2   0  -6 7581.05 380.862   9
   2   0   6 7287.28 365.723   9
  -2   0  -6 7724.42 451.315   8
   2   0   6 7905.49 474.729   2
   2   0   7 881.215 109.265   7
  -2   0  -7 995.762 112.629   1
   2   0   7 1101.73 132.245  11
  -2   0  -7 960.446 194.427   5
   2   0   7 959.933 161.593   6
  -2   0  -7 525.906 73.3548   1
  -2   0  -7 843.770 124.744   3
   2   0   8 51.0703 46.9812   6
   2   0   8 82.0357 30.9479   7
   2   0   8 23.1909 22.6302  11
  -2   0  -8 110.547 36.0158   1
  -2   0  -8-20.6684 16.9228   5
   2   0   9 13569.5 772.393   6
   2   0   9 13189.3 598.438  11
  -2   0  -9 13517.4 896.622   5
   2   0  10 189.042 81.1309   6
  -2   0 -10 183.572 107.816   5
  -2  -1  12 335.547 123.605  11
   2   1 -12 286.775 127.815   5
   2   1 -12 369.124 115.864   1
   2   1 -11 40.4861 43.0299   1
   2   1 -11 0.36878 33.3424   5
  -2  -1  11 12.4011 22.5189  11
  -2  -1  10 801.755 122.127   9
   2   1 -10 1308.00 249.230   5
  -2  -1  10 1158.97 200.067  11
  -2  -1  10 935.761 124.803   9
   2   1 -10 906.881 174.366   1
   2   1  -9 44.4965 27.8017   1
   2   1  -9 43.5014 29.4908   5
  -2  -1   9 56.5898 51.2867  11
  -2  -1   8 21004.2 879.413  11
   2   1  -8 20573.1 947.553   5
   2   1  -8 19509.0 838.909  11
   2   1  -8 19460.5 851.070   1
  -2  -1   7 383.169 96.6782  11
   2   1  -7 361.682 103.972   5
  -2  -1   7 352.335 90.0217   2
   2   1  -7 369.792 91.7056  11
   2   1  -7 341.946 95.4043   1
  -2  -1   7 428.915 110.760   5
  -2  -1   7 398.633 94.8595   7
  -2  -1   6 2213.30 213.228   7
  -2  -1   6 1648.04 149.658   9
  -2  -1   6 1948.21 213.398  11
   2   1  -6 1745.13 193.978  11
   2   1  -6 1763.38 200.727   1
   2   1  -6 1785.89 212.081   5
  -2  -1   5 24994.9 785.807   9
  -2  -1   5 28814.1 901.098   7
   2   1  -5 26201.1 909.116   1
  -2  -1   5 28160.1 926.628  11
   2   1  -5 23568.4 907.302   5
   2   1  -5 25906.7 892.989  11
   2   1  -4 3600.02 253.248   4
  -2  -1   4 3499.18 234.858   7
  -2  -1   4 3311.02 206.192   9
  -2  -1   4 3520.92 254.116  11
   2   1  -4 4047.74 270.761   5
  -2  -1   3 67225.3 1789.93   7
  -2  -1   3 72777.1 1773.01   9
  -2  -1   3 70313.2 1840.53  11
   2   1  -3 72782.5 1843.49   4
  -2  -1   2 506.710 70.7992   7
   2   1  -2 506.580 80.1386   4
  -2  -1   2 539.903 81.1170  11
  -2  -1   2 587.114 78.8541   9
   2   1  -1 178.518 47.9678   4
  -2  -1   1 214.789 38.5602   7
  -2  -1   1 397.140 61.1329   9
  -2  -1   1 151.592 42.7756  11
  -2  -1   0 4359.19 178.950   7
   2   1   0 3876.39 170.116   7
  -2  -1   0 4584.05 174.323   6
  -2  -1   0 4566.66 242.613   9
   2   1   0 4381.49 226.772  10
   2   1   0 4180.77 181.582   1
  -2  -1   0 4330.42 191.845   1
   2   1   0 4443.71 255.986   4
   2   1   1 195.163 28.1641   7
   2   1   1 207.873 25.9022   1
  -2  -1  -1 227.599 32.9181   2
  -2  -1  -1 238.202 36.9730   6
   2   1   1 253.685 37.7520   6
   2   1   1 188.403 44.1112  10
   2   1   1 237.483 47.3087  11
  -2  -1  -1 211.489 30.2066   7
  -2  -1  -1 182.078 48.7322   9
   2   1   1 161.340 51.4511   4
   2   1   2 13668.8 395.997   7
  -2  -1  -2 14455.3 545.810   9
   2   1   2 14504.9 539.467   9
   2   1   2 14800.1 474.907   6
   2   1   2 14231.9 611.243   4
   2   1   2 14237.0 553.289  10
   2   1   2 14941.0 474.680   2
  -2  -1  -2 14542.4 627.416   5
   2   1   3 14745.5 517.050   6
  -2  -1  -3 14144.3 560.402   9
   2   1   3 14094.1 550.962   9
  -2  -1  -3 13437.8 650.221   5
   2   1   3 13607.5 542.286   8
   2   1   3 14316.0 514.889   2
   2   1   4 17988.6 641.451  11
   2   1   4 18940.1 671.505   6
  -2  -1  -4 18057.5 813.545   5
  -2  -1  -4 20517.7 754.279  10
  -2  -1  -4 18597.7 700.248   9
   2   1   4 17730.6 685.961   9
   2   1   4 18805.4 676.599   2
  -2  -1  -5-28.3825 44.5383   5
   2   1   5 14.1367 11.5133   7
   2   1   5 16.0732 6.71163   6
   2   1   5 7.10599 20.0476   2
   2   1   5-18.2082 24.0531  11
  -2  -1  -5-6.84613 13.8499  10
  -2  -1  -5-6.91132 26.3706   9
   2   1   6 60071.5 1553.55   7
  -2  -1  -6 61021.7 1401.41   1
  -2  -1  -6 54158.7 1375.72   1
   2   1   6 69810.8 1809.12   6
  -2  -1  -6 57431.0 1750.63   8
   2   1   6 65252.7 1746.67   9
   2   1   6 68296.5 1707.79  11
  -2  -1  -6 66556.2 1766.86   9
  -2  -1  -6 68199.1 2066.37   5
   2   1   6 68495.9 1846.01   2
  -2  -1  -7 557.024 47.5134   1
   2   1   7 682.878 97.4237   7
   2   1   7 564.841 122.414   6
   2   1   7 787.378 120.350  11
  -2  -1  -7 684.702 170.206   5
  -2  -1  -7 575.589 52.3672   1
   2   1   7 529.861 113.973   9
  -2  -1  -7 779.979 126.978   3
   2   1   8 5151.65 302.953   7
  -2  -1  -8 5409.25 523.379   5
   2   1   8 5262.27 355.975  11
   2   1   8 5477.33 423.335   6
   2   1   8 3359.20 302.914   9
   2   1   9 239.618 86.6104  11
   2   1   9 149.236 81.3479   6
  -2  -1  -9 129.922 73.8364   5
   2   1  10-39.6035 54.9373   6
  -2  -1 -10-91.4916 79.4903   5
  -2  -2  12 2145.82 308.728  11
   2   2 -12 1973.77 291.906   1
   2   2 -12 2050.74 352.484   5
   2   2 -11 2789.22 387.929   5
  -2  -2  11 3064.65 353.123  11
   2   2 -11 2792.48 339.867   1
   2   2 -10 3050.89 380.232   5
   2   2 -10 2827.91 327.043   1
  -2  -2  10 3086.82 200.585   9
  -2  -2  10 3489.13 358.273  11
   2   2  -9 1517.94 230.728   1
  -2  -2   9 1530.47 228.659  11
   2   2  -9 1594.82 252.982   5
  -2  -2   9 1599.09 144.448   9
  -2  -2   8 814.041 74.4950   3
   2   2  -8 1027.94 179.079   1
  -2  -2   8 1258.15 192.281  11
  -2  -2   8 1461.17 134.110   9
   2   2  -8 1208.70 203.101   5
  -2  -2   7 240.768 80.7430  11
   2   2  -7 176.475 65.0102   7
   2   2  -7 235.594 79.3899   5
  -2  -2   7 208.070 48.8701   9
   2   2  -7 139.994 54.4651  11
  -2  -2   7 182.539 40.0390   3
   2   2  -7 166.688 56.5708   1
  -2  -2   6 3766.75 292.499   7
   2   2  -6 3102.55 272.859   7
   2   2  -6 3617.69 305.299   5
  -2  -2   6 3530.23 215.432   9
   2   2  -6 3405.98 287.329  11
   2   2  -6 3432.49 297.665   1
  -2  -2   6 3320.25 276.809   2
  -2  -2   6 3717.29 298.883  11
  -2  -2   5 14363.3 593.703   7
   2   2  -5 13264.5 588.055  11
  -2  -2   5 13678.9 575.461   2
  -2  -2   5 13447.0 598.520  11
   2   2  -5 14164.6 623.031   5
  -2  -2   5 13932.0 498.357   9
   2   2  -5 13148.9 596.317   4
  -2  -2   4 17106.0 643.812   7
  -2  -2   4 17768.1 679.365  11
  -2  -2   4 16900.4 615.609   2
  -2  -2   4 17479.1 586.458   9
   2   2  -4 17052.8 576.071   9
   2   2  -4 17822.3 669.588   4
  -2  -2   3 3252.36 220.985   7
  -2  -2   3 3137.31 192.874   2
  -2  -2   3 3419.41 241.646  11
   2   2  -3 3223.93 203.922   9
  -2  -2   3 3195.92 205.712   9
   2   2  -3 3313.02 232.284   4
  -2  -2   2 636.714 86.8958   7
  -2  -2   2 534.911 60.1782   2
   2   2  -2 515.823 86.4880   4
  -2  -2   2 548.276 88.4199  11
   2   2  -2 572.774 85.4032   9
  -2  -2   2 625.053 89.9444   9
  -2  -2   1 35028.3 873.008   2
   2   2  -1 36907.9 1018.67   7
  -2  -2   1 41220.0 1109.90  11
  -2  -2   1 41198.0 1098.50   9
  -2  -2   1 38253.1 1025.94   7
   2   2  -1 39448.0 1103.27   4
  -2  -2   0 603.036 74.7932   7
   2   2   0 581.597 73.3748   7
   2   2   0 610.392 97.5678   4
  -2  -2   0 571.979 90.7566   9
   2   2   1 71435.7 1790.03   7
  -2  -2  -1 75145.2 1956.24   9
  -2  -2  -1 76881.4 1809.65   7
   2   2   1 73335.0 1723.93   1
   2   2   1 73667.2 1920.82  10
   2   2   1 74531.4 1992.44   4
   2   2   2 22120.6 653.704   7
   2   2   2 23084.2 626.598   6
   2   2   2 21908.3 744.121   8
  -2  -2  -2 21779.3 790.651   9
  -2  -2  -2 21403.4 854.590   5
   2   2   2 20981.2 759.047  10
   2   2   2 20974.2 834.435   4
   2   2   2 22263.1 621.247   2
   2   2   3 40022.5 1033.35   7
   2   2   3 36416.7 1026.92   6
  -2  -2  -3 37458.0 1307.35   5
   2   2   3 37165.6 1037.43   2
   2   2   3 37436.1 1179.59  10
  -2  -2  -3 36156.0 1183.24   9
   2   2   4 11803.2 494.500   2
   2   2   4 12228.3 458.230   7
   2   2   4 11757.4 478.989   6
  -2  -2  -4 12798.8 590.763   9
  -2  -2  -4 12221.2 668.115   5
   2   2   4 13026.5 590.297   9
  -2  -2  -4 12963.9 686.124   4
   2   2   5 1557.56 196.068   9
   2   2   5 1644.93 178.810   2
  -2  -2  -5 1668.72 200.067   9
   2   2   5 1703.18 174.594   6
   2   2   5 1690.21 186.166  11
  -2  -2  -5 1557.31 233.976   5
   2   2   6 8862.47 482.927   2
   2   2   6 8929.50 468.669   6
   2   2   6 8675.90 472.802  11
  -2  -2  -6 8578.20 611.918   5
  -2  -2  -6 8155.87 490.719   9
   2   2   6 5862.03 429.865   9
   2   2   6 9373.16 477.864   8
   2   2   7 554.196 88.7546   7
   2   2   7 729.003 134.884   6
   2   2   7 622.899 127.966  11
  -2  -2  -7 478.472 144.446   5
   2   2   8 1475.59 214.539   6
   2   2   8 1733.45 216.396  11
  -2  -2  -8 1759.29 303.710   5
   2   2   9 75.1657 49.3586   6
   2   2   9 38.0882 28.7673  11
  -2  -2  -9 57.9826 75.7268   5
   2   2  10 3488.33 376.518   6
  -2  -2 -10 3470.93 477.823   5
  -2  -3  12 92.4236 60.5535  11
   2   3 -12 251.627 123.175   1
   2   3 -12 318.962 136.691   5
  -2  -3  11 1360.00 229.613  11
   2   3 -11 1090.14 219.093   1
   2   3 -11 1015.10 236.395   5
   2   3 -10 4059.21 412.503   1
   2   3 -10 4086.07 451.261   5
  -2  -3  10 3928.64 395.530  11
  -2  -3   9 12.0558 29.3283  11
   2   3  -9-22.9953 32.7058   1
  -2  -3   9 35.0028 19.0987   9
   2   3  -9-16.0588 40.9375   5
  -2  -3   9-18.9058 22.6539   3
   2   3  -8 23786.4 975.396   7
   2   3  -8 24717.0 1059.41   5
  -2  -3   8 23156.9 714.714   9
   2   3  -8 22577.0 1016.00   1
  -2  -3   8 24835.0 1016.33  11
  -2  -3   8 23550.6 741.734   3
  -2  -3   7 6282.77 297.733   9
   2   3  -7 6001.37 429.972   4
   2   3  -7 6232.89 419.722   7
   2   3  -7 5774.28 414.509  11
  -2  -3   7 5941.94 312.590   3
   2   3  -7 5516.47 428.502   5
  -2  -3   7 6518.28 439.227  11
  -2  -3   6 672.568 135.704   5
   2   3  -6 545.826 123.092   5
   2   3  -6 630.179 129.239   7
  -2  -3   6 602.616 118.179   2
   2   3  -6 558.417 113.651   4
   2   3  -6 595.608 117.790  11
  -2  -3   6 621.050 124.017   7
  -2  -3   6 737.600 133.348  11
  -2  -3   6 794.914 99.1953   9
  -2  -3   5 21027.8 782.562   2
  -2  -3   5 21364.1 810.393   7
   2   3  -5 22240.8 845.221  11
  -2  -3   5 21263.6 834.296   5
  -2  -3   5 21657.4 835.449  11
  -2  -3   5 20520.8 697.958   9
   2   3  -5 21128.5 689.776   9
   2   3  -5 20905.6 808.485   4
  -2  -3   4 171.335 59.3073  11
   2   3  -4 166.953 61.8599   4
  -2  -3   4 175.243 51.2073   2
   2   3  -4 158.145 58.0979  11
  -2  -3   4 112.009 45.4429   7
  -2  -3   4 157.458 47.0545   9
   2   3  -4 135.450 41.1960   9
  -2  -3   3 98.6762 36.9560   7
   2   3  -3 42.2302 25.7923   4
  -2  -3   3 57.8786 20.6553   2
  -2  -3   3 72.1900 34.9588   4
  -2  -3   3 46.8541 27.8759  11
  -2  -3   3 75.3123 38.7971   5
  -2  -3   3 86.7033 37.5773   9
   2   3  -3 103.255 37.2262   9
  -2  -3   2 885.278 115.697   7
  -2  -3   2 852.384 81.5895   2
   2   3  -2 939.849 122.184   9
   2   3  -2 955.703 125.746   4
  -2  -3   2 870.331 120.116   9
  -2  -3   2 828.415 114.479   4
   2   3  -1 1221.91 131.399   7
  -2  -3   1 1031.39 57.7273   6
  -2  -3   1 1363.09 157.843   9
  -2  -3   1 1293.31 137.572   7
   2   3  -1 1339.51 152.303   4
   2   3  -1 1329.50 150.026   9
  -2  -3   1 1336.92 148.919   4
  -2  -3   0 19755.1 684.206   7
   2   3   0 20253.2 674.980   7
  -2  -3   0 20922.2 768.362   9
   2   3   0 19424.9 757.025   4
  -2  -3   0 21094.7 752.925   4
   2   3   1 9026.76 394.176   7
  -2  -3  -1 8714.95 469.090   9
   2   3   1 8882.50 479.497   4
   2   3   2 413.628 103.761   4
   2   3   2 381.148 48.7258   2
  -2  -3  -2 386.126 93.3950   4
   2   3   2 333.154 69.5948   7
   2   3   2 391.066 41.9677   1
   2   3   2 335.288 40.4697   6
   2   3   2 342.272 82.2157  10
  -2  -3  -2 418.603 101.288   5
  -2  -3  -2 346.894 86.5355   9
   2   3   3 22118.0 745.224   7
  -2  -3  -3 23034.2 968.111   5
   2   3   3 22672.0 679.972   2
   2   3   3 21347.8 653.769   6
   2   3   3 22130.8 846.012  10
  -2  -3  -3 22170.8 884.874   9
  -2  -3  -3 24635.6 972.489   4
   2   3   3 23870.4 906.860   9
   2   3   4 6333.39 334.982   7
   2   3   4 5246.95 284.087   6
  -2  -3  -4 5936.39 462.273   5
   2   3   4 5478.44 386.868  10
  -2  -3  -4 5805.41 410.845   9
   2   3   4 6050.63 412.859   9
   2   3   4 5517.90 300.204   2
   2   3   5 16002.9 635.615   2
   2   3   5 16030.9 616.390   6
  -2  -3  -5 15580.7 755.274   9
   2   3   5 16071.0 722.421  11
  -2  -3  -5 15547.2 839.419   5
   2   3   5 16573.3 675.047   8
   2   3   6 19627.5 775.995   2
   2   3   6 18596.3 733.372   6
   2   3   6 19616.9 838.859  11
  -2  -3  -6 18236.5 975.801   5
   2   3   6 17716.5 741.442   8
   2   3   7 6732.32 392.262   7
   2   3   7 5810.36 395.062   6
  -2  -3  -7 5871.39 545.610   5
   2   3   7 5664.93 432.904  11
   2   3   7 6399.90 400.460   8
   2   3   8 2250.52 279.362  11
   2   3   8 2458.20 265.712   6
  -2  -3  -8 2722.17 390.965   5
   2   3   9 76.3711 53.7183   6
   2   3   9 15.7915 26.4138  11
  -2  -3  -9 48.3743 68.6956   5
   2   4 -12 620.967 186.771   5
   2   4 -12 671.376 195.953   1
   2   4 -12 680.068 190.989   4
  -2  -4  12 740.127 188.057   6
  -2  -4  12 732.191 187.530  11
   2   4 -11 5845.40 547.971   4
  -2  -4  11 4880.34 464.179  11
   2   4 -11 4321.95 472.752   1
   2   4 -11 5692.63 555.568   5
   2   4 -10 1691.33 258.618   7
   2   4 -10 1983.48 288.604   4
   2   4 -10 1530.81 263.922   1
  -2  -4  10 1649.14 256.339  11
   2   4 -10 1842.14 295.095   5
   2   4  -9 160.653 71.6460   7
   2   4  -9 56.0786 51.6957   4
  -2  -4   9 157.342 75.7941  11
   2   4  -9 160.776 80.1779   5
  -2  -4   9 154.297 52.8384   3
  -2  -4   9 77.4274 27.2242   9
   2   4  -8 6578.21 471.996   7
  -2  -4   8 6490.02 479.150  11
  -2  -4   8 6118.07 292.976   9
   2   4  -8 5980.53 465.143   4
   2   4  -8 5305.61 466.117   5
  -2  -4   8 6280.81 362.105   3
   2   4  -7 25.8018 4.67012   7
   2   4  -7 46.9788 42.7223   4
  -2  -4   7 143.645 79.6860  11
  -2  -4   7 144.476 42.4415   9
  -2  -4   7 92.1580 47.6226   3
   2   4  -6 3403.06 307.566   7
  -2  -4   6 3415.90 323.298   5
  -2  -4   6 3673.54 241.059   9
   2   4  -6 3159.29 222.968   9
  -2  -4   6 3811.32 339.275  11
  -2  -4   6 3458.66 301.115   2
   2   4  -6 3349.73 306.616   4
  -2  -4   5 1609.98 204.568  11
   2   4  -5 1525.23 195.197   7
   2   4  -5 1370.54 145.721   9
  -2  -4   5 1346.82 166.447   2
   2   4  -5 1433.57 184.428   4
   2   4  -5 1419.54 197.044  11
  -2  -4   5 1605.81 162.111   9
  -2  -4   5 1514.82 192.086   5
  -2  -4   4 20741.2 805.213   7
   2   4  -4 19605.6 709.221   9
  -2  -4   4 20103.2 819.671  11
   2   4  -4 20652.7 839.049  11
  -2  -4   4 17206.3 770.761   5
  -2  -4   4 21583.6 751.049   9
  -2  -4   4 19041.4 714.498   2
   2   4  -4 20400.0 781.124   4
  -2  -4   3 87.7142 31.1201   2
  -2  -4   3 46.2716 19.9974   7
   2   4  -3 75.0790 30.0591   9
  -2  -4   3 25.4548 15.9730   6
   2   4  -3 58.1814 33.3426   4
   2   4  -3 18.0631 18.0390  11
  -2  -4   3 87.6757 37.1905   9
  -2  -4   2 1068.12 147.207   7
   2   4  -2 1355.83 162.771   7
  -2  -4   2 1104.58 153.517   9
  -2  -4   2 781.589 75.5756   6
   2   4  -2 1243.72 154.475   9
   2   4  -2 1298.53 159.120   4
  -2  -4   2 1133.38 141.668   4
  -2  -4   1 29593.7 991.835   7
   2   4  -1 29089.8 755.153   2
   2   4  -1 30541.0 1033.01   9
  -2  -4   1 29692.9 980.398   4
  -2  -4   1 30729.3 1042.73   9
   2   4  -1 29862.7 1010.34   4
  -2  -4   0 8363.95 439.436   7
   2   4   0 8488.36 472.948   4
   2   4   0 9639.77 507.204   9
  -2  -4   0 9840.34 518.299   9
  -2  -4  -1 2915.91 281.213   9
  -2  -4  -1 2724.63 264.508   4
   2   4   1 2924.64 273.570   4
   2   4   2-53.5138 52.5978   4
  -2  -4  -2 49.4787 40.8275   4
   2   4   2 41.8529 14.5941   1
   2   4   2 10.2448 13.5990   2
  -2  -4  -2-31.7537 11.1778   5
  -2  -4  -2-32.0555 32.5433   9
   2   4   2-7.67974 23.1240  10
   2   4   3-31.4379 14.2694  10
  -2  -4  -3-4.78390 2.54061   4
   2   4   3 11.7231 11.4151   2
   2   4   3 7.10045 10.9184   6
   2   4   3 7.16173 3.15816   1
  -2  -4  -3-8.45473 29.2794   9
  -2  -4  -3-32.8129 44.8504   5
   2   4   4 18929.6 740.045   7
   2   4   4 19075.5 642.733   2
   2   4   4 19349.3 754.449   8
   2   4   4 17184.2 589.123   6
  -2  -4  -4 20349.3 952.636   5
  -2  -4  -4 19245.7 881.932   9
   2   4   4 18345.0 818.109  10
   2   4   5 1479.18 160.605   2
   2   4   5 1415.26 145.932   6
   2   4   5 1590.37 187.007   8
   2   4   5 1407.50 211.220  10
  -2  -4  -5 1432.94 243.658   5
  -2  -4  -5 1404.98 222.464   9
   2   4   5 1717.91 191.648   7
   2   4   5 1507.97 216.513  11
   2   4   6 171.072 63.6945   7
  -2  -4  -6 81.5441 68.8751   5
   2   4   6 214.695 64.8627   2
   2   4   6 222.007 66.8992   6
   2   4   6 203.618 79.5652  11
   2   4   6 177.689 58.7857   8
   2   4   7 433.340 100.533   7
   2   4   7 290.887 85.4853   6
   2   4   7 400.960 118.954  11
  -2  -4  -7 443.507 144.165   5
   2   4   7 312.365 88.4766   8
   2   4   8 2935.25 283.713   7
  -2  -4  -8 3302.31 436.844   5
   2   4   8 3140.18 362.135  11
   2   4   9 67.6498 64.8547  11
  -2  -4  -9 51.0574 41.2097   5
   2   5 -11 343.061 136.225   7
   2   5 -11 225.522 97.2068   4
  -2  -5  11 181.024 75.8420   6
   2   5 -11 231.808 113.398   5
   2   5 -11 392.761 148.288   1
  -2  -5  11 295.910 96.4365  11
   2   5 -10 646.015 165.702   7
   2   5 -10 645.507 177.220   4
  -2  -5  10 534.211 144.788   6
  -2  -5  10 522.090 151.476  11
   2   5 -10 621.106 175.711   5
   2   5  -9-51.8411 44.8738   7
   2   5  -9-14.8668 25.0444   4
  -2  -5   9-23.4255 51.9016   6
  -2  -5   9-38.0052 38.4544   3
  -2  -5   9 57.0842 13.8364  11
   2   5  -8 614.636 147.732   7
   2   5  -8 579.370 138.939   4
  -2  -5   8 368.289 107.580   6
  -2  -5   8 671.083 157.161  11
  -2  -5   8 646.612 90.7407   9
  -2  -5   8 588.916 117.936   3
   2   5  -7 3055.65 314.824   7
  -2  -5   7 2271.53 252.149   6
  -2  -5   7 2611.02 297.370  11
  -2  -5   7 2444.87 255.168   3
  -2  -5   7 2685.00 210.938   9
   2   5  -7 2473.40 273.726   4
   2   5  -6 3255.72 319.871   7
  -2  -5   6 3277.10 283.182   6
  -2  -5   6 3561.88 337.779  11
  -2  -5   6 3491.96 301.780   3
  -2  -5   6 3199.72 302.315   2
  -2  -5   6 3552.35 262.422   9
   2   5  -6 3100.82 236.593   9
   2   5  -6 3329.18 308.544   4
   2   5  -5 5413.82 397.841   7
  -2  -5   5 5065.52 325.190   6
  -2  -5   5 5420.08 342.919   9
  -2  -5   5 4081.04 324.443   2
   2   5  -5 4486.69 304.202   9
  -2  -5   5 4288.04 353.798   5
   2   5  -5 4894.25 359.678   4
   2   5  -4 16137.8 732.642   7
  -2  -5   4 16574.0 606.566   6
  -2  -5   4 14278.4 678.734   5
  -2  -5   4 17266.2 698.440   9
   2   5  -4 15160.7 651.457   9
   2   5  -4 16429.2 703.892   4
  -2  -5   3 854.850 143.922   5
   2   5  -3 878.431 142.302   4
  -2  -5   3 997.005 107.126   6
   2   5  -3 1062.23 159.720   7
  -2  -5   3 967.199 154.558   9
   2   5  -3 880.937 136.794   9
  -2  -5   2 692.903 70.4942   6
   2   5  -2 650.298 83.4094   2
   2   5  -2 611.599 115.498   4
  -2  -5   2 685.309 129.222   7
   2   5  -2 565.835 117.588   7
   2   5  -2 652.674 128.312   9
  -2  -5   2 574.934 119.631   9
  -2  -5   1 3568.30 302.717   7
   2   5  -1 3229.11 278.852   7
   2   5  -1 3255.69 170.134   2
  -2  -5   1 3580.84 318.673   9
   2   5  -1 3667.23 315.748   9
   2   5  -1 3247.28 285.010   4
   2   5   0 3315.41 277.375   7
   2   5   0 2595.62 130.963   2
  -2  -5   0 3333.06 288.077   7
  -2  -5   0 3042.58 270.988   4
  -2  -5   0 3156.84 307.485   9
   2   5   0 2937.38 277.288   4
  -2  -5  -1 27288.1 926.002   4
   2   5   1 28076.8 888.892   7
   2   5   1 27428.4 730.141   1
  -2  -5  -1 27271.7 995.724   9
   2   5   1 26376.8 952.612   4
  -2  -5  -2 163.144 76.1087   4
   2   5   2 80.9383 45.7236   7
  -2  -5  -2 207.124 79.3509   9
  -2  -5  -2 218.991 83.0149   5
   2   5   2 126.405 33.1304   1
   2   5   3 18142.3 734.622   7
   2   5   3 14514.3 498.190   2
   2   5   3 15199.0 491.245   1
  -2  -5  -3 15926.9 853.488   5
  -2  -5  -3 15606.5 815.903   9
   2   5   3 15997.3 759.512  10
  -2  -5  -4 121.039 64.7102   9
   2   5   4 36.8028 12.2596   1
   2   5   4 84.5598 25.1459   2
   2   5   4 53.1844 40.9741   7
   2   5   4 122.763 32.5755   6
  -2  -5  -4-10.7985 57.3615   5
   2   5   4 57.2480 32.8785  10
   2   5   4 89.1862 56.7716   8
   2   5   5 612.917 124.661   7
   2   5   5 458.469 74.1273   6
   2   5   5 593.102 144.184  10
   2   5   5 738.515 168.899  11
  -2  -5  -5 653.235 179.805   5
   2   5   5 778.204 134.884   8
   2   5   6 1092.12 201.541  10
  -2  -5  -6 920.044 209.442   5
   2   5   6 1263.55 189.973   7
   2   5   6 1157.50 213.643  11
   2   5   6 1040.01 158.585   8
   2   5   7 371.556 95.6671   7
   2   5   7 557.619 151.176  11
  -2  -5  -7 435.562 153.476   5
   2   5   7 321.608 87.5255   8
   2   5   8 663.236 180.628  11
  -2  -5  -8 808.585 216.670   5
  -2  -6  10 444.835 142.135  11
   2   6 -10 480.414 142.390   7
   2   6 -10 402.095 135.792   4
  -2  -6  10 355.617 119.946   6
   2   6  -9 4362.28 439.993   7
  -2  -6   9 4234.07 363.402   3
  -2  -6   9 3984.30 395.239   6
   2   6  -9 3251.10 371.060   4
   2   6  -8 5049.09 450.576   7
  -2  -6   8 4269.36 373.550   3
  -2  -6   8 4447.21 394.472   6
   2   6  -8 4090.87 384.203   4
  -2  -6   7 599.486 134.849   3
   2   6  -7 583.703 149.691   7
   2   6  -7 389.729 114.279   4
  -2  -6   7 570.911 132.390   6
  -2  -6   7 686.373 115.533   9
   2   6  -6 2952.48 319.043   7
  -2  -6   6 2638.21 256.897   6
   2   6  -6 2715.92 280.633   4
  -2  -6   6 2895.91 304.119   3
  -2  -6   6 3267.60 272.993   9
   2   6  -6 2607.71 237.257   9
   2   6  -5-6.47322 38.7393   7
  -2  -6   5 26.2952 19.6681   3
  -2  -6   5 49.2584 33.5993   6
   2   6  -5 54.3829 48.7628   4
  -2  -6   5 25.8929 23.4715   9
   2   6  -5 67.3410 46.0153   9
   2   6  -4 132.388 61.1254   4
   2   6  -4 20.7863 13.6308   7
  -2  -6   4 5.05461 33.3807   5
  -2  -6   4 87.1470 45.6963   9
   2   6  -4 61.5601 43.0984   9
  -2  -6   3 297.315 95.8315   5
  -2  -6   3 300.562 84.6669   4
   2   6  -3 497.862 119.603   7
  -2  -6   3 564.643 80.4031   6
  -2  -6   3 552.595 125.921   9
   2   6  -3 425.500 104.496   4
   2   6  -2 526.063 111.851   4
   2   6  -2 610.636 137.251   7
  -2  -6   2 504.864 107.784   4
   2   6  -2 582.514 84.6732   2
  -2  -6   2 719.992 147.351   9
   2   6  -1 595.747 75.6193   2
   2   6  -1 358.052 93.9226   4
   2   6  -1 451.383 110.371   7
  -2  -6   1 439.089 100.263   4
  -2  -6   1 587.862 135.870   9
   2   6   0 170.832 68.7770   4
   2   6   0 198.783 62.0090   1
   2   6   0 294.422 86.5886   7
  -2  -6   0 208.001 66.0038   4
   2   6   0 213.755 40.8114   2
  -2  -6   0 209.360 84.4375   9
   2   6   1 3024.54 292.784   7
   2   6   1 2554.10 213.775   1
   2   6   1 1853.98 117.688   2
  -2  -6  -1 2437.73 297.799   9
   2   6   1 2150.56 272.274   4
  -2  -6  -1 1920.47 234.495   4
  -2  -6  -1 2273.14 302.273   5
   2   6   2 2344.40 264.409   7
   2   6   2 2351.42 192.932   1
  -2  -6  -2 2483.50 305.078   5
  -2  -6  -2 2586.03 324.638   9
   2   6   3-8.97226 41.0838   7
  -2  -6  -3 51.9906 33.8365   5
  -2  -6  -3-13.3661 34.0817   9
   2   6   3 14.4885 34.1766  10
   2   6   3-2.56070 9.92593   1
   2   6   4 922.428 170.236   7
   2   6   4 929.852 185.614  10
  -2  -6  -4 790.296 183.117   5
   2   6   4 921.738 156.807   8
   2   6   5 1129.13 189.455   7
   2   6   5 1348.37 230.656  10
  -2  -6  -5 1397.62 258.641   5
   2   6   5 1736.25 278.570  11
   2   6   5 1230.11 179.869   8
   2   6   6 1359.68 215.022   7
  -2  -6  -6 2402.56 356.948   5
   2   6   6 2038.42 295.525  10
   2   6   6 2743.80 360.144  11
   2   6   7 116.876 100.667  11
   2   6   7 52.1566 34.9733   7
  -2  -6  -7 113.933 38.5872   5
   2   7  -9-34.1356 43.0760   4
   2   7  -9 64.7924 62.4499   7
  -2  -7   9-29.9744 57.8431   6
  -2  -7   9 23.7641 27.4306   3
   2   7  -8 154.880 71.7738   4
   2   7  -8 170.476 89.9416   7
  -2  -7   8 78.6073 44.5914   6
  -2  -7   8 246.436 106.022   3
   2   7  -7 159.594 70.9436   4
   2   7  -7 432.770 132.845   7
  -2  -7   7 228.633 77.0708   9
  -2  -7   7 283.805 93.2662   3
  -2  -7   7 188.258 74.4654   6
  -2  -7   6 316.105 95.7818   9
   2   7  -6 391.067 122.258   7
   2   7  -6 191.492 68.3027   4
  -2  -7   6 404.283 102.913   6
  -2  -7   6 471.644 139.758   3
   2   7  -5 1067.51 176.935   4
  -2  -7   5 1098.56 148.393   6
  -2  -7   5 941.528 164.487   9
  -2  -7   5 957.812 188.606   3
   2   7  -5 1207.45 211.980   7
   2   7  -4 4076.66 388.815   7
   2   7  -4 3977.47 336.409   4
  -2  -7   4 3919.15 397.048   3
  -2  -7   4 4109.70 368.176   9
   2   7  -3 3523.18 345.901   7
  -2  -7   3 1208.89 179.625   4
  -2  -7   3 2758.52 302.211   9
   2   7  -3 2497.34 259.605   4
  -2  -7   3 2530.12 267.961   5
   2   7  -2 456.476 114.118   4
   2   7  -2 589.709 137.518   7
  -2  -7   2 264.850 87.7617   4
   2   7  -2 443.091 84.4648   2
  -2  -7   2 517.991 140.075   9
   2   7  -1 143.372 61.9609   7
   2   7  -1 95.9814 37.5511   2
   2   7  -1 51.5360 23.7407   4
  -2  -7   1 73.6603 62.1992   4
  -2  -7   1 112.762 51.0840   9
   2   7   0 160.609 71.4537   7
  -2  -7   0 117.886 33.3680   4
   2   7   0 243.471 46.7253   2
  -2  -7   0 177.271 74.3777   9
   2   7   0 218.974 82.9323   4
  -2  -7  -1 4223.01 412.113   5
   2   7   1 5372.90 428.428   7
   2   7   1 3518.10 284.799   1
  -2  -7  -1 5091.02 471.734   9
   2   7   1 3180.73 170.780   2
   2   7   2 1309.00 212.581   7
  -2  -7  -2 1403.55 253.078   9
  -2  -7  -2 1492.31 249.033   5
   2   7   3 554.115 148.880  10
   2   7   3 730.431 159.992   7
  -2  -7  -3 818.057 194.408   5
   2   7   4 1.01451 51.5262   7
   2   7   4-27.0280 49.2508  10
  -2  -7  -4 20.8940 33.2973   5
   2   7   5 237.988 92.4312   7
   2   7   5 444.837 132.070  10
   2   7   5 678.375 190.885  11
  -2  -7  -5 571.437 184.991   5
   2   8  -8-38.4384 69.0919   7
  -2  -8   8 38.5486 15.8722   6
  -2  -8   8-5.72636 25.4553   3
   2   8  -7 374.679 130.507   7
  -2  -8   7 304.207 89.9377   6
  -2  -8   7 467.981 141.334   3
   2   8  -6 38.1388 42.2672   7
  -2  -8   6 63.9212 49.0530   6
  -2  -8   6 132.215 75.4902   3
   2   8  -5 125.613 59.1838   4
   2   8  -5 51.2305 69.1161   7
  -2  -8   5 146.830 53.2435   6
  -2  -8   5 141.628 79.5825   3
   2   8  -4-16.6431 5.73656   4
   2   8  -4-33.0562 26.0025   7
  -2  -8   4 46.8972 45.5616   9
  -2  -8   4 48.0471 50.6386   3
   2   8  -3 7.71734 13.6858   4
   2   8  -3 107.379 50.2522   7
   2   8  -3 80.1127 46.6184   2
  -2  -8   3 45.7453 40.7208   3
  -2  -8   3 69.0386 54.1658   9
   2   8  -2 30.7504 20.0875   7
  -2  -8   2 89.0333 67.4431   9
   2   8  -2 53.0058 57.0884   4
  -2  -8   2 115.896 72.1689   3
   2   8  -1 3250.89 364.103   7
  -2  -8   1 3530.13 405.988   9
   2   8  -1 2766.31 298.073   4
   2   8   0 211.518 83.6193   7
  -2  -8   0 263.812 115.879   5
  -2  -8  -1 23.7628 31.9185   5
   2   8   1 54.4453 54.3238   7
   2   8   2 375.234 113.847   7
  -2  -8  -2 552.370 159.887   5
   2   8   3 546.428 145.664   7
   2   8   3 809.139 193.091  10
  -2  -8  -3 984.559 205.703   5
   2   8   4 57.6969 38.4651   7
   2   8   4 113.707 31.0041  10
   2   9  -5 1089.46 227.667   7
  -2  -9   5 1104.07 239.892   3
   2   9  -4 1232.73 241.596   7
  -2  -9   4 1059.12 234.813   3
   2   9  -3 943.675 202.325   7
  -2  -9   3 1307.05 261.826   3
   2   9  -2 150.543 77.7030   7
  -2  -9   2 293.309 127.170   3
   2   9  -1 31.3984 29.3785   7
  -2  -9   1-63.2626 56.2990   3
   2   9   0 160.621 83.8752   7
  -2  -9   0 184.290 121.659   3
   2   9   1 30.6346 35.1926   7
  -2  -9  -1-15.9415 41.3196   3
  -3   9   4 49.3713 54.5645   7
   3  -9  -4-17.2651 36.1044   3
  -3   9   4 30.2910 50.2344  11
  -3   9   3 262.429 127.349   7
   3  -9  -3 359.217 134.680   3
  -3   9   3 430.619 149.439  11
  -3   9   2 392.801 129.146   7
  -3   9   2 336.950 117.677  11
   3  -9  -2 532.511 177.899   3
  -3   9   1 141.143 74.6510   7
   3  -9  -1 151.071 93.2873   3
  -3   9   1 81.5048 63.8636  11
  -3   9   0 1003.82 227.301   2
  -3   9   0 1220.20 232.496   7
  -3   9   0 598.991 165.620  11
   3  -9   0 1517.26 289.489   3
  -3   9  -1 246.564 101.849   2
  -3   9  -1 638.212 174.330   7
  -3   9  -1 177.879 62.8027  11
   3  -9   1 527.941 166.555   3
  -3   9  -2 22.0017 56.8023   2
  -3   9  -2-15.7190 58.2657   7
  -3   9  -3 410.397 136.793   7
  -3   9  -3 155.197 116.536   2
   3  -9   3 158.354 113.150   3
  -3   9  -4 46.8628 77.8866   2
  -3   9  -4-60.5922 32.5310   7
   3  -9   4-23.7687 31.5422   3
  -3   8   6-71.9466 73.0926   7
  -3   8   6-16.8993 33.2578  11
   3  -8  -6-44.6773 49.0188   3
  -3   8   5 41.6778 77.5199   7
  -3   8   5 46.0572 44.8417  11
   3  -8  -5-12.8541 63.7924   3
  -3   8   4 229.943 110.544   7
  -3   8   4 128.477 56.9624  11
   3  -8  -4 142.499 92.6499   3
  -3   8   3 391.755 127.176   7
  -3   8   3 630.535 170.565  11
   3  -8  -3 424.179 138.120   3
  -3   8   2 75.6993 54.8080   7
   3  -8  -2 104.014 79.7462   3
  -3   8   2 13.7172 15.2963  11
  -3   8   1 8771.67 618.100   7
  -3   8   1 9023.47 625.461  11
   3  -8  -1 9993.86 721.343   3
  -3   8   0 2033.83 282.659   7
  -3   8   0 1257.50 218.943  11
   3  -8   0 1879.39 301.860   3
  -3   8  -1 1193.77 238.751   2
  -3   8  -1 1454.19 235.949   7
   3  -8   1 1472.08 267.468   3
  -3   8  -1 1028.59 182.154  11
  -3   8  -2-36.9358 62.4003   2
  -3   8  -2 31.9056 25.0342   7
   3  -8   2-26.5000 53.7399   3
  -3   8  -3 207.568 85.1178   7
  -3   8  -3 128.347 93.6540   2
   3  -8   3 136.411 88.7999   3
  -3   8  -4 195.506 85.9963   7
  -3   8  -4 140.096 77.0243   2
   3  -8   4 245.072 103.854   3
  -3   8  -5 438.592 119.153   7
  -3   8  -5 402.265 132.805   2
   3  -8   5 708.228 191.993   3
  -3   8  -6 652.583 168.310   7
  -3   8  -6 625.893 178.957   2
   3  -8   6 729.936 194.572   3
   3  -7  -8 824.159 167.844   1
  -3   7   8 1097.85 252.630  11
   3  -7  -8 432.510 132.475   3
   3  -7  -7 193.939 84.3453   1
  -3   7   7 254.913 111.541  11
   3  -7  -7 76.2590 40.9126   3
  -3   7   6 592.897 177.647  11
   3  -7  -6 411.129 98.4991   5
   3  -7  -6 312.473 105.316   3
   3  -7  -6 470.909 124.178   1
   3  -7  -5 334.601 77.1867   5
  -3   7   5 213.821 89.7685  11
   3  -7  -5 160.854 80.1932   3
   3  -7  -5 261.615 88.2289   1
  -3   7   5 252.876 101.978   7
  -3   7   4 938.126 194.742   7
  -3   7   4 945.418 196.712  11
   3  -7  -4 1042.12 109.358   5
   3  -7  -4 867.600 183.894   3
   3  -7  -4 1235.42 197.295   1
   3  -7  -3 262.787 52.7379   4
  -3   7   3 246.359 93.6052   7
  -3   7   3 444.076 129.968  11
   3  -7  -3 298.805 51.7040   4
   3  -7  -3 382.825 124.210   3
  -3   7   3 354.652 76.8386   8
  -3   7   2 1381.21 227.726   7
  -3   7   2 1558.36 234.488  11
   3  -7  -2 1624.26 252.444   3
  -3   7   1 978.766 186.883   7
  -3   7   1 955.731 177.008  11
   3  -7  -1 1054.93 207.058   3
  -3   7   0 3893.84 374.416   7
  -3   7   0 3343.74 330.898  11
   3  -7   0 4060.39 413.773   3
  -3   7  -1 109.390 55.5109   7
   3  -7   1 299.476 117.634   3
  -3   7  -2-1.60826 11.7084   2
  -3   7  -2-44.0946 28.4257   7
  -3   7  -2 56.1074 41.4846   9
   3  -7   2-8.53592 37.0003   3
  -3   7  -3 4964.04 404.793   7
   3  -7   3 4315.46 439.529   3
  -3   7  -3 4125.45 344.445  11
  -3   7  -3 4199.62 335.627   9
  -3   7  -3 4696.41 433.381   2
  -3   7  -4 1245.59 229.597   2
  -3   7  -4 1228.41 199.864   7
   3  -7   4 1318.86 240.513   3
  -3   7  -5-22.7280 35.7222   7
  -3   7  -5 47.8131 42.1023   2
   3  -7   5 25.0655 42.9270   3
   3  -7   5-12.5577 29.8505   6
  -3   7  -6 811.736 167.018   7
  -3   7  -6 729.595 198.131   2
   3  -7   6 840.569 201.026   3
   3  -7   6 788.856 182.763   6
  -3   7  -7 1002.34 182.352   7
  -3   7  -7 1154.65 240.220   2
   3  -7   7 835.368 199.986   6
   3  -7   7 1048.62 226.493   3
  -3   7  -8 216.636 83.0031   2
   3  -7   8 259.213 112.669   6
   3  -6  -9 39.1093 15.3998   1
   3  -6  -9 63.7871 19.9100   5
  -3   6   9-5.96967 35.3870  11
   3  -6  -8-28.6376 20.1186   1
  -3   6   8 16.5948 53.6820  11
   3  -6  -8 14.9745 21.9683   5
   3  -6  -8 13.7257 25.4705   3
   3  -6  -7 69.6171 48.5073   1
  -3   6   7 82.0689 82.5917  11
   3  -6  -7 62.8101 34.6381   5
  -3   6   7 126.128 48.4918  10
   3  -6  -7 45.1732 57.1392   3
   3  -6  -6 365.233 89.5077   5
   3  -6  -6 320.172 99.3745   1
  -3   6   6 253.709 61.9964  10
  -3   6   6 250.856 103.987  11
   3  -6  -6 268.278 93.4826   3
  -3   6   5 515.838 145.727  11
   3  -6  -5 738.712 118.182   5
   3  -6  -5 643.213 144.686   3
   3  -6  -5 631.029 133.418   1
   3  -6  -4 10363.1 621.350   3
   3  -6  -4 11140.2 579.252   1
  -3   6   4 11107.2 664.981  11
  -3   6   4 7882.46 338.241   8
   3  -6  -4 10649.8 429.753   5
   3  -6  -4 8721.17 453.169   4
  -3   6   3 5085.29 415.201   7
   3  -6  -3 4928.81 256.751   4
   3  -6  -3 5349.73 391.384   1
  -3   6   3 5270.90 430.462  11
   3  -6  -3 4228.60 250.879   4
   3  -6  -3 4915.19 425.911   3
  -3   6   3 3548.86 242.784   8
   3  -6  -2 33.0258 14.4263   4
   3  -6  -2 237.743 82.3149   1
  -3   6   2 142.464 77.3681   7
   3  -6  -2 45.4699 15.1818   4
   3  -6  -2 349.557 113.251   3
  -3   6   2 190.983 77.9137  11
  -3   6   2 241.292 64.8901   8
   3  -6  -1 25877.7 1082.88   3
  -3   6   1 24398.1 987.124  11
  -3   6   1 26492.8 1033.01   7
  -3   6   0 16155.3 758.400   7
   3  -6   0 17216.1 845.103   3
  -3   6   0 15278.3 721.845  11
  -3   6  -1 63.4865 50.0052   7
   3  -6   1 29.1133 7.63540   3
  -3   6  -2-19.7720 40.8620   2
  -3   6  -2-8.38658 28.3613   7
   3  -6   2 23.5316 29.9396   3
  -3   6  -2-22.3186 21.0088   9
  -3   6  -3 688.330 136.004   7
  -3   6  -3 772.960 162.666   2
  -3   6  -3 484.854 100.740  11
   3  -6   3 621.745 155.016   3
  -3   6  -3 557.020 107.247   9
  -3   6  -4 294.446 60.8641   4
  -3   6  -4 315.675 92.4683   7
  -3   6  -4 255.500 96.2071   2
  -3   6  -4 157.401 54.9512   9
  -3   6  -4 150.850 48.5462  11
   3  -6   4 243.051 92.7893   3
  -3   6  -4 206.258 57.1807   5
   3  -6   4 181.817 71.1479   6
   3  -6   5 687.313 160.496   3
  -3   6  -5 711.809 168.414   2
  -3   6  -5 762.767 144.464   7
  -3   6  -5 440.273 90.1234   5
   3  -6   5 678.915 153.844   6
  -3   6  -5 173.941 45.9586   9
  -3   6  -6 148.863 80.3450   2
   3  -6   6 108.998 80.8971   6
   3  -6   6 143.620 80.7983   3
  -3   6  -6 70.5081 28.7890   5
  -3   6  -6 160.427 62.9505   7
  -3   6  -7 725.871 146.219   7
  -3   6  -7 553.780 164.672   2
   3  -6   7 701.662 177.977   6
  -3   6  -7 431.866 109.582   5
   3  -6   7 596.650 159.279   3
  -3   6  -8 75.5422 44.8525   7
   3  -6   8 114.496 91.9822   3
  -3   6  -8 31.0236 63.1308   2
   3  -6   8 96.2674 83.8335   6
  -3   6  -8-9.66930 60.4751   5
  -3   5  10 75.4302 85.2294  11
   3  -5 -10 18.9273 37.0181   5
   3  -5  -9 1389.20 203.160   1
  -3   5   9 871.034 208.591  11
   3  -5  -9 1155.79 217.113   5
   3  -5  -8 1822.10 225.811   1
   3  -5  -8 1742.16 250.735   5
  -3   5   8 1784.20 278.574  11
   3  -5  -8 1293.37 189.340   3
   3  -5  -7 3410.93 308.119   1
  -3   5   7 3041.63 358.732  11
   3  -5  -7 2872.41 287.755   3
   3  -5  -7 3251.21 315.323   5
  -3   5   7 2925.73 211.620  10
   3  -5  -6 958.633 153.128   1
   3  -5  -6 776.326 136.580   5
  -3   5   6 623.445 91.5999  10
   3  -5  -6 615.143 132.345   3
  -3   5   6 753.580 149.764   5
  -3   5   6 649.450 155.049  11
  -3   5   5 819.309 171.666  11
   3  -5  -5 759.227 144.462   3
   3  -5  -5 991.480 140.278   5
  -3   5   5 918.546 144.675   5
   3  -5  -5 825.944 139.538   1
   3  -5  -4 7674.99 438.719   1
   3  -5  -4 7282.51 470.323   3
   3  -5  -4 6815.94 342.926   5
  -3   5   4 7252.01 377.719   5
  -3   5   4 7504.84 505.707  11
  -3   5   4 5529.38 239.181   8
   3  -5  -3 665.242 82.7925   5
  -3   5   3 645.413 127.494   3
  -3   5   3 653.867 87.1857   5
  -3   5   3 668.973 138.941  11
   3  -5  -3 706.745 95.1206   4
   3  -5  -3 823.132 136.165   1
   3  -5  -3 679.805 140.271   3
  -3   5   3 670.666 85.5401   8
   3  -5  -2 22.5041 37.7802   1
   3  -5  -2 5.33789 32.7141   3
   3  -5  -2-1.89845 5.56154   4
  -3   5   2 29.8146 35.2584   1
  -3   5   2 44.5393 41.2780  11
  -3   5   2 3.52547 2.64587   8
  -3   5   2 73.2092 54.7735   3
  -3   5   1 7961.63 472.174   7
   3  -5  -1 8196.61 464.585   1
  -3   5   1 7660.73 450.797   6
   3  -5  -1 8221.75 514.380   3
  -3   5   1 8620.72 476.101  11
  -3   5   1 8810.94 508.511   3
  -3   5   1 8497.05 470.752   1
  -3   5   1 8644.04 421.006   8
  -3   5   0 12158.2 583.292   7
   3  -5   0 10653.9 613.682   3
  -3   5   0 12472.8 587.095   6
  -3   5   0 10681.1 526.328  11
  -3   5   0 11373.1 530.252   8
  -3   5  -1 4228.24 317.125   7
  -3   5  -1 4531.05 342.079   6
  -3   5  -1 4083.64 284.809  11
   3  -5   1 4418.75 372.892   3
  -3   5  -1 4358.61 323.707   8
  -3   5  -2 586.454 138.623   2
  -3   5  -2 501.648 106.313   7
   3  -5   2 575.522 131.925   3
  -3   5  -2 332.141 38.7688   4
  -3   5  -2 457.735 56.7686   5
  -3   5  -3 5148.21 343.403   7
  -3   5  -3 4581.74 259.532   5
   3  -5   3 5327.51 399.502   6
   3  -5   3 5000.99 415.449   3
  -3   5  -3 4393.34 270.238  11
  -3   5  -3 4602.46 244.938   4
  -3   5  -3 4994.94 407.469   2
  -3   5  -4 742.389 111.020   4
  -3   5  -4 873.801 134.436   7
  -3   5  -4 737.701 158.179   2
   3  -5   4 912.104 168.274   6
  -3   5  -4 629.828 102.793   5
   3  -5   4 841.788 168.136   3
  -3   5  -4 469.098 77.5020   9
  -3   5  -4 589.016 94.8273  11
   3  -5   5 2279.21 235.297   7
  -3   5  -5 2434.94 303.724   2
  -3   5  -5 2369.14 230.617   7
   3  -5   5 2525.96 297.045   6
   3  -5   5 2546.12 299.420   3
  -3   5  -5 2063.50 147.690  11
   3  -5   5 1260.45 192.117   5
  -3   5  -5 1467.61 113.498   9
  -3   5  -5 1506.38 114.956   9
  -3   5  -5 1942.00 212.890   4
  -3   5  -5 2398.07 238.219   5
  -3   5  -6 1186.89 189.133   4
  -3   5  -6 1327.08 178.619   7
   3  -5   6 1239.20 217.214   3
  -3   5  -6 1317.20 228.803   2
   3  -5   6 1567.22 241.137   6
  -3   5  -6 1121.91 181.480   5
   3  -5   6 1391.31 189.114   7
   3  -5   6 210.014 89.4718   5
  -3   5  -7 7969.36 600.329   2
  -3   5  -7 8541.65 483.976   7
   3  -5   7 8102.17 601.421   6
   3  -5   7 6379.78 529.237   3
  -3   5  -8 1117.89 171.387   7
  -3   5  -8 1174.82 235.125   2
   3  -5   8 1188.80 233.566   6
  -3   5  -8 663.674 166.727   5
   3  -5   9 407.925 148.790   6
  -3   5  -9 422.006 154.157   2
  -3   5  -9 222.029 92.1255   5
   3  -4 -11 206.320 104.082   5
  -3   4  11 171.553 100.668  11
  -3   4  10 5.06964 10.4466  11
   3  -4 -10 18.6332 16.9337   5
   3  -4 -10 31.3811 36.6250   1
  -3   4   9 217.546 85.0792  11
   3  -4  -9 145.788 85.8728   5
   3  -4  -9 142.172 50.2217   1
   3  -4  -8 1712.43 214.428   1
   3  -4  -8 1253.64 162.710   3
  -3   4   8 1231.48 227.650  11
   3  -4  -8 1506.64 238.311   5
  -3   4   7 656.910 154.671  11
   3  -4  -7 721.588 145.732   5
   3  -4  -7 654.491 121.390   3
   3  -4  -7 643.267 127.863   1
   3  -4  -6 21527.7 828.223   1
  -3   4   6 19605.5 620.696  10
  -3   4   6 20116.9 921.769  11
   3  -4  -6 21194.9 840.693   5
   3  -4  -6 20385.4 814.333   3
  -3   4   6 21348.2 890.885   5
  -3   4   6 21367.8 857.887   1
  -3   4   5 155.293 61.1701   1
   3  -4  -5 150.539 59.0906   3
   3  -4  -5 99.3285 52.3693   1
  -3   4   5 138.285 65.3428  11
   3  -4  -5 190.311 66.4606   5
  -3   4   5 114.577 48.8573   5
   3  -4  -4 5615.63 313.240   5
   3  -4  -4 5408.52 352.165   1
   3  -4  -4 5846.13 391.638   3
  -3   4   4 5585.52 402.530  11
  -3   4   4 6250.75 345.317   5
  -3   4   4 5814.51 358.466   3
  -3   4   4 6287.00 388.292   1
   3  -4  -3 3255.74 218.333   4
   3  -4  -3 2748.86 264.284   3
  -3   4   3 3306.41 285.546  11
  -3   4   3 2922.16 201.571   5
   3  -4  -3 3295.44 257.790   1
  -3   4   3 3089.49 259.169   3
  -3   4   3 3153.41 259.034   1
   3  -4  -3 3119.06 194.744   5
  -3   4   3 2968.95 173.599   8
   3  -4  -2 98.9473 52.6316   3
   3  -4  -2 89.4994 24.3920   4
  -3   4   2 108.920 51.2056  11
  -3   4   2 108.272 41.2274   1
  -3   4   2 115.348 27.3216   5
  -3   4   2 51.0482 34.5944   3
  -3   4   2 117.825 35.8669   8
   3  -4  -2 121.725 46.8351   1
  -3   4   1 4429.26 304.131   1
   3  -4  -1 3919.38 324.182   3
   3  -4  -1 3990.94 177.740   4
  -3   4   1 4012.24 285.441  11
  -3   4   1 4689.99 276.267   8
  -3   4   0 20206.1 678.696   7
  -3   4   0 19469.1 679.027   1
  -3   4   0 20615.5 703.660   6
  -3   4   0 18397.4 614.304  11
  -3   4   0 20500.1 666.929   8
   3  -4   0 19470.1 763.401   3
  -3   4  -1 15666.8 650.542   1
  -3   4  -1 15912.1 684.058   6
   3  -4   1 15010.2 710.116   3
  -3   4  -1 15612.6 620.071   7
  -3   4  -1 17441.9 728.244   3
  -3   4  -1 15002.6 459.481   5
  -3   4  -1 15276.9 563.626  11
  -3   4  -1 15839.6 658.260   8
  -3   4  -1 15353.2 459.713   4
  -3   4  -2 156.934 39.0778   4
  -3   4  -2 149.082 51.6355   7
   3  -4   2 154.619 71.5781   3
  -3   4  -2 227.320 48.2396  11
  -3   4  -2 145.486 58.0565   6
  -3   4  -2 146.210 39.3166   5
  -3   4  -2 167.938 62.3164   3
  -3   4  -2 144.393 52.3565   1
  -3   4  -2 136.102 56.8732   8
  -3   4  -3 1880.62 178.188   7
  -3   4  -3 1988.52 228.962   3
  -3   4  -3 1816.16 205.927   1
   3  -4   3 1983.50 225.991   6
   3  -4   3 1942.31 238.202   3
  -3   4  -3 1523.83 125.666  11
  -3   4  -3 2106.66 184.014   5
  -3   4  -3 1720.57 123.448  11
  -3   4  -3 1958.35 176.625   4
  -3   4  -3 2081.37 245.005   2
  -3   4  -4 73.9178 34.3345   4
   3  -4   4 101.522 46.4035   7
  -3   4  -4 41.3861 31.1881   7
  -3   4  -4 1.04642 21.5869   2
   3  -4   4-0.96461 32.4831   6
  -3   4  -4 44.8100 17.1382  11
   3  -4   4 134.138 65.6838   3
  -3   4  -4 17.1890 8.64614  11
  -3   4  -4 29.8708 27.6854   5
  -3   4  -4 13.6217 17.0710   3
  -3   4  -4 36.1455 20.5492   9
   3  -4   5 2213.27 208.946   7
  -3   4  -5 2502.36 289.598   2
  -3   4  -5 2564.32 213.271   7
  -3   4  -5 2194.91 238.456   5
   3  -4   5 1212.11 195.470   5
   3  -4   5 2298.56 272.128   6
   3  -4   5 2226.91 271.534   3
  -3   4  -5 2360.58 256.060   3
  -3   4  -5 1990.92 117.127   9
  -3   4  -5 2216.88 243.617   4
  -3   4  -6 255.250 93.7963   4
   3  -4   6 259.376 70.0621   7
  -3   4  -6 393.096 85.1739   7
  -3   4  -6 337.299 109.136   2
   3  -4   6 399.732 121.858   6
  -3   4  -6 393.221 113.040   5
   3  -4   6 272.255 86.7402   3
   3  -4   7 706.385 123.442   7
  -3   4  -7 696.884 119.588   7
  -3   4  -7 871.232 187.693   2
   3  -4   7 646.409 166.431   6
  -3   4  -7 726.774 154.920   5
  -3   4  -8 337.160 85.5463   7
   3  -4   8 297.652 123.260   6
  -3   4  -8 130.569 77.4467   2
  -3   4  -8 174.457 73.1743   5
   3  -4   9 345.449 129.217   6
  -3   4  -9 127.310 80.3083   5
  -3   3  11 328.947 124.276  11
   3  -3 -11 226.611 107.105   5
   3  -3 -11 319.243 87.8456   1
  -3   3  10 637.010 163.185  11
   3  -3 -10 742.689 146.692   1
   3  -3 -10 815.342 197.736   5
  -3   3   9 1589.46 256.499  11
   3  -3  -9 1711.75 267.045   5
   3  -3  -9 1688.45 218.145   1
   3  -3  -8 2273.34 190.304   3
   3  -3  -8 2711.13 306.931   5
  -3   3   8 2503.09 303.143  11
   3  -3  -8 2628.82 261.982   1
   3  -3  -7 2001.07 243.625   5
  -3   3   7 1812.56 218.065   1
   3  -3  -7 1891.56 182.473   3
  -3   3   7 2239.55 271.152   5
  -3   3   7 2058.24 263.820  11
   3  -3  -7 1922.78 214.751   1
  -3   3   6 138.465 53.4942   1
  -3   3   6 99.3465 52.0147  11
   3  -3  -6 111.203 51.5151   5
   3  -3  -6 94.2889 38.5242   3
   3  -3  -6 179.987 63.3241   1
  -3   3   6 53.5781 34.0069   5
   3  -3  -5 82.8027 27.0918   3
   3  -3  -5 109.354 56.0019   5
   3  -3  -5 59.4344 21.2344   1
  -3   3   5 101.612 21.8804  10
  -3   3   5 67.3544 39.5454   5
  -3   3   5 77.5748 40.8785  11
  -3   3   5 106.005 40.7628   3
  -3   3   5 104.199 50.4739   1
   3  -3  -4 3766.06 273.014   1
  -3   3   4 3850.01 286.708   1
   3  -3  -4 3718.38 281.256   3
   3  -3  -4 4010.49 264.486   5
  -3   3   4 3738.91 301.697  11
  -3   3   4 3721.09 259.413   5
  -3   3   4 3737.19 259.572   3
   3  -3  -3 2048.06 193.484   1
  -3   3   3 1492.05 142.080   5
   3  -3  -3 2336.15 225.015   3
   3  -3  -3 1609.97 144.149   5
  -3   3   3 2274.33 222.180  11
  -3   3   3 1942.06 129.477   8
  -3   3   3 1657.32 181.195   3
   3  -3  -3 1995.64 173.029   4
  -3   3   3 1587.55 177.632   1
   3  -3  -2 19447.9 763.238   3
  -3   3   2 17681.0 575.770   5
  -3   3   2 19194.4 712.535  11
  -3   3   2 20731.8 722.708   1
  -3   3   2 20078.5 618.664   8
   3  -3  -2 19869.4 613.291   4
   3  -3  -1 17956.4 722.825   3
  -3   3   1 18059.3 656.075   1
  -3   3   1 16771.9 617.687  11
  -3   3   1 17314.8 509.606   5
   3  -3  -1 17362.4 535.101   4
  -3   3   1 16491.9 601.576   8
   3  -3   0 86.7556 32.6571   4
  -3   3   0 137.226 49.8282   7
  -3   3   0 89.6383 37.2070  11
  -3   3   0 57.3051 23.0775   4
  -3   3   0 94.2830 43.7916   6
  -3   3   0 44.4717 25.6490   1
  -3   3   0 53.4374 27.0678   8
   3  -3   0 102.590 53.4903   3
  -3   3  -1 4827.65 270.127   7
  -3   3  -1 4929.73 302.529   1
  -3   3  -1 4876.86 320.050   6
   3  -3   1 4952.27 356.840   3
  -3   3  -1 4750.88 250.325   5
  -3   3  -1 4726.25 224.937  11
   3  -3   1 4959.00 257.421   4
  -3   3  -1 4681.07 240.887   4
  -3   3  -1 5001.91 320.766   8
  -3   3  -2 24994.6 768.058   7
  -3   3  -2 26349.2 954.267   3
  -3   3  -2 25656.2 855.933   1
  -3   3  -2 26425.2 902.230   6
   3  -3   2 25763.7 957.892   3
  -3   3  -2 26132.2 791.804   9
  -3   3  -2 22337.6 648.895  11
  -3   3  -2 24579.8 810.956   5
  -3   3  -2 26485.0 921.641   8
  -3   3  -2 24798.5 794.734   4
  -3   3  -3 1250.41 126.092   7
  -3   3  -3 1406.58 159.435   1
  -3   3  -3 1361.26 178.501   6
   3  -3   3 1519.61 198.470   3
  -3   3  -3 1500.88 186.471   3
  -3   3  -3 1439.36 163.415   5
  -3   3  -3 1495.70 132.463   9
  -3   3  -3 1440.09 185.853   8
  -3   3  -3 1410.06 164.132   4
  -3   3  -3 1483.86 194.273   2
  -3   3  -4 4897.44 266.816   7
  -3   3  -4 4701.71 341.776   5
  -3   3  -4 4808.82 320.927   1
   3  -3   4 4665.32 362.207   6
   3  -3   4 4826.43 383.501   3
  -3   3  -4 4767.13 237.615   9
   3  -3   4 4869.56 276.897   7
  -3   3  -4 4900.28 355.636   3
  -3   3  -4 5095.96 358.424   4
  -3   3  -4 4986.42 378.272   2
   3  -3   5 13849.7 534.001   7
  -3   3  -5 14521.8 719.167   2
  -3   3  -5 15573.8 542.499   7
  -3   3  -5 13475.1 609.167   1
   3  -3   5 14464.1 708.600   6
  -3   3  -5 14598.9 665.110   3
  -3   3  -5 12783.5 667.327   5
  -3   3  -5 13746.3 440.806   9
   3  -3   5 9736.55 620.970   5
  -3   3  -5 14269.6 697.000   4
   3  -3   6 193.655 58.1415   7
  -3   3  -6 236.651 62.6102   7
  -3   3  -6 286.016 94.5958   2
   3  -3   6 196.945 77.4673   6
  -3   3  -6 130.978 26.9605   9
  -3   3  -6 191.519 61.4228   1
  -3   3  -6 220.395 87.1939   5
  -3   3  -6 254.651 79.2853   3
   3  -3   7 5030.55 308.212   7
  -3   3  -7 5089.85 447.013   2
  -3   3  -7 5132.90 373.742   3
   3  -3   7 5435.96 456.534   6
  -3   3  -7 5078.16 448.709   5
   3  -3   8 3114.34 358.354   6
  -3   3  -8 2354.43 319.690   5
   3  -3   9 792.202 204.226   6
  -3   3  -9 656.769 175.520   5
   3  -3  10-6.13008 19.2890   6
  -3   3 -10 41.8841 61.8727   5
   3  -2 -12 929.118 180.151   1
   3  -2 -12 1054.68 256.885   5
  -3   2  12 990.875 220.797  11
   3  -2 -11 3936.40 465.654   5
   3  -2 -11 4339.66 383.755   1
  -3   2  11 3550.75 409.749  11
  -3   2  10 625.594 164.539  11
   3  -2 -10 631.571 143.917   1
   3  -2 -10 587.495 163.823   5
   3  -2  -9 66.8279 41.6603   1
  -3   2   9 210.135 101.694  11
   3  -2  -9 21.9940 27.4631   5
   3  -2  -8 1187.19 203.216   5
   3  -2  -8 1344.19 185.327   1
  -3   2   8 1275.23 206.990  11
   3  -2  -7 2246.26 258.416   5
  -3   2   7 1965.62 248.469  11
  -3   2   7 1963.82 223.441   1
  -3   2   7 2203.70 263.337   5
   3  -2  -7 2097.95 225.214   1
  -3   2   6 9270.30 492.096   1
   3  -2  -6 8194.68 391.873   3
  -3   2   6 8706.54 518.017  11
   3  -2  -6 9621.33 544.482  11
  -3   2   6 9001.26 516.432   5
  -3   2   6 8675.76 359.464   3
   3  -2  -6 9108.15 500.562   5
   3  -2  -6 8649.42 470.260   1
  -3   2   5 36011.0 1122.57   1
   3  -2  -5 33398.1 1032.28   3
   3  -2  -5 35476.9 1106.84   5
  -3   2   5 35772.9 1171.41  11
  -3   2   5 36572.5 1137.26   5
   3  -2  -5 35445.5 1098.34   1
  -3   2   5 35831.6 994.167   3
   3  -2  -5 31109.6 822.587   8
  -3   2   4 13551.4 550.366   5
   3  -2  -4 12402.4 531.058   3
   3  -2  -4 12951.7 536.413   5
  -3   2   4 12695.0 503.802   3
  -3   2   4 12525.4 568.816  11
  -3   2   4 12798.2 550.784   1
   3  -2  -4 12687.8 542.112   1
   3  -2  -4 12770.6 394.265   8
   3  -2  -3 4254.73 257.320   4
   3  -2  -3 4035.57 197.260   8
  -3   2   3 3969.90 264.324   3
   3  -2  -3 4104.10 281.097   3
  -3   2   3 4234.29 251.895   5
  -3   2   3 4392.45 281.856   1
  -3   2   3 4011.46 274.215  11
   3  -2  -2 3135.14 249.781   3
  -3   2   2 3082.93 219.137  11
   3  -2  -2 3107.55 219.613  11
  -3   2   2 3135.90 187.912   8
  -3   2   2 2983.33 219.122   1
  -3   2   2 3277.36 196.493   5
   3  -2  -2 3146.85 187.110   8
   3  -2  -2 2949.22 194.871   4
   3  -2  -1 20229.3 754.809   3
  -3   2   1 17915.7 630.814  11
   3  -2  -1 18788.6 639.486  11
  -3   2   1 19194.7 670.288   1
  -3   2   1 21877.0 667.216   8
   3  -2  -1 19406.0 623.491   4
   3  -2  -1 20360.3 652.161   8
  -3   2   1 20700.1 631.695   4
  -3   2   0 7967.99 392.538   6
   3  -2   0 8165.42 442.226   3
  -3   2   0 8327.93 316.833  11
   3  -2   0 7212.56 310.551  11
  -3   2   0 8076.98 343.293   4
   3  -2   0 7864.01 375.394   8
   3  -2   0 8591.91 356.674   4
  -3   2   0 8423.06 387.333   8
  -3   2   0 7996.86 367.579   1
  -3   2  -1 7249.96 294.112   7
  -3   2  -1 7187.02 345.130   1
   3  -2   1 7435.75 348.692   1
  -3   2  -1 7689.39 388.265   6
   3  -2   1 7588.27 432.455   3
  -3   2  -1 7223.50 247.498  11
  -3   2  -1 6988.05 365.661   5
   3  -2   1 7261.09 360.025   4
  -3   2  -1 7146.96 343.977   9
  -3   2  -1 7356.76 346.158   4
  -3   2  -1 7873.43 396.174   8
  -3   2  -2 6110.29 249.728   7
  -3   2  -2 6060.37 317.346   1
  -3   2  -2 6251.12 358.857   6
   3  -2   2 5906.51 391.293   3
  -3   2  -2 6166.69 383.012   3
  -3   2  -2 5704.47 353.933   5
  -3   2  -2 6445.81 307.708   9
  -3   2  -2 6747.83 357.272   4
  -3   2  -2 6640.88 387.833   8
  -3   2  -2 6097.96 372.673   2
  -3   2  -3 587.976 64.7096   7
  -3   2  -3 534.971 111.547   8
  -3   2  -3 562.238 109.433   2
  -3   2  -3 713.895 120.508   6
   3  -2   3 647.791 115.447   6
  -3   2  -3 608.867 118.661   3
  -3   2  -3 675.398 97.7279   1
  -3   2  -3 570.595 108.784   4
  -3   2  -3 572.737 108.397   5
  -3   2  -3 601.481 81.6635   9
   3  -2   4 5256.70 236.901   7
  -3   2  -4 5425.17 377.588   2
  -3   2  -4 5086.62 235.100   7
  -3   2  -4 4749.21 291.110   1
   3  -2   4 5238.93 369.306   6
  -3   2  -4 5276.82 359.993   3
  -3   2  -4 5263.86 380.137   4
  -3   2  -4 5319.17 382.340   8
  -3   2  -4 5584.02 393.684   5
  -3   2  -4 5377.93 265.462   9
   3  -2   5 870.012 91.9123   7
  -3   2  -5 822.818 114.287   1
  -3   2  -5 931.285 170.115   4
  -3   2  -5 831.453 146.784   2
  -3   2  -5 682.619 145.743   5
   3  -2   5 798.393 143.733   6
  -3   2  -5 832.477 94.7188   9
  -3   2  -5 722.371 131.095   3
   3  -2   6 10925.3 419.822   7
  -3   2  -6 12372.9 653.908   2
  -3   2  -6 10996.9 419.112   9
  -3   2  -6 9715.00 481.717   1
   3  -2   6 12401.7 654.771   6
  -3   2  -6 12267.8 702.654   5
  -3   2  -6 12549.3 594.684   3
   3  -2   7 65.1207 30.4144   7
  -3   2  -7 58.2806 26.0810   1
   3  -2   7 48.3669 42.1778   6
  -3   2  -7 187.734 82.6751   2
  -3   2  -7 22.1032 39.7195   5
  -3   2  -7 83.9687 34.0879   3
   3  -2   8 503.097 148.894   6
  -3   2  -8 549.817 159.439   5
   3  -2   9 3915.30 424.768   6
  -3   2  -9 3994.55 464.925   5
   3  -2  10 499.195 153.625   6
  -3   2 -10 202.559 110.394   5
  -3   1  12 151.359 75.2383  11
   3  -1 -12 77.9751 63.8619   1
   3  -1 -12 82.5565 56.5866   5
   3  -1 -11 35.9049 37.5316   5
   3  -1 -11 44.3900 34.9069   1
  -3   1  11 32.6637 30.0329  11
   3  -1 -10 75.7265 57.7700   1
   3  -1 -10 92.9321 64.3758   5
  -3   1  10 121.787 66.6442  11
   3  -1  -9 1057.22 177.701   1
   3  -1  -9 1142.32 211.262   5
  -3   1   9 944.803 185.931  11
   3  -1  -8 7939.02 554.947   5
  -3   1   8 8382.54 544.313  11
   3  -1  -8 8899.41 519.930   1
   3  -1  -7 2162.02 249.493   5
   3  -1  -7 2351.58 241.879   1
  -3   1   7 2282.29 242.085   1
  -3   1   7 2055.84 244.555  11
  -3   1   7 2300.70 268.785   5
  -3   1   7 1880.60 114.576   3
   3  -1  -6 110.594 47.5786   1
   3  -1  -6 157.004 59.3023   5
  -3   1   6 75.2684 46.6130  11
  -3   1   6 66.2817 36.1205   1
   3  -1  -6 65.3136 43.5495  11
  -3   1   6 85.7190 55.7589   5
  -3   1   6 68.4605 24.5439   3
   3  -1  -5 5912.12 363.731   5
  -3   1   5 5432.40 362.724  11
  -3   1   5 6468.96 394.911   5
  -3   1   5 5398.69 275.411   3
  -3   1   5 5483.82 349.745   1
   3  -1  -5 5617.09 351.972   1
   3  -1  -4 14814.6 595.895   4
  -3   1   4 14487.9 532.295   3
  -3   1   4 14266.7 607.418  11
  -3   1   4 14834.8 595.393   5
   3  -1  -4 13225.2 572.717   5
  -3   1   4 14226.3 585.357   1
  -3   1   3 5107.03 291.370   3
  -3   1   3 4661.87 284.596   5
  -3   1   3 5079.75 303.550  11
  -3   1   3 5152.97 298.746   1
   3  -1  -3 4923.40 291.450   4
  -3   1   2 5955.47 301.453   4
  -3   1   2 5206.10 290.829   1
  -3   1   2 5385.95 216.939  10
  -3   1   2 5854.83 299.148  11
   3  -1  -2 5608.72 295.116  11
   3  -1  -2 5261.56 259.999   8
   3  -1  -2 5351.84 287.560   4
  -3   1   1 2325.15 163.445  11
   3  -1  -1 2511.28 165.067  11
  -3   1   1 2442.16 178.597   1
  -3   1   1 2505.34 190.577   9
   3  -1  -1 2293.20 175.948   4
   3  -1  -1 2149.59 167.647   8
  -3   1   1 2387.76 177.474   4
   3  -1   0 8874.63 358.929   1
  -3   1   0 9089.59 390.497   6
   3  -1   0 9240.48 325.388  11
  -3   1   0 9378.49 396.347   9
  -3   1   0 8626.34 320.246  11
  -3   1   0 8413.46 356.799   1
   3  -1   0 8704.27 393.853   4
  -3   1   0 8893.90 400.103   8
  -3   1   0 9088.25 397.221   4
  -3   1  -1 6225.27 213.152   7
   3  -1   1 6391.50 285.694   1
  -3   1  -1 6805.03 338.449   6
  -3   1  -1 5358.07 213.563  11
   3  -1   1 6278.46 219.432  11
  -3   1  -1 6500.21 344.285   4
  -3   1  -1 6589.98 316.898   9
   3  -1   1 6814.16 358.306   4
  -3   1  -1 6559.02 350.359   8
  -3   1  -1 6548.41 291.482   1
  -3   1  -2 60429.7 1552.43   1
  -3   1  -2 61735.4 1663.21   6
   3  -1   2 59961.3 1658.68   6
  -3   1  -2 62713.2 1758.59   3
   3  -1   2 60659.4 1551.61   1
  -3   1  -2 60441.8 1726.59   4
  -3   1  -2 60499.8 1743.87   5
   3  -1   2 61221.4 1601.60   9
   3  -1   2 61035.5 1744.82   4
  -3   1  -2 61988.1 1602.94   9
  -3   1  -2 61090.0 1714.56   8
  -3   1  -2 61675.1 1667.10   2
  -3   1  -3 728.212 89.8724   1
  -3   1  -3 839.793 141.253   4
  -3   1  -3 804.109 120.056   2
  -3   1  -3 667.311 110.933   6
   3  -1   3 918.556 132.629   6
  -3   1  -3 872.414 136.603   3
  -3   1  -3 798.452 101.497   9
  -3   1  -3 690.856 128.760   5
   3  -1   3 756.419 99.2599   9
  -3   1  -3 868.516 134.654   8
  -3   1  -4 35200.6 1089.73   2
  -3   1  -4 33117.7 908.415   1
  -3   1  -4 34247.7 1190.49   5
  -3   1  -4 35059.4 963.336   9
   3  -1   4 34516.2 1084.20   6
  -3   1  -4 34065.0 1105.20   3
   3  -1   4 32092.9 932.955   9
  -3   1  -4 36465.9 1151.25   8
  -3   1  -4 37457.4 1219.28   4
   3  -1   5 15701.0 294.253   7
  -3   1  -5 17451.0 640.461   2
  -3   1  -5 14746.5 424.404   1
   3  -1   5 16759.8 633.039   6
  -3   1  -5 16475.8 615.587   3
  -3   1  -5 15718.2 720.298   5
  -3   1  -5 15961.6 481.089   9
   3  -1   5 16257.9 473.710   9
   3  -1   5 17040.3 671.443   2
   3  -1   6 15916.0 470.997   7
  -3   1  -6 17636.2 762.478   2
  -3   1  -6 13548.0 533.825   1
   3  -1   6 17256.1 761.423   6
  -3   1  -6 16108.8 694.782   3
   3  -1   6 12983.5 422.454  11
  -3   1  -6 16103.8 844.634   5
  -3   1  -6 16095.8 589.262   9
   3  -1   6 15942.4 578.872   9
   3  -1   7 1050.64 100.995   7
   3  -1   7 1023.26 124.053   9
   3  -1   7 1012.91 179.702   6
   3  -1   7 924.184 85.2623  11
  -3   1  -7 1029.15 159.132   3
  -3   1  -7 1060.72 130.083   9
  -3   1  -7 1147.80 218.997   5
  -3   1  -7 822.409 108.614   1
  -3   1  -8 638.294 181.772   5
   3  -1   8 544.165 132.316   6
   3  -1   9-67.2485 51.5309   6
  -3   1  -9 56.6627 72.4020   5
   3  -1  10 6.23188 30.2331   6
  -3   1 -10 249.483 149.459   5
  -3   0  12 1849.35 294.250  11
   3   0 -12 1689.40 318.153   5
   3   0 -12 1716.06 262.170   1
   3   0 -11 2541.75 370.884   5
  -3   0  11 2918.70 359.139  11
   3   0 -11 2646.44 316.538   1
   3   0 -10 4581.63 472.079   5
  -3   0  10 5036.57 451.716  11
   3   0 -10 5366.17 434.898   1
   3   0 -10 4347.19 272.479  10
  -3   0   9 38.9290 29.0931  11
   3   0  -9 99.1195 66.9928   5
   3   0  -9 74.5300 59.2561   1
   3   0  -8 166.860 74.9002   5
  -3   0   8 280.067 97.7468  11
   3   0  -8 210.619 78.3802   1
  -3   0   7 259.392 81.2250  11
   3   0  -7 415.161 104.403  11
   3   0  -7 465.771 122.837   5
   3   0  -7 399.554 95.3487   1
  -3   0   7 340.246 45.2916   3
  -3   0   6 8935.80 471.797   7
  -3   0   6 8809.24 505.828   5
  -3   0   6 7233.08 319.378   3
  -3   0   6 8527.26 474.757   1
   3   0  -6 8671.83 492.332   5
  -3   0   6 8550.74 487.756  11
   3   0  -6 7898.41 465.325  11
   3   0  -6 8206.26 465.288   1
   3   0  -5 6159.36 382.933   4
  -3   0   5 6670.05 374.408   7
  -3   0   5 6355.72 389.977  11
  -3   0   5 5935.31 297.862   3
  -3   0   5 6139.80 376.933   1
   3   0  -5 6169.34 385.445   5
  -3   0   4 28622.5 888.882   7
  -3   0   4 25460.3 832.656   3
  -3   0   4 26358.2 911.081  11
  -3   0   4 26987.9 903.616   1
   3   0  -4 26956.1 912.402   4
  -3   0   3 16732.1 587.619   7
  -3   0   3 16592.4 620.795  11
  -3   0   3 16264.8 620.674   1
   3   0  -3 16122.2 468.092  10
  -3   0   3 16995.0 610.836   9
   3   0  -3 16283.2 622.623   4
  -3   0   2 2412.99 185.433   1
  -3   0   2 2457.89 167.007   7
  -3   0   2 2046.84 172.988  11
   3   0  -2 2274.65 141.579  10
  -3   0   2 2337.32 184.415   9
   3   0  -2 2208.06 185.167   4
  -3   0   1 14579.4 522.797   1
  -3   0   1 14945.4 476.008   7
  -3   0   1 16067.6 536.488  11
   3   0  -1 14958.6 518.163  11
  -3   0   1 15814.6 566.380   9
  -3   0   1 15183.9 507.080  10
   3   0  -1 14990.8 516.433   1
   3   0  -1 15074.0 573.957   4
  -3   0   0 18116.0 500.356   7
  -3   0   0 18811.5 604.077   6
   3   0   0 18118.0 572.609  11
  -3   0   0 19521.4 632.487  10
  -3   0   0 17851.7 580.018   1
  -3   0   0 18208.8 640.887   9
  -3   0   0 18872.7 584.443  11
   3   0   0 19665.4 697.663   4
   3   0   0 18884.4 569.750   1
   3   0   1 50669.1 1270.57   1
  -3   0  -1 51720.1 1356.53   6
   3   0   1 50848.3 1280.73  11
  -3   0  -1 50241.9 1291.15   1
  -3   0  -1 48524.9 1386.09   9
   3   0   1 52642.6 1406.37   9
  -3   0  -1 50959.5 1346.59   2
   3   0   1 50539.4 1483.11   4
   3   0   2 52091.4 1402.31   9
  -3   0  -2 51167.1 1549.02   5
  -3   0  -2 50212.1 1373.13   6
   3   0   2 48137.2 1253.59  11
   3   0   2 49832.4 1244.55   1
   3   0   2 51120.0 1377.38   6
  -3   0  -2 50349.7 1397.11   9
  -3   0  -2 49652.1 1253.57   1
   3   0   2 50598.5 1525.67   4
  -3   0  -2 50479.5 1517.86   4
  -3   0  -2 49952.2 1459.30   8
  -3   0  -2 51065.3 1367.99   2
  -3   0  -3 15478.9 596.230   2
   3   0   3 13958.8 472.283  11
   3   0   3 19234.6 660.287   6
  -3   0  -3 15301.0 730.817   5
   3   0   3 15622.5 604.388   9
  -3   0  -3 17291.0 750.571   4
  -3   0  -3 15118.8 467.596   1
  -3   0  -3 16971.4 685.502   8
   3   0   3 16631.3 663.902   8
  -3   0  -3 14613.6 593.354   9
  -3   0  -4 10033.1 472.603   2
   3   0   4 9123.20 469.469   6
  -3   0  -4 9553.52 519.990   3
  -3   0  -4 10351.4 601.431   4
   3   0   4 8692.26 351.629  11
  -3   0  -4 9219.68 567.292   5
  -3   0  -4 10945.4 558.475  10
   3   0   4 9919.86 453.630   9
  -3   0  -4 9350.52 451.754   9
  -3   0  -4 10028.6 526.684   8
   3   0   4 9973.72 498.812   2
  -3   0  -4 9226.78 325.916   1
   3   0   4 9720.97 501.246   8
   3   0   5 909.848 147.285   8
  -3   0  -5 753.492 73.4949   1
   3   0   5 727.561 49.8835   7
  -3   0  -5 861.798 144.572   3
   3   0   5 982.549 154.153   2
   3   0   5 795.515 132.383   6
   3   0   5 716.002 85.5954  11
  -3   0  -5 897.039 175.621   5
  -3   0  -5 914.501 130.791   9
  -3   0  -6 5271.68 238.228   1
   3   0   6 6104.88 228.984   7
   3   0   6 6948.77 446.316   6
  -3   0  -6 6566.78 429.010   3
   3   0   6 6394.72 299.917  11
  -3   0  -6 6661.48 532.247   5
  -3   0  -6 5659.81 359.634   9
   3   0   7 50.2287 19.4556   7
   3   0   7 20.0622 28.6607   6
  -3   0  -7 53.0147 70.4357   5
  -3   0  -7 40.6169 15.7541   1
  -3   0  -7 64.4671 53.8828   3
  -3   0  -7 31.1184 19.6006   9
   3   0   7 62.8513 49.0175   9
   3   0   7 86.1417 39.9274  11
  -3   0  -8 841.161 205.966   5
   3   0   8 1021.66 187.756   6
   3   0   8 980.933 122.326  11
  -3   0  -9 1090.11 252.013   5
   3   0   9 1069.27 200.518   6
   3   0  10 647.648 161.445   6
  -3   0 -10 888.811 239.246   5
  -3  -1  12-2.65823 74.4966  11
   3   1 -12-4.98382 50.3762   5
   3   1 -12-49.6961 36.4819   1
  -3  -1  11 459.385 142.321  11
   3   1 -11 476.205 136.485   1
  -3  -1  11 424.196 92.7922   9
   3   1 -11 277.836 121.855   5
  -3  -1  10 1347.59 226.018  11
   3   1 -10 1343.90 253.105   5
   3   1 -10 1312.17 218.869   1
  -3  -1  10 1091.10 157.230   9
   3   1  -9 2033.25 288.217   5
  -3  -1   9 1885.30 259.963  11
  -3  -1   9 1831.71 193.645   9
   3   1  -9 1828.75 250.037   1
  -3  -1   8 24166.4 410.560   3
   3   1  -8 27723.6 945.431   1
  -3  -1   8 27674.5 973.926  11
  -3  -1   8 25237.2 736.022   9
   3   1  -8 28526.9 1021.54   5
   3   1  -7 4902.60 398.434   5
  -3  -1   7 4716.56 379.181  11
   3   1  -7 5060.92 384.754  11
   3   1  -7 5179.34 387.740   1
  -3  -1   7 5007.96 322.642   9
  -3  -1   6 489.860 101.521   7
   3   1  -6 237.968 80.5239   4
   3   1  -6 366.884 91.3874  11
   3   1  -6 283.746 81.6018   1
  -3  -1   6 450.759 106.360  11
   3   1  -6 343.204 91.7542   5
  -3  -1   6 390.923 81.4059   9
   3   1  -5 7251.33 430.508   4
  -3  -1   5 8194.48 424.257   7
  -3  -1   5 7767.01 385.720   9
  -3  -1   5 6926.17 428.497  11
  -3  -1   4 3426.63 267.303  11
  -3  -1   4 3793.13 261.851   7
  -3  -1   4 3753.99 252.034   9
   3   1  -4 3677.57 276.420   4
  -3  -1   3 3792.63 241.666   7
   3   1  -3 3992.86 254.115   9
  -3  -1   3 3979.18 268.664   1
  -3  -1   3 4331.99 266.843   9
  -3  -1   3 3800.79 268.279  11
   3   1  -3 3730.14 270.468   4
  -3  -1   2 1497.30 131.098   7
   3   1  -2 1671.35 139.395   7
  -3  -1   2 1474.49 148.037   1
  -3  -1   2 1562.02 153.851   9
  -3  -1   2 1499.71 156.050  11
   3   1  -2 1345.28 152.869   4
   3   1  -1 111.950 37.6854  11
   3   1  -1 90.6411 32.2312   4
  -3  -1   1 137.920 34.1315   7
   3   1  -1 93.8528 27.5844   7
  -3  -1   1 172.443 46.5893   1
   3   1  -1 109.997 32.2674  10
  -3  -1   1 145.849 43.2065   9
   3   1  -1 123.329 35.9814   1
  -3  -1   1 125.727 41.7781  11
  -3  -1   0 98594.8 2363.01   7
   3   1   0 99959.0 2365.13   7
  -3  -1   0 100773. 2404.16   6
  -3  -1   0 100514. 2492.40  11
   3   1   0 98984.3 2492.33  11
   3   1   0 101146. 2521.77  10
   3   1   0 99645.5 2403.38   1
  -3  -1   0 105652. 2562.49   9
   3   1   0 103222. 2625.31   4
  -3  -1   0 101988. 2436.91   1
  -3  -1  -1 3213.50 143.856   7
   3   1   1 3319.40 143.090   7
   3   1   1 3416.94 248.350  10
  -3  -1  -1 4019.71 208.645   6
   3   1   1 3672.20 223.263  11
  -3  -1  -1 3470.03 176.139   1
  -3  -1  -1 3431.78 249.205   9
   3   1   1 3565.44 288.776   4
   3   1   1 3532.50 162.157   1
  -3  -1  -1 3792.78 185.124   2
  -3  -1  -2 30556.5 842.659   2
   3   1   2 29505.3 706.096   7
   3   1   2 27933.6 718.958   1
   3   1   2 30784.8 873.824   6
   3   1   2 29052.3 876.843  11
  -3  -1  -2 28540.0 743.090   1
  -3  -1  -2 30741.0 983.304   9
   3   1   2 29350.1 1067.83   4
  -3  -1  -2 28997.1 1078.22   5
   3   1   3 3487.55 126.285   7
   3   1   3 5137.63 282.318   6
  -3  -1  -3 4429.94 307.327   9
   3   1   3 4143.84 258.835   2
   3   1   3 4675.97 317.316   8
  -3  -1  -3 4105.35 363.981   5
   3   1   4 823.688 57.0815   7
   3   1   4 882.442 61.4441   7
   3   1   4 937.323 129.162   6
   3   1   4 1124.28 126.541  11
   3   1   4 977.071 142.435   9
  -3  -1  -4 776.544 160.601   5
  -3  -1  -4 943.967 140.668   9
   3   1   4 991.272 135.474   2
   3   1   4 1113.71 155.487   8
   3   1   5 950.227 74.1802   7
   3   1   5 940.642 73.8077   7
  -3  -1  -5 887.272 140.242   9
   3   1   5 850.085 136.771   2
   3   1   5 817.737 133.192   6
   3   1   5 854.659 113.936  11
  -3  -1  -5 1049.75 196.817   5
   3   1   5 985.156 149.833   9
   3   1   5 981.188 154.670   8
   3   1   6 9787.21 358.167   7
   3   1   6 11003.1 368.346   7
   3   1   6 12303.8 595.397   6
   3   1   6 12083.0 505.748  11
  -3  -1  -6 12044.2 751.192   5
  -3  -1  -6 10412.2 552.134   9
   3   1   6 7869.56 501.360   9
   3   1   6 12812.8 624.051   2
   3   1   6 12126.0 607.832   8
   3   1   7 10571.0 565.489   6
  -3  -1  -7 9735.63 556.165   3
   3   1   7 8917.01 436.589  11
  -3  -1  -7 10042.3 713.957   5
  -3  -1  -7 8618.98 500.324   9
  -3  -1  -8 1593.98 289.083   5
   3   1   8 1539.93 221.397   6
   3   1   8 1451.71 174.401  11
   3   1   9-10.8718 32.3106   6
  -3  -1  -9 26.1825 61.1486   5
   3   2 -12 4396.21 515.844   5
   3   2 -12 3538.66 414.328   1
  -3  -2  12 3643.37 422.113  11
   3   2 -11 4651.29 502.031   5
  -3  -2  11 3747.89 413.795  11
   3   2 -11 3580.92 394.976   1
   3   2 -10 3713.24 427.284   5
  -3  -2  10 3679.92 391.218  11
   3   2 -10 3888.54 394.779   1
  -3  -2  10 3307.05 255.633   9
  -3  -2   9 35.6658 17.9327   3
  -3  -2   9 128.035 76.3398  11
   3   2  -9 100.074 55.4275   1
  -3  -2   9 100.726 23.0914   3
  -3  -2   9 144.805 49.8637   9
   3   2  -9 92.6548 75.3575   5
   3   2  -8 7198.09 521.419   4
  -3  -2   8 8168.78 413.514   9
   3   2  -8 7872.83 553.461   5
   3   2  -8 8364.56 546.998   1
  -3  -2   8 8154.15 542.411  11
   3   2  -7 1501.82 216.268   5
   3   2  -7 1410.93 192.116   7
   3   2  -7 1405.77 203.580   4
  -3  -2   7 1656.87 221.909  11
  -3  -2   7 1450.96 159.503   9
   3   2  -7 1513.90 208.955   1
   3   2  -6 2169.65 241.490   4
  -3  -2   6 2686.21 255.210   7
   3   2  -6 1972.29 222.347   7
  -3  -2   6 2392.28 258.810   5
  -3  -2   6 2330.66 251.210  11
   3   2  -6 2363.73 249.299  11
   3   2  -6 2231.21 251.275   1
  -3  -2   6 2370.63 203.708   9
  -3  -2   5 18.7432 21.7017   7
   3   2  -5 31.7790 27.0779   4
  -3  -2   5-0.82128 19.0810  11
  -3  -2   5 32.6399 15.0253   9
  -3  -2   4 32774.1 1053.19   7
  -3  -2   4 33731.3 1116.36  11
  -3  -2   4 33142.5 1030.30   9
   3   2  -4 34032.1 1030.35   9
   3   2  -4 32293.7 1096.59   4
  -3  -2   3 2235.79 190.490   7
  -3  -2   3 2189.29 213.722  11
  -3  -2   3 2303.74 199.584   9
   3   2  -3 2279.26 196.344   9
   3   2  -3 2270.49 215.271   4
  -3  -2   2 6691.84 335.365   7
   3   2  -2 6877.60 336.385   7
  -3  -2   2 7560.74 402.373  11
   3   2  -2 7110.64 362.536   1
  -3  -2   2 7258.53 381.036   9
   3   2  -2 7908.25 393.906   9
   3   2  -2 6992.74 399.862   4
  -3  -2   1 100789. 2416.26   7
   3   2  -1 93752.5 2403.73   7
  -3  -2   1 100076. 2525.50  11
   3   2  -1 100289. 2430.45   1
  -3  -2   1 99778.5 2540.75   9
   3   2  -1 97294.9 2577.60   4
  -3  -2   0 5568.16 267.850   7
   3   2   0 5785.93 268.675   7
  -3  -2   0 5677.00 220.452   6
   3   2   0 5146.23 319.963  11
   3   2   0 6203.75 271.807   1
   3   2   0 6175.65 346.038  10
  -3  -2   0 6151.07 364.827   9
   3   2   0 6467.24 395.949   4
  -3  -2  -1 13065.8 459.760   7
   3   2   1 16537.3 479.501   7
   3   2   1 12185.8 545.128  11
   3   2   1 14509.4 602.615  10
   3   2   1 13568.9 421.052   1
  -3  -2  -1 13004.8 601.455   9
   3   2   1 14420.7 668.681   4
   3   2   2 271.138 85.5380   4
   3   2   2 309.912 50.6644   7
   3   2   2 380.001 58.2012   6
   3   2   2 407.934 82.4991  11
   3   2   2 419.094 92.4983  10
  -3  -2  -2 324.009 100.796   5
  -3  -2  -2 344.604 84.1366   9
   3   2   2 404.793 91.4634   9
   3   2   2 329.056 82.0918   8
   3   2   3 792.954 161.310   4
   3   2   3 756.932 77.9995   7
  -3  -2  -3 790.979 154.660   4
   3   2   3 814.922 104.268   6
   3   2   3 802.266 101.799   2
  -3  -2  -3 765.916 159.139   5
  -3  -2  -3 739.062 130.973   9
   3   2   3 642.166 120.440   9
   3   2   3 809.702 131.917   8
   3   2   4 16909.5 505.372   7
   3   2   4 15582.5 596.636   6
  -3  -2  -4 16281.4 848.320   5
  -3  -2  -4 14804.3 704.685   9
   3   2   4 15116.4 695.513   9
   3   2   4 12782.1 637.784   8
   3   2   4 15431.9 600.570   2
   3   2   5 2929.83 179.864   7
   3   2   5 3273.07 258.860   6
   3   2   5 3256.61 267.678  11
  -3  -2  -5 2880.23 349.939   5
  -3  -2  -5 3189.69 300.064   9
   3   2   5 3172.33 285.656   8
   3   2   5 3395.02 265.538   2
   3   2   6 149.766 35.5072   7
   3   2   6 196.857 68.9363   2
   3   2   6 137.779 35.8947   7
   3   2   6 147.992 55.7992   6
   3   2   6 151.626 57.7534  11
  -3  -2  -6 187.988 88.7057   5
  -3  -2  -6 168.314 68.5415   9
   3   2   6 143.361 56.8389   8
   3   2   7 46.4709 44.8317   8
   3   2   7 98.9724 35.8774   7
   3   2   7 114.469 63.8492   6
   3   2   7 146.597 55.6096  11
  -3  -2  -7 169.210 69.0777   5
  -3  -2  -7 70.9755 40.9310   9
  -3  -2  -8 1887.19 327.970   5
   3   2   8 1746.25 236.397   6
   3   2   8 1602.99 210.661  11
   3   2   9 941.035 174.103   6
  -3  -2  -9 830.481 232.123   5
   3   3 -12 33.6561 42.6168   4
  -3  -3  12 52.3580 70.2160  11
   3   3 -12 80.3263 62.5401   5
   3   3 -12 36.9589 4.25307   1
   3   3 -11 73.0700 58.0117   4
  -3  -3  11 204.626 104.237  11
   3   3 -11 122.830 85.6830   1
   3   3 -11 43.0922 53.5116   5
   3   3 -10 196.683 97.3634   4
  -3  -3  10 402.584 124.907  11
   3   3 -10 283.387 118.055   5
  -3  -3  10 417.342 82.6268   9
   3   3 -10 325.980 115.617   1
   3   3  -9 171.499 75.4025   5
   3   3  -9 102.504 49.0486   4
   3   3  -9 202.200 90.7298   1
  -3  -3   9 183.057 79.1909  11
  -3  -3   9 232.118 54.9159   3
  -3  -3   9 189.595 57.5061   9
   3   3  -8 2104.21 269.923   4
   3   3  -8 2371.34 275.535   7
  -3  -3   8 2815.30 312.836  11
   3   3  -8 2534.89 301.665   1
  -3  -3   8 2546.73 212.874   9
   3   3  -8 2777.52 332.051   5
   3   3  -7 16368.1 736.766   7
   3   3  -7 14781.8 764.449   1
  -3  -3   7 14755.0 601.575   9
  -3  -3   7 14825.7 760.947  11
   3   3  -7 14243.6 733.032   4
  -3  -3   6 1493.71 184.769   2
   3   3  -6 2373.51 256.370   7
   3   3  -6 1825.35 235.505   1
  -3  -3   6 2203.35 260.336  11
   3   3  -6 1949.81 244.395   4
  -3  -3   6 2388.99 213.446   9
  -3  -3   5 3579.06 291.473   7
  -3  -3   5 3030.72 240.104   2
  -3  -3   5 2998.78 287.383   5
  -3  -3   5 3129.61 296.337  11
   3   3  -5 3395.15 304.640  11
   3   3  -5 3134.68 283.695   4
  -3  -3   5 3112.50 244.576   9
   3   3  -5 3284.54 246.987   9
   3   3  -5 3125.02 295.402   1
  -3  -3   4 38055.0 1256.74   4
  -3  -3   4 38475.0 1127.02   2
  -3  -3   4 37276.8 1220.63   7
   3   3  -4 40539.0 1300.11   1
  -3  -3   4 43289.5 1338.45  11
  -3  -3   4 42441.3 1317.62   5
  -3  -3   4 41546.6 1229.92   9
   3   3  -4 35080.0 1168.20   9
   3   3  -4 40303.8 1295.34   4
  -3  -3   3 2158.61 151.949   2
  -3  -3   3 2149.07 202.643   7
  -3  -3   3 2256.76 231.213  11
  -3  -3   3 2060.58 207.413   9
   3   3  -3 2044.90 199.566   9
   3   3  -3 2333.36 231.629   4
  -3  -3   2 19224.8 715.918   7
  -3  -3   2 19744.1 766.411   9
  -3  -3   2 20661.0 793.773  11
   3   3  -2 21847.0 779.513   9
   3   3  -2 20830.4 799.668   4
  -3  -3   2 18390.4 534.504   2
   3   3  -1 707.416 128.591   4
  -3  -3   1 700.763 103.105   7
   3   3  -1 675.134 101.978   7
   3   3  -1 781.752 110.029   1
  -3  -3   1 755.014 127.737   9
  -3  -3   0 26005.8 855.084   7
   3   3   0 26449.9 825.098   1
   3   3   0 29233.7 870.983   7
   3   3   0 28592.7 981.024  11
  -3  -3   0 26929.2 999.436   9
   3   3   0 27317.9 1021.54   4
  -3  -3   0 27018.5 999.516   4
   3   3   1 23328.8 747.575   7
   3   3   1 22321.0 670.288   1
   3   3   1 23305.4 878.783  10
  -3  -3  -1 23834.7 920.044   9
   3   3   1 23261.7 951.531   4
  -3  -3  -1 25294.7 960.397   4
   3   3   1 23744.9 879.611  11
   3   3   2 2052.44 163.312   7
   3   3   2 1491.43 78.9309   1
   3   3   2 1757.22 201.380  11
   3   3   2 1901.34 215.725  10
  -3  -3  -2 1908.93 238.390   4
  -3  -3  -2 2106.79 237.132   9
   3   3   2 1344.92 76.0981   1
   3   3   2 2059.96 230.019   9
   3   3   2 1673.52 230.574   4
  -3  -3  -2 2052.77 256.497   5
   3   3   3 12732.7 481.210   7
   3   3   3 10929.5 421.764   6
  -3  -3  -3 12700.7 735.237   5
   3   3   3 12590.0 637.346  10
  -3  -3  -3 12132.2 643.731   9
   3   3   3 12861.6 609.580   8
   3   3   3 12328.1 439.067   2
   3   3   4 5238.82 286.433   7
   3   3   4 5302.67 292.010   6
  -3  -3  -4 5304.70 484.295   5
  -3  -3  -4 5133.38 412.710   9
   3   3   4 5730.22 390.056   8
   3   3   4 5476.28 296.755   2
   3   3   5 940.694 115.586   7
   3   3   5 1170.68 143.031   6
   3   3   5 877.367 153.216  11
  -3  -3  -5 1208.45 233.785   5
  -3  -3  -5 974.770 175.062   9
   3   3   5 1065.66 138.545   2
   3   3   5 1083.54 169.536   8
   3   3   6 1327.47 173.292   6
   3   3   6 1385.92 203.026  11
   3   3   6 1594.27 211.424   8
  -3  -3  -6 1481.76 272.338   5
  -3  -3  -6 1199.43 204.861   9
   3   3   6 1145.09 162.824   2
   3   3   7 1397.74 213.396  11
   3   3   7 1532.00 198.994   6
  -3  -3  -7 1572.19 292.316   5
   3   3   7 1609.80 215.878   8
   3   3   8 571.320 128.662   6
   3   3   8 457.808 124.472  11
  -3  -3  -8 546.354 184.706   5
   3   4 -12 897.757 226.079   4
  -3  -4  12 815.000 194.076  11
   3   4 -12 786.663 238.154   5
   3   4 -12 675.236 187.364   1
   3   4 -11 1887.78 313.595   1
   3   4 -11 1974.62 315.391   4
  -3  -4  11 2088.43 318.236  11
   3   4 -11 1274.42 286.507   5
   3   4 -10 2025.76 318.013   4
   3   4 -10 1586.39 258.596   7
   3   4 -10 1668.99 282.869   1
  -3  -4  10 1700.84 274.352  11
   3   4  -9 2456.12 308.838   7
  -3  -4   9 2714.18 340.260  11
   3   4  -9 2732.26 342.246   1
  -3  -4   9 2512.31 226.210   3
  -3  -4   9 2960.74 228.224   9
   3   4  -9 2346.52 313.445   4
   3   4  -8 6511.94 486.961   7
  -3  -4   8 5206.79 458.786  11
   3   4  -8 6056.94 504.593   1
  -3  -4   8 6435.61 364.220   9
  -3  -4   8 5666.95 363.112   3
   3   4  -8 5906.05 482.232   4
   3   4  -7 3707.25 374.450   1
  -3  -4   7 4352.30 394.742  11
   3   4  -7 3645.88 344.744   7
  -3  -4   7 4148.35 293.998   9
   3   4  -7 3566.16 354.732   4
  -3  -4   6 4076.48 323.153   2
   3   4  -6 4274.95 351.827   7
  -3  -4   6 4583.89 386.935  11
  -3  -4   6 4293.18 307.835   9
   3   4  -6 3695.35 279.730   9
   3   4  -6 4104.38 353.879   4
   3   4  -5 38.5438 35.7092   4
   3   4  -5 140.550 53.0079   7
  -3  -4   5 68.7112 22.3125   2
  -3  -4   5 146.346 81.8885   5
  -3  -4   5 180.100 77.3736  11
  -3  -4   5 117.792 44.8937   9
   3   4  -5 104.282 48.7808   9
  -3  -4   4 3534.60 302.898   4
   3   4  -4 4391.83 334.940   7
  -3  -4   4 4206.36 351.514  11
  -3  -4   4 4585.79 350.528   5
  -3  -4   4 4494.68 327.104   9
   3   4  -4 4261.96 313.510   9
   3   4  -4 4247.05 341.112   4
  -3  -4   4 3923.75 255.876   2
  -3  -4   3 32.4324 21.3569   2
  -3  -4   3-4.79369 14.9991   7
   3   4  -3 1.40658 31.1244   4
   3   4  -3 46.6499 33.2794   7
  -3  -4   3 47.1518 45.1233   4
  -3  -4   3 19.8037 32.5768   9
   3   4  -3-0.46394 25.6568   9
   3   4  -3 7.50809 6.37304  11
  -3  -4   2 1640.09 187.477   7
   3   4  -2 1597.65 181.149   7
  -3  -4   2 1101.54 80.2402   6
   3   4  -2 1718.34 213.680  11
  -3  -4   2 1553.34 202.921   9
   3   4  -2 1749.88 203.299   9
   3   4  -2 1847.53 215.421   4
  -3  -4   2 1415.52 183.325   4
   3   4  -1 204.538 78.0731   4
  -3  -4   1 236.860 66.7026   7
   3   4  -1 287.376 72.9096   7
  -3  -4   1 377.339 100.587   4
   3   4  -1 272.371 81.3360  11
  -3  -4   1 281.267 88.0685   9
   3   4  -1 270.578 84.1666   9
  -3  -4   0 4583.51 316.940   7
   3   4   0 4906.99 377.314  11
  -3  -4   0 5024.73 387.465   9
   3   4   0 5198.39 398.501   4
  -3  -4   0 5032.75 381.474   4
   3   4   1 3489.05 315.300  11
   3   4   1 3646.18 319.081  10
  -3  -4  -1 3763.73 343.349   9
   3   4   1 3441.36 215.290   1
   3   4   1 3576.44 343.028   4
  -3  -4  -1 3761.24 336.568   4
   3   4   2 4518.13 196.236   1
   3   4   2 5375.17 397.369  10
   3   4   2 4476.59 204.002   1
  -3  -4  -2 5118.66 414.354   9
  -3  -4  -2 5591.16 471.088   5
   3   4   2 5006.53 429.136   4
   3   4   3 23.7221 13.6969   2
   3   4   3 56.6441 43.2252  10
  -3  -4  -3-28.6137 54.7754   5
  -3  -4  -3 63.5850 58.6348   9
   3   4   3 21.5281 34.4393   8
   3   4   4 4264.33 228.881   6
  -3  -4  -4 4457.48 453.865   5
   3   4   4 4071.87 379.384  10
  -3  -4  -4 4001.32 392.386   9
   3   4   4 3435.03 317.270   8
   3   4   4 4597.31 250.219   2
   3   4   5 157.425 54.0663   7
   3   4   5 166.029 48.1073   6
  -3  -4  -5 107.659 74.8883   5
  -3  -4  -5 155.183 74.4809   9
   3   4   5 138.483 65.8374   8
   3   4   6 2580.76 227.903   7
   3   4   6 2203.24 282.209  11
  -3  -4  -6 2550.94 370.386   5
  -3  -4  -6 2349.23 314.049   9
   3   4   6 2492.31 271.578   8
   3   4   7 75.6552 51.6440  11
  -3  -4  -7 226.614 114.453   5
   3   4   7 108.062 57.3555   8
   3   4   8 576.633 151.795  11
  -3  -4  -8 494.060 187.026   5
   3   5 -11-9.54560 15.4100   7
   3   5 -11 46.8646 34.1762   4
  -3  -5  11-7.31204 37.6861  11
   3   5 -11-34.8963 56.4188   1
   3   5 -10 272.063 112.634   7
   3   5 -10 249.547 116.612   4
   3   5 -10 161.943 80.4703   1
  -3  -5  10 320.019 106.212  11
   3   5  -9 937.299 196.853   7
   3   5  -9 803.234 177.256   4
   3   5  -9 975.967 213.611   1
  -3  -5   9 1055.35 211.250  11
  -3  -5   9 1037.72 138.558   9
  -3  -5   9 989.551 162.634   3
   3   5  -8 631.615 159.805   7
   3   5  -8 810.821 177.246   4
  -3  -5   8 838.754 190.118  11
  -3  -5   8 591.793 107.772   9
  -3  -5   8 668.283 130.972   3
   3   5  -7 573.249 136.231   4
   3   5  -7 620.039 145.293   7
  -3  -5   7 903.896 189.727  11
  -3  -5   7 721.705 126.517   9
   3   5  -7 550.000 108.242   9
   3   5  -6 3361.99 329.367   7
  -3  -5   6 3389.09 352.682  11
  -3  -5   6 3247.00 288.232   9
   3   5  -6 3131.39 269.370   9
   3   5  -6 2897.04 310.892   4
  -3  -5   6 2561.01 261.586   2
   3   5  -5 6008.51 427.769   7
  -3  -5   5 6326.90 416.079   9
   3   5  -5 5328.06 369.673   9
  -3  -5   5 4372.80 320.774   2
   3   5  -5 5392.94 417.126   4
  -3  -5   4 2534.44 268.900   4
   3   5  -4 5631.97 398.089   7
  -3  -5   4 4581.84 261.240   6
   3   5  -4 4225.22 334.008   9
  -3  -5   4 4074.02 273.969   2
  -3  -5   4 4963.11 371.077   9
   3   5  -4 4297.07 363.807   4
   3   5  -3 13886.1 648.099   7
  -3  -5   3 14766.6 689.368   9
  -3  -5   3 10678.5 395.421   6
   3   5  -3 13133.7 663.506   4
  -3  -5   3 10532.8 576.918   4
   3   5  -2 687.703 142.046   4
   3   5  -2 637.346 122.147   7
  -3  -5   2 581.435 124.252   4
  -3  -5   2 772.939 153.827   9
   3   5  -1-8.90974 22.4200   4
   3   5  -1-15.0336 24.0132   7
  -3  -5   1 20.2280 36.0504   4
  -3  -5   1-4.35893 15.6803   9
   3   5   0 365.220 110.049   4
   3   5   0 312.092 80.6479   7
  -3  -5   0 354.805 93.3891   7
  -3  -5   0 243.443 91.6200   9
   3   5   1 4466.81 328.433   7
   3   5   1 3700.55 235.883   1
  -3  -5  -1 4464.47 406.844   9
   3   5   1 3933.53 380.069   4
   3   5   2 15667.1 664.523   7
   3   5   2 13980.5 472.416   1
  -3  -5  -2 15165.4 817.242   9
  -3  -5  -2 15400.9 853.857   5
   3   5   2 14418.6 746.504  10
   3   5   2 12898.0 487.946   1
   3   5   2 14353.4 802.127   4
   3   5   3 780.368 138.467   7
   3   5   3 835.535 166.593  10
  -3  -5  -3 898.891 201.151   5
  -3  -5  -3 874.750 188.661   9
   3   5   4 2345.17 238.657   7
   3   5   4 2368.26 304.862  10
  -3  -5  -4 2094.66 299.931   9
   3   5   4 2259.85 259.009   8
  -3  -5  -4 2516.72 353.719   5
   3   5   5 344.528 86.1506   7
   3   5   5 238.291 87.8154   8
   3   5   5 298.089 105.357  10
  -3  -5  -5 433.994 151.560   5
  -3  -5  -5 307.264 120.272   9
   3   5   6 529.832 110.539   7
   3   5   6 409.891 130.447  11
  -3  -5  -6 525.384 173.277   5
   3   5   6 432.469 112.677   8
   3   5   7 667.703 165.912  11
  -3  -5  -7 470.308 177.597   5
   3   6 -10 139.827 99.5491   4
   3   6 -10 77.9716 64.5982   7
  -3  -6  10 46.2064 41.1506   6
   3   6 -10 140.706 88.7724   1
  -3  -6  10 89.5307 53.8804  11
   3   6  -9 200.412 98.5341   4
   3   6  -9 270.290 115.698   7
  -3  -6   9 113.440 54.7182   6
  -3  -6   9 203.515 98.3494  11
  -3  -6   9 144.929 70.4994   3
   3   6  -8 20.0698 31.1101   4
   3   6  -8 49.4532 59.2731   7
  -3  -6   8-15.7560 29.3029   6
  -3  -6   8 26.5942 43.7553   9
  -3  -6   8-38.1737 36.4764   3
   3   6  -7 572.251 137.020   4
   3   6  -7 598.215 150.251   7
  -3  -6   7 792.378 143.502   6
  -3  -6   7 658.188 132.711   9
  -3  -6   7 721.671 149.063   3
  -3  -6   6 319.553 94.4311   2
   3   6  -6 333.188 108.704   4
   3   6  -6 506.322 136.758   7
  -3  -6   6 556.306 108.788   6
  -3  -6   6 458.012 118.573   9
   3   6  -5 742.234 156.552   4
   3   6  -5 1087.14 185.535   7
  -3  -6   5 1152.58 184.670   9
   3   6  -4 68.6042 52.1485   4
   3   6  -4 82.2012 51.6997   7
  -3  -6   4 87.7258 32.6268   6
  -3  -6   4 113.233 54.9985   9
   3   6  -3 2316.62 266.801   7
  -3  -6   3 1852.88 126.278   6
  -3  -6   3 2475.22 285.293   9
   3   6  -3 2011.37 257.912   4
   3   6  -2 4071.52 351.468   7
  -3  -6   2 4679.15 411.582   9
   3   6  -2 4018.04 370.747   4
   3   6  -1 6284.92 441.029   7
  -3  -6   1 6488.10 508.648   9
   3   6  -1 5514.88 451.345   4
   3   6   0 2338.79 264.773   7
  -3  -6   0 2617.95 324.652   9
   3   6   0 2469.22 300.103   4
  -3  -6  -1 28.6195 17.0333   9
   3   6   1 33.3831 39.6321   4
   3   6   1 19.3262 18.5576   7
   3   6   1 8.11690 8.92665   1
  -3  -6  -1-34.0381 53.7393   5
   3   6   2 2015.80 243.643   7
  -3  -6  -2 2205.12 317.548   5
   3   6   2 2075.48 282.166  10
  -3  -6  -2 2261.61 311.080   9
   3   6   3 1387.03 200.013   7
   3   6   3 1373.45 227.891  10
  -3  -6  -3 1662.02 278.983   9
  -3  -6  -3 1679.98 287.462   5
   3   6   4 612.461 135.386   7
   3   6   4 562.971 133.224   8
   3   6   4 417.007 136.072  10
  -3  -6  -4 555.953 164.578   9
  -3  -6  -4 566.492 163.115   5
   3   6   5 450.763 111.631   7
   3   6   5 563.867 163.501  10
  -3  -6  -5 472.683 169.966   5
   3   6   5 496.935 128.088   8
   3   6   6 117.255 90.9165  11
  -3  -6  -6 87.0182 80.3187   5
   3   7  -9 567.513 165.085   4
   3   7  -9 1229.09 243.152   7
  -3  -7   9 1059.48 195.488   6
  -3  -7   9 937.921 192.430   3
   3   7  -8 130.595 86.2846   4
   3   7  -8 245.467 107.745   7
  -3  -7   8 151.298 63.7324   6
  -3  -7   8 203.657 94.4296   3
   3   7  -7 46.8827 46.7182   4
   3   7  -7 122.173 73.4946   7
  -3  -7   7 117.979 56.8702   6
  -3  -7   7 43.2143 43.0624   9
  -3  -7   7 18.1815 33.2545   3
   3   7  -6-0.25341 48.0563   4
   3   7  -6 12.3170 21.9236   7
  -3  -7   6 3.43197 34.5459   6
  -3  -7   6 8.12543 14.6691   9
  -3  -7   6 48.2142 53.0081   3
   3   7  -5 6740.03 523.605   7
  -3  -7   5 6068.88 475.129   9
   3   7  -5 4621.37 417.334   4
   3   7  -4 4576.05 418.228   7
  -3  -7   4 3856.23 231.354   6
  -3  -7   4 4706.52 427.508   9
   3   7  -4 3940.58 374.448   4
   3   7  -3 1868.12 264.207   7
   3   7  -3 1564.44 229.764   4
  -3  -7   3 2337.39 299.611   9
   3   7  -2 127.561 61.4230   4
   3   7  -2 181.340 72.2969   7
  -3  -7   2 343.196 117.847   9
   3   7  -1 2634.27 307.152   7
  -3  -7   1 2590.27 346.860   9
   3   7  -1 2013.79 279.107   4
   3   7   0 440.833 126.990   4
   3   7   0 661.910 152.267   7
  -3  -7   0 696.291 178.748   9
   3   7   1 3362.77 347.203   7
  -3  -7  -1 3888.93 432.008   5
  -3  -7  -1 3847.98 442.489   9
   3   7   1 3197.20 375.423   4
   3   7   2 1239.06 206.202   7
   3   7   2 1798.54 279.457  10
  -3  -7  -2 1556.33 278.714   5
  -3  -7  -2 1689.44 291.931   9
   3   7   3 310.039 94.7239   7
   3   7   3 493.528 146.085  10
  -3  -7  -3 445.306 143.000   5
  -3  -7  -3 530.855 172.949   9
   3   7   4-38.4451 45.7777   7
   3   7   4 205.493 84.9582  10
  -3  -7  -4 143.473 95.4572   5
   3   7   4 144.330 64.6547   8
   3   8  -7 412.171 126.595   4
   3   8  -7 643.003 179.192   7
  -3  -8   7 793.910 195.501   3
   3   8  -6 189.651 87.0269   4
   3   8  -6 285.333 119.623   7
  -3  -8   6 203.061 79.7911   9
  -3  -8   6 322.907 122.860   3
   3   8  -5 74.6865 65.0379   4
   3   8  -5 67.1622 62.3139   7
  -3  -8   5 65.3164 47.8196   9
  -3  -8   5 19.5659 37.8304   3
   3   8  -4 20.5888 20.1708   4
   3   8  -4 261.279 96.3781   7
  -3  -8   4 185.549 90.5570   9
   3   8  -3 47.7080 36.4299   4
   3   8  -3 200.870 97.1645   7
  -3  -8   3 131.163 70.7472   9
   3   8  -2 312.505 112.917   4
   3   8  -2 542.660 152.619   7
  -3  -8   2 642.278 180.029   9
   3   8  -1 3898.98 400.772   7
  -3  -8   1 4299.53 465.667   9
   3   8  -1 2888.39 343.347   4
   3   8   0 366.157 124.629   4
   3   8   0 619.769 163.940   7
  -3  -8   0 577.935 175.456   9
  -3  -8   0 511.659 169.656   5
   3   8   1-8.33038 43.4630   7
  -3  -8  -1 110.487 95.7389   9
  -3  -8  -1 37.8796 47.3782   5
   3   8   2 699.711 174.370   7
   3   8   2 1475.46 266.431  10
  -3  -8  -2 1283.31 263.447   5
  -3  -8  -2 1749.45 319.620   9
   3   9  -3 2853.48 376.681   7
  -3  -9   3 3578.86 443.834   3
   3   9  -2 585.034 149.378   7
  -4   9   4-4.52004 40.5306   7
  -4   9   4-7.23461 27.3947  11
   4  -9  -4 18.6908 32.1634   3
  -4   9   3 10.8013 60.3124   7
  -4   9   3 10.3908 35.9746  11
   4  -9  -3 19.1136 51.9943   3
  -4   9   2-69.0629 42.4940   7
  -4   9   2-0.33440 40.0050  11
   4  -9  -2-75.4448 27.7719   3
  -4   9   1 2015.30 309.137   7
  -4   9   1 892.492 218.554  11
   4  -9  -1 1775.54 315.979   3
  -4   9   0 57.4285 55.7102   7
  -4   9   0-33.0662 30.7372  11
   4  -9   0 5.81541 55.0631   3
  -4   9  -1 280.779 151.867   2
  -4   9  -1 117.686 62.3781   7
  -4   9  -1 79.9805 53.6974  11
   4  -9   1 176.427 101.960   3
  -4   9  -2 159.606 103.975   2
  -4   9  -2 206.903 99.4041   7
  -4   9  -2 38.5791 33.7150  11
   4  -9   2 435.555 175.057   3
  -4   9  -3 55.4535 47.4207   7
  -4   9  -3 81.1068 60.1052   2
   4  -9   3 158.597 89.9649   3
  -4   8   6 94.4542 81.9901   7
  -4   8   6 72.2174 62.7775  11
   4  -8  -6 74.4658 57.3829   3
   4  -8  -6 0.28047 27.2172   1
  -4   8   5 274.486 110.898   7
  -4   8   5 280.074 131.670  11
   4  -8  -5 376.533 126.411   3
  -4   8   4 736.382 179.998   7
  -4   8   4 1158.39 232.182  11
   4  -8  -4 945.857 220.761   3
  -4   8   3 113.536 60.9766   7
  -4   8   3 226.674 103.600  11
   4  -8  -3 300.168 124.720   3
  -4   8   2 0.90224 35.2852   7
  -4   8   2 64.9655 59.1466  11
   4  -8  -2 49.0345 63.7882   3
   4  -8  -1 7341.45 632.569   3
  -4   8   1 6410.04 530.198   7
  -4   8   0 1823.00 271.348   7
  -4   8   0 935.131 193.085  11
   4  -8   0 2022.90 325.186   3
  -4   8  -1 27.2423 21.8802  11
  -4   8  -1 40.5676 40.9246   2
  -4   8  -1 39.3002 43.1582   7
   4  -8   1 12.4417 52.8315   3
  -4   8  -2-34.3202 47.6167   2
  -4   8  -2-46.7980 52.0727   7
  -4   8  -2-25.4232 36.0456  11
   4  -8   2-2.24596 37.3326   3
  -4   8  -3-28.2004 28.2893   7
  -4   8  -3 3.11212 38.2877   2
  -4   8  -3 27.2679 56.7837  11
   4  -8   3 51.0597 67.8048   3
  -4   8  -4 28.3273 39.6429   7
  -4   8  -4 108.123 75.2853   2
   4  -8   4 262.083 124.778   3
  -4   8  -5 228.199 93.9306   7
  -4   8  -5 157.467 93.8847   2
   4  -8   5 107.522 77.0384   3
  -4   7   8 1392.94 282.690  11
   4  -7  -8 1129.35 205.927   1
   4  -7  -8 439.907 144.802   3
  -4   7   7 576.417 180.042  11
   4  -7  -7 268.572 108.184   3
   4  -7  -7 494.229 132.677   1
   4  -7  -6 330.388 105.144   1
   4  -7  -6 404.893 106.021   4
  -4   7   6 267.370 118.380  11
   4  -7  -6 246.477 113.959   3
  -4   7   5-10.7000 5.23442  11
   4  -7  -5 26.9329 35.4042   4
   4  -7  -5 61.3806 55.5626   1
   4  -7  -5 36.7919 48.2730   3
  -4   7   4-26.2435 30.8767   7
  -4   7   4 121.014 68.9145  11
   4  -7  -4 5.17907 6.60573   4
   4  -7  -4 47.6544 79.8459   3
   4  -7  -4 19.7859 4.83490   1
  -4   7   3 2370.94 309.088   7
   4  -7  -3 2772.74 311.086   1
  -4   7   3 2987.77 348.090  11
  -4   7   3 2645.65 228.277   8
   4  -7  -3 2851.29 358.822   3
  -4   7   2 4602.69 427.540   7
  -4   7   2 4231.50 404.182  11
   4  -7  -2 4958.30 471.632   3
  -4   7   2 4247.43 324.292   8
  -4   7   1 703.942 155.361   7
  -4   7   1 685.388 150.310  11
   4  -7  -1 798.157 188.938   3
  -4   7   0 593.198 145.671   7
  -4   7   0 385.132 104.196  11
   4  -7   0 354.286 122.846   3
  -4   7  -1 335.293 105.489   7
  -4   7  -1 232.344 78.9904  11
   4  -7   1 589.384 160.566   3
  -4   7  -2-13.6108 62.2536   2
  -4   7  -2-21.4293 33.0186   7
  -4   7  -2 7.94857 15.6673  11
   4  -7   2-14.0570 33.0423   3
  -4   7  -3 1033.88 175.805   7
  -4   7  -3 1269.55 236.899   2
  -4   7  -3 304.328 71.7352  11
   4  -7   3 1279.69 245.824   3
  -4   7  -4-22.5386 50.9983   7
  -4   7  -4-34.7251 50.9613   2
   4  -7   4-24.0400 49.6388   3
  -4   7  -5 206.107 73.0581   7
  -4   7  -5 327.637 131.456   2
   4  -7   5 394.131 140.737   3
  -4   7  -6 1083.52 187.268   7
  -4   7  -6 1043.65 239.570   2
   4  -7   6 1183.31 252.753   3
  -4   7  -7 874.037 219.326   2
   4  -7   7 931.279 221.656   6
   4  -6  -9 431.012 131.096   5
  -4   6   9 388.023 144.617  11
   4  -6  -9 347.472 103.639   1
  -4   6   8 107.585 78.8865  11
   4  -6  -8 4.94797 9.13060   5
   4  -6  -8-6.11182 50.7901   3
   4  -6  -8 7.65135 43.6822   1
   4  -6  -7 2232.59 275.150   1
   4  -6  -7 2544.66 264.170   5
  -4   6   7 2418.96 343.583  11
   4  -6  -7 1723.77 255.018   3
   4  -6  -6 2186.56 268.404   1
   4  -6  -6 1923.69 276.704   3
  -4   6   6 2243.68 321.554  11
   4  -6  -6 2213.27 222.883   5
   4  -6  -5-44.5993 33.6230   1
   4  -6  -5 41.8539 43.7127   4
  -4   6   5 34.4690 44.2452  11
   4  -6  -5-36.3494 48.5466   3
   4  -6  -4 3507.94 376.912   3
   4  -6  -4 4171.82 361.464   1
  -4   6   4 3913.47 390.159  11
  -4   6   4 3300.17 227.091   5
  -4   6   4 4032.54 232.793   8
   4  -6  -4 4104.59 266.660   4
   4  -6  -3 144.040 35.5784   4
  -4   6   3 248.878 86.9150  11
   4  -6  -3 145.221 76.5979   3
  -4   6   3 279.617 68.7949   8
   4  -6  -3 162.243 66.0929   1
  -4   6   2 135.723 64.3698   7
   4  -6  -2 176.337 77.8415   1
  -4   6   2 158.356 65.4791  11
   4  -6  -2 185.425 87.0058   3
  -4   6   2 121.576 44.8259   8
  -4   6   1 1450.98 196.064  11
  -4   6   1 1348.77 206.929   7
   4  -6  -1 1512.48 219.957   1
   4  -6  -1 1488.31 239.509   3
  -4   6   1 1362.14 180.241   8
  -4   6   0 6657.84 457.333   7
   4  -6   0 6522.83 520.242   3
  -4   6   0 5535.14 393.076  11
  -4   6  -1 1235.17 189.988   7
  -4   6  -1 1014.15 148.583  11
   4  -6   1 1180.29 219.092   3
  -4   6  -2 40.9218 42.3900   2
  -4   6  -2 34.5702 43.6191   7
   4  -6   2 3.74305 20.4415   3
  -4   6  -2-15.6058 13.9947  11
  -4   6  -3 130.072 76.4161   2
  -4   6  -3 61.9414 31.5744   7
  -4   6  -3 152.463 57.6889  11
  -4   6  -3 53.5152 25.1587  11
  -4   6  -3 136.450 38.0143   5
   4  -6   3 140.246 72.7744   3
  -4   6  -4 203.491 73.9650   7
  -4   6  -4 143.803 83.9578   2
  -4   6  -4 54.8224 27.7878  11
   4  -6   4 98.1325 69.0784   3
  -4   6  -4 113.132 37.7225   5
  -4   6  -4 26.5708 18.5630   9
  -4   6  -5 208.617 64.1329   7
   4  -6   5 213.244 96.4107   3
  -4   6  -5 188.931 88.0906   2
   4  -6   5 333.527 116.180   6
  -4   6  -5 232.248 67.7107   5
  -4   6  -6 613.176 126.052   7
  -4   6  -6 449.659 150.913   2
   4  -6   6 555.237 156.923   6
  -4   6  -6 366.388 102.089   5
   4  -6   6 440.829 137.171   3
  -4   6  -7 487.398 161.804   2
   4  -6   7 387.627 143.525   3
   4  -6   7 667.711 183.274   6
   4  -5 -10 29.2774 43.8504   1
  -4   5  10 70.3965 62.2077  11
   4  -5 -10 92.3243 44.6012   5
   4  -5  -9 1331.90 217.587   1
   4  -5  -9 1377.62 234.591   5
  -4   5   9 1498.54 274.450  11
   4  -5  -8 256.386 90.6700   1
  -4   5   8 149.580 91.1063  11
   4  -5  -8 450.379 120.124   5
   4  -5  -8 104.236 59.3197   3
   4  -5  -7 531.547 119.015   1
  -4   5   7 479.841 134.954  11
   4  -5  -7 371.675 103.346   3
   4  -5  -7 515.166 119.636   5
   4  -5  -6 3378.67 314.572   1
   4  -5  -6 2655.23 292.895   3
  -4   5   6 3390.98 361.212  11
  -4   5   6 3037.63 293.000   5
  -4   5   6 2717.75 171.732  10
   4  -5  -6 3047.97 267.785   5
   4  -5  -5 6836.28 411.261   4
   4  -5  -5 6677.50 448.655   1
   4  -5  -5 6073.18 464.934   3
   4  -5  -5 6948.09 383.203   5
  -4   5   5 6242.21 387.992   5
  -4   5   5 6112.72 479.939  11
   4  -5  -4 4838.85 367.460   1
   4  -5  -4 4654.43 396.877   3
  -4   5   4 4693.30 283.766   5
  -4   5   4 4699.07 393.946  11
  -4   5   4 4217.76 231.540   8
   4  -5  -4 4781.52 301.675   4
   4  -5  -3 7329.36 456.033   1
   4  -5  -3 7406.18 513.568   3
  -4   5   3 7339.63 480.720  11
  -4   5   3 7144.81 308.040   5
  -4   5   3 6486.10 341.914   8
   4  -5  -3 7333.93 342.851   4
   4  -5  -2 1041.22 161.902   1
  -4   5   2 777.650 137.822  11
   4  -5  -2 894.302 172.958   3
   4  -5  -2 917.257 92.4804   4
  -4   5   2 1015.57 133.869   8
  -4   5   1 4959.81 373.397   7
   4  -5  -1 5397.12 381.230   1
   4  -5  -1 4891.21 416.429   3
  -4   5   1 4690.39 335.772  11
   4  -5  -1 3784.78 185.338   4
  -4   5   1 4969.64 332.454   8
  -4   5   0-12.2901 33.0668   7
   4  -5   0-19.1429 23.2523   1
  -4   5   0 39.4314 36.8866  11
   4  -5   0 2.40171 13.1492   3
  -4   5   0 15.4187 11.1176   8
  -4   5  -1 892.347 144.444   7
  -4   5  -1 828.794 72.1526   5
  -4   5  -1 832.295 120.416  11
   4  -5   1 854.332 177.543   3
  -4   5  -1 944.266 80.3715   4
  -4   5  -2 9654.71 496.713   7
   4  -5   2 10164.5 642.788   3
  -4   5  -2 9548.89 386.205   5
  -4   5  -2 8437.96 400.246  11
  -4   5  -2 9694.46 619.269   2
  -4   5  -2 9729.62 378.733   4
  -4   5  -3 399.245 74.4662   4
  -4   5  -3 520.821 138.831   2
  -4   5  -3 466.904 99.2555   7
  -4   5  -3 210.175 54.4873  11
  -4   5  -3 284.945 51.1715  11
   4  -5   3 290.787 122.824   3
  -4   5  -3 339.274 72.9838   5
  -4   5  -3 331.284 79.1335   9
  -4   5  -4 26.8655 26.6570   4
  -4   5  -4 39.0142 26.8482   7
  -4   5  -4 31.0625 48.8745   2
  -4   5  -4 39.4285 12.4947  11
  -4   5  -4 55.7593 32.8672   5
   4  -5   4 35.3033 34.3437   6
   4  -5   4 25.4240 6.63968   3
  -4   5  -4 16.0929 22.8767   9
  -4   5  -4 31.9121 10.5715  11
  -4   5  -5 906.677 142.213   7
  -4   5  -5 986.821 198.977   2
   4  -5   5 763.371 173.503   6
   4  -5   5 1041.55 209.818   3
  -4   5  -5 842.973 151.837   5
  -4   5  -5 654.484 84.7901   9
  -4   5  -6 206.368 65.9484   7
  -4   5  -6 288.326 100.162   2
   4  -5   6 163.187 80.4848   6
   4  -5   6 187.050 92.5439   3
  -4   5  -6 262.502 90.9873   5
  -4   5  -7 1306.31 248.561   2
   4  -5   7 1168.55 229.710   6
  -4   5  -7 849.477 173.905   5
  -4   5  -8 1411.13 270.047   2
   4  -5   8 1674.91 290.225   6
  -4   5  -8 489.654 146.310   5
  -4   4  11 363.355 143.860  11
   4  -4 -11 468.785 155.381   5
   4  -4 -11 497.431 137.455   1
  -4   4  10 1282.10 260.082  11
   4  -4 -10 1072.51 221.054   5
   4  -4 -10 1136.10 197.079   1
  -4   4   9 618.454 160.564  11
   4  -4  -9 458.477 102.885   3
   4  -4  -9 512.083 136.051   5
   4  -4  -9 476.056 124.525   1
   4  -4  -8 105.580 47.2233   5
   4  -4  -8 167.880 74.7413   1
   4  -4  -8 29.6272 27.3870   3
  -4   4   8 258.543 115.183  11
  -4   4   7 227.630 100.566  11
   4  -4  -7 203.632 79.2012   5
   4  -4  -7 125.897 56.1075   3
  -4   4   7 175.052 72.0300   5
   4  -4  -7 159.016 65.8856   1
   4  -4  -6 6673.25 440.490   1
   4  -4  -6 6952.97 421.656   5
   4  -4  -6 6173.95 427.717   3
  -4   4   6 6535.10 490.132  11
  -4   4   6 6797.08 441.803   5
  -4   4   6 5120.11 355.552   3
   4  -4  -5 12812.4 589.422   4
  -4   4   5 10372.6 547.872   3
   4  -4  -5 12491.4 608.964   1
   4  -4  -5 11474.0 622.015   3
   4  -4  -5 12807.9 561.492   5
  -4   4   5 12240.3 657.824  11
  -4   4   5 11496.0 556.506   5
   4  -4  -4 834.637 147.106   1
  -4   4   4 431.837 102.495   3
   4  -4  -4 603.369 107.506   4
  -4   4   4 986.677 168.973  11
   4  -4  -4 1001.34 175.656   3
  -4   4   4 450.463 91.0167   5
   4  -4  -3 4014.07 311.663   1
   4  -4  -3 3836.20 345.270   3
  -4   4   3 3767.18 313.375  11
  -4   4   3 4019.14 236.609   5
  -4   4   3 4514.77 343.746   3
  -4   4   3 3547.07 229.522   8
   4  -4  -3 4164.02 258.731   4
   4  -4  -2 196.226 49.6854   4
   4  -4  -2 104.198 51.8121   3
  -4   4   2 191.721 70.4476   1
  -4   4   2 119.510 53.3632  11
  -4   4   2 126.288 32.0124   5
  -4   4   2 173.483 60.8843   3
   4  -4  -2 192.751 64.2001   1
  -4   4   2 105.391 36.1506   8
  -4   4   1 7262.60 444.640   6
   4  -4  -1 7079.76 482.995   3
  -4   4   1 6809.91 277.636   5
  -4   4   1 7359.38 471.062   3
  -4   4   1 7014.67 384.964  11
   4  -4  -1 7185.36 317.854   4
  -4   4   1 7727.11 408.938   8
  -4   4   1 7394.62 435.431   1
  -4   4   0 1286.14 161.476   7
   4  -4   0 1396.39 176.065   1
  -4   4   0 1434.66 188.247   6
  -4   4   0 1289.87 192.378   3
  -4   4   0 1237.27 137.216  11
   4  -4   0 1334.96 205.391   3
   4  -4   0 1294.87 124.376   4
  -4   4   0 1089.17 114.500   5
  -4   4   0 1438.29 176.822   8
  -4   4   0 1395.61 123.883   4
  -4   4   0 1388.13 178.512   1
  -4   4  -1 977.557 135.679   7
  -4   4  -1 1121.98 163.062   1
  -4   4  -1 967.073 107.690  11
   4  -4   1 955.572 178.412   3
   4  -4   1 1012.97 151.933   1
  -4   4  -1 931.985 108.955   5
  -4   4  -1 937.334 109.565   4
  -4   4  -1 1136.38 165.791   8
   4  -4   2 328.559 107.269   3
  -4   4  -2 144.307 66.7356   2
  -4   4  -2 234.498 63.4800   7
  -4   4  -2 241.124 63.3744   4
  -4   4  -2 221.932 43.2575  11
  -4   4  -2 209.180 57.8272   5
  -4   4  -2 185.906 56.5519   9
  -4   4  -3 640.103 115.043   4
   4  -4   3 772.340 161.766   3
  -4   4  -3 714.927 104.627   7
  -4   4  -3 696.084 152.835   2
  -4   4  -3 724.041 118.261   5
  -4   4  -3 618.000 107.534   9
  -4   4  -4 1128.54 132.958   7
  -4   4  -4 1113.94 164.390   4
  -4   4  -4 936.325 179.799   2
   4  -4   4 1161.83 195.097   6
   4  -4   4 1147.36 203.709   3
  -4   4  -4 1040.87 161.214   5
  -4   4  -4 1020.40 123.166   9
  -4   4  -5 1360.89 149.051   7
  -4   4  -5 1342.70 202.681   4
  -4   4  -5 1305.18 220.507   2
   4  -4   5 1292.63 214.657   6
   4  -4   5 1245.66 221.711   3
  -4   4  -5 1219.92 189.437   5
  -4   4  -5 1002.73 108.968   9
  -4   4  -6 5789.10 495.922   2
  -4   4  -6 5725.70 331.237   7
   4  -4   6 5880.09 499.763   6
  -4   4  -6 4926.03 431.484   5
  -4   4  -7-26.6635 51.2353   2
   4  -4   7 144.475 95.3965   6
  -4   4  -7 80.9574 63.8027   5
  -4   4  -8 336.575 120.326   5
  -4   4  -8 51.5555 27.3713   2
   4  -4   8 195.241 98.2999   6
   4  -4   9 2119.03 335.524   6
  -4   4  -9 1136.46 244.891   5
  -4   3  11 107.516 82.7474  11
   4  -3 -11 45.9194 53.6599   5
   4  -3 -11 75.0908 49.1279   1
   4  -3 -10 99.6037 63.8255   5
   4  -3 -10 282.041 98.1079   1
  -4   3  10 169.358 86.3637  11
   4  -3  -9 601.643 136.289   1
   4  -3  -9 660.791 160.318   5
  -4   3   9 529.387 150.048  11
   4  -3  -8 15731.0 798.433   5
  -4   3   8 14062.3 812.439  11
   4  -3  -8 16432.9 771.231   1
   4  -3  -7 6292.85 399.129   3
   4  -3  -7 7898.76 496.870   5
  -4   3   7 6899.07 509.632  11
   4  -3  -7 7099.20 459.938   1
   4  -3  -6 9077.65 499.581   3
   4  -3  -6 9325.30 521.533   5
  -4   3   6 9680.57 586.277  11
  -4   3   6 10113.3 551.001   5
   4  -3  -6 9850.99 532.953   1
   4  -3  -5 7609.00 442.809   4
   4  -3  -5 6815.81 440.523   3
   4  -3  -5 7261.28 414.981   5
  -4   3   5 7450.47 475.799  11
  -4   3   5 6924.02 416.481   5
  -4   3   5 7327.07 457.676   1
   4  -3  -5 7630.73 446.976   1
   4  -3  -4 4578.25 347.479   3
  -4   3   4 4618.73 302.237   5
  -4   3   4 4625.96 350.574  11
   4  -3  -4 4632.56 351.684  11
  -4   3   4 4455.56 336.776   1
   4  -3  -4 4737.94 313.925   4
   4  -3  -4 4221.20 317.157   1
   4  -3  -3 963.384 159.122   3
  -4   3   3 1361.22 175.399   3
  -4   3   3 1140.04 155.805  11
   4  -3  -3 1279.34 168.189  11
  -4   3   3 1503.36 184.196   1
   4  -3  -3 1243.56 126.843   8
  -4   3   3 1329.25 139.637   5
   4  -3  -3 1200.45 142.441   4
   4  -3  -2 20.5719 25.3800   8
   4  -3  -2 5.41158 25.0934   4
  -4   3   2-22.4789 11.0697   1
  -4   3   2-13.2432 17.5145  11
  -4   3   2 21.8042 16.6601   5
   4  -3  -2 7.69519 21.3842   3
  -4   3   2 19.6184 28.4525   3
  -4   3   2 2.57121 18.8657   8
   4  -3  -1 5840.44 417.747   3
  -4   3   1 5562.47 311.134  11
   4  -3  -1 5390.49 311.316  11
  -4   3   1 5923.78 360.954   1
   4  -3  -1 5633.41 301.790   4
  -4   3   1 5932.64 339.959   8
  -4   3   1 5640.52 298.892   4
   4  -3   0 14425.0 607.099   1
  -4   3   0 14607.5 640.023   6
   4  -3   0 14531.9 715.415   3
  -4   3   0 14074.6 517.299  11
   4  -3   0 15266.8 572.574   4
  -4   3   0 14584.3 625.126   8
  -4   3   0 14704.7 620.496   1
  -4   3   0 14201.6 540.686   4
  -4   3  -1 2482.46 226.193   1
  -4   3  -1 2507.24 188.958   7
  -4   3  -1 2427.40 262.879   3
  -4   3  -1 2264.73 237.117   6
   4  -3   1 2452.65 221.810   1
   4  -3   1 2536.91 282.673   3
  -4   3  -1 2515.77 151.773  11
  -4   3  -1 2473.45 211.508   5
  -4   3  -1 2336.18 211.355   9
   4  -3   1 2396.21 209.870   4
  -4   3  -1 2339.46 198.027   4
  -4   3  -1 2517.43 243.306   8
  -4   3  -2 13903.8 508.022   7
  -4   3  -2 14178.8 612.286   1
  -4   3  -2 13989.5 658.683   6
   4  -3   2 14832.4 752.097   3
  -4   3  -2 14831.9 723.783   3
  -4   3  -2 13881.1 615.113   5
  -4   3  -2 13858.5 575.661   9
  -4   3  -2 14983.2 611.044   4
  -4   3  -2 14260.9 689.746   2
  -4   3  -2 16305.9 717.887   8
  -4   3  -3 12461.7 455.079   7
  -4   3  -3 12207.4 565.024   1
   4  -3   3 12287.8 690.757   3
   4  -3   3 13049.8 648.769   6
  -4   3  -3 12537.8 602.165   5
  -4   3  -3 12306.4 516.615   9
  -4   3  -3 12569.8 663.265   3
  -4   3  -3 12056.5 583.375   4
  -4   3  -3 12034.8 645.601   2
  -4   3  -4 907.982 97.9424   7
  -4   3  -4 982.660 166.507   4
  -4   3  -4 940.597 168.723   2
  -4   3  -4 862.934 133.691   1
   4  -3   4 1170.96 182.889   6
  -4   3  -4 835.736 148.972   5
  -4   3  -4 1051.59 126.199   9
  -4   3  -5 7358.61 518.483   2
  -4   3  -5 6538.23 300.031   7
  -4   3  -5 6521.09 404.193   1
   4  -3   5 7688.67 516.457   6
  -4   3  -5 6375.38 476.322   5
  -4   3  -5 6434.40 326.330   9
  -4   3  -6 4671.40 431.355   2
   4  -3   6 4927.67 433.192   6
  -4   3  -6 4251.28 411.285   5
  -4   3  -6 4382.10 242.621   9
  -4   3  -7 541.496 141.956   2
   4  -3   7 533.694 156.061   6
  -4   3  -7 240.905 101.376   5
   4  -3   8 581.437 167.524   6
  -4   3  -8 402.026 129.696   2
  -4   3  -8 342.253 128.348   5
   4  -3   9 56.9941 59.3141   6
  -4   3  -9-9.21724 45.0494   5
   4  -2 -12 2734.06 400.030   5
  -4   2  12 2748.24 378.905  11
   4  -2 -12 2601.81 322.123   1
   4  -2 -11 1149.44 205.383   1
  -4   2  11 1137.10 230.015  11
   4  -2 -11 1085.59 233.878   5
   4  -2 -10 2129.06 274.763   1
   4  -2 -10 1971.92 303.758   5
  -4   2  10 2009.04 301.763  11
   4  -2  -9 32.8357 28.3740   1
   4  -2  -9 129.303 83.8094   5
  -4   2   9 91.6995 64.1303  11
  -4   2   8 571.327 135.914  11
   4  -2  -8 809.552 163.791   5
   4  -2  -8 672.360 142.644   1
  -4   2   8 678.285 92.6914   3
   4  -2  -8 522.953 51.9154   8
   4  -2  -7 2533.55 274.878   5
  -4   2   7 2720.73 297.174  11
  -4   2   7 2209.73 184.926   3
   4  -2  -7 2594.80 264.986   1
   4  -2  -7 2039.22 125.814   8
  -4   2   6 46.8461 32.2963   3
   4  -2  -6 69.4960 49.2562   4
   4  -2  -6 52.2072 38.9963   1
  -4   2   6 85.5372 55.7910  11
   4  -2  -6 49.7861 32.8703   5
  -4   2   6 106.708 62.5568   5
  -4   2   6 31.4289 40.0464   1
   4  -2  -6 87.2557 25.8192   8
   4  -2  -5 11879.2 577.185   4
  -4   2   5 12148.2 615.765  11
  -4   2   5 12098.0 579.214   5
   4  -2  -5 11872.0 609.503  11
  -4   2   5 12247.6 599.257   1
   4  -2  -5 11343.8 564.664   1
   4  -2  -5 11761.3 426.844   8
  -4   2   5 12033.4 538.630   3
   4  -2  -4 6233.75 408.717   3
  -4   2   4 6960.53 397.238   5
  -4   2   4 7342.76 433.092  11
  -4   2   4 7154.68 422.777   1
   4  -2  -4 7016.82 318.681   8
   4  -2  -4 7505.52 406.906   4
   4  -2  -4 7275.73 433.227  11
   4  -2  -3 15706.2 698.462   3
  -4   2   3 16483.7 629.378   5
  -4   2   3 15973.9 656.881  11
  -4   2   3 15598.8 657.572   1
   4  -2  -3 17336.7 591.369   8
   4  -2  -3 15831.3 630.562   4
  -4   2   2 65.6577 28.0265   1
   4  -2  -2 105.272 38.5272   4
  -4   2   2 35.0569 22.6837   4
   4  -2  -2 94.5141 51.4725   3
  -4   2   2 109.037 42.7378  11
   4  -2  -2 108.972 43.6713  11
   4  -2  -2 137.865 47.0876   8
   4  -2  -1 9301.32 524.025   3
   4  -2  -1 8811.19 395.090  11
  -4   2   1 8679.60 434.241   1
   4  -2  -1 8490.46 413.916   4
  -4   2   1 9205.34 435.856   8
   4  -2  -1 9043.14 433.954   8
  -4   2   1 9155.83 420.173   4
  -4   2   1 8919.34 395.779  11
  -4   2   0 30876.2 1014.62   6
  -4   2   0 30397.1 866.277  11
   4  -2   0 27073.1 863.079  11
  -4   2   0 30755.9 1004.04   9
   4  -2   0 31904.2 997.755   4
  -4   2   0 31499.0 982.869   1
  -4   2   0 33300.4 1040.80   8
  -4   2   0 30978.1 974.289   4
   4  -2   0 32011.8 1022.34   8
  -4   2  -1 1477.25 118.880   7
  -4   2  -1 1529.09 179.594   5
  -4   2  -1 1544.55 182.283   6
  -4   2  -1 1547.75 204.450   3
  -4   2  -1 1579.91 106.383  11
   4  -2   1 1375.30 100.580  11
  -4   2  -1 1595.64 171.258   9
   4  -2   1 1560.93 180.902   4
  -4   2  -1 1634.83 172.958   4
  -4   2  -1 1671.47 192.340   8
  -4   2  -1 1623.96 164.482   1
   4  -2   1 1594.62 183.843   8
  -4   2  -2 14615.3 442.526   7
  -4   2  -2 14688.9 644.987   6
  -4   2  -2 16021.3 733.712   3
  -4   2  -2 14686.1 672.492   5
  -4   2  -2 13466.9 580.849   9
   4  -2   2 14406.8 665.461   4
  -4   2  -2 14589.7 646.635   4
  -4   2  -2 15272.3 688.554   8
  -4   2  -2 14515.4 663.105   2
   4  -2   2 13750.2 647.102   8
  -4   2  -2 14467.7 577.293   1
  -4   2  -3 4386.66 285.920   1
  -4   2  -3 4455.97 179.844   7
  -4   2  -3 4785.58 295.532   9
  -4   2  -3 4863.99 354.326   6
   4  -2   3 4767.95 355.920   6
  -4   2  -3 4846.80 384.024   3
  -4   2  -3 4237.18 362.466   5
  -4   2  -3 4949.09 367.373   4
  -4   2  -3 4450.95 347.460   2
  -4   2  -4 3044.18 296.777   2
  -4   2  -4 2742.32 224.183   1
   4  -2   4 3368.73 307.258   6
  -4   2  -4 3550.15 331.086   3
  -4   2  -4 2992.12 312.251   5
  -4   2  -4 3225.76 237.011   9
  -4   2  -4 3542.51 334.074   4
  -4   2  -5 340.759 73.8261   1
  -4   2  -5 255.747 89.6153   2
   4  -2   5 273.375 88.1025   6
  -4   2  -5 222.739 78.0034   5
  -4   2  -5 332.467 71.9064   9
  -4   2  -6 5435.43 435.355   2
  -4   2  -6 3663.00 278.090   1
   4  -2   6 5866.16 457.225   6
  -4   2  -6 5082.64 459.216   5
  -4   2  -6 4861.78 294.474   9
   4  -2   7 129.063 81.6567   6
  -4   2  -7 193.296 77.9182   2
  -4   2  -7 55.2318 23.4989   5
  -4   2  -7 72.9079 38.9056   9
   4  -2   8 430.323 131.352   6
  -4   2  -8 489.761 150.557   5
   4  -2   9 2227.63 327.056   6
  -4   2  -9 1708.60 309.437   5
   4  -1 -12 315.271 117.976   1
   4  -1 -12 226.072 91.8184   5
  -4   1  12 199.296 96.3688  11
   4  -1 -11 903.336 186.118   1
   4  -1 -11 1207.90 249.909   5
  -4   1  11 1131.29 226.449  11
   4  -1 -10 6082.88 537.678   5
  -4   1  10 5915.42 513.660  11
   4  -1 -10 6178.18 486.608   1
   4  -1  -9 810.723 163.732   1
  -4   1   9 1059.97 203.101  11
   4  -1  -9 1029.44 201.237   5
   4  -1  -8 45284.3 1558.20   5
  -4   1   8 44853.8 1572.41  11
  -4   1   8 42195.5 1147.93   3
   4  -1  -8 45337.6 1503.71   1
   4  -1  -7 57.9817 44.9386   1
   4  -1  -7 33.8189 31.0251   4
  -4   1   7 60.6721 30.5954   3
   4  -1  -7-15.4321 35.7146   5
  -4   1   7 33.4515 22.4107  11
  -4   1   6 1003.33 155.069   7
   4  -1  -6 938.464 156.599   4
  -4   1   6 933.827 122.499   3
   4  -1  -6 1135.55 175.896  11
  -4   1   6 1080.10 174.034  11
   4  -1  -6 1197.69 178.239   5
  -4   1   6 1161.04 175.667   1
  -4   1   6 994.682 168.365   5
   4  -1  -6 1248.96 179.580   1
  -4   1   5 8323.56 422.592   3
  -4   1   5 8346.30 481.771   5
  -4   1   5 8801.77 497.755  11
  -4   1   5 8346.20 479.445   1
   4  -1  -5 8329.21 475.079   4
  -4   1   4 7426.93 423.952   3
  -4   1   4 7859.38 442.336   5
  -4   1   4 8974.22 467.288   1
  -4   1   4 8810.79 467.244  11
   4  -1  -4 8254.86 447.142   4
  -4   1   3 29504.5 972.675   4
  -4   1   3 28911.2 986.131   3
  -4   1   3 25348.2 927.552   5
  -4   1   3 29018.0 952.974  11
  -4   1   3 28134.2 953.216   1
   4  -1  -3 27779.7 879.268   8
   4  -1  -3 28243.1 951.233   4
  -4   1   2 11410.3 488.587  11
   4  -1  -2 11666.4 492.494  11
  -4   1   2 11575.2 421.305  10
  -4   1   2 10922.6 499.937   1
  -4   1   2 11960.2 534.192   9
   4  -1  -2 11519.3 488.733   8
   4  -1  -2 11660.7 515.832   4
  -4   1   2 11682.6 517.357   4
  -4   1   1 229.227 57.1730   1
   4  -1  -1 175.672 61.4579   4
  -4   1   1 218.887 65.5357   4
  -4   1   1 187.593 49.4179  11
  -4   1   1 189.888 52.9391  10
   4  -1  -1 199.147 54.1037   1
   4  -1  -1 158.590 44.2402  11
  -4   1   1 225.690 67.7766   9
   4  -1  -1 230.824 64.9558   8
   4  -1   0 10752.7 436.588   1
  -4   1   0 10754.3 477.214   6
  -4   1   0 10093.8 398.225  11
   4  -1   0 10096.4 396.405  11
  -4   1   0 10951.0 478.031  10
  -4   1   0 9944.00 477.616   9
  -4   1   0 10186.3 447.640   1
   4  -1   0 11085.1 516.963   4
  -4   1   0 10279.9 497.551   4
  -4   1  -1 6392.65 233.906   7
  -4   1  -1 7132.34 278.692  11
  -4   1  -1 6450.95 227.819   7
   4  -1   1 7516.03 343.584   1
  -4   1  -1 7574.45 397.361   6
  -4   1  -1 7226.90 470.432   3
   4  -1   1 7154.86 279.347  11
  -4   1  -1 8039.86 424.291  10
  -4   1  -1 7614.26 394.096   9
  -4   1  -1 7161.74 346.467   1
   4  -1   1 7262.77 431.086   4
  -4   1  -1 7598.74 401.903   2
  -4   1  -1 8089.12 440.364   8
  -4   1  -1 8292.82 442.181   4
  -4   1  -2 2773.16 238.030   6
   4  -1   2 2573.47 186.264   1
  -4   1  -2 2654.29 274.744   3
   4  -1   2 2369.46 115.631  11
  -4   1  -2 2488.84 265.088   5
  -4   1  -2 2913.16 261.499  10
  -4   1  -2 2720.61 227.526   9
   4  -1   2 2249.24 245.976   4
  -4   1  -2 2699.03 194.376   1
  -4   1  -2 2819.50 264.151   4
  -4   1  -2 2847.20 268.984   8
  -4   1  -2 2857.33 244.203   2
  -4   1  -3 6464.26 398.118   6
   4  -1   3 6693.34 407.316   6
  -4   1  -3 6275.48 444.664   3
  -4   1  -3 6114.77 362.252   9
  -4   1  -3 7061.53 465.239   4
  -4   1  -3 6496.26 471.172   5
  -4   1  -3 6065.25 311.981   1
   4  -1   3 6968.85 438.650   8
  -4   1  -3 6332.91 397.538   2
  -4   1  -4 4288.05 331.336   2
   4  -1   4 4222.33 334.365   6
  -4   1  -4 4688.25 378.718   3
  -4   1  -4 4053.60 382.680   5
  -4   1  -4 4297.84 296.634   9
   4  -1   4 4079.42 340.275   8
  -4   1  -4 3296.94 223.704   1
  -4   1  -5 617.064 128.595   2
   4  -1   5 564.880 124.225   6
  -4   1  -5 626.242 147.827   3
  -4   1  -5 665.697 152.525   5
  -4   1  -5 536.708 81.2201   1
  -4   1  -5 507.648 96.1560   9
  -4   1  -6 13757.4 693.403   2
   4  -1   6 14819.2 729.766   6
  -4   1  -6 13015.7 796.246   5
  -4   1  -6 11722.6 542.548   9
   4  -1   7 1830.19 260.521   6
  -4   1  -7 1771.17 295.570   5
  -4   1  -7 999.236 140.892   9
   4  -1   8 4138.38 414.409   6
  -4   1  -8 3468.67 438.093   5
   4  -1   9 144.730 84.2555   6
  -4   1  -9 41.7801 64.0233   5
   4   0 -12 4320.54 501.798   5
  -4   0  12 3319.82 416.695  11
  -4   0  12 2741.96 292.544   9
   4   0 -12 3356.15 388.120   1
   4   0 -11 3788.64 443.867   5
  -4   0  11 3077.54 387.925  11
   4   0 -11 3383.14 374.582   1
  -4   0  11 3083.94 305.578   9
   4   0 -10 2955.70 370.721   5
  -4   0  10 2781.71 348.641  11
   4   0 -10 2709.25 320.216   1
   4   0  -9 3291.34 364.728   5
  -4   0   9 2884.37 342.859  11
   4   0  -9 3248.35 333.603   1
   4   0  -8 599.368 146.615   4
  -4   0   8 564.896 142.111  11
   4   0  -8 568.724 151.035   5
  -4   0   8 570.910 79.7076   3
   4   0  -8 592.888 140.602   1
   4   0  -7 1169.52 194.660   4
  -4   0   7 1236.60 136.239   3
  -4   0   7 1443.10 214.299  11
   4   0  -7 1347.00 204.176   5
   4   0  -7 1353.28 197.122   1
   4   0  -6 5353.09 398.540   4
  -4   0   6 5896.26 390.790   7
  -4   0   6 4781.86 309.600   3
  -4   0   6 5373.83 396.588   1
  -4   0   6 5418.75 403.642  11
  -4   0   6 5961.74 429.863   5
   4   0  -6 5597.72 399.233  11
   4   0  -6 5391.71 390.058   1
  -4   0   6 5519.88 365.499   9
  -4   0   5 226.978 67.2829   7
   4   0  -5 188.605 60.1069   4
  -4   0   5 141.776 54.5644   3
  -4   0   5 237.352 76.1327   5
   4   0  -5 177.773 32.6312  10
  -4   0   5 173.566 64.1116   1
  -4   0   5 225.626 72.7567  11
  -4   0   5 221.892 69.7579   9
  -4   0   4 37978.0 1191.61   7
  -4   0   4 42118.3 1281.90   5
  -4   0   4 40848.5 1271.17  11
  -4   0   4 38992.1 1263.16   1
   4   0  -4 39134.4 1022.05  10
  -4   0   4 38784.6 1230.41   9
   4   0  -4 38116.3 1253.59   4
  -4   0   3 4075.07 263.535   7
   4   0  -3 4122.02 218.726  10
  -4   0   3 4169.25 294.443  11
  -4   0   3 4421.44 299.048   9
   4   0  -3 3753.67 289.722   4
  -4   0   3 3834.05 283.087   1
  -4   0   2 33868.0 1089.82   9
  -4   0   2 33114.2 976.067   7
  -4   0   2 34585.6 1063.35  11
   4   0  -2 34109.4 1040.74  11
  -4   0   2 34013.9 1064.24   1
   4   0  -2 33302.3 1100.71   4
  -4   0   2 34411.4 1104.28   4
  -4   0   1 44436.9 1108.69   7
  -4   0   1 42041.7 1192.16  11
   4   0  -1 41259.9 1178.97  11
  -4   0   1 40672.9 1198.43   1
  -4   0   1 41173.3 1180.16  10
  -4   0   1 41290.3 1259.42   9
   4   0  -1 40377.8 1167.70   1
   4   0  -1 39495.3 1272.01   4
  -4   0   1 39189.8 1266.97   4
  -4   0   0 15733.0 449.146   7
  -4   0   0 14186.4 554.553   6
  -4   0   0 15321.1 549.143  11
   4   0   0 13594.4 523.492  11
  -4   0   0 14192.1 547.480   1
  -4   0   0 15971.8 605.207  10
  -4   0   0 15182.5 623.180   9
   4   0   0 15763.0 677.070   4
  -4   0   0 14542.8 647.540   4
   4   0   0 15563.8 536.179   1
   4   0   1 14033.5 487.070   1
  -4   0  -1 14053.9 554.688   6
   4   0   1 13130.6 485.757  11
  -4   0  -1 15645.3 626.756  10
  -4   0  -1 13530.0 501.167   1
  -4   0  -1 13699.6 595.413   9
   4   0   1 13812.7 665.364   4
  -4   0  -1 14706.1 662.426   4
  -4   0  -1 14220.0 548.300   2
  -4   0  -2 13.3359 12.8410   1
  -4   0  -2 13.2583 33.7436   4
  -4   0  -2 30.0207 21.8780   2
  -4   0  -2-22.2897 26.1201   6
   4   0   2-9.28794 14.5889  11
  -4   0  -2-9.57767 37.5862  10
  -4   0  -2 30.9947 44.9370   5
  -4   0  -2 17.3333 29.2668   9
   4   0   2 3.17961 12.2847   1
   4   0   3 1377.92 212.489   4
  -4   0  -3 1448.09 166.516   2
  -4   0  -3 1463.69 212.827   4
   4   0   3 1362.48 166.187   6
   4   0   3 1305.24 112.282  11
  -4   0  -3 1296.71 200.611   3
  -4   0  -3 1446.98 173.586   9
  -4   0  -3 1377.91 118.616   1
   4   0   3 1459.52 173.159   9
  -4   0  -3 1481.91 225.257   5
   4   0   3 1524.52 199.116   8
  -4   0  -4 4960.81 335.426   2
   4   0   4 5350.68 363.370   6
  -4   0  -4 5140.77 410.253   3
   4   0   4 3612.01 207.029  11
   4   0   4 4372.31 221.891  11
  -4   0  -4 5302.52 455.725   5
  -4   0  -4 4972.82 344.252   9
  -4   0  -4 4480.42 221.747   1
   4   0   4 3842.43 309.354   9
   4   0   4 5339.62 391.486   8
   4   0   5 992.867 162.832   6
   4   0   5 610.511 77.4680  11
   4   0   5 795.370 87.6852  11
  -4   0  -5 925.441 199.651   5
  -4   0  -5 690.939 73.4818   1
  -4   0  -5 863.212 139.896   9
   4   0   5 568.793 115.863   9
   4   0   5 927.932 161.510   8
   4   0   6 115.816 56.6195   6
   4   0   6 88.2727 33.4244  11
   4   0   6 144.529 39.6192  11
  -4   0  -6 95.4941 47.8761   5
  -4   0  -6 135.194 48.5384   9
   4   0   6 66.2079 46.2669   9
   4   0   7 826.958 165.903   6
  -4   0  -7 885.875 213.228   5
  -4   0  -7 417.668 98.0413   9
   4   0   8 754.231 167.820   6
  -4   0  -8 632.707 192.132   5
   4   0   9 1566.00 260.831   6
  -4   0  -9 1256.87 295.229   5
   4   1 -12 807.013 214.433   4
  -4  -1  12 1267.42 253.158  11
   4   1 -12 845.264 222.380   5
   4   1 -12 859.794 194.725   1
   4   1 -11 2868.14 399.818   4
   4   1 -11 3484.08 435.863   5
  -4  -1  11 3589.66 412.466  11
   4   1 -11 3328.83 380.061   1
  -4  -1  11 3439.83 308.685   9
  -4  -1  10 1515.86 200.461   9
   4   1 -10 1505.18 268.974   4
  -4  -1  10 1535.84 258.841  11
   4   1 -10 1621.50 252.094   1
   4   1 -10 1769.16 287.737   5
   4   1  -9 1162.63 213.840   4
  -4  -1   9 642.000 79.9092   3
  -4  -1   9 1095.44 215.006  11
   4   1  -9 1131.75 205.605   1
  -4  -1   9 1068.55 165.014   9
   4   1  -9 1276.64 231.036   5
   4   1  -8 8743.65 590.671   4
  -4  -1   8 7943.54 389.742   3
   4   1  -8 8565.09 593.130   5
  -4  -1   8 9702.06 619.195  11
   4   1  -8 9380.81 582.324   1
  -4  -1   8 9279.42 497.381   9
   4   1  -7 3934.34 363.787   4
  -4  -1   7 4315.17 384.548  11
   4   1  -7 4258.51 366.110   1
  -4  -1   7 4958.72 342.552   9
  -4  -1   6 5380.32 374.369   7
   4   1  -6 4663.70 369.054   1
  -4  -1   6 4763.13 384.277  11
  -4  -1   6 4987.67 396.612   5
   4   1  -6 4914.54 378.943  11
  -4  -1   6 5234.24 348.969   9
   4   1  -6 4805.40 383.039   4
  -4  -1   5 65933.3 1873.63   7
  -4  -1   5 67486.3 1862.77   9
  -4  -1   5 67222.2 1948.98  11
   4   1  -5 62455.6 1910.99   4
  -4  -1   4 5783.35 345.480   7
  -4  -1   4 5790.76 384.290  11
  -4  -1   4 5615.78 375.488   1
  -4  -1   4 5904.20 364.792   9
   4   1  -4 5249.32 380.331   4
   4   1  -3 20.0665 29.6793   4
  -4  -1   3 61.0191 33.1819   7
  -4  -1   3 58.5055 42.6965   1
  -4  -1   3-4.28098 13.5456  11
   4   1  -3 6.89270 10.6994  10
  -4  -1   3 26.9893 30.5967   9
   4   1  -3 20.7668 27.6697   9
   4   1  -2 28.6540 20.5359   4
  -4  -1   2 11.8683 5.32819   7
   4   1  -2 9.03168 4.78051   7
  -4  -1   2 16.3039 12.4079   1
  -4  -1   2 11.1613 9.22335  11
   4   1  -2 22.6027 11.3786  10
  -4  -1   2 33.0837 30.0231   9
   4   1  -2 36.5471 22.0362   1
  -4  -1   1 13583.9 472.014   7
   4   1  -1 14073.4 486.580   7
  -4  -1   1 14109.0 574.025  11
  -4  -1   1 14285.6 557.344   1
   4   1  -1 13857.1 562.470  10
   4   1  -1 14198.7 524.275   1
  -4  -1   1 13865.5 604.598   9
   4   1  -1 13620.2 631.175   4
   4   1  -1 11465.0 529.511  11
  -4  -1   0 7539.88 285.178   7
   4   1   0 6860.25 277.853   7
  -4  -1   0 6358.86 316.540   6
   4   1   0 7371.38 376.703  11
  -4  -1   0 7069.14 338.559   1
   4   1   0 7170.63 395.771  10
  -4  -1   0 7134.64 412.932   9
   4   1   0 6943.85 312.281   1
   4   1   0 7419.33 457.122   4
  -4  -1  -1 16688.1 497.973   7
  -4  -1  -1 21365.1 665.178   6
   4   1   1 18141.6 661.700  11
  -4  -1  -1 19308.5 611.730   1
  -4  -1  -1 18243.3 748.409   9
   4   1   1 21346.0 787.443   9
   4   1   1 18494.5 827.420   4
   4   1   1 19073.5 573.563   1
  -4  -1  -1 19403.9 607.974   2
  -4  -1  -2 7487.72 345.389   2
   4   1   2 7047.46 431.042   9
   4   1   2 7187.05 269.474   1
  -4  -1  -2 9470.86 409.267   6
   4   1   2 7167.86 366.602  11
  -4  -1  -2 7059.18 290.471   1
  -4  -1  -2 7417.23 519.887   5
  -4  -1  -2 8191.63 472.154  10
  -4  -1  -2 7438.63 443.750   9
   4   1   2 7782.58 520.192   4
  -4  -1  -2 7677.27 504.044   4
   4   1   2 8117.20 470.977   8
  -4  -1  -3 11912.9 484.068   2
   4   1   3 12736.7 530.842   6
   4   1   3 10665.4 469.087  11
  -4  -1  -3 10515.2 337.357   1
  -4  -1  -3 12278.1 602.591   9
   4   1   3 10984.1 563.677   9
   4   1   3 12288.5 704.904   4
   4   1   3 11926.2 603.614   8
  -4  -1  -3 11959.2 707.458   5
   4   1   4 483.903 105.234   6
   4   1   4 368.219 77.7886  11
  -4  -1  -4 473.822 140.267   5
  -4  -1  -4 479.786 107.281   9
   4   1   4 282.021 83.9791   9
   4   1   4 612.473 130.478   8
   4   1   5 503.388 111.063   6
   4   1   5 347.862 77.4710  11
   4   1   5 438.834 82.3157  11
  -4  -1  -5 542.334 154.440   5
  -4  -1  -5 507.028 113.792   9
   4   1   5 529.260 126.591   8
   4   1   6 10527.4 578.150   6
   4   1   6 8566.04 420.748  11
  -4  -1  -6 8772.64 686.007   5
  -4  -1  -6 6862.20 487.034   9
   4   1   6 8372.02 545.415   8
   4   1   7 833.919 164.185   6
  -4  -1  -7 662.403 186.314   5
  -4  -1  -7 314.785 95.2107   9
   4   1   8 32.3028 27.8144   6
  -4  -1  -8 24.2295 67.5639   5
   4   2 -12 1006.50 244.039   4
  -4  -2  12 1162.89 244.866  11
   4   2 -12 1162.33 233.917   1
   4   2 -12 1081.59 256.539   5
   4   2 -11 1577.18 290.157   4
  -4  -2  11 1893.05 299.589  11
   4   2 -11 2192.48 317.917   1
  -4  -2  11 1599.06 199.102   9
   4   2 -11 1592.15 292.385   5
   4   2 -10 3340.31 404.795   4
   4   2 -10 3542.65 392.072   1
   4   2 -10 3166.33 403.469   5
  -4  -2  10 3715.55 409.567  11
  -4  -2  10 3557.14 300.888   9
   4   2  -9 1672.80 268.094   4
  -4  -2   9 2061.03 294.855  11
   4   2  -9 1907.51 275.637   1
  -4  -2   9 1855.14 208.631   9
   4   2  -9 1300.59 253.212   5
  -4  -2   8 20274.5 953.370  11
   4   2  -8 19404.5 918.843   1
  -4  -2   8 19262.9 785.191   9
   4   2  -8 17508.0 898.094   4
   4   2  -7 298.355 94.5063   4
  -4  -2   7 215.815 82.7941  11
   4   2  -7 255.737 88.2773   1
  -4  -2   7 269.742 83.7318   9
   4   2  -6 10188.1 546.864   7
  -4  -2   6 9707.19 576.833  11
   4   2  -6 10161.9 575.470   1
  -4  -2   6 9279.40 497.234   9
   4   2  -6 8430.49 534.758   4
  -4  -2   5 33.0634 33.0671   7
   4   2  -5 50.5598 37.4748   4
   4   2  -5 26.3063 24.4305   7
  -4  -2   5 36.4716 32.9652  11
  -4  -2   5-9.34992 14.9550   5
   4   2  -5 39.2425 40.9602   1
   4   2  -5 24.3923 17.4029  11
  -4  -2   5 60.0248 35.4673   9
  -4  -2   4 4759.33 324.938   7
   4   2  -4 5407.29 347.654   7
  -4  -2   4 4993.77 369.929  11
   4   2  -4 5106.54 359.549   1
  -4  -2   4 5291.35 353.224   9
   4   2  -4 4971.04 337.141   9
   4   2  -4 4419.47 356.716   4
  -4  -2   3 834.953 121.800   7
   4   2  -3 865.142 146.942   4
  -4  -2   3 731.528 133.159  11
  -4  -2   3 891.170 139.028   9
   4   2  -3 894.832 136.400   9
  -4  -2   2 3661.41 247.785   7
   4   2  -2 3534.63 247.704   7
  -4  -2   2 3616.24 293.748  11
   4   2  -2 3993.18 305.440  11
   4   2  -2 3653.42 265.943  10
  -4  -2   2 4073.95 306.610   9
   4   2  -2 3564.84 309.968   4
   4   2  -1 209.967 69.6153   4
  -4  -2   1 327.097 63.6448   7
   4   2  -1 311.171 65.9715   7
  -4  -2   1 353.058 86.7914  11
   4   2  -1 263.138 70.0864  10
  -4  -2   1 277.043 79.4753   9
   4   2  -1 218.482 54.0424   1
  -4  -2   0 13654.0 393.542   2
  -4  -2   0 13303.1 488.003   7
   4   2   0 14590.9 496.656   7
  -4  -2   0 12835.6 460.174   6
   4   2   0 14668.6 631.351  10
   4   2   0 14450.3 506.272   1
  -4  -2   0 15113.9 675.010   9
   4   2   0 15022.3 722.326   4
   4   2   1 312.517 102.900   4
  -4  -2  -1 379.426 57.7637   7
  -4  -2  -1 432.860 107.077   4
   4   2   1 306.793 52.3094   7
  -4  -2  -1 356.334 58.9722   6
   4   2   1 403.548 56.9148   1
   4   2   1 424.454 97.6388  10
  -4  -2  -1 316.776 81.7284   9
   4   2   1 393.984 94.8474   9
   4   2   1 434.781 103.593   8
   4   2   2 659.455 150.800   4
   4   2   2 518.010 60.5048   7
   4   2   2 435.785 44.2264   1
   4   2   2 460.900 111.456  10
  -4  -2  -2 503.418 130.606   5
  -4  -2  -2 608.849 129.435   9
   4   2   2 583.512 123.730   8
   4   2   3 3008.17 143.794   7
  -4  -2  -3 3145.48 360.088   5
  -4  -2  -3 2880.60 294.149   9
   4   2   3 3028.70 347.909   4
   4   2   3 3335.85 305.120   8
   4   2   4 1518.86 85.3491   7
   4   2   4 2227.02 203.558   6
   4   2   4 1687.16 199.493  11
  -4  -2  -4 2350.08 325.832   5
  -4  -2  -4 2268.04 260.334   9
   4   2   4 2109.65 248.384   8
   4   2   5 157.786 53.9168   6
   4   2   5 103.558 48.1343  11
   4   2   5 126.301 71.9589  11
  -4  -2  -5 112.705 79.4244   5
  -4  -2  -5 187.866 79.9585   9
   4   2   5 200.389 81.1986   8
   4   2   6 1254.65 178.531   6
   4   2   6 841.168 141.324  11
  -4  -2  -6 1103.01 242.391   5
  -4  -2  -6 663.910 146.732   9
   4   2   6 1111.53 186.304   8
   4   2   7 195.146 78.6599   6
   4   2   7 89.1337 33.2351  11
  -4  -2  -7 66.5923 18.8211   5
  -4  -2  -7 27.5346 25.2208   9
   4   2   7 84.5159 47.4780   8
   4   2   8 2890.11 314.985   6
  -4  -2  -8 2303.88 387.526   5
   4   3 -12-3.27058 34.4225   4
  -4  -3  12 1.50840 31.7541  11
   4   3 -12 24.5172 49.6328   1
   4   3 -11 41.8776 18.0376   4
  -4  -3  11 13.6064 13.5129  11
   4   3 -11 12.6831 12.0113   1
   4   3 -10 1320.55 247.838   4
  -4  -3  10 1574.57 272.284  11
   4   3 -10 1540.43 258.208   1
  -4  -3  10 1372.55 177.704   9
   4   3  -9 6.92327 13.0864   4
  -4  -3   9 34.7270 39.0272  11
   4   3  -9 111.201 69.0938   1
  -4  -3   9 46.9690 33.9716   9
   4   3  -8 527.512 133.387   7
   4   3  -8 523.519 142.089   4
  -4  -3   8 583.142 146.334  11
  -4  -3   8 662.135 124.863   9
   4   3  -8 687.939 158.200   1
   4   3  -7 1258.32 208.916   7
  -4  -3   7 1713.40 246.090  11
   4   3  -7 1955.63 262.404   1
  -4  -3   7 1742.76 202.169   9
   4   3  -7 1642.40 238.912   4
  -4  -3   6 1660.80 191.806   2
   4   3  -6 1968.86 236.783   7
  -4  -3   6 1905.39 255.832  11
   4   3  -6 1766.61 239.078   1
  -4  -3   6 1637.20 204.727   9
   4   3  -6 1681.77 228.771   4
  -4  -3   5 4889.19 313.823   2
   4   3  -5 5611.06 386.849   7
   4   3  -5 5917.87 424.665   1
  -4  -3   5 6270.12 401.538   9
   4   3  -5 5634.92 373.611   9
   4   3  -5 5749.46 429.997   4
  -4  -3   5 4819.92 395.890  11
  -4  -3   4 30782.3 1149.19   4
  -4  -3   4 30712.1 1087.26   7
  -4  -3   4 28959.3 943.721   2
   4   3  -4 34518.3 1113.47   7
  -4  -3   4 32331.2 1181.57   5
   4   3  -4 33810.2 1167.61   1
  -4  -3   4 33437.6 1145.47   9
   4   3  -4 34606.4 1130.97   9
  -4  -3   4 35046.6 1221.68  11
   4   3  -4 33652.9 1204.86   4
  -4  -3   3 3014.43 256.431   7
  -4  -3   3 2903.07 175.469   2
   4   3  -3 3554.28 271.563   7
  -4  -3   3 3326.08 304.440  11
   4   3  -3 3421.59 308.524  11
   4   3  -3 3127.63 271.487   1
  -4  -3   3 3513.28 299.257   9
   4   3  -3 3438.84 290.743   9
   4   3  -3 3277.22 309.121   4
  -4  -3   3 3219.64 292.027   4
  -4  -3   2 7707.10 262.019   2
   4   3  -2 10072.4 528.750   9
  -4  -3   2 9142.48 446.783   7
   4   3  -2 9545.20 527.236  11
  -4  -3   2 9410.95 523.172   9
   4   3  -2 9386.81 546.222   4
  -4  -3   2 9541.70 535.323   4
   4   3  -1 9.66079 15.5472   4
  -4  -3   1 6.23781 2.33550   7
  -4  -3   1-0.38824 45.3685   4
  -4  -3   1-3.04913 9.88820   6
   4   3  -1 25.7638 25.2190  11
   4   3  -1 3.06477 2.66271  10
   4   3  -1 24.4385 32.9183   1
  -4  -3   1-1.85663 36.7734   9
   4   3  -1-26.3896 25.8315   9
  -4  -3   0 1556.80 156.974   7
   4   3   0 1948.50 169.013   7
   4   3   0 1751.93 215.128  11
   4   3   0 1581.69 147.789   1
   4   3   0 1767.47 213.792  10
  -4  -3   0 1728.93 223.116   9
   4   3   0 1646.83 228.261   4
   4   3   1 13065.5 505.154   7
   4   3   1 13209.0 640.813  11
   4   3   1 13448.2 662.643  10
   4   3   1 13382.2 452.860   1
  -4  -3  -1 13525.8 697.961   9
   4   3   1 13950.5 753.379   4
   4   3   2 2824.74 190.148   7
   4   3   2 2886.20 277.773  11
   4   3   2 3106.69 307.176  10
  -4  -3  -2 3457.06 336.109   9
   4   3   2 3097.02 345.017   4
   4   3   2 3444.11 311.400   8
  -4  -3  -2 3006.20 354.867   5
   4   3   2 2083.78 94.8994   1
   4   3   3 1974.93 291.059   4
   4   3   3 2383.64 166.086   7
  -4  -3  -3 2175.33 313.363   5
   4   3   3 2131.67 267.086  10
  -4  -3  -3 2364.61 283.462   9
   4   3   3 1814.23 225.422  11
   4   3   3 2132.26 251.414   8
   4   3   4 209.430 46.0757   7
   4   3   4 301.054 70.5609   6
  -4  -3  -4 208.358 102.203   5
  -4  -3  -4 283.648 107.389   9
   4   3   4 262.068 89.6731   8
   4   3   5 227.383 44.9355   7
   4   3   5 320.224 76.8672   6
   4   3   5 364.553 97.5894  11
  -4  -3  -5 487.784 158.289   5
  -4  -3  -5 253.312 98.6736   9
   4   3   5 326.984 99.0783   8
   4   3   6 302.284 80.6629   6
   4   3   6 298.961 103.225  11
  -4  -3  -6 337.421 142.612   5
  -4  -3  -6 143.656 76.1367   9
   4   3   6 254.672 89.7872   8
   4   3   7 2243.90 269.544  11
  -4  -3  -7 3264.17 453.059   5
  -4  -3  -7 1773.16 278.715   9
   4   3   7 2312.87 289.675   8
   4   4 -11 1833.42 317.680   4
  -4  -4  11 2346.38 353.874  11
   4   4 -11 1810.20 312.215   1
   4   4 -10 18.4119 36.2041   4
  -4  -4  10 64.3848 57.7228  11
   4   4 -10-15.1052 38.8495   1
  -4  -4  10 20.4156 13.5610   9
   4   4  -9 2015.57 285.285   7
  -4  -4   9 2270.99 320.757  11
   4   4  -9 1928.71 295.127   1
  -4  -4   9 2024.70 221.664   9
   4   4  -9 2300.08 310.242   4
   4   4  -8 2334.21 297.502   7
  -4  -4   8 2423.44 324.273  11
   4   4  -8 1931.98 284.772   1
  -4  -4   8 2204.59 237.347   9
   4   4  -8 2018.49 290.509   4
   4   4  -7 351.080 109.353   4
   4   4  -7 631.263 148.551   7
   4   4  -7 504.829 135.576   1
  -4  -4   7 457.150 110.531   9
  -4  -4   7 475.606 131.434  11
   4   4  -6 984.984 183.438   4
   4   4  -6 1170.05 196.178   7
  -4  -4   6 771.693 132.088   2
   4   4  -6 930.148 181.345   1
  -4  -4   6 1041.76 196.594  11
  -4  -4   6 1096.95 172.146   9
   4   4  -6 991.831 155.973   9
  -4  -4   5 3363.68 261.351   2
   4   4  -5 4760.97 368.122   7
   4   4  -5 4958.93 362.414   9
  -4  -4   5 4451.72 395.479  11
   4   4  -5 4832.28 397.153   1
  -4  -4   5 4923.48 372.005   9
   4   4  -5 4352.54 386.025   4
   4   4  -4 297.791 97.6774   4
  -4  -4   4 151.836 42.1177   2
   4   4  -4 238.395 77.1094   7
   4   4  -4 207.950 74.1584   1
  -4  -4   4 228.731 85.4389  11
  -4  -4   4 200.726 81.0189   9
  -4  -4   3 5973.12 399.646   7
   4   4  -3 5984.69 394.249   7
   4   4  -3 6864.50 436.554   1
  -4  -4   3 7077.25 465.755   9
   4   4  -3 6253.01 459.947   4
  -4  -4   3 5590.40 248.993   2
  -4  -4   2 24618.5 923.312   7
   4   4  -2 26584.9 935.364   7
   4   4  -2 25454.4 933.912   1
  -4  -4   2 25773.3 1035.40   9
   4   4  -2 24539.0 1041.23   4
   4   4  -1 126.679 60.4241   4
  -4  -4   1 109.422 41.9180   7
   4   4  -1 226.780 69.8995   7
  -4  -4   1 225.841 84.0962   9
   4   4   0 391.678 119.854   4
  -4  -4   0 261.629 72.5067   7
   4   4   0 394.143 86.1004   7
   4   4   0 444.221 84.6066   1
   4   4   0 262.344 84.7395  10
  -4  -4   0 300.087 98.2940   9
  -4  -4  -1 3799.79 373.257   9
   4   4   1 3421.43 208.105   1
   4   4   1 3740.08 344.989  10
   4   4   1 3966.11 396.860   4
   4   4   2 707.591 171.024   4
   4   4   2 591.008 52.6915   1
   4   4   2 641.582 144.644  10
   4   4   2 457.852 44.1515   1
  -4  -4  -2 734.424 185.388   5
  -4  -4  -2 778.994 169.459   9
   4   4   3 4031.76 392.824  10
  -4  -4  -3 4196.96 408.314   9
  -4  -4  -3 3801.75 439.405   5
   4   4   3 3788.05 354.028   8
  -4  -4  -4 1617.53 292.726   5
  -4  -4  -4 1385.74 241.886   9
   4   4   4 1454.14 216.881   8
  -4  -4  -5 2050.50 341.886   5
  -4  -4  -5 1573.74 259.509   9
   4   4   5 1409.84 217.983   8
   4   4   6 349.425 110.128  11
  -4  -4  -6 349.003 160.287   5
  -4  -4  -6 261.858 108.884   9
   4   4   6 332.657 107.719   8
   4   4   7 47.0813 29.1226  11
  -4  -4  -7 99.2808 87.0026   5
  -4  -4  -7-8.00488 30.6675   9
   4   4   7-69.5076 71.1901   8
   4   5 -11-6.73149 47.4125   4
   4   5 -11-15.3414 45.4398   1
  -4  -5  11 33.9301 33.6752  11
   4   5 -10 1526.88 265.119   4
   4   5 -10 1148.93 227.854   7
  -4  -5  10 1509.43 280.973  11
   4   5 -10 1182.93 249.101   1
   4   5  -9 1032.18 211.073   4
   4   5  -9 1235.81 223.216   7
   4   5  -9 1067.26 234.034   1
  -4  -5   9 1021.78 223.177  11
  -4  -5   9 1241.43 179.029   9
  -4  -5   9 1158.01 187.499   3
   4   5  -8 892.279 197.904   4
   4   5  -8 904.122 189.650   7
   4   5  -8 821.188 192.347   1
  -4  -5   8 838.725 196.744  11
  -4  -5   8 1146.87 180.803   9
   4   5  -7 684.997 164.157   4
   4   5  -7 927.310 181.633   7
   4   5  -7 823.218 181.783   1
  -4  -5   7 834.518 187.486  11
  -4  -5   7 929.095 162.395   9
   4   5  -6 2831.16 318.482   7
  -4  -5   6 2556.77 322.095  11
   4   5  -6 2479.80 308.556   1
  -4  -5   6 2956.64 301.426   9
   4   5  -6 2654.37 315.921   4
  -4  -5   6 1785.82 208.557   2
   4   5  -5 7816.98 511.146   7
   4   5  -5 7407.46 526.452   1
  -4  -5   5 8647.50 531.428   9
   4   5  -5 6963.42 516.009   4
  -4  -5   5 5089.29 335.851   2
   4   5  -4 15635.6 756.374   7
   4   5  -4 15284.0 780.604   1
  -4  -5   4 18682.5 854.869   9
   4   5  -4 16589.6 837.862   4
   4   5  -3 769.082 163.615   4
   4   5  -3 834.386 154.277   7
  -4  -5   3 679.218 67.1802   6
   4   5  -3 785.069 149.228   1
  -4  -5   3 784.117 161.845   9
   4   5  -2-12.7563 5.87435   4
   4   5  -2 53.3807 43.5662   7
   4   5  -2 52.2558 44.0191   1
  -4  -5   2-6.82922 39.1396   9
   4   5  -1 2368.86 244.898   7
   4   5  -1 2586.96 247.977   1
  -4  -5   1 2372.46 299.826   9
   4   5  -1 2428.31 303.879   4
   4   5   0 544.903 144.418   4
   4   5   0 543.174 113.193   7
   4   5   0 707.828 153.994  10
  -4  -5   0 701.451 164.247   9
   4   5   1 192.773 80.2703   4
   4   5   1 285.192 75.8107   7
   4   5   1 176.449 40.5614   1
   4   5   1 304.205 102.787  10
  -4  -5  -1 249.453 95.8191   9
   4   5   2 2733.70 248.933   7
   4   5   2 2597.35 315.488  10
   4   5   2 1924.54 123.151   1
  -4  -5  -2 2519.27 330.842   9
  -4  -5  -2 2771.92 379.737   5
   4   5   2 2926.47 366.487   4
   4   5   3 253.878 79.0043   7
   4   5   3 180.008 84.0746  10
  -4  -5  -3 200.692 100.369   5
  -4  -5  -3 298.535 101.030   9
   4   5   3 278.490 93.2831   8
   4   5   4-2.86304 15.2347   7
   4   5   4-59.9321 54.4014  10
  -4  -5  -4-21.8184 62.0257   5
  -4  -5  -4-24.8752 33.3010   9
   4   5   4-10.0369 32.3265   8
  -4  -5  -5 1666.38 316.638   5
  -4  -5  -5 1672.06 286.126   9
   4   5   5 1497.75 234.316   8
   4   5   6 119.308 72.7890  11
  -4  -5  -6 92.6698 68.0063   5
  -4  -5  -6 160.014 104.040   9
   4   5   6 42.4547 30.0100   8
   4   6 -10 105.325 103.975   4
   4   6 -10-51.7542 49.4854   7
  -4  -6  10 43.6237 58.4019   6
   4   6 -10-21.8466 32.6307   1
  -4  -6  10-9.65818 58.2686  11
   4   6  -9-0.33321 25.2086   4
   4   6  -9 97.7045 71.2493   7
  -4  -6   9 23.1796 36.9142   6
   4   6  -9-14.1344 49.2485   1
  -4  -6   9-2.89938 34.3677  11
  -4  -6   9 19.8322 46.6032   3
   4   6  -8 66.8522 36.5778   4
   4   6  -8 186.679 92.2736   7
  -4  -6   8 147.054 71.3307   6
   4   6  -8 100.303 66.5238   1
  -4  -6   8 144.013 84.9113  11
  -4  -6   8 99.1138 42.1628   9
   4   6  -7 2680.18 325.130   7
  -4  -6   7 2292.41 248.666   6
   4   6  -7 2350.17 331.248   1
  -4  -6   7 2252.24 273.317   9
   4   6  -7 2553.49 328.334   4
   4   6  -6 2007.16 282.054   7
   4   6  -6 1624.45 249.725   4
  -4  -6   6 2034.40 206.684   6
   4   6  -6 1726.97 274.641   1
  -4  -6   6 1809.01 249.175   9
   4   6  -5 1366.33 234.054   4
   4   6  -5 1541.29 229.737   7
  -4  -6   5 1778.24 255.163   9
   4   6  -4 2267.05 274.982   7
   4   6  -4 1846.45 271.299   4
  -4  -6   4 2055.96 148.300   6
  -4  -6   4 2263.92 292.519   9
   4   6  -3 1880.17 245.057   7
   4   6  -3 1658.67 255.932   4
  -4  -6   3 2077.90 285.069   9
   4   6  -2 1035.81 204.832   4
   4   6  -2 1088.41 183.774   7
   4   6  -2 1063.56 176.609   1
  -4  -6   2 1328.86 235.216   9
   4   6  -1 3981.01 351.743   7
   4   6  -1 4062.07 339.730   1
  -4  -6   1 4337.21 436.625   9
   4   6  -1 3648.40 403.405   4
   4   6   0 3542.41 323.770   7
   4   6   0 4167.64 316.120   1
  -4  -6   0 3465.52 404.001   9
   4   6   0 3948.78 422.173   4
   4   6   1 2478.67 270.039   7
   4   6   1 2725.01 337.428  10
  -4  -6  -1 2476.84 340.529   9
  -4  -6  -1 2206.26 333.772   5
   4   6   1 2644.89 350.799   4
   4   6   2 1741.86 293.283   4
   4   6   2 1884.96 229.791   7
   4   6   2 1887.82 288.084  10
  -4  -6  -2 2148.60 348.696   5
  -4  -6  -2 1989.49 311.929   9
   4   6   3 2071.73 240.421   7
  -4  -6  -3 2728.09 399.400   5
   4   6   3 2378.46 334.307  10
  -4  -6  -3 2762.38 372.743   9
   4   6   3 2362.98 298.211   8
   4   6   4 351.037 126.577  10
  -4  -6  -4 436.124 167.976   5
  -4  -6  -4 349.303 122.529   9
   4   6   4 437.208 125.545   8
   4   7  -8 365.194 126.412   4
   4   7  -8 599.084 169.118   7
  -4  -7   8 846.374 162.817   6
   4   7  -8 381.581 134.809   1
  -4  -7   8 683.353 176.458   3
   4   7  -7 416.958 136.809   4
   4   7  -7 742.643 183.870   7
   4   7  -7 348.724 144.530   1
  -4  -7   7 642.140 156.643   9
   4   7  -6 13.8281 26.0203   4
   4   7  -6 41.0202 30.0776   7
  -4  -7   6-16.9563 45.5903   9
   4   7  -5 153.046 78.2629   4
   4   7  -5 148.070 76.3793   7
  -4  -7   5 185.258 90.7216   9
   4   7  -4 2107.84 286.078   7
   4   7  -4 1612.19 257.000   4
  -4  -7   4 2400.04 321.936   9
   4   7  -3 4027.18 392.931   7
  -4  -7   3 4456.07 454.399   9
   4   7  -3 3199.02 370.793   4
   4   7  -2 1379.56 241.174   4
   4   7  -2 1454.28 229.604   7
  -4  -7   2 1927.56 303.485   9
   4   7  -1-2.89026 37.8554   4
   4   7  -1 25.6482 20.5585   7
   4   7  -1 21.4363 30.2389   1
  -4  -7   1 13.6550 22.8906   9
   4   7   0 248.462 106.248   4
   4   7   0 284.752 97.0583   7
   4   7   0 205.840 71.9137   1
  -4  -7   0 496.840 159.566   9
   4   7   1 123.232 57.5488   4
   4   7   1 263.084 102.352   7
   4   7   1 146.947 72.6038  10
  -4  -7  -1 245.632 112.078   9
  -4  -7  -1 87.7384 84.1444   5
   4   7   2 4.03894 25.8637   7
   4   7   2 0.33581 57.0663  10
  -4  -7  -2 50.5666 90.0675   5
  -4  -7  -2-64.3884 94.3097   9
   4   7   3 41.6963 35.6408   7
   4   7   3 47.9488 69.8602  10
  -4  -7  -3 71.5446 86.3202   5
  -4  -7  -3 36.0075 59.6492   9
   4   7   3-39.4201 36.2198   8
   4   8  -6-60.5771 51.2914   4
   4   8  -6-13.7534 23.7410   7
  -4  -8   6 69.7921 89.4577   9
   4   8  -5-18.5113 43.7912   4
   4   8  -5 15.4001 59.3686   7
  -4  -8   5 70.4575 49.7004   9
   4   8  -4 247.375 92.7856   4
   4   8  -4 475.140 151.344   7
  -4  -8   4 635.430 183.699   9
   4   8  -3 121.511 62.6113   4
   4   8  -3 30.6059 34.2831   7
  -4  -8   3 9.27233 17.7000   9
   4   8  -2 240.436 110.482   4
   4   8  -2 251.278 109.262   7
  -4  -8   2 552.104 171.450   9
   4   8  -1-9.73757 61.8278   4
   4   8  -1 2.63184 39.0706   7
  -4  -8   1 147.320 102.515   9
   4   8   0 223.149 103.470   4
   4   8   0 485.912 135.332   7
  -4  -8   0 631.632 185.626   9
  -4  -8   0 719.592 220.594   5
  -5   9   3-12.9383 48.0442   7
  -5   9   3 52.6982 110.685  11
   5  -9  -3-12.3386 46.2884   3
  -5   9   2-28.4743 40.2903   7
  -5   9   2 57.2674 35.2225  11
  -5   9   1 125.335 73.9141   7
  -5   9   1 21.6445 35.0769  11
   5  -9  -1 95.3427 61.6124   3
  -5   9   0 24.7944 38.7768   2
  -5   9   0 94.6781 87.1319   7
  -5   9   0-9.55282 48.6433  11
   5  -9   0 40.8261 45.5488   3
  -5   9  -1-15.5097 41.2609   2
  -5   9  -1-46.5882 50.6605   7
   5  -9   1-41.0417 72.8111   3
  -5   8   6-11.0886 50.6965   7
  -5   8   6 168.581 85.3556  11
   5  -8  -6-4.62226 62.9465   3
   5  -8  -6 34.0910 76.8223   1
  -5   8   5 64.7480 49.4722   7
  -5   8   5 140.737 84.7665  11
   5  -8  -5 153.227 85.5615   1
   5  -8  -5 75.9770 52.7402   3
   5  -8  -4 467.873 146.711   1
  -5   8   4 363.817 134.264   7
  -5   8   4 470.207 150.364  11
   5  -8  -4 471.087 158.610   3
  -5   8   3 25.9717 48.3811   7
  -5   8   3 60.6401 51.9580  11
   5  -8  -3 15.9034 15.7025   3
  -5   8   2-14.8663 26.8079   7
  -5   8   2 32.5077 66.3952  11
   5  -8  -2-65.4537 58.9377   3
  -5   8   1 668.234 170.739   7
  -5   8   1 318.741 105.239  11
   5  -8  -1 728.089 205.627   3
  -5   8   0 1136.42 214.206   7
  -5   8   0 400.579 132.277  11
   5  -8   0 1028.00 251.268   3
  -5   8  -1 12.8689 44.1822   2
  -5   8  -1 28.1408 33.4807   7
  -5   8  -1 13.0686 46.9125  11
   5  -8   1-17.1331 6.73866   3
  -5   8  -2 220.675 120.017   2
  -5   8  -2 344.773 113.203   7
   5  -8   2 204.058 118.693   3
  -5   8  -3 187.253 84.4286   7
  -5   8  -3 141.699 83.6963   2
   5  -8   3 127.700 104.612   3
  -5   8  -4 36.6612 23.7268   7
  -5   8  -4-84.6463 51.2299   2
   5  -8   4 46.8657 85.1034   3
  -5   7   8 19.6322 54.9337  11
   5  -7  -8 10.9257 39.1456   1
   5  -7  -8 27.8132 32.3350   3
   5  -7  -7 679.536 166.844   1
  -5   7   7 656.945 186.093  11
   5  -7  -7 455.658 139.180   3
  -5   7   6 16.8007 39.6160  11
   5  -7  -6 30.5466 22.4565   1
   5  -7  -6-8.80050 6.84911   3
  -5   7   5 7.60826 12.3139  11
   5  -7  -5 59.0725 46.3890   3
   5  -7  -5 75.1942 37.8910   1
  -5   7   4 160.675 90.5657   7
   5  -7  -4 110.385 74.7527   1
  -5   7   4 95.9292 60.5634  11
   5  -7  -4 164.664 91.3557   3
  -5   7   3 345.960 109.414   7
  -5   7   3 193.224 90.6383  11
   5  -7  -3 269.946 111.026   3
   5  -7  -3 465.192 137.926   1
  -5   7   2-9.71707 16.3735   7
   5  -7  -2-10.6091 4.28752   1
  -5   7   2 48.0901 58.2668  11
   5  -7  -2 37.8511 35.2426   3
  -5   7   1 50.2974 59.5691   7
  -5   7   1 91.6769 57.0420  11
   5  -7  -1 208.955 92.0888   3
  -5   7   0 18.9968 11.5220   7
   5  -7   0 25.1069 54.2848   3
  -5   7  -1 620.421 164.047   2
  -5   7  -1 772.057 167.777   7
  -5   7  -1 257.049 82.8792  11
   5  -7   1 568.487 168.885   3
  -5   7  -2 757.087 190.280   2
  -5   7  -2 647.425 147.208   7
  -5   7  -2 185.031 59.2222  11
   5  -7   2 593.820 174.619   3
  -5   7  -3 290.473 94.5421   7
  -5   7  -3 163.045 97.2481   2
   5  -7   3 254.493 112.782   3
  -5   7  -4 147.896 67.3446   7
  -5   7  -4 289.519 120.052   2
   5  -7   4 214.105 98.6914   3
  -5   7  -5 2298.55 357.964   2
   5  -7   5 2329.74 368.689   3
   5  -6  -9 219.255 104.727   4
   5  -6  -9 477.510 139.723   1
  -5   6   9 365.709 139.374  11
   5  -6  -8 140.601 61.4354   4
   5  -6  -8 204.326 79.7815   5
  -5   6   8 295.164 136.864  11
   5  -6  -8 43.0387 45.0013   3
   5  -6  -8 109.458 65.4353   1
  -5   6   7 459.858 156.011  11
   5  -6  -7 472.594 127.185   4
   5  -6  -7 257.580 101.600   3
   5  -6  -7 538.444 148.931   1
  -5   6   6 1329.65 242.916  11
   5  -6  -6 865.665 189.323   3
   5  -6  -6 1761.41 250.499   1
   5  -6  -6 1459.87 199.571   4
   5  -6  -5 3113.77 329.686   1
   5  -6  -5 2367.74 318.079   3
  -5   6   5 2619.89 330.574  11
   5  -6  -5 2843.17 250.976   4
   5  -6  -4 117.697 71.9163   3
   5  -6  -4 41.6226 26.8112   4
   5  -6  -4 29.4152 35.0693   1
  -5   6   4 141.907 71.8779  11
   5  -6  -3 2266.03 274.176   1
   5  -6  -3 2106.64 303.374   3
  -5   6   3 1657.89 239.474  11
   5  -6  -3 2036.38 161.637   4
  -5   6   3 1915.60 199.856   8
  -5   6   2 1400.48 212.903   7
   5  -6  -2 1386.44 216.280   1
   5  -6  -2 1400.65 246.765   3
  -5   6   2 1167.08 190.982  11
   5  -6  -2 1027.95 92.2459   4
  -5   6   2 1492.49 189.778   8
  -5   6   1 109.128 69.8911   7
   5  -6  -1 95.9947 51.6688   1
  -5   6   1 67.9754 46.0437  11
   5  -6  -1 199.213 92.9897   3
  -5   6   0 1219.64 189.961   7
  -5   6   0 880.710 142.212  11
   5  -6   0 1327.11 239.632   3
  -5   6  -1 297.167 93.7311   7
  -5   6  -1 168.362 51.3953  11
   5  -6   1 136.644 88.3325   3
  -5   6  -2 41.7212 41.6097   2
  -5   6  -2 26.8780 23.0712   7
  -5   6  -2 48.0613 9.75364  11
   5  -6   2 25.3873 37.8091   3
  -5   6  -3 96.8434 71.0322   2
  -5   6  -3 0.88768 18.4174   7
   5  -6   3-92.1338 85.0195   3
  -5   6  -3 9.59866 17.2287   9
  -5   6  -4 218.420 70.7703   7
  -5   6  -4 210.438 101.920   2
  -5   6  -4 63.5828 40.4672   9
   5  -6   4 139.446 67.6576   3
  -5   6  -5 1861.73 215.873   7
  -5   6  -5 1699.36 289.907   2
   5  -6   5 1226.39 254.201   3
  -5   6  -6 144.845 88.9619   2
   5  -5 -10 522.387 145.101   1
  -5   5  10 635.510 187.309  11
   5  -5 -10 367.456 128.260   5
   5  -5  -9 2699.34 343.523   4
   5  -5  -9 2441.42 313.846   1
   5  -5  -9 2367.02 303.786   5
  -5   5   9 2520.05 360.446  11
   5  -5  -8 194.237 90.4655   1
   5  -5  -8 113.911 71.3878   4
   5  -5  -8 136.782 71.2182   3
  -5   5   8 63.4934 53.8562  11
   5  -5  -8 187.302 88.9144   5
   5  -5  -7 29.5337 21.5338   1
   5  -5  -7 48.9640 51.4384   4
  -5   5   7 5.78384 20.4114  11
   5  -5  -7-35.3970 60.3314   3
   5  -5  -6 38.8138 33.2300   4
   5  -5  -6 63.1896 38.5569   1
  -5   5   6 89.6351 65.2305  11
   5  -5  -6 35.6974 20.5255   3
  -5   5   6 88.0117 50.1327   5
   5  -5  -5 456.457 101.238   4
   5  -5  -5 580.120 136.030   1
  -5   5   5 528.709 136.279  11
   5  -5  -5 433.394 125.120   3
  -5   5   5 450.651 94.7910   5
   5  -5  -4 275.571 68.2366   4
  -5   5   4 395.651 119.021  11
   5  -5  -4 343.140 109.179   3
   5  -5  -4 352.472 103.713   1
  -5   5   4 452.047 80.6686   5
   5  -5  -3 742.143 108.125   4
  -5   5   3 652.437 148.890  11
   5  -5  -3 598.569 154.393   3
  -5   5   3 613.056 87.1448   5
   5  -5  -3 871.593 156.853   1
  -5   5   3 657.877 109.279   8
   5  -5  -2 373.093 70.1754   4
   5  -5  -2 256.445 87.4300   1
  -5   5   2 205.029 67.7136  11
   5  -5  -2 285.731 110.229   3
  -5   5   2 256.036 47.2446   5
  -5   5   2 249.870 76.4557   8
   5  -5  -1 94.6822 32.7723   4
  -5   5   1 41.3801 28.9286   7
   5  -5  -1 135.198 71.2979   3
  -5   5   1 81.2832 23.1535   5
  -5   5   1 110.988 52.7214  11
  -5   5   1 58.6907 24.4690   5
   5  -5  -1 103.540 51.7932   1
  -5   5   1 85.6143 32.6184   8
   5  -5   0 140.384 62.9176   1
   5  -5   0 139.702 43.9911   4
  -5   5   0 156.074 64.2830   7
  -5   5   0 21.4827 10.3470   5
  -5   5   0 202.845 65.2162  11
   5  -5   0 94.3736 61.9306   3
  -5   5   0 66.1564 27.2135   5
  -5   5  -1 74.6648 44.5976   7
  -5   5  -1 82.9022 32.0750   4
  -5   5  -1 42.2868 28.0040  11
   5  -5   1 133.065 82.7294   3
  -5   5  -1 63.9354 25.2082   5
  -5   5  -2 11296.4 538.605   7
   5  -5   2 11930.1 755.075   3
  -5   5  -2 9545.60 394.381  11
  -5   5  -2 11340.5 492.369   5
  -5   5  -2 8540.43 517.777   9
  -5   5  -2 12407.0 732.768   2
  -5   5  -2 11047.2 477.043   4
  -5   5  -3 124.223 64.0967   2
  -5   5  -3 162.313 55.5996   7
   5  -5   3 255.054 102.224   3
  -5   5  -3 118.991 48.7349   5
  -5   5  -3 78.0512 45.3256   9
  -5   5  -4 6320.90 364.264   7
   5  -5   4 5894.80 539.791   3
  -5   5  -4 5056.15 376.961   5
  -5   5  -4 3735.98 295.676   9
  -5   5  -4 6179.88 519.918   2
  -5   5  -5 10794.5 735.550   2
  -5   5  -5 11861.2 522.727   7
  -5   5  -5 8551.59 560.677   5
  -5   5  -6 44.4022 49.7264   2
   5  -5   6-29.6184 64.0416   6
  -5   5  -6 30.2617 33.5810   5
  -5   5  -7 570.965 173.404   2
   5  -5   7 277.229 123.669   6
  -5   5  -7 145.591 91.4939   5
  -5   4  11 125.671 102.918  11
   5  -4 -11 6.40004 8.52039   5
   5  -4 -11 135.084 61.4894   1
  -5   4  10 757.882 208.160  11
   5  -4 -10 567.779 162.332   5
   5  -4 -10 874.960 185.615   1
   5  -4  -9 29.8519 25.5843   4
  -5   4   9-19.9549 65.9352  11
   5  -4  -9 34.0284 20.2586   5
   5  -4  -9 1.54270 34.4784   1
   5  -4  -8 1626.56 245.793   4
   5  -4  -8 1150.72 189.654   3
  -5   4   8 1308.31 243.325  11
   5  -4  -8 1435.24 226.835   5
   5  -4  -8 1670.92 239.850   1
   5  -4  -7 3414.13 340.401   4
   5  -4  -7 3474.14 336.902   1
   5  -4  -7 2825.45 301.502   3
  -5   4   7 3211.65 362.910  11
  -5   4   7 1495.66 199.006   3
   5  -4  -6 1154.88 180.450   4
   5  -4  -6 871.599 166.949   3
  -5   4   6 1113.14 200.440  11
  -5   4   6 1238.73 181.234   5
  -5   4   6 718.796 134.355   3
   5  -4  -6 1228.78 192.028   1
   5  -4  -5 16036.9 747.452   1
   5  -4  -5 14318.8 769.692   3
  -5   4   5 14931.1 766.355  11
  -5   4   5 15008.8 661.921   5
   5  -4  -5 15257.0 686.459   4
   5  -4  -4 523.357 118.665   1
   5  -4  -4 498.151 102.794   4
  -5   4   4 671.472 141.262  11
   5  -4  -4 489.394 125.440   3
  -5   4   4 535.016 100.400   5
   5  -4  -3 423.383 88.4501   4
   5  -4  -3 316.300 105.315   3
  -5   4   3 337.857 91.7210  11
   5  -4  -3 427.249 103.748  11
  -5   4   3 346.333 73.3983   5
   5  -4  -3 470.806 109.771   1
  -5   4   2 1005.80 119.220   5
  -5   4   2 926.853 144.194  11
   5  -4  -2 1107.06 200.003   3
   5  -4  -2 1061.54 164.873   1
   5  -4  -2 969.316 128.914   4
  -5   4   2 1162.79 156.901   8
  -5   4   1 5334.54 314.130   4
   5  -4  -1 5214.24 381.425   1
   5  -4  -1 5570.36 465.597   3
  -5   4   1 5150.19 333.676  11
   5  -4  -1 5329.61 321.962   4
  -5   4   1 6818.36 416.813   8
  -5   4   0 6367.40 379.242   7
   5  -4   0 6635.62 426.250   1
   5  -4   0 5920.15 503.278   3
  -5   4   0 5752.13 324.087  11
   5  -4   0 6221.81 359.433   4
  -5   4   0 5132.30 328.527   5
  -5   4   0 5974.80 335.074   4
   5  -4   1-11.4589 13.2093   4
  -5   4  -1 14.5162 7.15615   7
  -5   4  -1 9.63906 12.1368   4
   5  -4   1 6.89686 13.9989   1
   5  -4   1-7.99115 24.0671   3
  -5   4  -1 5.86708 21.5287  11
  -5   4  -1 27.6459 23.1795   5
  -5   4  -1-23.7550 2.63442   9
  -5   4  -2 2151.37 187.160   7
   5  -4   2 2182.94 294.917   3
  -5   4  -2 1832.61 105.927  11
  -5   4  -2 1855.66 201.793   5
  -5   4  -2 1745.90 201.861   9
  -5   4  -2 1920.60 261.107   2
  -5   4  -2 1886.49 199.379   4
  -5   4  -3 2613.04 201.360   7
  -5   4  -3 1994.15 228.879   5
  -5   4  -3 2038.94 211.438   9
  -5   4  -3 2447.73 250.563   4
  -5   4  -3 2384.08 295.105   2
  -5   4  -4 57.0669 53.9603   4
  -5   4  -4 93.5326 31.7449   7
  -5   4  -4 12.5855 10.4733   2
  -5   4  -4 97.7060 48.3704   5
  -5   4  -4 35.4934 25.2069   9
  -5   4  -5 92.5987 47.3275   2
   5  -4   5 241.383 100.619   6
  -5   4  -5 185.412 84.1071   5
  -5   4  -5 82.0540 34.0003   9
  -5   4  -6 2924.54 366.733   2
   5  -4   6 3006.85 367.228   6
  -5   4  -6 2203.08 303.285   5
  -5   4  -7 91.2180 69.8356   2
   5  -4   7 186.737 96.2187   6
  -5   4  -7 70.7994 47.6573   5
  -5   3  11 258.157 118.331  11
   5  -3 -11-180.061 83.7958   1
   5  -3 -11 69.7229 64.1113   5
   5  -3 -10 4.31207 30.9730   4
   5  -3 -10 49.1542 39.7794   1
  -5   3  10-8.34967 32.4859  11
   5  -3 -10 19.8524 45.4933   5
   5  -3  -9 998.846 204.849   4
   5  -3  -9 1211.16 210.227   1
  -5   3   9 1175.62 235.592  11
   5  -3  -9 1060.48 207.114   5
   5  -3  -8 9540.16 619.031   4
   5  -3  -8 9478.46 597.156   5
  -5   3   8 8595.24 629.775  11
  -5   3   8 6552.18 398.520   3
   5  -3  -8 9389.39 583.346   1
   5  -3  -7 15.3686 21.2714   4
  -5   3   7-19.9379 22.2121  11
   5  -3  -7 14.9594 30.6524   1
  -5   3   7 39.9446 51.7444   3
   5  -3  -6 1285.32 195.270   4
  -5   3   6 1231.26 186.610   5
   5  -3  -6 1321.20 193.845   1
  -5   3   6 1038.81 156.166   3
  -5   3   6 1206.35 195.600  11
   5  -3  -6 1197.67 116.049   8
   5  -3  -5 1113.20 164.260   4
   5  -3  -5 997.083 171.280   3
  -5   3   5 1184.17 190.775  11
  -5   3   5 1155.19 166.411   5
  -5   3   5 1013.31 164.397   3
   5  -3  -5 1033.04 166.238   1
   5  -3  -5 1080.03 122.637   8
   5  -3  -4-8.52521 21.2536   4
  -5   3   4-10.4456 37.7192  11
   5  -3  -4 25.1132 41.7066  11
  -5   3   4 24.5748 35.0723   5
  -5   3   4 7.50444 10.4479  10
  -5   3   4 24.7829 10.5928   3
   5  -3  -4-3.76488 15.2135   1
   5  -3  -4 54.6911 53.1325   3
   5  -3  -4 23.0454 21.6337   8
   5  -3  -3 1665.30 197.446   1
  -5   3   3 1716.23 222.644   3
  -5   3   3 1674.54 180.734   5
  -5   3   3 1694.78 198.246  11
   5  -3  -3 1379.87 180.940  11
   5  -3  -3 1336.65 214.399   3
   5  -3  -3 1480.08 173.500   4
   5  -3  -3 1636.78 179.024   8
   5  -3  -2 0.52900 15.4352   4
   5  -3  -2 0.77127 25.0109   1
  -5   3   2 26.6766 16.8746   4
  -5   3   2-11.0732 2.25764  11
   5  -3  -2 28.4836 32.8801   3
  -5   3   2-7.17417 19.4587   5
  -5   3   2-11.4692 8.77547   3
   5  -3  -2 8.65007 23.8226   8
   5  -3  -1 30.3189 7.65377   4
  -5   3   1 40.1951 20.8628   4
  -5   3   1 68.6967 42.8530   1
   5  -3  -1 21.5625 47.1351   3
  -5   3   1 37.6291 30.2795  11
   5  -3  -1 42.0113 33.0615   1
   5  -3  -1 66.8098 32.2798  11
  -5   3   1 52.1846 30.5326   8
   5  -3  -1 62.9970 36.0214   8
   5  -3   0 11741.0 563.243   1
   5  -3   0 11295.4 679.142   3
  -5   3   0 11454.5 454.632  11
  -5   3   0 11042.5 572.832   9
   5  -3   0 11524.2 552.733   4
  -5   3   0 10712.7 554.059   1
  -5   3   0 11995.7 602.248   8
   5  -3   0 11614.2 583.430   8
  -5   3   0 11270.5 527.291   4
  -5   3  -1 3071.71 212.111   7
   5  -3   1 3288.19 273.021   1
  -5   3  -1 3066.92 177.702  11
  -5   3  -1 3160.78 273.799   9
   5  -3   1 3172.30 283.123   4
  -5   3  -1 2859.85 269.029   5
  -5   3  -1 3300.35 279.177   1
  -5   3  -1 2922.26 255.446   4
  -5   3  -2 20304.7 643.866   7
  -5   3  -2 18923.4 848.983   5
  -5   3  -2 19308.3 793.922   9
   5  -3   2 20517.6 870.672   4
  -5   3  -2 21057.0 835.817   4
  -5   3  -2 20372.7 903.804   2
  -5   3  -2 20427.2 814.141   1
  -5   3  -3 19.2416 18.0093   4
  -5   3  -3-24.4940 9.46470   2
  -5   3  -3 17.4559 11.2011   7
  -5   3  -3 56.2632 43.4397   5
  -5   3  -3 12.7823 13.2466   9
  -5   3  -4 3804.43 180.737   7
  -5   3  -4 3808.10 361.428   5
  -5   3  -4 3337.95 269.842   9
  -5   3  -4 3863.41 377.674   2
  -5   3  -5 2838.72 329.149   2
   5  -3   5 2865.06 328.493   6
  -5   3  -5 2349.21 307.355   5
  -5   3  -5 1876.84 193.429   9
  -5   3  -6 3473.29 386.917   2
   5  -3   6 3674.56 398.535   6
  -5   3  -6 3211.81 376.693   5
  -5   3  -7 2925.63 366.214   2
   5  -3   7 3586.77 401.927   6
  -5   3  -7 2288.54 344.463   5
   5  -3   8 75.4273 56.7827   6
  -5   3  -8 101.259 84.2348   2
  -5   3  -8 10.3710 44.8513   5
   5  -2 -12 1661.84 319.583   4
   5  -2 -12 1945.36 291.731   1
  -5   2  12 2254.45 361.496  11
   5  -2 -12 2029.08 340.685   5
   5  -2 -11 895.310 220.288   4
   5  -2 -11 958.162 199.857   1
  -5   2  11 1100.68 235.979  11
   5  -2 -11 925.318 213.841   5
   5  -2 -10 2796.71 365.967   4
   5  -2 -10 2861.88 367.831   5
  -5   2  10 3059.76 388.521  11
   5  -2 -10 3384.09 363.456   1
   5  -2  -9 10718.2 706.781   4
   5  -2  -9 10060.4 680.279   5
  -5   2   9 11128.5 726.983  11
   5  -2  -9 11054.6 669.277   1
   5  -2  -8 5488.80 466.465   4
   5  -2  -8 5410.44 451.986   5
  -5   2   8 5703.62 484.218  11
   5  -2  -8 5880.42 450.434   1
   5  -2  -8 4612.30 243.717   8
   5  -2  -7 2169.95 269.519   4
  -5   2   7 2316.89 287.711  11
   5  -2  -7 1935.85 243.012   1
   5  -2  -7 1899.95 157.966   8
   5  -2  -6 133.978 64.3959   4
   5  -2  -6 69.9687 48.0711   1
  -5   2   6 16.0699 17.3303  11
  -5   2   6 49.0626 42.9426   5
  -5   2   6 90.5030 49.7419   3
   5  -2  -6 91.2299 36.8398   8
  -5   2   5 2028.61 226.647   3
  -5   2   5 2021.10 239.215   5
  -5   2   5 1984.73 239.186  11
   5  -2  -5 2064.14 231.291   1
   5  -2  -5 2153.37 184.673   8
   5  -2  -5 2079.04 232.703   4
  -5   2   4 12530.2 639.918   3
  -5   2   4 13640.5 618.048   5
  -5   2   4 12335.1 617.894  11
   5  -2  -4 12333.6 615.926  11
   5  -2  -4 12862.8 609.825   1
   5  -2  -4 13279.3 543.489   8
   5  -2  -4 11895.9 595.725   4
  -5   2   3 4079.89 314.215   4
  -5   2   3 4226.04 351.990   3
  -5   2   3 3829.64 297.153   5
  -5   2   3 4248.87 312.774  11
   5  -2  -3 4233.95 315.701  11
  -5   2   3 3967.51 221.738  10
  -5   2   3 4172.89 329.148   1
   5  -2  -3 4618.38 300.974   8
   5  -2  -3 4026.62 306.460   4
   5  -2  -3 3937.58 305.950   1
   5  -2  -2 14494.1 623.791   1
  -5   2   2 15931.3 749.044   3
  -5   2   2 13846.2 594.124  11
  -5   2   2 14469.8 551.343  10
  -5   2   2 14664.5 658.469   1
  -5   2   2 14591.9 667.074   9
   5  -2  -2 13469.8 616.639   4
   5  -2  -2 14673.4 625.558   8
  -5   2   2 14783.0 638.089   4
   5  -2  -1 10532.3 506.855   1
  -5   2   1 10649.7 461.457  11
   5  -2  -1 9698.23 447.252  11
  -5   2   1 11162.8 541.306   1
  -5   2   1 10163.5 539.041   9
   5  -2  -1 10476.8 526.024   4
   5  -2  -1 10836.2 532.636   8
  -5   2   1 9994.41 514.241   4
   5  -2   0 10726.8 503.236   1
  -5   2   0 10897.6 551.883   6
  -5   2   0 10965.7 639.311   3
  -5   2   0 11009.9 435.665  11
   5  -2   0 10072.0 414.544  11
  -5   2   0 11273.0 555.811   9
  -5   2   0 10812.1 520.719   1
   5  -2   0 10652.8 553.051   4
  -5   2   0 11457.9 579.134   8
   5  -2   0 11036.8 562.593   8
  -5   2   0 10161.6 525.184   4
  -5   2  -1 3955.34 203.623   7
   5  -2   1 4321.57 296.981   1
  -5   2  -1 4237.18 332.041   6
  -5   2  -1 4263.43 208.051  11
   5  -2   1 3670.98 190.661  11
  -5   2  -1 4181.01 322.454   9
   5  -2   1 4455.81 357.872   4
  -5   2  -1 3965.53 292.067   1
  -5   2  -1 4481.42 339.250   4
   5  -2   1 4424.56 347.345   8
   5  -2   2 275.959 90.7881   4
   5  -2   2 254.368 68.4262   1
  -5   2  -2 300.211 87.3916   4
  -5   2  -2 340.610 93.9559   2
  -5   2  -2 280.797 37.6592   7
  -5   2  -2 215.361 58.8860   1
  -5   2  -2 309.167 95.2606   5
  -5   2  -2 337.750 86.1807   9
   5  -2   2 344.419 103.458   8
   5  -2   3 335.650 99.2605   8
  -5   2  -3 199.464 71.5251   2
  -5   2  -3 142.919 50.8008   1
  -5   2  -3 201.385 85.3415   5
  -5   2  -3 211.079 63.1633   9
  -5   2  -4 2803.26 301.233   2
   5  -2   4 3162.70 317.877   6
  -5   2  -4 2500.45 313.586   5
  -5   2  -4 2652.84 243.587   9
  -5   2  -4 1989.61 205.223   1
  -5   2  -5 2688.41 306.319   2
   5  -2   5 2449.25 293.683   6
  -5   2  -5 2347.90 309.136   5
  -5   2  -5 2080.59 216.407   9
  -5   2  -5 1677.11 184.213   1
  -5   2  -6 601.473 147.757   2
   5  -2   6 629.358 155.865   6
  -5   2  -6 632.702 164.284   5
  -5   2  -6 496.631 103.824   9
  -5   2  -7 807.193 183.749   2
   5  -2   7 814.105 180.469   6
  -5   2  -7 469.855 162.586   5
   5  -2   8 1156.06 230.783   6
  -5   2  -8 793.869 193.925   5
   5  -1 -12-4.51471 44.6921   1
   5  -1 -12-30.4113 35.7300   4
  -5   1  12-2.32059 25.9320  11
   5  -1 -12-13.1291 11.7320   5
   5  -1 -11 935.566 196.536   1
   5  -1 -11 813.829 203.140   4
  -5   1  11 1013.65 229.193  11
   5  -1 -11 1076.87 234.111   5
   5  -1 -10-23.5623 33.5499   1
   5  -1 -10-34.6817 65.1427   4
  -5   1  10-79.7195 85.8812  11
   5  -1 -10 43.4342 66.5014   5
   5  -1  -9 20.0077 8.02395   1
   5  -1  -9 5.79548 39.8731   4
  -5   1   9 60.4626 68.2654  11
   5  -1  -9-16.9171 38.5934   5
  -5   1   9-15.9653 17.9248   3
   5  -1  -8 4350.41 407.251   4
  -5   1   8 3939.91 278.961   3
  -5   1   8 3970.16 396.217  11
   5  -1  -8 4473.97 396.535   1
  -5   1   7 4519.73 404.049  11
   5  -1  -7 4525.47 386.170   1
   5  -1  -7 4116.82 381.696   4
   5  -1  -6 288.302 89.7634   1
   5  -1  -6 293.080 93.3653   4
  -5   1   6 237.309 89.1852  11
  -5   1   5 26094.0 983.884   7
  -5   1   5 26079.7 984.612   3
  -5   1   5 26222.8 1038.66   5
  -5   1   5 27339.4 1045.46  11
   5  -1  -5 27039.5 1021.07  11
   5  -1  -5 27910.3 1020.52   1
  -5   1   5 28121.3 1040.48   9
   5  -1  -5 26722.8 1031.67   4
  -5   1   4 3004.46 256.996   7
  -5   1   4 2986.46 289.154   3
  -5   1   4 2924.69 270.276   5
  -5   1   4 2878.28 271.970  11
   5  -1  -4 3138.50 278.397  11
  -5   1   4 2933.05 279.297   1
  -5   1   4 3044.23 282.728   9
   5  -1  -4 2978.14 265.714   1
   5  -1  -4 2683.34 228.154   8
   5  -1  -4 2763.15 265.627   4
   5  -1  -3 179.328 67.4990   4
  -5   1   3 143.121 50.5355   7
  -5   1   3 145.906 54.8238   4
   5  -1  -3 174.118 59.5958   1
  -5   1   3 137.970 53.8071  11
   5  -1  -3 171.757 60.7179  11
  -5   1   3 118.700 45.4330   3
  -5   1   3 166.636 65.7538   1
  -5   1   3 156.077 54.1918   9
   5  -1  -3 147.157 47.8022   8
  -5   1   2 1938.96 173.750   7
  -5   1   2 1683.70 180.415  11
  -5   1   2 1801.59 196.999   1
  -5   1   2 1821.75 163.213  10
  -5   1   2 1877.28 209.026   9
   5  -1  -2 1876.26 211.944   4
   5  -1  -2 1862.93 188.960   1
   5  -1  -2 1868.54 198.680   8
  -5   1   2 1865.70 210.441   4
   5  -1  -1 44.9676 34.6894   4
  -5   1   1 20.0139 15.5712   4
   5  -1  -1 45.3490 22.0323  11
  -5   1   1 20.7501 20.7204   7
  -5   1   1 64.6752 22.5186  11
  -5   1   1 16.2860 15.6950  10
  -5   1   1 23.7929 25.1833   9
   5  -1  -1 46.1922 30.8765   8
  -5   1   1 23.2700 25.9183   1
  -5   1   0 19819.1 613.931   7
  -5   1   0 21049.0 808.736   6
  -5   1   0 23710.5 990.881   3
  -5   1   0 21922.1 721.770  11
   5  -1   0 20852.7 694.531  11
  -5   1   0 22512.5 821.656  10
  -5   1   0 21207.8 776.354   1
  -5   1   0 21781.1 843.527   9
   5  -1   0 20528.3 873.788   4
   5  -1   0 21344.0 844.481   8
  -5   1   0 21031.8 863.609   4
  -5   1  -1 1752.71 93.9460   7
  -5   1  -1 1506.16 83.8522   7
  -5   1  -1 1921.61 206.971   6
   5  -1   1 1811.17 138.018  11
  -5   1  -1 2018.24 225.699  10
  -5   1  -1 1847.29 208.775   9
  -5   1  -1 1684.67 175.747   1
   5  -1   1 1825.84 234.246   4
  -5   1  -1 1820.90 202.932   2
  -5   1  -1 1957.27 232.722   4
   5  -1   1 1971.06 228.567   8
  -5   1  -2 9985.25 527.771   6
   5  -1   2 9365.97 324.307  11
  -5   1  -2 9696.83 607.484   5
  -5   1  -2 10273.8 529.623   9
  -5   1  -2 9068.53 440.335   1
   5  -1   2 9958.03 604.727   4
   5  -1   2 10344.9 575.013   8
  -5   1  -2 10658.0 539.393   2
  -5   1  -3 3869.29 396.396   5
  -5   1  -3 4190.49 323.272   9
   5  -1   3 3204.34 286.144   9
  -5   1  -3 2101.41 199.590   1
   5  -1   3 4844.69 425.178   4
   5  -1   3 4676.55 384.315   8
  -5   1  -3 4706.79 349.334   2
  -5   1  -4 1873.46 226.048   2
   5  -1   4 2051.38 246.585   6
  -5   1  -4 1714.07 205.455   9
  -5   1  -4 1826.96 273.285   5
   5  -1   4 1187.20 169.237   9
  -5   1  -4 864.464 122.311   1
   5  -1   4 1845.70 244.094   8
  -5   1  -5 1629.32 222.607   2
   5  -1   5 1348.31 206.860   6
  -5   1  -5 1535.35 264.925   5
  -5   1  -5 1209.77 174.073   9
   5  -1   5 668.487 132.515   9
  -5   1  -6 1931.80 255.483   2
   5  -1   6 1944.90 264.487   6
  -5   1  -6 1622.62 206.820   9
  -5   1  -6 1895.05 315.397   5
   5  -1   7 1044.31 203.078   6
  -5   1  -7 840.798 214.353   5
   5  -1   8 160.720 86.1478   6
  -5   1  -8 159.143 96.4812   5
   5   0 -12 3627.21 466.021   4
   5   0 -12 3707.82 476.648   5
  -5   0  12 3608.05 451.828  11
   5   0 -12 3613.58 415.689   1
  -5   0  12 2650.66 313.819   9
   5   0 -11 98.8268 65.0035   1
   5   0 -11 104.456 85.8469   4
  -5   0  11 55.3831 52.7609  11
   5   0 -11-50.5830 72.3936   5
  -5   0  11 98.6782 50.2877   9
   5   0 -10 11219.1 783.316   4
   5   0 -10 12552.6 815.185   5
  -5   0  10 13619.5 841.433  11
   5   0 -10 13061.2 774.815   1
  -5   0  10 11995.1 680.573   9
   5   0  -9 1419.75 246.513   4
  -5   0   9 1461.77 147.664   3
  -5   0   9 1475.72 248.304  11
  -5   0   9 1664.38 225.919   9
   5   0  -9 1412.61 231.357   1
  -5   0   8 9007.40 465.225   3
  -5   0   8 11265.8 684.102  11
   5   0  -8 10113.9 626.311   1
  -5   0   8 9685.25 581.619   9
   5   0  -8 9989.44 643.200   4
   5   0  -7 176.006 69.2470   1
   5   0  -7 88.2589 54.1536   4
  -5   0   7 164.337 73.6684  11
   5   0  -7 40.5702 14.2692  10
  -5   0   7 176.840 74.2537   9
  -5   0   6 5460.59 425.207  11
   5   0  -6 4320.54 211.028  10
   5   0  -6 5980.49 422.350   1
  -5   0   6 5701.36 402.675   9
   5   0  -6 5340.31 416.091   4
   5   0  -5 1138.66 174.118   1
   5   0  -5 879.208 156.909   4
  -5   0   5 1079.38 158.351   7
  -5   0   5 1149.04 176.926   3
   5   0  -5 1144.43 173.180  11
  -5   0   5 1129.43 182.079   5
  -5   0   5 1100.31 178.566  11
  -5   0   5 1204.73 175.494   9
  -5   0   4 2667.70 273.812   4
  -5   0   4 2422.71 227.449   7
  -5   0   4 2532.48 268.292   3
  -5   0   4 2622.95 266.890   5
  -5   0   4 2626.37 262.074  11
   5   0  -4 2369.51 243.999  11
  -5   0   4 2525.60 259.957   1
   5   0  -4 2653.48 253.798   1
  -5   0   4 2569.13 257.733   9
   5   0  -4 2605.04 267.313   4
  -5   0   3 1052.84 135.769   7
   5   0  -3 978.798 145.582  11
   5   0  -3 1179.69 174.614   4
   5   0  -3 1000.42 143.640   1
  -5   0   3 854.818 156.321   4
  -5   0   3 1095.54 160.425   1
  -5   0   3 1023.96 155.086  11
  -5   0   3 970.841 156.183   9
  -5   0   2 889.344 109.536   7
   5   0  -2 734.822 139.272   4
  -5   0   2 711.751 134.908   4
  -5   0   2 750.554 124.301  11
  -5   0   2 872.338 137.364   1
  -5   0   2 840.794 143.220   9
   5   0  -2 853.810 138.755   8
  -5   0   1 5425.39 267.242   7
  -5   0   1 5601.47 335.692  11
   5   0  -1 5516.86 329.272  11
  -5   0   1 5801.08 349.642   1
  -5   0   1 5666.69 386.779   9
   5   0  -1 5562.06 378.163   9
   5   0  -1 5788.88 405.673   4
   5   0  -1 5421.21 370.682   8
  -5   0   1 5774.45 407.011   4
  -5   0   0 1377.83 102.773   7
  -5   0   0 1516.06 168.936   6
  -5   0   0 1519.83 156.260  11
   5   0   0 1642.92 160.326  11
  -5   0   0 1559.50 165.718   1
  -5   0   0 1632.34 188.417  10
  -5   0   0 1913.11 215.166   9
   5   0   0 1535.07 189.211   9
   5   0   0 1431.43 209.726   4
   5   0   0 1552.73 199.769   8
  -5   0   0 1575.38 212.301   4
   5   0   1 3240.62 215.486   1
  -5   0  -1 3343.92 262.908   6
   5   0   1 3026.86 214.320  11
  -5   0  -1 3060.86 229.160   1
  -5   0  -1 3669.59 305.519  10
  -5   0  -1 3165.28 286.763   9
   5   0   1 3180.33 280.627   9
   5   0   1 3332.17 332.702   4
   5   0   1 3225.55 300.704   8
  -5   0  -1 3392.85 258.005   2
   5   0   2 3213.06 207.358   1
  -5   0  -2 3232.87 269.173   6
   5   0   2 3231.50 207.824  11
  -5   0  -2 3091.31 346.134   5
  -5   0  -2 2866.25 212.786   1
  -5   0  -2 3345.40 299.273   9
   5   0   2 3096.11 280.594   9
   5   0   2 3286.79 343.642   4
   5   0   2 3363.04 318.994   8
  -5   0  -2 3335.36 263.570   2
   5   0   3 1503.35 242.390   4
  -5   0  -3 1379.16 172.811   2
  -5   0  -3 1486.69 187.426   6
   5   0   3 1475.39 126.981  11
  -5   0  -3 1204.68 124.123   1
  -5   0  -3 1356.04 189.482   9
  -5   0  -3 1568.92 253.179   5
   5   0   3 908.718 152.433   9
   5   0   3 1427.66 210.632   8
  -5   0  -4 1570.01 192.265   2
   5   0   4 1728.76 217.483   6
   5   0   4 1273.20 111.745  11
   5   0   4 1268.58 116.529  11
  -5   0  -4 1225.91 117.662   1
  -5   0  -4 1603.09 213.492   9
  -5   0  -4 1416.66 249.192   5
   5   0   4 1571.85 228.351   8
  -5   0  -5 740.155 140.972   2
   5   0   5 544.664 128.560   6
   5   0   5 460.859 57.4353  11
  -5   0  -5 634.327 179.708   5
  -5   0  -5 464.435 114.466   9
   5   0   5 823.866 173.341   8
   5   0   6 401.931 110.469   6
  -5   0  -6 447.014 150.296   5
  -5   0  -6 231.261 75.0032   9
   5   0   7 24.4317 9.30999   6
  -5   0  -7 48.7171 63.5334   5
  -5   0  -7 10.0142 30.1739   9
   5   0   8 3355.94 384.942   6
  -5   0  -8 3094.08 458.044   5
   5   1 -12 367.114 147.952   4
  -5  -1  12 219.623 97.9995  11
   5   1 -12 251.144 120.024   5
  -5  -1  12 93.1926 49.1744   9
   5   1 -12 137.956 39.9388   1
   5   1 -11 622.772 177.473   4
  -5  -1  11 488.202 155.307  11
  -5  -1  11 439.277 119.276   9
   5   1 -11 566.192 160.522   1
   5   1 -10 66.5941 85.1789   4
  -5  -1  10-35.4453 48.1469  11
  -5  -1  10 97.2665 58.0131   9
   5   1 -10 23.5098 51.2937   1
   5   1  -9 75.5470 57.3614   4
  -5  -1   9 192.909 93.2011  11
  -5  -1   9 109.379 48.5403   3
   5   1  -9 52.7271 36.9961   1
  -5  -1   9 145.707 69.0034   9
  -5  -1   8 106.446 68.2879  11
   5   1  -8 57.7083 73.6537   4
   5   1  -8 132.061 59.2871   1
  -5  -1   8 115.810 64.8882   9
   5   1  -7 578.274 149.948   4
  -5  -1   7 801.355 169.038  11
   5   1  -7 870.452 164.381   1
  -5  -1   7 836.598 148.798   9
  -5  -1   6 3281.73 333.793  11
   5   1  -6 3713.33 336.697   1
  -5  -1   6 3461.84 311.701   9
   5   1  -6 3093.62 327.187   4
  -5  -1   5 6846.71 430.220   7
  -5  -1   5 7017.36 477.377  11
   5   1  -5 7341.25 468.943   1
   5   1  -5 6744.84 333.762  10
  -5  -1   5 8281.66 487.945   9
   5   1  -5 6801.09 478.216   4
  -5  -1   4 27210.4 977.042   7
  -5  -1   4 29462.0 1086.47  11
  -5  -1   4 30278.6 1090.21   1
   5   1  -4 29260.3 1064.30  11
   5   1  -4 28687.1 899.972  10
   5   1  -4 28159.0 1027.81   1
  -5  -1   4 29129.7 1065.03   9
   5   1  -4 28510.3 1102.65   4
  -5  -1   3 5879.54 338.997   7
  -5  -1   3 5713.93 390.787   1
   5   1  -3 5132.97 368.766  11
   5   1  -3 5499.41 328.519  10
   5   1  -3 5875.38 372.425   1
  -5  -1   3 5704.08 398.792   9
   5   1  -3 6029.16 401.854   9
   5   1  -3 5627.59 417.404   4
  -5  -1   3 6125.05 404.797  11
  -5  -1   3 5967.16 425.702   4
  -5  -1   2 4842.80 289.065   7
  -5  -1   2 5434.79 365.741  11
   5   1  -2 5362.33 359.581  11
  -5  -1   2 5557.04 363.226   1
   5   1  -2 5515.50 342.013  10
  -5  -1   2 5312.22 382.256   9
   5   1  -2 6095.03 402.214   9
   5   1  -2 5659.31 418.511   4
  -5  -1   2 5296.47 401.968   4
   5   1  -1 340.347 102.694   4
  -5  -1   1 403.454 67.9960   7
  -5  -1   1 313.641 93.7993   4
  -5  -1   1 374.770 78.7599   6
  -5  -1   1 433.511 96.1513  11
  -5  -1   1 337.528 83.2707   1
   5   1  -1 367.753 87.3367  10
  -5  -1   1 457.373 110.435   9
   5   1  -1 383.549 100.580   9
   5   1  -1 345.402 96.7319   8
  -5  -1   0 5988.84 264.337   7
  -5  -1   0 7597.93 374.161   6
  -5  -1   0 5993.77 344.278   1
  -5  -1   0 6158.10 423.862   9
   5   1   0 5806.62 456.893   4
   5   1   0 6502.43 325.185   1
   5   1   0 6443.45 435.084   8
  -5  -1   0 6550.09 325.841   2
  -5  -1  -1 7496.45 264.419   7
   5   1   1 9348.05 374.133   1
  -5  -1  -1 10082.7 450.695   6
  -5  -1  -1 8653.63 397.091   1
  -5  -1  -1 9382.90 542.577   9
   5   1   1 9610.31 601.486   4
   5   1   1 9214.77 538.159   8
  -5  -1  -1 9503.57 402.417   2
  -5  -1  -2 4400.71 269.204   2
   5   1   2 4024.50 206.910   1
  -5  -1  -2 4008.23 283.152   6
   5   1   2 3927.53 275.970  11
  -5  -1  -2 3227.77 210.078   1
  -5  -1  -2 4107.32 417.380   5
  -5  -1  -2 4077.56 350.338   9
   5   1   2 4206.37 411.714   4
   5   1   2 4239.84 366.135   8
   5   1   3 728.261 171.052   4
  -5  -1  -3 724.609 112.440   2
   5   1   3 603.041 106.104  11
  -5  -1  -3 683.306 170.076   5
  -5  -1  -3 717.275 148.093   9
   5   1   3 784.444 156.958   8
   5   1   4 1524.15 161.722  11
  -5  -1  -4 1831.67 242.802   9
  -5  -1  -4 1543.40 279.104   5
   5   1   4 1848.34 251.542   8
   5   1   5 59.7680 44.2387   6
   5   1   5 33.5444 32.1544  11
  -5  -1  -5 13.3900 32.1994   5
  -5  -1  -5 37.5312 47.6407   9
   5   1   5-54.1957 67.7014   8
   5   1   6 1348.12 202.870   6
  -5  -1  -6 974.149 235.715   5
  -5  -1  -6 712.632 157.518   9
   5   1   6 1279.67 220.616   8
   5   1   7 1077.51 196.241   6
  -5  -1  -7 893.662 232.107   5
  -5  -1  -7 282.578 95.8400   9
  -5  -2  12 5532.90 571.446  11
   5   2 -12 4081.51 470.596   1
   5   2 -12 4577.82 524.414   4
   5   2 -11 395.985 148.339   4
  -5  -2  11 328.768 135.100  11
   5   2 -11 359.283 135.413   1
  -5  -2  11 204.272 78.4307   9
   5   2 -10 52.7049 45.4023   4
  -5  -2  10-35.6225 52.6788  11
   5   2 -10 7.53245 16.3820   1
  -5  -2  10-23.7268 4.24667   9
   5   2  -9 1334.72 256.788   4
  -5  -2   9 1878.10 296.274  11
  -5  -2   9 1801.31 229.887   9
   5   2  -9 1644.43 264.634   1
   5   2  -8 691.932 164.541   4
  -5  -2   8 843.084 185.976  11
   5   2  -8 816.726 177.733   1
  -5  -2   8 828.987 156.854   9
  -5  -2   7 3367.71 360.862  11
   5   2  -7 3381.39 347.142   1
  -5  -2   7 3177.75 304.582   9
   5   2  -7 3073.96 334.625   4
   5   2  -6 484.943 124.432   4
  -5  -2   6 331.047 107.371  11
   5   2  -6 385.006 110.159   1
  -5  -2   6 456.757 106.535   9
   5   2  -5 6134.93 412.309   7
  -5  -2   5 6607.47 479.078  11
   5   2  -5 6808.18 457.019   1
  -5  -2   5 6145.40 428.239   9
   5   2  -5 5722.77 452.588   4
  -5  -2   4 3559.41 289.042   7
   5   2  -4 3959.49 302.956   7
  -5  -2   4 4206.58 359.230  11
   5   2  -4 4239.61 334.669   1
  -5  -2   4 3999.99 336.983   9
   5   2  -4 3887.79 363.711   4
   5   2  -3 397.896 105.637   4
  -5  -2   3 368.793 83.1087   7
   5   2  -3 447.058 90.9509   7
  -5  -2   3 451.888 109.716  11
   5   2  -3 404.718 110.950  11
   5   2  -3 483.282 101.674  10
  -5  -2   3 447.760 108.032   9
   5   2  -3 485.968 105.517   1
  -5  -2   2 8212.93 412.988   7
  -5  -2   2 8795.89 509.584  11
   5   2  -2 8363.03 496.790  11
   5   2  -2 8975.65 478.206  10
  -5  -2   2 9554.65 541.172   9
   5   2  -2 8957.72 564.267   4
   5   2  -1 353.469 107.493   4
  -5  -2   1 303.286 66.4874   7
   5   2  -1 395.294 73.8299   7
  -5  -2   1 306.620 65.2213   6
   5   2  -1 296.633 88.8152  11
   5   2  -1 366.425 95.6711  10
  -5  -2   1 417.683 109.394   9
  -5  -2   0 1730.49 147.162   7
   5   2   0 2033.15 157.094   7
  -5  -2   0 2110.09 169.252   6
   5   2   0 1885.70 218.654  11
   5   2   0 2005.30 232.834  10
  -5  -2   0 2101.13 249.209   9
   5   2   0 2041.26 169.135   1
   5   2   0 1938.49 264.912   4
   5   2   0 1921.40 241.364   8
  -5  -2   0 1967.22 125.199   2
  -5  -2  -1 4855.52 221.865   2
   5   2   1 4502.32 221.772   7
  -5  -2  -1 4629.47 272.285   6
   5   2   1 4196.53 337.025  11
  -5  -2  -1 5067.10 406.970   9
   5   2   1 5528.11 466.919   4
   5   2   1 5670.55 422.137   8
   5   2   1 4986.83 246.708   1
   5   2   2 1300.22 232.594   4
   5   2   2 1092.85 84.1728   1
   5   2   2 967.332 151.119  11
  -5  -2  -2 1281.42 237.736   5
  -5  -2  -2 1227.55 204.533   9
   5   2   2 1122.13 187.871   8
   5   2   3 3476.89 301.091  11
  -5  -2  -3 3932.86 445.197   5
  -5  -2  -3 3888.19 373.111   9
   5   2   3 3946.46 429.883   4
   5   2   3 3861.01 367.264   8
   5   2   4 4096.78 320.255  11
  -5  -2  -4 4288.59 489.353   5
  -5  -2  -4 4240.73 400.051   9
   5   2   4 4625.03 411.365   8
   5   2   5 1118.96 167.934  11
  -5  -2  -5 1605.80 301.209   5
  -5  -2  -5 974.064 185.035   9
   5   2   5 1368.96 225.032   8
   5   2   6 786.342 148.514   6
  -5  -2  -6 689.894 206.460   5
  -5  -2  -6 537.000 139.091   9
   5   2   6 505.532 146.900   8
  -5  -2  -7 76.2648 41.1651   9
   5   2   7 260.995 103.630   8
   5   3 -12 476.739 168.674   4
  -5  -3  12 400.809 165.431  11
   5   3 -12 437.145 156.623   1
   5   3 -11 492.512 155.477   4
  -5  -3  11 304.875 109.469  11
   5   3 -11 535.211 178.287   1
   5   3 -10 1393.49 267.599   4
  -5  -3  10 1935.66 312.960  11
   5   3 -10 1961.73 308.294   1
  -5  -3  10 1845.13 240.134   9
   5   3  -9 1818.20 286.759   4
  -5  -3   9 2601.40 354.789  11
   5   3  -9 1914.05 293.708   1
  -5  -3   9 2233.60 260.593   9
   5   3  -8 930.575 198.924   4
  -5  -3   8 725.952 175.094  11
   5   3  -8 1223.13 223.619   1
  -5  -3   8 1028.73 176.663   9
   5   3  -7 3116.47 322.896   7
  -5  -3   7 3239.03 363.658  11
   5   3  -7 3258.56 350.667   1
  -5  -3   7 3022.39 301.652   9
   5   3  -7 2765.24 333.050   4
  -5  -3   6 8303.03 475.819   2
   5   3  -6 10602.6 597.879   7
  -5  -3   6 11741.0 694.257  11
   5   3  -6 11882.9 668.732   1
  -5  -3   6 10940.4 610.903   9
   5   3  -6 10340.2 652.152   4
   5   3  -5 12095.0 607.235   7
  -5  -3   5 10424.2 645.686  11
   5   3  -5 11005.9 625.814   1
  -5  -3   5 11006.5 612.492   9
   5   3  -5 10481.3 648.466   4
   5   3  -4 19060.7 784.251   7
  -5  -3   4 18249.6 870.328  11
   5   3  -4 20024.2 842.977   1
  -5  -3   4 18566.8 847.089   9
   5   3  -4 17698.8 886.068   4
   5   3  -3 281.887 90.7858   4
  -5  -3   3 338.193 83.1029   7
   5   3  -3 359.439 90.1678   7
  -5  -3   3 350.418 104.810  11
   5   3  -3 321.419 87.4397   1
  -5  -3   3 293.523 96.1916   9
   5   3  -2 174.660 73.5031   4
  -5  -3   2 202.477 64.0426   7
   5   3  -2 182.672 58.8278   7
  -5  -3   2 127.471 21.1328   2
   5   3  -2 236.305 80.9749  10
   5   3  -2 158.284 54.9133   1
  -5  -3   2 315.386 101.049   9
  -5  -3   1 4367.18 294.115   7
  -5  -3   1 4121.46 223.324   6
   5   3  -1 5451.82 394.838  10
  -5  -3   1 4716.34 403.033   9
   5   3  -1 4998.40 436.984   4
   5   3   0 851.394 180.673   4
  -5  -3   0 518.596 91.3273   7
  -5  -3   0 850.812 87.0677   6
   5   3   0 1079.56 178.962  10
   5   3   0 955.969 118.166   1
  -5  -3   0 1043.90 186.302   9
   5   3   1 188.722 86.9710   4
   5   3   1 136.678 42.7408   7
   5   3   1 77.3855 26.1916   1
   5   3   1 158.656 74.9564  10
  -5  -3  -1 219.385 85.7231   9
   5   3   1 193.259 79.0855   8
   5   3   2 6315.61 279.732   7
  -5  -3  -2 7687.73 611.461   5
   5   3   2 7521.71 531.100  10
  -5  -3  -2 6673.88 511.087   9
   5   3   2 6808.00 567.807   4
   5   3   2 7600.70 518.272   8
   5   3   3-34.0782 54.4932   4
   5   3   3 8.30641 18.0777   7
  -5  -3  -3-25.8305 49.6678   5
  -5  -3  -3 37.0829 69.0463   9
   5   3   3 0.49569 18.7470   8
  -5  -3  -4 20.8977 45.4781   5
  -5  -3  -4-19.0904 56.5353   9
   5   3   4-49.7555 48.2667   8
   5   3   5 1480.08 209.559  11
  -5  -3  -5 1588.77 309.094   5
  -5  -3  -5 1263.05 230.450   9
   5   3   5 1467.97 237.995   8
  -5  -3  -6 1154.21 275.818   5
  -5  -3  -6 608.302 161.643   9
   5   3   6 817.401 179.521   8
   5   4 -11 789.154 202.229   4
  -5  -4  11 804.836 217.592  11
   5   4 -11 773.392 207.499   1
   5   4 -10 367.551 143.682   4
  -5  -4  10 242.526 110.597  11
   5   4 -10 512.947 158.555   1
  -5  -4  10 439.599 112.091   9
   5   4  -9 1051.65 213.721   4
   5   4  -9 780.514 179.702   7
  -5  -4   9 840.627 205.998  11
   5   4  -9 921.114 201.013   1
  -5  -4   9 1103.78 186.606   9
   5   4  -8 13.0501 39.7335   4
   5   4  -8 77.6147 58.2250   7
  -5  -4   8 113.639 86.3378  11
   5   4  -8 46.9958 41.8475   1
  -5  -4   8-33.2687 39.6054   9
   5   4  -7 2168.09 273.614   7
  -5  -4   7 2244.69 310.399  11
   5   4  -7 2124.12 287.344   1
  -5  -4   7 1739.66 245.238   9
   5   4  -7 2047.58 293.451   4
   5   4  -6 182.190 79.7416   4
   5   4  -6 181.059 71.9556   7
  -5  -4   6 86.0684 38.0054   2
  -5  -4   6 215.506 88.8043  11
   5   4  -6 191.362 81.4632   1
  -5  -4   6 229.989 86.8162   9
   5   4  -5-2.74365 36.7899   4
   5   4  -5 53.3007 36.7256   7
  -5  -4   5-29.0813 20.4010   2
  -5  -4   5 14.8654 37.9444  11
   5   4  -5-23.6583 40.6415   1
  -5  -4   5 50.9441 35.7325   9
   5   4  -4-56.5484 45.7570   4
  -5  -4   4-19.6746 5.85672   2
   5   4  -4 18.1971 15.4823   7
  -5  -4   4-15.1212 20.1651  11
   5   4  -4 67.3693 44.6434   1
  -5  -4   4 20.0634 3.85182   9
   5   4  -3 2909.86 268.797   7
   5   4  -3 2541.47 263.676   1
  -5  -4   3 2396.73 288.156   9
   5   4  -3 2326.60 300.297   4
  -5  -4   3 1563.71 99.1227   2
  -5  -4   2 7095.42 427.262   7
   5   4  -2 5483.00 379.114   7
  -5  -4   2 4622.51 213.112   6
   5   4  -2 6915.24 423.324   1
   5   4  -2 6790.06 474.782  10
  -5  -4   2 6741.96 506.764   9
   5   4  -2 6416.10 512.740   4
  -5  -4   1 5953.12 395.635   7
   5   4  -1 7003.07 413.366   7
   5   4  -1 7912.44 427.685   1
   5   4  -1 7791.08 524.077  10
  -5  -4   1 7011.14 535.553   9
   5   4  -1 7300.06 569.834   4
  -5  -4   0 1203.34 160.442   7
   5   4   0 1637.60 267.590   4
   5   4   0 1672.53 180.662   7
   5   4   0 1829.72 251.956  10
  -5  -4   0 1838.44 267.539   9
   5   4   1 2511.86 308.407  10
  -5  -4  -1 3127.51 359.708   9
   5   4   1 2787.42 180.963   1
   5   4   1 2838.29 365.355   4
   5   4   2 7572.01 572.011  10
  -5  -4  -2 7107.18 575.590   9
   5   4   2 7251.78 622.766   4
   5   4   2 7413.75 544.200   8
  -5  -4  -2 7880.20 664.092   5
  -5  -4  -3 2946.73 413.480   5
   5   4   3 3119.40 369.671  10
  -5  -4  -3 2892.34 363.412   9
   5   4   3 3556.46 442.005   4
   5   4   3 2656.65 323.075   8
  -5  -4  -4 315.449 135.489   5
  -5  -4  -4 161.666 84.8194   9
   5   4   4 224.979 96.1353   8
  -5  -4  -5 1807.71 351.522   5
  -5  -4  -5 1496.06 274.434   9
   5   4   5 1367.11 231.573   8
   5   5 -10 949.504 222.798   4
   5   5 -10 909.343 210.117   7
  -5  -5  10 1198.04 254.542  11
   5   5 -10 732.151 202.270   1
   5   5  -9 4336.40 456.026   7
  -5  -5   9 5407.18 548.234  11
   5   5  -9 4472.35 484.975   1
  -5  -5   9 4473.48 401.814   9
   5   5  -9 4425.62 482.128   4
   5   5  -8 247.999 111.226   4
   5   5  -8 334.914 123.750   7
  -5  -5   8 329.161 133.317  11
   5   5  -8 324.364 128.006   1
  -5  -5   8 294.943 107.978   9
   5   5  -7 2801.90 331.012   7
  -5  -5   7 3010.23 383.436  11
   5   5  -7 2336.98 322.617   1
  -5  -5   7 2616.59 308.489   9
   5   5  -7 2224.90 322.332   4
   5   5  -6-29.4258 58.4590   4
   5   5  -6 44.8689 52.7446   7
  -5  -5   6 42.3823 34.5727  11
   5   5  -6 28.0718 48.3032   1
  -5  -5   6 47.9857 45.2265   9
   5   5  -5 786.682 180.878   4
   5   5  -5 669.805 151.271   7
   5   5  -5 518.339 131.635   1
  -5  -5   5 742.215 169.082   9
   5   5  -4 6054.24 446.055   7
   5   5  -4 5841.54 459.748   1
  -5  -5   4 6611.36 516.403   9
   5   5  -4 5668.00 504.253   4
   5   5  -3 2659.57 279.315   7
  -5  -5   3 2264.95 115.174   6
   5   5  -3 2702.39 289.905   1
  -5  -5   3 3067.61 351.188   9
   5   5  -3 2684.43 341.577   4
   5   5  -2 2672.38 274.598   7
   5   5  -2 3212.35 299.766   1
  -5  -5   2 2957.00 358.928   9
   5   5  -2 3055.15 368.517   4
   5   5  -1 204.776 96.7306   4
   5   5  -1 67.3440 36.6787   7
   5   5  -1 184.986 106.373  10
   5   5  -1 134.099 60.0409   1
  -5  -5   1 100.877 48.2737   9
   5   5   0 1051.69 221.312   4
   5   5   0 1036.62 160.466   7
   5   5   0 1045.65 204.582  10
  -5  -5   0 941.108 197.852   9
   5   5   1 1083.82 236.959   4
   5   5   1 1109.32 159.526   7
   5   5   1 1082.11 213.637  10
  -5  -5  -1 880.851 207.001   9
   5   5   2 468.650 166.887   4
   5   5   2 376.413 95.4275   7
   5   5   2 391.765 132.058  10
  -5  -5  -2 451.884 157.153   5
  -5  -5  -2 449.182 148.294   9
   5   5   2 304.633 97.4372   8
   5   5   3-1.33429 38.3434  10
  -5  -5  -3-77.4704 59.2464   5
  -5  -5  -3 33.5204 56.9069   9
   5   5   3 13.9549 25.9602   8
  -5  -5  -4-23.4730 47.8043   5
  -5  -5  -4 158.569 90.4308   9
   5   5   4 97.7175 60.0386   8
   5   6  -9 516.745 176.265   4
   5   6  -9 679.019 188.935   7
  -5  -6   9 723.461 192.201  11
   5   6  -9 436.916 152.906   1
   5   6  -8 114.136 89.4294   4
   5   6  -8 82.0447 72.3727   7
   5   6  -8 73.4371 31.2820   1
  -5  -6   8 130.303 74.6998   9
   5   6  -7 840.650 196.783   4
   5   6  -7 1176.25 226.794   7
   5   6  -7 816.825 191.410   1
  -5  -6   7 1225.95 222.981   9
   5   6  -6 76.3930 10.3295   4
   5   6  -6 25.8752 36.1931   7
  -5  -6   6 46.3992 26.9851   6
   5   6  -6 68.2860 46.6272   1
  -5  -6   6 189.039 97.2882   9
   5   6  -5-22.4295 66.0420   4
   5   6  -5 56.4725 75.2027   7
   5   6  -5-13.8588 38.2774   1
  -5  -6   5 64.6430 61.8147   9
   5   6  -4 809.361 198.750   4
   5   6  -4 1121.48 201.844   7
   5   6  -4 942.304 190.535   1
  -5  -6   4 1137.23 236.846   9
   5   6  -3-25.0436 50.1443   4
   5   6  -3 8.69573 9.89083   7
   5   6  -3 47.1621 31.1139   1
  -5  -6   3-31.3573 36.4143   9
   5   6  -2 140.673 88.1666   4
   5   6  -2 150.466 83.2824   7
   5   6  -2 188.650 85.7131   1
  -5  -6   2 138.779 88.1729   9
   5   6  -1 1711.09 295.128   4
   5   6  -1 1702.30 225.903   7
   5   6  -1 1677.69 213.477   1
   5   6  -1 1920.09 287.012  10
  -5  -6   1 1722.73 289.342   9
   5   6   0 296.638 126.750   4
   5   6   0 302.689 98.2099   7
   5   6   0 309.025 123.772  10
  -5  -6   0 277.871 110.383   9
   5   6   1 52.8309 57.5423   4
   5   6   1 49.8200 42.6120   7
   5   6   1-16.2122 40.9479  10
  -5  -6  -1 48.4899 63.6483   9
  -5  -6  -1 131.163 91.7582   5
   5   6   2 242.981 92.4408   4
   5   6   2 187.311 79.0732   7
   5   6   2 252.710 101.652  10
  -5  -6  -2 305.720 151.932   5
  -5  -6  -2 343.977 136.244   9
   5   6   2 158.809 65.2384   8
   5   6   3 1968.88 333.801  10
  -5  -6  -3 1828.43 349.647   5
  -5  -6  -3 1704.28 304.409   9
   5   6   3 1394.47 244.682   8
   5   7  -7 185.319 85.3362   4
   5   7  -7 228.619 103.374   7
   5   7  -7 118.171 83.8079   1
  -5  -7   7 468.549 139.095   9
   5   7  -6-40.4500 37.5015   4
   5   7  -6-5.63938 8.96231   7
   5   7  -6-59.0721 57.1140   1
  -5  -7   6 36.5999 43.2140   9
   5   7  -5 52.2306 29.0179   4
   5   7  -5 237.498 93.9557   7
   5   7  -5 26.4478 39.4374   1
  -5  -7   5 261.962 123.664   9
   5   7  -4 32.8229 37.3004   4
   5   7  -4 16.9469 56.0958   7
   5   7  -4-28.9577 72.2575   1
  -5  -7   4-13.4583 25.7887   9
   5   7  -3 796.756 195.245   4
   5   7  -3 812.126 184.275   7
   5   7  -3 800.727 182.177   1
  -5  -7   3 1380.77 263.842   9
   5   7  -2 538.069 163.735   4
   5   7  -2 599.696 148.204   7
   5   7  -2 451.504 119.767   1
  -5  -7   2 688.363 190.281   9
   5   7  -1 177.435 100.805   4
   5   7  -1 197.635 85.5119   7
   5   7  -1 238.573 127.732  10
  -5  -7   1 232.109 113.066   9
   5   7   0 417.195 150.175   4
   5   7   0 516.390 139.456   7
   5   7   0 691.131 188.465  10
  -5  -7   0 404.390 164.629   9
   5   7   1 358.108 164.102   4
   5   7   1 370.653 116.031   7
   5   7   1 364.835 135.670  10
  -5  -7  -1 178.022 98.4801   9
  -5  -7  -1 435.279 166.669   5
  -6   8   5 214.766 113.066   7
  -6   8   5 333.804 149.299  11
   6  -8  -5 323.000 140.875   3
   6  -8  -5 385.149 129.787   1
  -6   8   4 8.14208 14.3136   7
  -6   8   4 2.98895 52.5775  11
   6  -8  -4 53.4895 13.3215   3
   6  -8  -4-22.9262 50.4225   1
  -6   8   3 18.9015 29.5933  11
   6  -8  -3-24.7144 52.6106   3
   6  -8  -3-43.9138 58.6439   1
  -6   8   2-66.1770 35.0069   7
  -6   8   2 4.16992 18.0745  11
   6  -8  -2-29.6674 84.2885   3
  -6   8   1 49.1640 13.4194   7
  -6   8   1-30.2914 18.7091  11
   6  -8  -1 36.6101 57.3255   3
  -6   8   0 507.329 142.453   7
   6  -8   0 548.308 186.735   3
  -6   8  -1 646.679 202.847   2
  -6   8  -1 453.684 134.168   7
   6  -8   1 381.294 171.575   3
  -6   8  -2 98.2503 43.7140   2
  -6   8  -2 122.358 43.5920   7
   6  -8   2 155.069 95.6852   3
   6  -7  -7-67.6875 51.0244   1
  -6   7   7 84.8712 70.7663  11
   6  -7  -7-109.788 74.9896   3
   6  -7  -6 11.6775 42.2848   1
  -6   7   6-40.5110 44.0896  11
   6  -7  -6 31.1330 17.7247   3
  -6   7   5 182.645 98.0983  11
   6  -7  -5 107.814 76.0283   3
   6  -7  -5 53.1238 32.9571   1
  -6   7   4 64.6813 72.7037   7
  -6   7   4 58.3294 67.8166  11
   6  -7  -4 35.8218 22.4898   3
   6  -7  -4-24.4322 40.8838   1
  -6   7   3 288.741 117.235   7
   6  -7  -3 486.102 142.654   1
  -6   7   3 153.130 80.2798  11
   6  -7  -3 368.735 154.599   3
  -6   7   2 104.545 75.6660   7
   6  -7  -2-13.4119 9.44622   1
  -6   7   2 9.84792 34.6823  11
   6  -7  -2 37.6450 30.3663   3
  -6   7   1 226.978 90.4778   7
  -6   7   1 112.834 83.8836  11
   6  -7  -1 289.889 124.348   3
  -6   7   0 484.845 132.350   7
  -6   7   0 249.827 90.6431  11
   6  -7   0 628.024 183.410   3
  -6   7  -1 1707.06 246.388   7
  -6   7  -1 1373.62 279.591   2
   6  -7   1 1729.24 316.126   3
  -6   7  -2 473.482 147.407   2
  -6   7  -2 618.200 137.790   7
   6  -7   2 673.802 205.066   3
  -6   7  -2 150.334 83.1071   9
  -6   7  -3 329.754 102.260   7
  -6   7  -3 188.708 91.1108   2
   6  -7   3 396.216 155.319   3
  -6   7  -4-18.2277 32.3860   2
   6  -7   4-71.8142 99.9535   3
   6  -6  -8 540.884 137.799   4
   6  -6  -8 530.651 155.836   1
   6  -6  -8 97.0685 47.3264   3
  -6   6   8 460.327 148.956  11
   6  -6  -7 195.900 83.5641   4
  -6   6   7 132.401 72.6676  11
   6  -6  -7 37.9523 28.7264   3
   6  -6  -7 197.182 105.564   1
   6  -6  -6 369.072 96.6875   4
  -6   6   6 402.938 135.808  11
   6  -6  -6 323.187 109.159   3
   6  -6  -6 528.322 146.506   1
   6  -6  -5 820.021 138.669   4
  -6   6   5 710.794 179.717  11
   6  -6  -5 861.893 196.562   3
   6  -6  -5 861.016 181.426   1
   6  -6  -4 27.3543 36.0167   1
   6  -6  -4-23.8037 25.3407   4
  -6   6   4 88.4148 62.6749  11
   6  -6  -4 2.77207 10.7008   3
   6  -6  -3-5.85005 21.3783   4
   6  -6  -3 38.2843 37.4431   1
  -6   6   3 7.78304 24.1543  11
   6  -6  -3-0.35003 21.2274   3
  -6   6   2 2466.57 296.642   7
   6  -6  -2 2697.64 316.577   1
  -6   6   2 1625.38 230.126  11
   6  -6  -2 2285.48 342.384   3
   6  -6  -2 2476.23 188.309   4
   6  -6  -1 195.970 45.9958   4
  -6   6   1 251.020 83.7118   7
  -6   6   1 213.388 81.0141  11
   6  -6  -1 203.210 105.783   3
   6  -6  -1 390.630 119.100   1
  -6   6   0 3172.40 314.344   7
   6  -6   0 3059.19 405.310   3
   6  -6   0 3014.23 337.492   1
  -6   6   0 1511.82 194.949  11
  -6   6  -1 109.375 67.4319   2
  -6   6  -1 146.373 62.3969   7
  -6   6  -1 3.08324 16.1635  11
   6  -6   1 139.310 94.0388   3
  -6   6  -2 110.235 81.5607   2
  -6   6  -2-8.07977 15.6028   7
   6  -6   2-26.6456 43.1445   3
  -6   6  -2-17.8408 39.2882   9
  -6   6  -3 1676.25 200.857   7
  -6   6  -3 1863.58 300.664   2
   6  -6   3 1452.73 286.301   3
  -6   6  -3 583.341 129.896   9
  -6   6  -4 2270.78 343.701   2
   6  -6   4 1990.63 342.979   3
  -6   6  -5 1899.72 317.475   2
   6  -5  -9 1169.09 224.194   1
   6  -5  -9 1303.91 246.893   4
  -6   5   9 1349.29 269.946  11
   6  -5  -8 2111.47 296.562   1
   6  -5  -8 1182.41 227.553   3
  -6   5   8 1929.80 323.073  11
   6  -5  -8 1977.68 284.549   4
   6  -5  -7 437.217 131.019   1
   6  -5  -7 340.839 115.421   4
   6  -5  -7 288.480 120.351   3
  -6   5   7 383.622 134.974  11
   6  -5  -6 16.3775 42.6569   4
   6  -5  -6 18.7658 20.7182   1
   6  -5  -6 15.5587 50.3538   3
  -6   5   6-36.8957 32.2415  11
   6  -5  -5 806.284 144.016   4
   6  -5  -5 813.271 172.793   1
   6  -5  -5 837.179 188.003   3
  -6   5   5 712.567 165.618  11
   6  -5  -4 61.3091 32.8794   4
   6  -5  -4 10.1399 34.7096   3
   6  -5  -4 55.1485 51.2532   1
  -6   5   4 47.8989 36.7310  11
   6  -5  -3 1.99817 8.83985   4
  -6   5   3 14.9641 22.4201  11
   6  -5  -3 20.6055 47.8316   3
  -6   5   3 43.7351 30.6500   5
   6  -5  -3 69.7610 33.4400   1
   6  -5  -2 1261.93 201.766   1
  -6   5   2 1017.02 124.012   5
   6  -5  -2 1255.16 243.043   3
  -6   5   2 915.946 157.074  11
   6  -5  -2 1199.95 153.787   4
   6  -5  -1 1010.26 138.733   4
  -6   5   1 1112.61 175.187   7
  -6   5   1 692.152 109.384   5
  -6   5   1 755.343 133.490  11
  -6   5   1 538.421 93.0714   5
   6  -5  -1 1114.17 187.251   1
   6  -5  -1 1031.25 220.275   3
   6  -5   0 457.645 98.5029   4
  -6   5   0 462.027 107.527   7
   6  -5   0 353.744 132.898   3
  -6   5   0 306.085 75.9673  11
   6  -5   0 447.116 124.159   1
  -6   5   0 272.317 71.2440   5
  -6   5  -1 22.7918 13.6093   7
   6  -5   1-1.40446 31.5055   3
  -6   5  -1 42.9918 27.9796  11
  -6   5  -1 114.631 47.1515   5
  -6   5  -1 87.7273 44.4751   9
  -6   5  -2 3371.28 272.101   7
   6  -5   2 3437.37 424.081   3
  -6   5  -2 2321.41 235.682   5
  -6   5  -2 1870.15 244.093   9
  -6   5  -2 3864.94 410.231   2
  -6   5  -3 1301.13 155.794   7
  -6   5  -3 1075.21 221.086   2
  -6   5  -3 932.445 159.216   5
  -6   5  -3 713.184 141.415   9
  -6   5  -4 88.2865 34.9090   2
  -6   5  -4 29.3074 25.5370   5
  -6   5  -4 35.9725 13.3729   9
  -6   5  -5 266.079 113.702   2
  -6   5  -5 200.620 104.857   5
  -6   5  -6 1645.97 294.882   2
   6  -4 -10 24.7674 16.0802   4
  -6   4  10 37.4011 21.5676  11
   6  -4 -10 48.5056 53.9897   1
   6  -4  -9 688.702 176.578   4
  -6   4   9 782.504 198.526  11
   6  -4  -9 833.864 193.633   1
   6  -4  -8 78.4175 37.2319   4
  -6   4   8 65.8920 58.0438  11
   6  -4  -8 58.5533 44.4502   1
   6  -4  -7-39.0591 47.4699   4
  -6   4   7-38.1492 64.0514  11
   6  -4  -7-42.9444 36.7165   1
   6  -4  -6 314.456 101.236   4
  -6   4   6 165.630 82.5758  11
  -6   4   6 136.446 66.0543   5
   6  -4  -6-4.71987 20.7056   1
   6  -4  -5 5223.66 417.053   1
   6  -4  -5 4829.83 443.891   3
  -6   4   5 5110.11 427.294  11
  -6   4   5 5109.81 364.228   5
   6  -4  -5 5229.29 383.245   4
   6  -4  -4 213.620 75.2209   4
   6  -4  -4 265.956 88.4205   1
   6  -4  -4 260.751 107.345   3
  -6   4   4 148.850 55.1634  11
  -6   4   4 261.181 74.5189   5
   6  -4  -3 731.104 126.883   4
   6  -4  -3 857.203 164.443   1
   6  -4  -3 785.724 182.846   3
  -6   4   3 551.377 121.058  11
  -6   4   3 654.106 117.938   5
   6  -4  -2 1708.03 225.162   1
  -6   4   2 1564.07 186.554   5
  -6   4   2 1452.17 191.530  11
   6  -4  -2 1686.33 270.263   3
   6  -4  -2 1526.27 187.292   4
   6  -4  -1 5844.76 422.753   1
   6  -4  -1 5755.19 514.785   3
  -6   4   1 4879.85 334.541  11
  -6   4   1 5385.88 415.631   9
   6  -4  -1 5276.84 368.512   4
  -6   4   1 5027.58 345.006   4
  -6   4   0 6113.73 378.749   7
   6  -4   0 5923.47 425.292   1
  -6   4   0 5476.16 318.665  11
  -6   4   0 5194.13 375.329   5
  -6   4   0 5836.79 433.632   9
   6  -4   0 5772.72 397.028   4
  -6   4   0 5811.65 374.838   4
  -6   4  -1 962.028 130.521   7
   6  -4   1 726.821 144.348   4
   6  -4   1 922.486 162.126   1
  -6   4  -1 830.663 141.537   4
  -6   4  -1 752.496 89.7008  11
  -6   4  -1 657.348 134.104   5
  -6   4  -1 761.607 142.451   9
  -6   4  -2 3823.67 252.179   7
  -6   4  -2 3025.02 308.036   5
  -6   4  -2 3399.30 316.091   9
  -6   4  -2 4122.20 404.869   2
  -6   4  -2 3907.88 332.838   4
  -6   4  -3 5200.61 272.271   7
  -6   4  -3 4328.13 382.387   5
  -6   4  -3 3635.45 321.522   9
  -6   4  -3 4714.26 447.451   2
  -6   4  -4 217.269 91.9980   2
  -6   4  -4 129.403 63.6673   5
  -6   4  -4 78.5310 52.6667   9
  -6   4  -5 556.037 165.803   2
  -6   4  -5 377.839 121.515   5
  -6   4  -6 167.795 103.877   2
  -6   4  -6 107.803 58.5556   5
   6  -3 -11 333.655 133.990   4
  -6   3  11 319.126 138.092  11
   6  -3 -11 246.947 120.648   1
   6  -3 -10-69.1666 69.2228   4
  -6   3  10 50.3846 25.2258  11
   6  -3 -10-76.0010 53.6545   1
   6  -3  -9 101.984 75.2493   4
  -6   3   9 188.784 99.7355  11
   6  -3  -9 167.452 88.2493   1
  -6   3   8 5285.40 495.280  11
   6  -3  -8 4882.46 440.787   1
   6  -3  -8 4745.96 442.740   4
   6  -3  -7 248.074 91.5986   4
  -6   3   7 127.881 70.6249  11
   6  -3  -7 242.711 86.3271   1
   6  -3  -7 258.238 58.2094   8
   6  -3  -6 1398.93 213.923   4
  -6   3   6 1531.68 234.402  11
   6  -3  -6 1843.62 176.752   8
   6  -3  -6 1593.83 226.138   1
  -6   3   5 4221.58 348.407   5
  -6   3   5 3762.04 360.821  11
   6  -3  -5 3998.27 288.083   8
   6  -3  -5 3735.58 337.916   4
   6  -3  -5 4248.96 369.547   1
   6  -3  -4 2706.39 283.417   1
  -6   3   4 2598.07 258.852   5
  -6   3   4 2468.10 270.577  11
  -6   3   4 2287.23 165.977  10
   6  -3  -4 2488.95 260.708   4
   6  -3  -4 3282.84 269.226   8
   6  -3  -3 78.3353 47.3467   1
   6  -3  -3 33.9208 28.5992   4
  -6   3   3 19.8066 7.19879  11
  -6   3   3 30.8883 28.8654   5
   6  -3  -3 10.8661 17.1907  11
  -6   3   3 87.0887 36.7295  10
   6  -3  -3 108.127 49.7867   8
   6  -3  -2 836.012 144.680   4
  -6   3   2 760.918 136.499   4
   6  -3  -2 860.397 150.495   1
  -6   3   2 580.773 113.274  11
   6  -3  -2 632.273 123.164  11
  -6   3   2 755.978 151.815   9
   6  -3  -2 862.574 144.923   8
   6  -3  -1-3.44816 16.8124   4
  -6   3   1-3.54814 18.9146   4
  -6   3   1-4.58390 10.8197  11
   6  -3  -1 17.5766 44.6149   1
  -6   3   1 30.4741 34.9469   9
   6  -3  -1 12.5725 27.6797   8
  -6   3   0 4183.13 275.834   7
   6  -3   0 4412.34 339.928   1
  -6   3   0 4122.76 261.329  11
   6  -3   0 3760.09 248.125  11
  -6   3   0 4184.64 356.316   9
   6  -3   0 4391.05 361.960   4
   6  -3   0 4203.40 366.400   8
  -6   3   0 3998.06 327.376   4
  -6   3  -1 6250.99 312.966   7
   6  -3   1 6428.68 419.877   1
  -6   3  -1 6116.22 270.813  11
  -6   3  -1 5422.96 426.434   5
  -6   3  -1 5865.29 428.476   9
   6  -3   1 6485.29 462.875   4
  -6   3  -1 6389.97 483.843   2
  -6   3  -1 6525.77 444.280   4
   6  -3   1 6337.70 467.166   8
   6  -3   2-46.6953 58.7215   4
  -6   3  -2 10.9025 30.5857   2
  -6   3  -2-3.29214 7.60912   7
  -6   3  -2 5.71134 16.4314   5
   6  -3   2-0.17524 10.2262   1
  -6   3  -2 9.31630 24.7100   9
  -6   3  -3 7082.70 533.752   5
  -6   3  -3 7255.12 468.871   9
  -6   3  -3 8044.84 563.978   2
  -6   3  -4 57.8499 25.7216   2
  -6   3  -4 122.049 58.4816   5
  -6   3  -4 47.9237 13.2383   9
  -6   3  -5 1617.92 261.487   2
  -6   3  -5 1378.75 248.977   5
  -6   3  -5 865.527 146.699   9
  -6   3  -6 543.777 156.772   2
  -6   3  -6 374.102 130.075   5
  -6   3  -7 172.870 110.376   5
   6  -2 -11 1001.09 241.533   4
   6  -2 -11 913.875 204.650   1
  -6   2  11 1026.65 240.180  11
   6  -2 -10 929.674 211.094   4
   6  -2 -10 1377.34 243.193   1
  -6   2  10 995.517 242.249  11
   6  -2  -9 404.735 128.616   4
   6  -2  -9 356.431 113.290   1
  -6   2   9 371.856 145.787  11
  -6   2   8 2900.53 283.420   3
  -6   2   8 4284.18 433.470  11
   6  -2  -8 3916.58 384.643   1
   6  -2  -8 4552.46 281.123   8
   6  -2  -8 3855.60 395.422   4
   6  -2  -7 870.352 173.492   4
   6  -2  -7 987.838 182.672   1
  -6   2   7 981.562 198.077  11
  -6   2   7 580.347 124.210   3
   6  -2  -7 913.325 129.477   8
  -6   2   6 1409.64 216.776   3
  -6   2   6 2239.47 286.510  11
   6  -2  -6 2262.83 267.393   1
   6  -2  -6 2397.27 216.416   8
   6  -2  -6 2003.67 260.126   4
   6  -2  -5 166.883 64.0677   4
  -6   2   5 200.297 73.8737  11
   6  -2  -5 154.109 60.8458   1
  -6   2   5 127.715 56.7744   5
  -6   2   5 158.503 67.7514   9
   6  -2  -5 167.960 54.0474   8
  -6   2   4 11344.9 588.923   5
  -6   2   4 9238.33 543.320  11
   6  -2  -4 8389.76 520.218  11
  -6   2   4 9726.75 587.239   9
   6  -2  -4 9921.89 513.015   8
   6  -2  -4 9300.99 553.793   4
   6  -2  -4 9820.24 548.168   1
   6  -2  -3 457.916 108.290   4
  -6   2   3 551.169 125.293   4
  -6   2   3 452.666 104.965  11
   6  -2  -3 360.562 94.0234  11
  -6   2   3 515.894 87.8551  10
   6  -2  -3 645.160 125.807   1
  -6   2   3 574.718 132.666   9
   6  -2  -3 553.018 114.039   8
   6  -2  -2 1710.16 202.914   1
  -6   2   2 1730.34 195.267  11
  -6   2   2 1663.95 176.949  10
  -6   2   2 2020.50 243.479   9
   6  -2  -2 1827.81 225.183   4
   6  -2  -2 1869.27 222.476   8
  -6   2   2 1546.38 206.318   4
   6  -2  -1 2039.84 217.827   1
  -6   2   1 1705.96 178.845  11
   6  -2  -1 1410.38 161.074  11
  -6   2   1 1628.75 192.862  10
  -6   2   1 1722.27 223.440   9
   6  -2  -1 1805.04 227.943   4
   6  -2  -1 1869.20 224.096   8
  -6   2   1 1516.28 210.112   4
   6  -2   0 20641.4 801.662   1
  -6   2   0 19752.8 691.303  11
   6  -2   0 17751.5 662.780  11
  -6   2   0 21449.0 893.235   9
   6  -2   0 19960.4 889.193   4
   6  -2   0 21685.6 905.267   8
  -6   2   0 20420.3 872.417   4
  -6   2  -1 2496.08 148.934   7
  -6   2  -1 2244.28 138.950   7
   6  -2   1 2700.56 249.949   1
  -6   2  -1 2260.03 157.605  11
   6  -2   1 2297.00 154.199  11
  -6   2  -1 2445.58 292.372   5
  -6   2  -1 2629.82 272.872   9
  -6   2  -1 2596.55 253.487   1
   6  -2   1 2574.73 297.785   4
  -6   2  -1 2636.16 285.283   2
   6  -2   1 2963.23 310.931   8
   6  -2   2 257.090 99.1203   4
   6  -2   2 175.294 59.5106   1
  -6   2  -2 119.505 59.4186   2
  -6   2  -2 148.903 71.7236   1
  -6   2  -2 161.562 84.3755   5
  -6   2  -2 138.080 58.0292   9
   6  -2   2 158.446 77.6414   8
   6  -2   3 393.430 115.694   8
  -6   2  -3 520.422 129.908   2
  -6   2  -3 400.151 101.789   1
  -6   2  -3 268.220 106.799   5
  -6   2  -3 420.641 110.064   9
  -6   2  -4 586.976 150.201   2
  -6   2  -4 471.890 143.031   5
  -6   2  -4 390.217 97.5274   9
  -6   2  -5 19.3430 18.0214   2
  -6   2  -5 72.5287 62.4493   5
  -6   2  -5 12.1875 29.2065   9
  -6   2  -6 549.938 151.310   2
  -6   2  -6 417.057 153.621   5
  -6   2  -7 18.6959 47.2234   2
   6  -2   7 60.8373 71.5897   6
  -6   2  -7 29.4611 41.1043   5
   6  -1 -12-5.26482 31.2001   1
   6  -1 -12 79.6167 57.0917   4
  -6   1  12-15.0305 32.6905  11
   6  -1 -11 66.0867 27.2478   1
   6  -1 -11 247.422 120.304   4
  -6   1  11 55.2109 44.5932  11
  -6   1  11 94.4995 68.5454   9
   6  -1 -10 8.58554 72.8475   1
   6  -1 -10 128.469 94.4763   4
  -6   1  10 118.754 90.5177  11
  -6   1  10 127.037 83.4682   9
   6  -1  -9-34.2356 24.5048   1
   6  -1  -9 46.4270 83.9106   4
  -6   1   9 57.3111 35.0645  11
  -6   1   9 74.7792 62.5450   9
   6  -1  -8-47.8349 60.5060   1
   6  -1  -8-11.2893 21.0733   4
  -6   1   8-9.90822 22.8160  11
  -6   1   8 14.8613 29.6363   3
  -6   1   8 2.97842 4.09761   9
   6  -1  -7 22.4136 14.5740   1
   6  -1  -7-13.5253 37.3205   4
  -6   1   7-22.5070 27.1198  11
  -6   1   7-25.5006 5.53173   3
  -6   1   7-25.9805 37.6967   9
  -6   1   6 2759.41 289.316   3
  -6   1   6 3494.85 351.489  11
  -6   1   6 3404.74 340.749   9
   6  -1  -6 3365.80 328.180   1
   6  -1  -6 3237.55 274.689   8
   6  -1  -6 3592.18 357.526   4
  -6   1   5 6232.17 475.521   3
  -6   1   5 8072.89 524.496  11
  -6   1   5 8402.10 537.591   9
   6  -1  -5 7739.42 491.117   1
   6  -1  -5 7159.56 432.092   8
   6  -1  -5 7307.65 506.325   4
  -6   1   4 7712.16 440.229   7
  -6   1   4 7085.52 468.953  11
   6  -1  -4 5614.94 417.119  11
  -6   1   4 7135.61 487.936   9
   6  -1  -4 6867.16 444.969   1
   6  -1  -4 7021.08 428.207   8
   6  -1  -4 6592.17 467.628   4
  -6   1   3 3947.79 286.173   7
  -6   1   3 3920.81 321.282  11
   6  -1  -3 2894.82 280.653  11
  -6   1   3 4059.31 354.357   9
   6  -1  -3 3564.04 302.516   1
   6  -1  -3 3590.51 335.132   4
   6  -1  -3 3947.55 321.390   8
  -6   1   2 8052.51 411.551   7
  -6   1   2 9779.23 499.835  11
   6  -1  -2 8596.05 469.712  11
  -6   1   2 8916.49 511.380   1
  -6   1   2 8456.27 440.004  10
  -6   1   2 9191.02 554.353   9
   6  -1  -2 8986.63 546.316   4
   6  -1  -2 9186.90 523.623   8
   6  -1  -2 9485.92 491.987   1
   6  -1  -1 7312.46 419.095   1
  -6   1   1 6252.35 319.215   7
  -6   1   1 7105.69 398.053  11
  -6   1   1 6626.20 423.510   1
  -6   1   1 7083.00 419.046  10
  -6   1   1 7179.10 483.609   9
   6  -1  -1 6956.66 482.214   4
   6  -1  -1 7054.97 464.557   8
   6  -1   0 440.171 118.112   4
  -6   1   0 285.421 47.3939   7
   6  -1   0 356.878 86.5594   1
  -6   1   0 343.032 73.6542  11
   6  -1   0 397.484 82.1912  11
  -6   1   0 360.301 98.4005   9
  -6   1   0 263.347 81.1933   1
   6  -1   0 386.537 105.586   8
   6  -1   1 19400.5 715.218   1
   6  -1   1 17645.9 605.261  11
  -6   1  -1 14966.2 690.786   1
  -6   1  -1 18799.6 837.618   9
   6  -1   1 18870.6 913.626   4
  -6   1  -1 18632.6 798.455   2
   6  -1   1 19436.4 872.700   8
   6  -1   2 1831.29 267.939   4
   6  -1   2 1502.23 166.548   1
   6  -1   2 1227.86 102.716  11
  -6   1  -2 1201.75 156.938   1
  -6   1  -2 1372.63 247.580   5
  -6   1  -2 1447.21 202.146   9
  -6   1  -2 1436.34 198.588   2
   6  -1   2 1302.99 213.130   8
   6  -1   3 143.403 88.3839   4
  -6   1  -3 130.026 53.9942   1
  -6   1  -3 127.741 61.6577   2
  -6   1  -3 132.088 89.0879   5
  -6   1  -3 87.7599 40.5117   9
   6  -1   3 195.633 84.5597   8
  -6   1  -4 1877.65 242.269   2
  -6   1  -4 1572.08 220.618   9
  -6   1  -4 1421.50 272.695   5
   6  -1   4 1539.93 245.287   8
  -6   1  -5-0.71817 27.6630   2
  -6   1  -5-3.36442 22.6759   5
  -6   1  -5 52.1103 61.7360   9
  -6   1  -6 3454.09 357.431   2
  -6   1  -6 3325.63 444.714   5
  -6   1  -7-145.821 94.7502   5
   6   0 -12 616.111 171.081   1
   6   0 -12 735.578 210.564   4
  -6   0  12 659.583 197.971  11
  -6   0  12 525.929 149.349   9
   6   0 -11 1311.45 249.421   1
   6   0 -11 1030.50 243.352   4
  -6   0  11 1409.19 281.745  11
  -6   0  11 952.850 204.303   9
   6   0 -10-13.5518 30.9986   1
   6   0 -10-18.4797 72.0061   4
  -6   0  10 16.7304 26.2817  11
  -6   0  10 78.9799 57.3221   9
   6   0  -9 1759.17 270.596   1
   6   0  -9 1578.90 275.985   4
  -6   0   9 1837.24 295.626  11
  -6   0   9 1633.98 252.587   9
  -6   0   8 1868.11 227.486   3
  -6   0   8 2531.31 329.995  11
   6   0  -8 2705.92 322.958   1
  -6   0   8 2478.34 295.327   9
   6   0  -8 2328.82 307.949   4
   6   0  -7 60.2464 52.7248   1
   6   0  -7 18.8707 21.2727   4
  -6   0   7-9.75756 36.3482  11
  -6   0   7-0.81866 10.6953   3
  -6   0   7 57.7666 54.2583   9
  -6   0   6 6700.30 507.165   3
  -6   0   6 9038.27 591.070  11
   6   0  -6 9857.04 591.848   1
  -6   0   6 9359.00 574.456   9
   6   0  -6 8776.08 589.639   4
  -6   0   5 2138.37 261.763  11
   6   0  -5 2196.19 256.113   1
  -6   0   5 2272.34 270.777   9
   6   0  -5 2188.46 277.223   4
   6   0  -4 867.423 171.098   4
   6   0  -4 790.650 142.758   1
  -6   0   4 996.724 147.445   7
  -6   0   4 864.177 156.303  11
  -6   0   4 813.885 154.904   9
  -6   0   3 2310.05 210.564   7
  -6   0   3 2456.67 255.104  11
   6   0  -3 1866.62 222.586  11
  -6   0   3 2608.79 283.001   9
   6   0  -3 2502.36 242.622   1
   6   0  -3 2354.31 251.520   8
   6   0  -3 2340.29 275.894   4
  -6   0   2 27399.7 927.955   7
  -6   0   2 33345.1 1106.45  11
   6   0  -2 27986.3 1037.11  11
  -6   0   2 30724.3 1101.91   1
  -6   0   2 32876.7 1187.10   9
   6   0  -2 31547.8 1056.18   1
   6   0  -2 31329.2 1201.73   4
   6   0  -2 31063.7 1138.97   8
  -6   0   1 5650.87 291.425   7
  -6   0   1 6183.85 388.557   6
  -6   0   1 6971.50 406.692  11
  -6   0   1 5754.47 388.089   1
  -6   0   1 6827.49 470.083   9
   6   0  -1 6168.09 476.369   4
   6   0  -1 6714.88 461.961   8
   6   0  -1 6660.37 386.251   1
   6   0   0 729.004 118.343   1
  -6   0   0 624.025 70.0588   7
   6   0   0 930.017 183.787   4
  -6   0   0 819.957 133.232   2
  -6   0   0 750.773 131.487   6
  -6   0   0 666.377 109.863  11
  -6   0   0 429.585 94.4006   1
  -6   0   0 664.603 139.958   9
   6   0   0 708.509 146.441   8
  -6   0  -1 1861.60 213.049   6
   6   0   1 2004.51 184.153  11
  -6   0  -1 2463.49 273.924   9
  -6   0  -1 853.227 132.685   1
   6   0   1 2451.67 315.192   4
   6   0   1 2226.41 273.422   8
  -6   0  -1 2493.92 234.539   2
   6   0   2 634.707 168.323   4
  -6   0  -2 739.618 126.171   2
   6   0   2 719.255 99.1322  11
  -6   0  -2 341.964 80.1124   1
  -6   0  -2 785.489 185.069   5
  -6   0  -2 740.900 152.711   9
   6   0   2 764.463 165.891   8
  -6   0  -3 8790.41 498.691   2
  -6   0  -3 7996.34 648.225   5
  -6   0  -3 8069.41 547.169   9
   6   0   3 8304.14 661.331   4
   6   0   3 9267.69 612.983   8
  -6   0  -4 584.411 121.235   2
  -6   0  -4 687.595 200.998   5
  -6   0  -4 549.767 137.098   9
   6   0   4 538.657 147.203   8
  -6   0  -5 1551.93 295.929   5
  -6   0  -5 1112.73 203.299   9
   6   0   5 1651.54 266.457   8
  -6   0  -6 502.121 175.693   5
  -6   0  -6 48.2329 38.5607   9
   6   1 -12 489.003 168.359   1
   6   1 -12 401.153 159.960   4
  -6  -1  12 359.045 133.191  11
  -6  -1  12 393.726 120.880   9
   6   1 -11 997.936 228.712   4
  -6  -1  11 1242.75 260.573  11
  -6  -1  11 845.952 177.948   9
   6   1 -11 937.224 216.571   1
   6   1 -10 1108.31 227.940   4
  -6  -1  10 1392.25 267.205  11
  -6  -1  10 782.356 161.179   9
   6   1 -10 1054.99 225.060   1
  -6  -1   9 3674.79 427.381  11
   6   1  -9 3252.20 380.598   1
  -6  -1   9 3589.61 360.449   9
   6   1  -9 3483.52 411.957   4
   6   1  -8 1076.58 213.814   4
  -6  -1   8 1107.51 220.545  11
  -6  -1   8 859.868 162.175   3
   6   1  -8 1012.18 107.269  10
  -6  -1   8 1181.83 206.215   9
   6   1  -8 934.652 198.653   1
   6   1  -7 697.527 167.767   4
  -6  -1   7 751.938 178.788  11
  -6  -1   7 423.029 128.903   3
   6   1  -7 800.224 101.378  10
  -6  -1   7 966.625 177.083   9
   6   1  -7 782.211 170.418   1
  -6  -1   6 9965.75 635.123  11
   6   1  -6 9817.21 439.214  10
   6   1  -6 10451.7 619.214   1
  -6  -1   6 10611.3 622.189   9
   6   1  -6 9405.39 636.806   4
  -6  -1   5 8364.40 554.235  11
   6   1  -5 8352.22 420.046  10
   6   1  -5 7979.72 513.761   1
  -6  -1   5 8599.23 556.414   9
   6   1  -5 8682.74 587.274   4
  -6  -1   4 23892.1 891.329   7
  -6  -1   4 23349.9 988.480  11
   6   1  -4 23283.5 850.692  10
   6   1  -4 24833.0 963.595   1
  -6  -1   4 22947.3 996.142   9
   6   1  -4 22805.8 1031.66   4
  -6  -1   3 5841.58 365.689   7
  -6  -1   3 7176.06 471.082  11
  -6  -1   3 6961.82 465.673   1
   6   1  -3 6621.28 405.240  10
  -6  -1   3 6652.20 475.786   9
   6   1  -3 6830.94 432.388   1
   6   1  -3 6224.17 488.605   4
  -6  -1   2 12109.2 523.216   7
  -6  -1   2 13682.0 660.368  11
   6   1  -2 11109.1 594.393  11
  -6  -1   2 12759.9 635.404   1
  -6  -1   2 14106.0 716.021   9
   6   1  -2 13578.5 600.612   1
   6   1  -2 12458.4 715.740   4
   6   1  -2 13553.2 688.453   8
   6   1  -1 827.564 173.271   4
  -6  -1   1 666.268 94.6898   7
  -6  -1   1 828.822 128.356   6
  -6  -1   1 714.149 127.806   1
   6   1  -1 788.095 119.503   1
  -6  -1   1 699.416 127.202  11
   6   1  -1 455.430 110.749  11
  -6  -1   1 655.838 143.942   9
   6   1  -1 775.835 154.878   8
   6   1   0 435.986 126.747   4
  -6  -1   0 263.148 47.6293   7
  -6  -1   0 343.618 74.1046   2
  -6  -1   0 373.555 86.4010   6
  -6  -1   0 266.853 66.6884   1
   6   1   0 205.854 65.8524  11
  -6  -1   0 321.406 105.930   9
   6   1   0 313.884 99.2413   8
   6   1   1 631.443 161.117   4
  -6  -1  -1 717.604 110.133   2
  -6  -1  -1 625.658 117.140   6
  -6  -1  -1 263.979 67.9955   1
   6   1   1 511.167 106.269  11
  -6  -1  -1 809.992 172.462   9
   6   1   1 622.781 147.164   8
  -6  -1  -2 5838.34 343.207   2
   6   1   2 5564.85 278.371   1
  -6  -1  -2 6307.79 395.191   6
  -6  -1  -2 4860.96 290.988   1
  -6  -1  -2 5993.90 557.380   5
  -6  -1  -2 6576.78 490.583   9
   6   1   2 5924.52 540.726   4
   6   1   2 6127.06 487.373   8
   6   1   3 504.556 162.327   4
  -6  -1  -3 350.400 86.1389   2
  -6  -1  -3 549.362 168.317   5
  -6  -1  -3 365.911 104.815   9
   6   1   3 487.604 138.763   8
  -6  -1  -4 1558.34 298.961   5
  -6  -1  -4 1297.99 224.240   9
   6   1   4 1563.68 251.094   8
  -6  -1  -5 297.786 146.041   5
  -6  -1  -5 95.5918 19.8884   9
   6   1   5 223.714 95.3905   8
  -6  -1  -6 1647.63 333.160   5
   6   1   6 1310.21 238.855   8
   6   2 -11 1678.73 316.153   4
  -6  -2  11 2246.20 363.170  11
  -6  -2  11 1959.23 273.920   9
   6   2 -11 1996.86 318.894   1
   6   2 -10 60.7320 72.2891   4
  -6  -2  10-35.3953 75.1999  11
  -6  -2  10 47.1383 54.7651   9
   6   2 -10 121.810 71.0043   1
   6   2  -9 45.7742 86.8502   4
  -6  -2   9 41.5135 27.7530  11
   6   2  -9 40.0563 60.8631   1
  -6  -2   9 23.4667 43.9055   9
   6   2  -8 2073.63 306.928   4
  -6  -2   8 2012.77 305.755  11
   6   2  -8 2352.81 312.210   1
  -6  -2   8 2092.52 269.962   9
   6   2  -7 301.808 105.207   4
  -6  -2   7 106.623 46.4505  11
   6   2  -7 262.877 102.397   1
  -6  -2   7 320.418 110.984   9
   6   2  -6 1234.87 221.421   4
  -6  -2   6 1375.95 227.484  11
   6   2  -6 1297.53 161.820  10
  -6  -2   6 1159.58 199.784   9
   6   2  -6 1260.91 206.240   1
  -6  -2   5 4777.74 421.091  11
   6   2  -5 4293.40 374.294   1
   6   2  -5 4096.18 305.793  10
  -6  -2   5 4573.29 405.850   9
   6   2  -5 4040.68 407.149   4
  -6  -2   4 2092.77 270.044  11
   6   2  -4 2144.86 223.005  10
   6   2  -4 2313.85 256.665   1
  -6  -2   4 2257.73 278.050   9
   6   2  -4 2381.56 304.123   4
  -6  -2   3 6992.24 418.726   7
  -6  -2   3 8369.77 543.357  11
   6   2  -3 8500.86 488.086  10
   6   2  -3 8843.12 502.118   1
  -6  -2   3 8361.04 558.407   9
   6   2  -3 8929.56 609.337   4
  -6  -2   2 16455.4 681.116   7
  -6  -2   2 18686.3 846.469  11
   6   2  -2 19797.2 832.783  10
  -6  -2   2 19022.8 896.108   9
   6   2  -2 19517.5 771.363   1
   6   2  -2 17958.5 926.715   4
  -6  -2   1 2470.39 219.164   7
  -6  -2   1 5191.88 311.008   6
   6   2  -1 5417.97 408.690  10
  -6  -2   1 5487.88 445.096   9
   6   2  -1 5471.91 333.893   1
   6   2  -1 5494.55 478.555   4
   6   2  -1 5314.47 437.738   8
  -6  -2   1 5460.64 259.866   2
  -6  -2   0 2222.14 147.785   2
  -6  -2   0 1260.26 128.231   7
  -6  -2   0 2324.33 199.282   6
   6   2   0 1577.90 208.404  11
  -6  -2   0 2180.96 285.051   9
   6   2   0 2308.76 316.449   4
   6   2   0 2480.61 298.463   8
   6   2   1 13798.2 499.143   1
  -6  -2  -1 13807.5 464.476   2
  -6  -2  -1 13359.8 559.877   6
  -6  -2  -1 14013.6 783.129   9
   6   2   1 14264.9 862.694   4
   6   2   1 14911.5 793.244   8
   6   2   2 1535.00 278.516   4
   6   2   2 1315.46 103.424   1
   6   2   2 1169.85 177.274  11
  -6  -2  -2 1493.00 284.441   5
  -6  -2  -2 1537.59 244.479   9
   6   2   2 1595.85 250.166   8
  -6  -2  -3 5523.44 576.069   5
  -6  -2  -3 5050.60 470.596   9
   6   2   3 5860.38 576.395   4
   6   2   3 6156.20 507.600   8
  -6  -2  -4 844.561 226.136   5
  -6  -2  -4 667.851 164.071   9
   6   2   4 830.436 183.974   8
  -6  -2  -5 480.956 175.496   5
  -6  -2  -5 241.377 136.722   9
   6   2   5 404.657 133.635   8
   6   3 -11 674.787 190.610   4
  -6  -3  11 898.286 229.350  11
   6   3 -11 765.496 209.310   1
  -6  -3  11 691.242 166.620   9
   6   3 -10 1182.58 258.562   4
  -6  -3  10 1657.87 312.121  11
   6   3 -10 1424.27 265.532   1
  -6  -3  10 1706.31 249.715   9
  -6  -3   9 7505.28 634.667  11
   6   3  -9 6590.40 570.382   1
  -6  -3   9 6418.96 500.421   9
   6   3  -9 5569.79 547.647   4
   6   3  -8 564.278 156.778   4
  -6  -3   8 521.306 158.883  11
   6   3  -8 634.001 165.778   1
  -6  -3   8 482.986 131.814   9
  -6  -3   7 4886.38 481.893  11
   6   3  -7 5486.94 479.745   1
  -6  -3   7 5023.84 437.219   9
   6   3  -7 5059.27 489.223   4
   6   3  -6 737.294 176.646   4
   6   3  -6 959.277 176.609   7
  -6  -3   6 758.497 176.216  11
   6   3  -6 936.948 181.042   1
  -6  -3   6 792.029 174.671   9
   6   3  -5-27.3286 29.6213   4
   6   3  -5-4.71131 20.1445   7
  -6  -3   5-8.92698 34.1504  11
   6   3  -5-15.4735 15.3209  10
   6   3  -5 35.0643 31.1378   1
  -6  -3   5 36.1771 42.3116   9
   6   3  -4 17382.9 777.595   7
  -6  -3   4 18880.3 917.652  11
   6   3  -4 18217.3 836.949   1
   6   3  -4 18313.4 802.231  10
  -6  -3   4 17518.1 880.311   9
   6   3  -4 17069.4 926.333   4
   6   3  -3 182.122 89.2500   4
   6   3  -3 20.9584 6.09170   7
  -6  -3   3 44.5940 21.3521  11
   6   3  -3 42.0168 22.5450  10
  -6  -3   3 19.5429 28.4325   9
   6   3  -3 56.6501 26.3846   1
  -6  -3   2 2993.15 261.437   7
  -6  -3   2 3003.52 117.496   2
   6   3  -2 5119.09 331.220   7
  -6  -3   2 4426.85 255.767   6
   6   3  -2 5188.83 399.257  10
   6   3  -2 5003.47 351.583   1
  -6  -3   2 5009.67 437.993   9
   6   3  -2 4382.47 435.225   4
   6   3  -1 105.295 78.2862   4
   6   3  -1 61.0153 42.5471   1
  -6  -3   1 18.8306 9.29394   7
   6   3  -1-6.15291 7.33628   7
  -6  -3   1-4.27279 19.3283   6
   6   3  -1-26.4545 32.1620  10
  -6  -3   1 79.8141 63.5088   9
   6   3   0 768.030 190.703   4
  -6  -3   0 362.734 67.6886   7
  -6  -3   0 621.065 85.4156   6
   6   3   0 708.931 159.495  10
  -6  -3   0 654.214 161.766   9
   6   3   0 658.160 160.010   8
   6   3   1-53.1676 71.1740   4
   6   3   1 1.94738 13.8050   7
   6   3   1 24.9770 8.43639   1
  -6  -3  -1 65.2979 53.0726   9
   6   3   1 73.3705 49.1912   8
   6   3   2 153.709 85.1379   4
  -6  -3  -2 62.0119 67.8509   5
  -6  -3  -2 115.626 71.4796   9
   6   3   2 32.7102 13.4047   8
   6   3   3 270.097 128.589   4
  -6  -3  -3 305.657 139.248   5
  -6  -3  -3 216.854 86.6102   9
   6   3   3 305.655 112.449   8
  -6  -3  -4 41.5669 63.3345   5
  -6  -3  -4-5.45668 15.9233   9
   6   3   4 7.76414 40.3631   8
  -6  -3  -5 97.4022 22.4799   5
  -6  -3  -5 65.4730 86.4516   9
   6   3   5 150.411 78.2626   8
   6   4 -10 11.9140 31.1151   4
  -6  -4  10 93.6932 42.3743  11
   6   4 -10-34.7856 10.9922   1
  -6  -4  10 96.4735 41.9760   9
   6   4  -9 116.895 75.5549   4
  -6  -4   9 88.9571 71.9004  11
   6   4  -9 154.057 91.3263   1
  -6  -4   9 126.110 72.0093   9
   6   4  -8 20.4635 34.6989   4
   6   4  -8-136.746 73.6177   7
  -6  -4   8 120.733 69.0229  11
   6   4  -8 14.6743 36.3078   1
  -6  -4   8-19.6799 27.9680   9
   6   4  -7 4975.58 448.995   7
  -6  -4   7 5231.15 508.146  11
   6   4  -7 5107.98 477.065   1
  -6  -4   7 5259.57 457.917   9
   6   4  -7 5159.48 510.934   4
   6   4  -6 790.798 188.999   4
   6   4  -6 461.904 138.262   7
  -6  -4   6 1045.84 217.030  11
   6   4  -6 717.730 171.147   1
  -6  -4   6 722.540 170.780   9
   6   4  -5 1174.59 242.831   4
   6   4  -5 1010.58 175.779   7
  -6  -4   5 1013.49 209.961  11
   6   4  -5 954.043 186.360   1
  -6  -4   5 1152.40 210.769   9
   6   4  -4 3929.88 346.707   7
   6   4  -4 3441.69 343.804   1
   6   4  -4 3701.25 355.610  10
  -6  -4   4 3695.67 391.324   9
   6   4  -4 3926.84 429.280   4
   6   4  -3 345.356 118.305   4
   6   4  -3 433.090 108.427   7
   6   4  -3 313.371 102.467  10
   6   4  -3 437.113 118.746   1
  -6  -4   3 435.021 134.340   9
   6   4  -2 3309.84 293.938   7
   6   4  -2 3784.26 319.620   1
   6   4  -2 3725.03 370.223  10
  -6  -4   2 3635.67 404.132   9
   6   4  -2 3702.13 428.947   4
   6   4  -1 258.861 74.8815   1
   6   4  -1 264.035 112.876   4
   6   4  -1 258.275 76.3966   7
   6   4  -1 216.222 92.9894  10
  -6  -4   1 221.215 91.4229   9
   6   4   0 3452.69 269.712   7
   6   4   0 3799.15 397.114  10
  -6  -4   0 3734.79 414.980   9
   6   4   0 3182.75 412.564   4
   6   4   1 122.838 72.3525   4
   6   4   1 181.934 87.6394  10
  -6  -4  -1 285.504 119.070   9
   6   4   1 114.926 75.2731   8
   6   4   2 886.279 223.517   4
  -6  -4  -2 1008.42 249.492   5
  -6  -4  -2 674.606 182.349   9
   6   4   2 889.709 191.891   8
  -6  -4  -3 1350.96 301.490   5
  -6  -4  -3 1019.90 223.240   9
   6   4   3 979.540 210.324   8
  -6  -4  -4 1731.27 353.320   5
  -6  -4  -4 1591.60 293.129   9
   6   4   4 1338.80 241.870   8
   6   5  -9 2107.45 321.245   7
  -6  -5   9 3186.44 432.954  11
   6   5  -9 2064.69 334.493   1
  -6  -5   9 2555.49 324.445   9
   6   5  -9 2578.42 386.136   4
   6   5  -8 224.670 82.3898   4
   6   5  -8 313.949 116.003   7
  -6  -5   8 426.879 155.814  11
   6   5  -8 337.350 122.344   1
  -6  -5   8 262.419 106.764   9
   6   5  -7 652.071 189.219   4
   6   5  -7 700.616 168.481   7
  -6  -5   7 819.116 200.143  11
   6   5  -7 709.837 178.458   1
  -6  -5   7 915.450 197.962   9
   6   5  -6 273.076 100.625   4
   6   5  -6 261.480 105.387   7
  -6  -5   6 219.077 120.706  11
   6   5  -6 246.556 95.8697   1
  -6  -5   6 284.656 110.928   9
   6   5  -5 276.141 120.679   4
   6   5  -5 85.6521 46.4608   7
   6   5  -5 173.468 98.1258   1
  -6  -5   5 197.632 88.9290   9
   6   5  -4 19.4524 33.3099   4
   6   5  -4 90.2556 57.6313   7
   6   5  -4-13.5480 36.2468   1
  -6  -5   4 154.734 82.7425   9
   6   5  -3 1448.12 268.694   4
   6   5  -3 1384.62 207.438   7
   6   5  -3 1634.56 228.855   1
   6   5  -3 1880.31 272.183  10
  -6  -5   3 1729.51 281.133   9
   6   5  -2 1700.94 224.051   7
   6   5  -2 1563.06 287.593   4
   6   5  -2 1647.99 215.450   1
   6   5  -2 1546.09 252.014  10
  -6  -5   2 1727.15 291.715   9
   6   5  -1 248.705 117.025   4
   6   5  -1 293.976 93.3242   7
   6   5  -1 590.460 156.238  10
  -6  -5   1 307.000 127.440   9
   6   5  -1 388.965 97.9576   1
   6   5   0 1041.83 243.840   4
   6   5   0 991.428 159.703   7
   6   5   0 1033.91 217.107  10
  -6  -5   0 1088.88 239.035   9
   6   5   1 1088.72 262.152   4
   6   5   1 1292.59 248.187  10
  -6  -5  -1 1077.23 227.575   9
   6   5   1 1257.54 242.853   8
   6   5   2 652.538 207.500   4
   6   5   2 1019.91 239.516  10
  -6  -5  -2 760.187 227.320   5
  -6  -5  -2 617.969 182.852   9
   6   5   2 797.260 195.081   8
  -6  -5  -3 366.605 160.725   9
   6   5   3 58.1728 39.8405   8
   6   6  -8 23.6341 26.0489   4
   6   6  -8 33.2319 56.9082   7
   6   6  -8-59.0198 68.4153   1
  -6  -6   8 10.0056 43.2797   9
   6   6  -7 471.984 157.650   4
   6   6  -7 789.443 180.995   7
   6   6  -7 439.599 142.318   1
  -6  -6   7 718.017 183.926   9
   6   6  -6-48.6835 79.6538   4
   6   6  -6 26.5996 20.3433   7
   6   6  -6-4.56643 24.0797   1
  -6  -6   6-56.5611 61.8641   9
   6   6  -5 195.071 103.006   4
   6   6  -5 50.0272 51.2989   7
   6   6  -5 61.1922 19.8938   1
  -6  -6   5 75.2278 56.5013   9
   6   6  -4 685.028 196.387   4
   6   6  -4 621.632 148.791   7
   6   6  -4 735.695 169.426   1
  -6  -6   4 1173.81 240.462   9
   6   6  -3 20.6690 30.9696   4
   6   6  -3 143.037 76.4152   7
   6   6  -3 231.116 101.796  10
   6   6  -3 188.309 85.9690   1
  -6  -6   3 165.681 84.9334   9
   6   6  -2 1092.97 246.349   4
   6   6  -2 1172.58 202.645   7
   6   6  -2 1195.71 235.429  10
   6   6  -2 1114.20 187.430   1
  -6  -6   2 1445.05 275.654   9
   6   6  -1 784.625 220.809   4
   6   6  -1 818.890 162.787   7
   6   6  -1 1049.45 225.131  10
  -6  -6   1 1275.46 271.948   9
   6   6   0-70.9411 58.7743   4
   6   6   0-7.01006 20.2769   7
   6   6   0-18.1615 52.4076  10
  -6  -6   0 53.0149 68.6892   9
   6   6   1 247.907 132.972   4
   6   6   1 160.286 62.8897  10
  -6  -6  -1 288.000 154.768   5
  -6  -6  -1 235.394 132.354   9
   6   6   1 218.366 98.7554   8
   6   7  -4-57.8874 62.8086   4
   6   7  -4 140.936 73.9824   7
   6   7  -4 169.437 90.3780   1
   6   7  -3 256.965 135.273   4
   6   7  -3 388.495 120.063   7
   6   7  -3 432.049 127.079   1
   6   7  -3 495.791 156.748  10
   7  -7  -6 301.686 114.497   1
   7  -7  -6 193.636 117.941   3
  -7   7   6 102.101 69.6225  11
   7  -7  -5 48.7926 61.2134   1
   7  -7  -5 4.38803 20.5195   3
  -7   7   5 89.3322 51.7620  11
  -7   7   4-64.8541 70.4026   7
   7  -7  -4-13.6854 28.6886   3
  -7   7   4-2.74989 40.0295  11
   7  -7  -4 42.7874 30.7348   1
  -7   7   3 190.982 90.1194   7
   7  -7  -3 169.976 99.4996   1
  -7   7   3 25.4952 40.6692  11
  -7   7   2-1.15814 12.6470   7
   7  -7  -2 5.67951 49.6814   1
   7  -7  -2-2.70943 32.9146   3
  -7   7   2 30.9488 28.4430  11
  -7   7   1 191.841 71.2491   7
   7  -7  -1-3.66519 50.5901   3
   7  -7  -1 261.689 121.170   1
  -7   7   0 980.466 189.715   7
   7  -7   0 1198.16 280.297   3
  -7   7  -1 120.498 43.4301   2
  -7   7  -1 144.683 68.9419   7
   7  -7   1-60.7179 88.9416   3
  -7   7  -1 40.3612 42.4711   9
  -7   7  -2 416.155 152.590   2
   7  -7   2 440.595 173.342   3
   7  -6  -7 15.6736 68.2299   3
  -7   6   7 275.966 112.148  11
   7  -6  -7 303.173 106.190   1
   7  -6  -6 86.7020 51.1655   3
  -7   6   6-44.5918 57.2713  11
   7  -6  -6-45.8159 72.4004   1
   7  -6  -5 1238.53 264.720   3
  -7   6   5 1006.76 214.704  11
   7  -6  -5 1642.94 266.720   1
   7  -6  -4 186.907 87.1547   1
   7  -6  -4 42.7170 80.2682   3
  -7   6   4 63.8922 40.7259  11
   7  -6  -3 560.407 146.519   1
   7  -6  -3 540.308 182.057   3
  -7   6   3 308.830 112.875  11
   7  -6  -2-47.0676 60.1181   1
  -7   6   2 40.0936 41.3098   7
   7  -6  -2-14.0562 27.2989   3
  -7   6   2 56.3945 56.2413  11
  -7   6   1 3155.97 330.527   7
   7  -6  -1 3320.82 451.608   3
   7  -6  -1 3080.66 358.299   1
   7  -6   0 177.017 83.3727   1
  -7   6   0 125.905 48.8600   7
   7  -6   0 270.642 117.047   3
  -7   6   0 118.674 44.9917   9
  -7   6  -1 175.372 90.0117   2
  -7   6  -1 214.763 82.1461   7
   7  -6   1 137.812 66.8486   3
  -7   6  -2 96.4170 82.1243   2
  -7   6  -2 20.2800 16.5397   9
  -7   6  -3 51.0675 44.0460   2
   7  -5  -9 265.589 119.794   1
   7  -5  -9 145.830 87.9208   4
  -7   5   9 330.972 131.187  11
   7  -5  -8 566.506 163.475   1
   7  -5  -8 545.796 150.707   4
  -7   5   8 523.482 162.425  11
   7  -5  -7 56.8899 16.5790   4
   7  -5  -7 19.6615 47.0427   1
  -7   5   7 45.2146 27.4227  11
   7  -5  -6 53.6742 48.5527   4
   7  -5  -6 17.5705 26.2927   1
  -7   5   6 130.151 82.0886  11
   7  -5  -5 2051.35 284.112   1
   7  -5  -5 1633.61 290.847   3
  -7   5   5 1624.58 257.592  11
   7  -5  -5 1858.24 237.364   4
   7  -5  -4 158.313 64.5367   4
   7  -5  -4 42.0845 47.5182   3
  -7   5   4 142.092 75.5954  11
   7  -5  -4 233.369 98.8140   1
   7  -5  -3 49.0385 35.2251   4
   7  -5  -3-27.4364 83.3451   3
  -7   5   3 23.2463 15.5132  11
   7  -5  -3 7.61655 38.7518   1
   7  -5  -2 38.7917 26.0393   4
   7  -5  -2 57.1733 53.1595   1
   7  -5  -2-60.0772 84.0300   3
  -7   5   2 20.8836 18.5838  11
   7  -5  -1 496.154 112.265   4
  -7   5   1 475.081 113.189   7
  -7   5   1 195.299 76.3319  11
  -7   5   1 91.9235 45.5150   5
   7  -5  -1 401.023 115.652   1
  -7   5   1 385.615 120.976   9
   7  -5   0 1150.39 180.115   4
  -7   5   0 1021.41 165.585   7
  -7   5   0 469.862 94.4240  11
   7  -5   0 942.103 186.658   1
  -7   5   0 298.772 90.1760   5
  -7   5   0 609.791 143.420   9
  -7   5  -1 322.603 118.654   2
  -7   5  -1 393.915 102.415   7
  -7   5  -1 158.990 63.7891   5
  -7   5  -1 307.920 110.052   9
  -7   5  -2 639.649 172.975   2
  -7   5  -2 354.711 113.265   9
  -7   5  -3 1022.95 233.711   2
  -7   5  -3 305.178 101.620   9
  -7   5  -4 128.217 82.7763   2
   7  -4 -10 844.165 201.820   4
  -7   4  10 891.786 230.129  11
   7  -4 -10 974.844 213.265   1
   7  -4  -9 1600.06 271.863   4
  -7   4   9 1477.79 280.741  11
   7  -4  -9 1907.43 298.781   1
   7  -4  -8 176.433 82.9086   4
  -7   4   8 219.262 117.092  11
   7  -4  -8 124.348 61.7332   1
   7  -4  -7 941.271 194.594   4
  -7   4   7 860.197 199.172  11
   7  -4  -7 994.390 200.062   1
   7  -4  -6 789.075 178.111   1
   7  -4  -6 873.334 173.947   4
  -7   4   6 982.817 194.270  11
   7  -4  -5-18.5217 9.68881   1
   7  -4  -5 7.26830 28.7964   4
  -7   4   5 20.9913 10.4778  11
   7  -4  -4 6388.00 484.400   1
  -7   4   4 6096.33 429.601   5
  -7   4   4 5340.72 438.186  11
   7  -4  -4 5494.78 422.590   4
   7  -4  -3 2888.42 314.541   1
  -7   4   3 2643.60 265.829   5
  -7   4   3 1849.12 239.728  11
  -7   4   3 2485.17 228.845  10
  -7   4   3 2838.24 325.366   9
   7  -4  -3 2260.82 259.012   4
   7  -4  -2 644.181 135.631   4
  -7   4   2 821.848 145.434   4
  -7   4   2 571.808 121.040  11
  -7   4   2 649.641 136.046   5
   7  -4  -2 261.692 85.2938  11
   7  -4  -2 696.141 156.456   1
  -7   4   2 749.380 160.455   9
   7  -4  -1 1052.52 180.892   4
   7  -4  -1 808.098 165.657   1
  -7   4   1 639.484 119.258  11
  -7   4   1 881.916 178.431   9
   7  -4   0 353.502 104.915   4
  -7   4   0 561.460 109.314   7
  -7   4   0 282.306 67.6038  11
  -7   4   0 221.814 92.3604   5
  -7   4   0 347.932 113.221   9
   7  -4   0 420.937 120.626   1
   7  -4   1 176.588 82.2193   4
  -7   4  -1 144.064 60.0070   2
  -7   4  -1 113.172 49.8767   7
   7  -4   1 186.481 75.4457   1
  -7   4  -1 25.6622 28.1413   5
  -7   4  -1 102.998 60.3725   9
  -7   4  -2 787.065 171.243   5
  -7   4  -2 707.107 158.268   9
  -7   4  -3 51.2372 61.7730   2
  -7   4  -3 52.0267 52.4220   5
  -7   4  -3 17.4879 22.9776   9
  -7   4  -4 230.019 96.1192   2
  -7   4  -4 14.1753 50.0796   5
  -7   4  -5 192.187 101.805   2
  -7   4  -5 17.0934 28.5533   5
   7  -3 -10 52.7858 40.3638   4
  -7   3  10 46.1105 11.3840  11
   7  -3 -10-5.96852 15.0034   1
   7  -3  -9 297.278 116.846   4
  -7   3   9 130.605 84.3030  11
   7  -3  -9 144.750 87.2662   1
   7  -3  -8 648.219 166.049   4
  -7   3   8 440.520 145.671  11
   7  -3  -8 599.570 155.764   1
   7  -3  -7 58.3081 48.1911   4
  -7   3   7 196.751 93.3176  11
   7  -3  -7 134.882 76.4606   1
   7  -3  -7 178.117 57.7155   8
   7  -3  -6 1530.64 239.518   4
  -7   3   6 1394.04 237.022  11
   7  -3  -6 1549.51 238.298   1
   7  -3  -6 1683.41 193.574   8
   7  -3  -5 1542.50 230.288   4
  -7   3   5 1067.08 200.354  11
   7  -3  -5 1512.02 226.184   1
  -7   3   5 1574.39 251.883   9
   7  -3  -5 1465.30 192.130   8
   7  -3  -4 2997.83 314.907   1
  -7   3   4 2584.94 292.218  11
  -7   3   4 2632.32 202.013  10
  -7   3   4 2898.08 328.422   9
   7  -3  -4 2988.68 314.876   4
   7  -3  -4 3107.35 296.731   8
   7  -3  -3 1617.90 225.790   1
   7  -3  -3 1231.12 195.105   4
  -7   3   3 1384.50 203.820  11
  -7   3   3 1063.58 189.485   5
  -7   3   3 1202.60 150.637  10
  -7   3   3 1581.86 240.695   9
   7  -3  -3 1620.30 221.044   8
   7  -3  -2 1842.45 232.543   1
   7  -3  -2 1591.53 223.392   4
  -7   3   2 1542.40 193.901  11
   7  -3  -2 1012.27 164.070  11
  -7   3   2 1474.74 189.212  10
  -7   3   2 1449.01 222.923   9
   7  -3  -2 1874.04 244.712   8
   7  -3  -1 1425.82 218.324   4
   7  -3  -1 1448.61 208.280   1
  -7   3   1 1148.49 154.666  11
  -7   3   1 1527.04 233.448   9
   7  -3  -1 1319.89 211.589   8
   7  -3   0 8.68574 45.5257   4
  -7   3   0 17.4300 16.3549   7
   7  -3   0 57.3195 38.1567   1
  -7   3   0 16.3323 18.6709  11
   7  -3   0 44.8081 30.8458  11
  -7   3   0 75.6259 56.8628   9
   7  -3   0 53.0499 50.8723   8
  -7   3  -1 6598.92 306.840   7
   7  -3   1 6788.35 458.022   1
  -7   3  -1 5226.35 468.523   5
  -7   3  -1 5832.79 476.070   9
   7  -3   1 6917.94 539.089   4
  -7   3  -1 7208.53 539.408   2
   7  -3   1 7363.47 545.382   8
   7  -3   2 158.953 78.1973   4
  -7   3  -2 162.021 74.3448   2
  -7   3  -2 131.529 70.3850   5
  -7   3  -2 153.269 83.3136   9
  -7   3  -3 1011.08 204.244   2
  -7   3  -3 573.102 154.617   5
  -7   3  -3 586.744 142.933   9
  -7   3  -4 38.6852 54.2318   2
  -7   3  -4 59.3205 43.7055   5
  -7   3  -4 22.8384 12.2849   9
  -7   3  -5-53.9623 55.9241   2
  -7   3  -5-39.4446 59.1577   5
   7  -2 -11 143.546 94.2524   4
   7  -2 -11 92.3177 81.3243   1
  -7   2  11-15.5799 51.5540  11
  -7   2  11-10.3461 23.1456   9
   7  -2 -10 812.002 197.010   4
   7  -2 -10 939.774 210.833   1
  -7   2  10 894.006 221.444  11
  -7   2  10 725.805 188.313   9
   7  -2  -9 135.794 82.7125   4
   7  -2  -9 36.9899 20.2161   1
  -7   2   9 24.4519 24.4960  11
  -7   2   9 10.0053 27.5747   9
   7  -2  -8 1151.70 224.394   4
   7  -2  -8 1124.66 218.393   1
  -7   2   8 1035.99 225.428  11
  -7   2   8 967.762 208.554   9
   7  -2  -8 1157.37 161.018   8
   7  -2  -7 529.909 150.404   4
   7  -2  -7 495.160 131.453   1
  -7   2   7 509.404 147.932  11
  -7   2   7 486.223 150.608   9
   7  -2  -7 533.134 111.336   8
  -7   2   6 11838.2 720.257  11
  -7   2   6 11344.0 714.141   9
   7  -2  -6 12538.5 705.485   1
   7  -2  -6 12270.9 610.800   8
   7  -2  -6 12016.3 726.949   4
   7  -2  -5 111.497 69.7615   4
  -7   2   5 124.101 68.2038  11
   7  -2  -5 163.353 71.3066   1
  -7   2   5 149.726 73.5001   9
   7  -2  -5 124.504 48.3434   8
  -7   2   4 4483.38 389.315  11
  -7   2   4 4807.17 433.047   9
   7  -2  -4 4510.32 408.750   4
   7  -2  -4 5924.58 419.262   8
   7  -2  -4 5277.58 410.758   1
   7  -2  -3 1769.44 226.473   1
  -7   2   3 1548.13 195.411   7
  -7   2   3 1437.49 202.790  11
   7  -2  -3 870.389 159.497  11
  -7   2   3 1522.78 173.649  10
  -7   2   3 1756.05 256.179   9
   7  -2  -3 1694.91 238.874   4
   7  -2  -3 1663.31 226.940   8
   7  -2  -2 1377.12 198.202   1
  -7   2   2 1078.65 146.700   7
   7  -2  -2 1199.96 203.221   4
  -7   2   2 1073.15 161.776  11
   7  -2  -2 813.965 135.676  11
  -7   2   2 1099.07 158.665  10
  -7   2   2 1426.35 227.210   9
   7  -2  -2 1191.59 192.986   8
  -7   2   1 34.4060 27.9602   7
   7  -2  -1-27.6431 32.7655   1
  -7   2   1-3.54258 13.1321  11
  -7   2   1 80.6778 65.4056   9
   7  -2  -1-18.7929 45.6367   8
  -7   2   0 3658.15 225.358   7
   7  -2   0 5974.70 402.311   1
  -7   2   0 4236.48 281.849  11
   7  -2   0 4948.36 291.655  11
  -7   2   0 5318.52 441.487   9
   7  -2   0 5334.50 462.889   4
   7  -2   0 6082.48 470.350   8
   7  -2   1 177.601 94.5823   4
  -7   2  -1 203.673 83.6972   2
   7  -2   1 135.991 51.3042   1
  -7   2  -1 103.919 77.5443   5
  -7   2  -1 174.744 78.9587   9
   7  -2   1 103.628 55.2035   8
   7  -2   2 1834.47 287.505   4
   7  -2   2 1972.72 223.729   1
  -7   2  -2 1612.80 240.123   9
  -7   2  -2 1468.85 264.859   5
   7  -2   2 2044.80 287.210   8
  -7   2  -2 2124.60 275.059   2
  -7   2  -3 2593.54 361.272   5
  -7   2  -3 1565.89 237.991   9
   7  -2   3 2816.47 349.808   8
  -7   2  -3 2864.92 328.071   2
  -7   2  -4 645.978 161.641   2
  -7   2  -4 499.078 170.602   5
  -7   2  -4 339.697 110.922   9
  -7   2  -5 166.416 71.2399   2
  -7   2  -5 289.645 119.872   5
   7  -1 -11 64.2694 87.5159   4
   7  -1 -11 73.6881 60.1102   1
  -7   1  11 169.649 108.002  11
  -7   1  11 110.158 72.7073   9
   7  -1 -10 1704.05 299.148   4
   7  -1 -10 1826.94 291.462   1
  -7   1  10 1494.97 293.647  11
  -7   1  10 1790.85 284.834   9
   7  -1  -9 1751.49 284.177   4
   7  -1  -9 1403.35 250.118   1
  -7   1   9 1681.48 296.549  11
  -7   1   9 1932.15 288.170   9
   7  -1  -9 1994.83 225.089   8
   7  -1  -8 433.667 137.168   4
   7  -1  -8 451.423 133.938   1
  -7   1   8 440.239 141.682  11
  -7   1   8 535.915 145.051   9
   7  -1  -8 646.317 135.133   8
   7  -1  -7 175.116 69.3677   4
   7  -1  -7 166.214 72.2988   1
  -7   1   7 209.847 95.2123  11
  -7   1   7 114.058 77.7056   9
   7  -1  -7 245.266 81.4491   8
  -7   1   6 5364.72 468.676  11
  -7   1   6 5932.42 496.656   9
   7  -1  -6 5437.02 448.499   1
   7  -1  -6 5486.85 403.136   8
   7  -1  -6 5327.41 473.418   4
  -7   1   5 5729.13 465.154  11
  -7   1   5 5979.38 487.451   9
   7  -1  -5 6098.90 454.561   1
   7  -1  -5 5613.49 414.685   8
   7  -1  -5 5637.31 479.819   4
  -7   1   4 5705.72 442.813  11
  -7   1   4 6215.01 497.462   9
   7  -1  -4 6193.62 448.748   1
   7  -1  -4 5794.88 478.510   4
   7  -1  -4 6367.88 446.775   8
  -7   1   3 3820.40 301.678   7
  -7   1   3 4009.79 351.039  11
  -7   1   3 4679.94 417.393   9
   7  -1  -3 4554.28 416.556   4
   7  -1  -3 4507.25 379.688   8
   7  -1  -3 4615.16 365.585   1
  -7   1   2 13190.4 575.676   7
  -7   1   2 16346.0 723.151  11
  -7   1   2 16484.3 830.073   9
   7  -1  -2 15357.5 813.096   4
   7  -1  -2 16657.1 797.745   8
   7  -1  -2 17229.1 731.941   1
   7  -1  -1 262.655 80.7318   1
   7  -1  -1 124.101 58.7270   4
  -7   1   1 151.046 40.7170   7
  -7   1   1 143.856 54.4031  11
   7  -1  -1 128.330 74.1127  11
  -7   1   1 307.899 114.025   9
   7  -1  -1 158.790 72.8975   8
  -7   1   0 661.479 73.3603   7
   7  -1   0 1148.15 219.595   4
  -7   1   0 759.128 144.077   2
   7  -1   0 855.543 140.546   1
  -7   1   0 602.478 103.089  11
  -7   1   0 880.396 177.305   9
   7  -1   0 908.640 178.767   8
   7  -1   1 2797.97 253.775   1
  -7   1  -1 2445.53 295.662   9
   7  -1   1 3076.51 376.939   4
   7  -1   1 2912.71 337.770   8
  -7   1  -1 3126.45 309.251   2
   7  -1   2 1627.94 280.505   4
   7  -1   2 1693.18 192.869   1
  -7   1  -2 1696.18 298.589   5
  -7   1  -2 1786.25 253.317   9
   7  -1   2 2092.83 295.931   8
  -7   1  -2 2117.98 255.812   2
  -7   1  -3 288.638 105.460   2
  -7   1  -3 164.796 86.5871   5
  -7   1  -3 214.605 94.7037   9
   7  -1   3 377.150 124.787   8
  -7   1  -4 644.251 148.356   2
  -7   1  -4 716.290 216.172   5
  -7   1  -4 301.838 97.3850   9
   7  -1   4 635.713 170.530   8
  -7   1  -5 250.951 85.4571   2
  -7   1  -5 490.967 172.341   5
  -7   1  -5 111.666 66.1560   9
   7   0 -11 730.853 184.207   1
   7   0 -11 461.184 168.581   4
  -7   0  11 570.846 189.770  11
  -7   0  11 760.706 187.907   9
   7   0 -10-31.8755 33.1018   1
  -7   0  10 5.46696 60.2919  11
  -7   0  10-22.9339 34.9699   9
   7   0  -9 822.696 191.382   1
   7   0  -9 920.076 211.693   4
  -7   0   9 833.142 211.093  11
  -7   0   9 1038.99 207.934   9
  -7   0   8 5226.86 507.150  11
   7   0  -8 5718.22 501.257   1
  -7   0   8 5374.15 479.790   9
   7   0  -8 5205.47 501.708   4
  -7   0   7 1701.03 267.076  11
   7   0  -7 1879.25 272.415   1
  -7   0   7 1395.67 242.462   9
   7   0  -7 2182.95 307.018   4
   7   0  -6 53.4870 26.7462   4
   7   0  -6 74.6245 45.9749   1
  -7   0   6 97.0185 59.1614  11
  -7   0   6 17.8486 33.5123   9
   7   0  -5 283.868 110.471   4
   7   0  -5 205.286 77.8587   1
  -7   0   5 315.082 100.273  11
  -7   0   5 389.528 110.933   9
   7   0  -5 284.586 98.8183   8
   7   0  -4 1842.79 269.031   4
  -7   0   4 1530.97 223.352  11
   7   0  -4 1654.47 220.796   1
  -7   0   4 1722.98 251.780   9
   7   0  -4 1968.47 250.814   8
  -7   0   3 1255.08 162.145   7
   7   0  -3 1244.27 224.839   4
  -7   0   3 1265.23 198.529  11
  -7   0   3 1396.66 231.832   9
   7   0  -3 1421.28 201.339   1
   7   0  -3 1253.98 195.887   8
  -7   0   2 1334.36 152.815   7
   7   0  -2 1465.90 201.491  11
  -7   0   2 1409.95 198.199  11
  -7   0   2 1923.23 269.958   9
   7   0  -2 1942.72 285.658   4
   7   0  -2 1702.37 241.513   8
   7   0  -2 1840.61 214.282   1
   7   0  -1 13327.4 609.127   1
  -7   0   1 11987.8 467.796   7
  -7   0   1 10450.0 570.812  11
   7   0  -1 9306.99 538.568  11
  -7   0   1 13502.4 746.908   9
   7   0  -1 12824.5 766.979   4
   7   0  -1 13885.9 743.343   8
   7   0   0 330.184 113.128   4
  -7   0   0 313.816 88.0634   2
   7   0   0 342.368 84.1416   1
   7   0   0 254.337 82.7410  11
  -7   0   0 120.671 72.8500   1
  -7   0   0 381.505 118.673   9
   7   0   0 587.888 151.418   8
   7   0   1 8631.30 428.604   1
  -7   0  -1 7922.24 567.461   9
   7   0   1 7327.21 606.456   4
   7   0   1 8530.91 598.226   8
  -7   0  -1 8500.20 489.356   2
   7   0   2 1074.82 235.112   4
  -7   0  -2 1082.58 165.802   2
   7   0   2 1087.57 134.836   1
  -7   0  -2 1057.43 232.705   5
  -7   0  -2 997.759 194.043   9
   7   0   2 1004.75 206.606   8
  -7   0  -3 2919.89 289.328   2
  -7   0  -3 2549.00 379.412   5
   7   0   3 2652.92 387.635   4
  -7   0  -3 1945.26 275.581   9
   7   0   3 2635.05 346.932   8
  -7   0  -4 796.708 153.267   2
  -7   0  -4 889.923 244.737   5
  -7   0  -4 464.248 127.776   9
   7   0   4 825.887 201.856   8
  -7   0  -5 366.270 139.518   5
  -7   0  -5 161.818 98.2716   9
   7   0   5 474.366 153.462   8
   7   1 -11 1046.36 238.281   1
   7   1 -11 852.843 217.914   4
  -7  -1  11 1029.16 244.385  11
  -7  -1  11 1059.71 218.242   9
   7   1 -10 1563.40 279.410   1
   7   1 -10 1442.27 287.255   4
  -7  -1  10 1626.15 299.674  11
  -7  -1  10 1518.13 260.331   9
  -7  -1   9 3684.21 447.656  11
   7   1  -9 3762.43 419.476   1
  -7  -1   9 3812.58 402.800   9
   7   1  -9 3319.27 422.895   4
   7   1  -8 1976.16 289.616   1
   7   1  -8 1654.30 285.584   4
  -7  -1   8 1693.74 286.552  11
  -7  -1   8 1747.85 277.446   9
  -7  -1   7 3202.36 378.541  11
   7   1  -7 3265.72 362.491   1
  -7  -1   7 2967.96 349.151   9
   7   1  -7 2849.37 364.945   4
   7   1  -6 1300.00 237.710   4
  -7  -1   6 1608.41 255.466  11
   7   1  -6 2029.20 277.219   1
  -7  -1   6 1748.33 260.798   9
   7   1  -5 282.092 91.7820   1
   7   1  -5 482.384 148.226   4
  -7  -1   5 309.562 110.552  11
  -7  -1   5 317.056 117.548   9
  -7  -1   4 25659.4 1112.63  11
  -7  -1   4 27707.3 1178.84   9
   7   1  -4 28130.5 1085.78   1
   7   1  -4 26072.6 1196.95   4
  -7  -1   3 3431.57 282.938   7
  -7  -1   3 4528.06 393.147  11
  -7  -1   3 4423.74 416.327   9
   7   1  -3 4399.09 355.522   1
   7   1  -3 4577.02 449.638   4
   7   1  -3 4618.41 411.276   8
   7   1  -2 675.017 167.786   4
  -7  -1   2 441.433 86.7444   7
  -7  -1   2 872.792 144.369   6
   7   1  -2 1078.64 160.246   1
  -7  -1   2 677.365 143.703  11
  -7  -1   2 880.574 183.188   9
   7   1  -2 892.973 177.413   8
   7   1  -1 39.0187 43.3558   4
  -7  -1   1 7.20400 18.2705   2
  -7  -1   1 87.2782 28.0331   7
  -7  -1   1 64.1942 36.6255   6
  -7  -1   1 22.9583 35.9286   1
   7   1  -1 117.440 53.2903   1
  -7  -1   1 63.5470 46.1355   9
   7   1  -1 28.8223 18.6495   8
   7   1   0 38.1671 46.2574   4
  -7  -1   0 89.4102 42.1119   2
  -7  -1   0 46.2067 29.8423   6
  -7  -1   0 44.8922 30.9004   1
   7   1   0 41.0202 51.3451  11
  -7  -1   0 100.444 71.3331   9
   7   1   0 37.2374 14.7180   8
   7   1   0 101.086 47.2393   1
   7   1   1 234.268 115.727   4
  -7  -1  -1 85.4325 29.2479   2
   7   1   1 53.0319 36.5297   1
  -7  -1  -1 160.032 71.0285   9
   7   1   1 213.651 94.4234   8
   7   1   2 336.958 142.908   4
  -7  -1  -2 212.374 97.1495   5
  -7  -1  -2 239.863 100.661   9
   7   1   2 197.418 99.9406   8
   7   1   3 170.426 94.8260   4
  -7  -1  -3 194.024 104.270   5
  -7  -1  -3 150.696 84.5139   9
   7   1   3 265.924 106.975   8
  -7  -1  -4-24.4015 69.9259   5
  -7  -1  -4-14.6349 28.4121   9
   7   1   4 119.506 85.3792   8
   7   2 -11 587.084 185.168   4
  -7  -2  11 481.403 175.274  11
   7   2 -11 308.985 113.859   1
   7   2 -10 617.416 179.795   4
  -7  -2  10 479.658 168.406  11
  -7  -2  10 485.709 158.477   9
   7   2 -10 247.102 87.7574   1
   7   2  -9 150.596 79.8557   4
  -7  -2   9 149.775 96.2990  11
  -7  -2   9 326.120 114.839   9
   7   2  -9 90.9465 73.2936   1
   7   2  -8 456.193 146.968   4
  -7  -2   8 499.041 166.536  11
   7   2  -8 374.881 83.5885  10
  -7  -2   8 569.992 149.141   9
   7   2  -8 414.440 147.753   1
   7   2  -7 1592.58 279.468   4
  -7  -2   7 1554.01 268.870  11
   7   2  -7 1766.87 195.233  10
  -7  -2   7 1822.22 277.359   9
   7   2  -7 1474.63 250.388   1
   7   2  -6 146.985 77.3470   1
   7   2  -6 225.011 88.7089   4
  -7  -2   6 103.074 57.8942  11
   7   2  -6 77.1728 28.1199  10
  -7  -2   6 241.447 92.1773   9
  -7  -2   5 2838.36 343.798  11
   7   2  -5 2683.77 265.355  10
   7   2  -5 2491.39 304.890   1
  -7  -2   5 2635.20 329.212   9
   7   2  -5 2482.44 343.171   4
   7   2  -4 576.023 138.980   1
   7   2  -4 608.745 171.018   4
  -7  -2   4 564.319 149.962  11
   7   2  -4 620.621 133.703  10
  -7  -2   4 340.302 110.698   9
   7   2  -3 1337.58 252.943   4
  -7  -2   3 1128.54 163.303   7
  -7  -2   3 1206.16 209.064  11
   7   2  -3 1542.54 218.368  10
   7   2  -3 1659.20 218.938   1
  -7  -2   3 1719.17 259.502   9
  -7  -2   2 1800.00 196.063   7
  -7  -2   2 2513.38 237.383   6
  -7  -2   2 2867.07 342.236   9
   7   2  -2 2880.84 269.772   1
   7   2  -2 2557.20 346.634   4
   7   2  -2 2892.89 347.450   8
   7   2  -1 510.781 171.675   4
  -7  -2   1 415.862 72.6201   2
  -7  -2   1 454.973 95.7182   6
   7   2  -1 488.124 104.605   1
  -7  -2   1 274.432 100.968   9
   7   2  -1 587.840 158.111   8
  -7  -2   0 3577.27 396.609   9
   7   2   0 3337.77 421.551   4
   7   2   0 3940.52 411.033   8
   7   2   0 3368.50 255.092   1
   7   2   1-54.0384 13.5210   4
  -7  -2  -1 38.7051 61.8490   9
   7   2   1 45.4842 45.2082   8
   7   2   2 1823.13 332.628   4
  -7  -2  -2 1955.82 345.467   5
  -7  -2  -2 1576.09 269.341   9
   7   2   2 1971.29 301.010   8
   7   2   3 974.437 253.429   4
  -7  -2  -3 1036.38 259.810   5
  -7  -2  -3 727.131 190.629   9
   7   2   3 1156.40 234.682   8
  -7  -2  -4 912.332 260.693   5
  -7  -2  -4 516.989 157.418   9
   7   2   4 852.680 195.955   8
   7   3 -10 786.475 217.947   4
  -7  -3  10 1279.66 277.548  11
  -7  -3  10 857.004 199.711   9
   7   3 -10 734.672 203.315   1
  -7  -3   9 2256.27 362.543  11
  -7  -3   9 2219.25 325.148   9
   7   3  -9 2175.21 329.646   1
   7   3  -9 2630.50 391.807   4
   7   3  -8-18.8178 10.8066   4
  -7  -3   8 112.214 91.1853  11
   7   3  -8 39.8278 41.0138  10
  -7  -3   8 11.7397 59.0055   9
   7   3  -8 102.707 60.8953   1
  -7  -3   7 3464.46 415.326  11
   7   3  -7 3069.42 374.281   1
   7   3  -7 3319.99 302.492  10
  -7  -3   7 3282.80 390.683   9
   7   3  -7 3005.04 401.530   4
  -7  -3   6 4403.33 461.960  11
   7   3  -6 3843.69 394.878   1
   7   3  -6 4065.03 350.163  10
  -7  -3   6 4711.68 450.383   9
   7   3  -6 3727.55 443.458   4
   7   3  -5 131.082 73.6919   4
  -7  -3   5 97.4256 58.6470  11
   7   3  -5 159.162 69.2453  10
  -7  -3   5 257.486 107.468   9
   7   3  -5 266.941 93.5682   1
   7   3  -4 911.207 174.279   1
   7   3  -4 994.800 224.681   4
  -7  -3   4 675.720 169.691  11
   7   3  -4 1008.95 183.084  10
  -7  -3   4 950.358 204.743   9
   7   3  -3 949.628 162.846   1
   7   3  -3 889.452 212.490   4
   7   3  -3 914.840 173.796  10
  -7  -3   3 863.783 194.523   9
   7   3  -2 1370.69 267.290   4
   7   3  -2 1190.53 212.840  10
   7   3  -2 1513.88 198.834   1
  -7  -3   2 1349.60 249.722   9
   7   3  -1 635.723 185.967   4
   7   3  -1 668.030 119.109   1
   7   3  -1 592.321 154.121  10
  -7  -3   1 862.038 195.613   9
   7   3  -1 748.152 182.662   8
   7   3   0 1018.61 249.073   4
  -7  -3   0 1231.77 246.774   9
   7   3   0 1077.73 135.335   1
   7   3   0 1045.41 227.841   8
   7   3   1 1944.89 345.557   4
  -7  -3  -1 1955.37 306.799   9
   7   3   1 1829.26 290.968   8
   7   3   2 1606.09 315.100   4
  -7  -3  -2 1582.28 327.324   5
  -7  -3  -2 1679.66 296.681   9
   7   3   2 1811.84 299.093   8
   7   3   3-65.6774 54.1665   4
  -7  -3  -3-50.1855 61.4326   5
  -7  -3  -3 101.319 85.5365   9
   7   3   3 44.2526 49.1904   8
   7   4  -9 113.928 64.1983   4
  -7  -4   9 377.643 147.924  11
   7   4  -9 308.707 130.579   1
  -7  -4   9 268.592 116.410   9
   7   4  -8 668.228 199.669   4
  -7  -4   8 546.847 167.510  11
   7   4  -8 453.295 160.313   1
  -7  -4   8 545.056 159.102   9
   7   4  -7 143.586 80.2602   4
  -7  -4   7 132.775 70.0068  11
   7   4  -7 208.487 84.4928  10
   7   4  -7 188.329 85.5421   1
  -7  -4   7 82.4562 74.0377   9
   7   4  -6 1927.73 271.455   7
   7   4  -6 2174.78 355.133   4
  -7  -4   6 2417.35 348.727  11
   7   4  -6 2467.24 292.801  10
  -7  -4   6 2569.55 346.297   9
   7   4  -6 1953.68 287.438   1
   7   4  -5 496.565 151.035   4
   7   4  -5 577.112 135.970   7
  -7  -4   5 743.067 181.700  11
   7   4  -5 673.241 156.717  10
  -7  -4   5 618.404 173.184   9
   7   4  -5 565.389 145.411   1
   7   4  -4 574.583 169.282   4
   7   4  -4 514.546 127.966   7
   7   4  -4 624.096 149.817  10
  -7  -4   4 501.273 154.058   9
   7   4  -4 509.537 136.992   1
   7   4  -3-44.8277 88.0367   4
   7   4  -3 6.76094 17.6749   7
   7   4  -3 31.1053 49.9470  10
  -7  -4   3-40.7598 67.7544   9
   7   4  -3-0.22139 42.8486   1
   7   4  -2 2405.50 375.966   4
   7   4  -2 2325.86 247.129   7
   7   4  -2 2694.51 337.655  10
  -7  -4   2 2643.78 365.559   9
   7   4  -2 2389.48 263.385   1
   7   4  -1 2865.50 262.481   7
   7   4  -1 3510.76 405.308  10
  -7  -4   1 3038.02 399.620   9
   7   4  -1 3305.67 275.954   1
   7   4  -1 3049.57 428.335   4
   7   4   0 885.217 236.040   4
   7   4   0 793.775 193.931  10
  -7  -4   0 767.833 201.776   9
   7   4   0 647.548 176.798   8
   7   4   1 175.569 103.741   4
  -7  -4  -1 321.395 137.268   9
   7   4   1 231.530 93.1631   8
   7   4   2 1015.49 268.411   4
  -7  -4  -2 1411.67 315.584   5
  -7  -4  -2 1028.72 238.388   9
   7   4   2 785.705 200.242   8
   7   5  -8 324.420 137.012   4
   7   5  -8 40.7639 49.7508   7
  -7  -5   8 216.420 96.2567  11
   7   5  -8 76.8347 39.8731   1
  -7  -5   8 324.594 125.163   9
   7   5  -7 35.0527 41.8268   4
   7   5  -7-3.42713 37.7922   7
  -7  -5   7 25.1909 4.69496  11
   7   5  -7 13.0951 44.2446   1
  -7  -5   7 57.7532 69.0740   9
   7   5  -6 300.444 131.161   4
   7   5  -6 131.624 84.2956   7
   7   5  -6 393.548 126.244  10
   7   5  -6 191.013 97.2499   1
  -7  -5   6 302.310 122.797   9
   7   5  -5 1158.28 256.077   4
   7   5  -5 955.423 190.189   7
   7   5  -5 1343.68 232.246  10
   7   5  -5 1004.69 204.095   1
  -7  -5   5 1598.97 284.184   9
   7   5  -4 772.285 213.078   4
   7   5  -4 777.777 162.901   7
   7   5  -4 969.624 205.443  10
  -7  -5   4 761.596 199.764   9
   7   5  -4 808.964 174.863   1
   7   5  -3 92.3037 83.2701   4
   7   5  -3 188.244 76.4719   7
   7   5  -3 87.1790 25.8034  10
  -7  -5   3 344.978 139.762   9
   7   5  -3 250.867 80.3165   1
   7   5  -2 192.889 81.9889   1
   7   5  -2 78.7217 18.1169   4
   7   5  -2 60.0748 50.9673   7
   7   5  -2 150.342 78.0642  10
  -7  -5   2 182.040 140.006   9
   7   5  -1 449.897 174.521   4
   7   5  -1 147.954 84.3541  10
  -7  -5   1 270.525 125.642   9
   7   5   0-67.0903 89.3723   4
   7   5   0 7.08757 56.7651  10
  -7  -5   0 129.945 79.8041   9
   7   5   0-62.0131 35.1516   8
   7   6  -4 358.201 144.767   4
   7   6  -4 344.432 110.866   7
   7   6  -4 129.169 64.5864   1
  -8   6   6 79.8161 15.6330  11
   8  -6  -6 738.191 205.080   1
  -8   6   5 93.4851 33.8311  11
   8  -6  -5 358.349 124.670   1
   8  -6  -4 116.742 73.6481   1
  -8   6   4 61.4865 65.0456  11
  -8   6   3 71.0630 53.4338   7
  -8   6   3-6.75868 49.5822  11
   8  -6  -3-6.66367 40.5719   1
   8  -6  -2 18.2246 46.2426   1
  -8   6   2 15.4061 25.3150   7
  -8   6   2-43.6021 57.4835   9
  -8   6   1 88.2610 68.1465   7
  -8   6   1-8.84078 62.8553   9
   8  -6  -1 28.9704 30.1006   1
  -8   6   0-20.6130 50.8622   9
  -8   6  -1 49.1155 39.9611   9
   8  -5  -7 229.098 104.511   4
   8  -5  -7 255.807 116.187   1
  -8   5   7 96.2509 75.8593  11
   8  -5  -6 53.7208 33.3494   4
   8  -5  -6-78.5122 58.0732   1
  -8   5   6 118.595 76.7386  11
   8  -5  -5 1133.06 196.540   4
   8  -5  -5 961.666 195.224   1
  -8   5   5 406.657 142.097  11
   8  -5  -4 166.141 72.9218   4
   8  -5  -4 208.647 90.2712   1
  -8   5   4 96.0550 57.9751   9
   8  -5  -3 593.563 152.523   1
   8  -5  -3 627.339 138.975   4
  -8   5   3 251.429 95.5757  11
  -8   5   3 555.097 160.428   9
   8  -5  -2 326.197 103.633   4
  -8   5   2 265.641 102.782   7
   8  -5  -2 379.015 130.858   1
  -8   5   2 89.2239 31.5918  11
  -8   5   2 177.567 71.3029   9
   8  -5  -1 141.380 63.8046   1
   8  -5  -1 133.847 50.8452   4
  -8   5   1 137.556 66.0906   7
  -8   5   1 134.037 75.2720   9
   8  -5   0 337.999 107.928   1
  -8   5   0 204.473 96.2456   9
  -8   5  -1 1086.94 237.773   2
  -8   5  -1 478.828 138.170   9
  -8   5  -2 4.09105 13.7313   2
  -8   5  -2 25.7248 57.7594   9
   8  -4  -8 207.528 102.647   4
  -8   4   8 320.175 117.611  11
   8  -4  -8 299.959 119.515   1
   8  -4  -7 68.0540 34.5788   1
   8  -4  -7 47.8705 60.0438   4
  -8   4   7 16.3320 25.4469  11
   8  -4  -6 1122.17 215.023   1
   8  -4  -6 827.059 177.076   4
  -8   4   6 714.422 181.989  11
  -8   4   6 1085.76 233.344   9
   8  -4  -5 413.314 106.106   8
   8  -4  -5 516.712 137.181   4
   8  -4  -5 483.636 141.590   1
  -8   4   5 210.987 95.8106  11
  -8   4   5 372.979 139.791   9
   8  -4  -4 1131.21 185.858   8
   8  -4  -4 853.204 174.668   4
   8  -4  -4 1002.69 208.471   1
  -8   4   4 477.031 130.614  11
  -8   4   4 1025.07 213.612   9
   8  -4  -3 1343.59 216.899   8
   8  -4  -3 1264.13 211.231   4
  -8   4   3 652.467 149.841  11
   8  -4  -3 1143.37 205.650   1
  -8   4   3 1266.21 234.291   9
   8  -4  -2 121.963 59.0748   4
  -8   4   2-11.1555 17.6989  11
  -8   4   2 35.0538 22.6331   9
   8  -4  -2 58.3390 43.5794   1
   8  -4  -1 496.179 127.525   4
  -8   4   1 440.439 101.988   7
   8  -4  -1 436.915 130.481   1
  -8   4   1 361.969 119.008   9
   8  -4   0 89.9390 30.1627   4
   8  -4   0 29.6431 41.6584   1
  -8   4   0 37.0145 48.3915   5
  -8   4   0 6.81802 12.4403   9
   8  -4   1 901.005 194.463   4
   8  -4   1 709.781 157.041   1
  -8   4  -1 735.790 186.167   2
  -8   4  -1 328.005 111.679   5
  -8   4  -1 534.705 148.892   9
  -8   4  -2 33.3921 42.9657   2
  -8   4  -2 60.1207 32.4795   5
  -8   4  -2 88.4884 57.4811   9
  -8   4  -3 70.8952 59.2654   5
  -8   4  -3 99.0871 70.6812   9
   8  -3  -9 160.525 108.274   4
  -8   3   9 53.2287 33.3867  11
   8  -3  -9 293.719 116.132   1
  -8   3   9 129.117 88.8814   9
   8  -3  -8 914.192 206.735   4
  -8   3   8 891.016 215.558  11
   8  -3  -8 1139.23 227.005   1
  -8   3   8 861.891 210.193   9
   8  -3  -7 433.591 139.720   4
  -8   3   7 342.224 125.221  11
   8  -3  -7 217.588 81.3227   1
  -8   3   7 324.931 123.576   9
   8  -3  -7 404.981 107.125   8
   8  -3  -6 944.203 199.050   4
  -8   3   6 789.439 180.317  11
  -8   3   6 1019.93 223.113   9
   8  -3  -6 956.356 196.166   1
   8  -3  -6 1040.79 172.822   8
   8  -3  -5 3057.45 345.409   1
  -8   3   5 2466.68 319.260  11
  -8   3   5 3080.21 381.739   9
   8  -3  -5 2829.30 341.001   4
   8  -3  -5 3285.50 324.405   8
   8  -3  -4 80.3422 50.3820   1
   8  -3  -4 283.854 104.885   4
  -8   3   4 67.8862 32.2539  11
  -8   3   4 280.803 115.882   9
   8  -3  -4 248.768 91.0321   8
   8  -3  -3 10.0643 13.0895   4
   8  -3  -3 35.5845 21.6639   1
  -8   3   3-16.1552 14.6370  11
  -8   3   3-9.43118 42.9627   9
   8  -3  -3-0.49889 21.1946   8
   8  -3  -2 2342.22 283.950   1
  -8   3   2 1388.39 199.390  11
  -8   3   2 2764.49 345.376   9
   8  -3  -2 2542.05 318.198   4
   8  -3  -2 2885.71 332.115   8
   8  -3  -1 231.482 96.6629   4
  -8   3   1 27.5238 24.1133  11
  -8   3   1 51.9853 44.2384   9
   8  -3  -1 44.6354 41.5765   1
   8  -3  -1 28.9470 48.3120   8
   8  -3   0 41.2054 18.5411   4
  -8   3   0 43.3673 46.2158   2
   8  -3   0 102.947 35.1656   1
  -8   3   0-32.3059 47.5153   5
  -8   3   0 81.9386 59.8245   9
   8  -3   0 44.9058 39.9621   8
   8  -3   1 2017.50 255.886   1
  -8   3  -1 1058.12 232.188   5
   8  -3   1 2533.35 356.104   4
  -8   3  -1 1692.51 270.055   9
  -8   3  -1 2776.81 346.308   2
   8  -3   1 2724.82 348.180   8
  -8   3  -2 150.178 94.5916   2
  -8   3  -2 133.981 93.6067   5
  -8   3  -2 94.5986 55.6390   9
  -8   3  -3 279.950 115.426   2
  -8   3  -3 61.9067 61.8473   5
  -8   3  -3 61.1276 55.8390   9
   8  -2 -10 126.979 83.5028   4
   8  -2 -10 75.0109 74.1141   1
  -8   2  10-10.5474 44.3267  11
  -8   2  10-22.9020 39.5246   9
   8  -2  -9-4.46767 20.8652   4
   8  -2  -9 77.7501 43.7426   1
  -8   2   9 51.1690 57.4157  11
  -8   2   9 65.0366 62.0253   9
   8  -2  -8 244.745 113.023   4
  -8   2   8 159.144 63.7684  11
   8  -2  -8 271.760 116.807   1
  -8   2   8 282.989 126.495   9
   8  -2  -8 211.827 76.4324   8
   8  -2  -7 747.013 191.791   4
  -8   2   7 706.338 173.257  11
   8  -2  -7 556.715 148.724   1
  -8   2   7 551.029 175.156   9
   8  -2  -7 717.998 145.786   8
   8  -2  -6 139.057 91.5173   4
  -8   2   6 119.921 73.3321  11
   8  -2  -6 326.587 113.992   1
  -8   2   6 243.642 102.574   9
   8  -2  -6 238.298 81.7364   8
   8  -2  -5 12.8641 60.1731   4
  -8   2   5-6.77957 47.6856  11
   8  -2  -5 17.1052 24.5709   1
  -8   2   5-2.74777 38.3777   9
   8  -2  -5-4.80931 18.9000   8
   8  -2  -4 715.047 175.706   4
  -8   2   4 722.959 167.558  11
  -8   2   4 1015.31 207.781   9
   8  -2  -4 948.316 181.969   1
   8  -2  -4 1114.95 197.469   8
   8  -2  -3 66.6014 50.2583   1
   8  -2  -3 91.6903 26.7428   4
  -8   2   3 89.1741 71.0234  11
  -8   2   3 120.714 75.7812   9
   8  -2  -3 102.165 58.9184   8
   8  -2  -2 8298.13 535.759   1
  -8   2   2 7607.54 580.683   9
   8  -2  -2 7237.74 572.192   4
   8  -2  -2 8171.15 568.239   8
   8  -2  -1 239.977 92.9967   4
  -8   2   1 121.410 58.8786  11
   8  -2  -1 565.141 128.980   1
  -8   2   1 210.851 98.9613   9
   8  -2  -1 157.948 84.4876   8
   8  -2   0 13.3349 39.5626   1
   8  -2   0 64.4199 54.9110   4
  -8   2   0 53.8307 57.4183   2
  -8   2   0-1.74909 42.3598   9
   8  -2   0-52.4189 49.9701   8
   8  -2   1 1858.34 306.648   4
  -8   2  -1 1658.83 250.202   2
   8  -2   1 1655.60 219.526   1
  -8   2  -1 1265.78 253.492   5
  -8   2  -1 1491.14 246.814   9
   8  -2   1 2059.32 301.947   8
   8  -2   2 2436.98 363.625   4
  -8   2  -2 1502.57 288.938   5
  -8   2  -2 1124.33 217.668   9
   8  -2   2 2398.56 339.837   8
  -8   2  -2 2706.59 331.445   2
   8  -2   3 131.447 115.721   8
  -8   2  -3 133.059 86.1670   2
  -8   2  -3 118.378 91.6282   5
  -8   2  -3 93.2812 63.3656   9
   8  -1 -10 1704.28 320.885   4
   8  -1 -10 1672.84 297.622   1
  -8   1  10 2039.16 347.103  11
  -8   1  10 1999.05 320.948   9
   8  -1  -9 729.901 205.759   4
   8  -1  -9 592.900 171.511   1
  -8   1   9 533.981 160.093  11
  -8   1   9 634.156 178.209   9
  -8   1   8 2243.64 340.292  11
  -8   1   8 2416.82 341.012   9
   8  -1  -8 2405.32 324.514   1
   8  -1  -8 2394.49 278.049   8
   8  -1  -8 2352.93 347.842   4
   8  -1  -7 297.718 139.496   4
   8  -1  -7 220.096 92.3233   1
  -8   1   7 185.474 91.1134  11
  -8   1   7 181.818 100.369   9
   8  -1  -7 217.254 77.9896   8
   8  -1  -6 132.939 55.4043   4
   8  -1  -6 132.039 80.8876   1
  -8   1   6 48.4009 52.4268  11
  -8   1   6-9.09216 41.7603   9
   8  -1  -6 102.918 58.0710   8
   8  -1  -5 1835.43 287.595   4
  -8   1   5 1439.89 240.700  11
   8  -1  -5 1411.27 228.411   1
  -8   1   5 1360.00 248.715   9
   8  -1  -5 1697.33 244.282   8
  -8   1   4 3655.51 371.031  11
  -8   1   4 4705.34 457.818   9
   8  -1  -4 4317.98 442.249   4
   8  -1  -4 4425.67 406.413   8
   8  -1  -4 4328.29 388.545   1
   8  -1  -3 1105.61 222.579   4
  -8   1   3 720.109 153.336  11
   8  -1  -3 1186.91 202.307   1
  -8   1   3 1294.38 237.422   9
   8  -1  -3 1227.03 213.377   8
   8  -1  -2 196.779 64.9582   1
   8  -1  -2 280.867 114.264   4
  -8   1   2 100.499 58.1344  11
  -8   1   2 232.565 96.4677   9
   8  -1  -2 192.845 102.760   8
   8  -1  -1 105.092 79.6915   4
   8  -1  -1 89.9014 64.8215   1
  -8   1   1 60.6616 58.2572  11
  -8   1   1 95.3843 53.4126   9
   8  -1  -1 66.5951 40.3101   8
   8  -1   0-65.1822 90.8784   4
  -8   1   0 94.2632 64.7319   2
   8  -1   0 2.96936 21.4515   1
  -8   1   0 16.2893 7.89784   9
   8  -1   0 66.1555 48.9160   8
   8  -1   1 66.6329 41.2623   4
  -8   1  -1 64.2773 48.8569   2
   8  -1   1 77.7396 44.1648   1
  -8   1  -1 166.472 80.5376   5
  -8   1  -1 88.9680 55.8315   9
   8  -1   1 100.071 53.8935   8
   8  -1   2 1003.30 236.279   4
   8  -1   2 791.671 133.598   1
  -8   1  -2 925.266 180.544   2
  -8   1  -2 690.997 203.527   5
  -8   1  -2 604.580 165.156   9
   8  -1   2 941.383 213.016   8
  -8   1  -3-60.5347 46.1896   2
  -8   1  -3 10.6888 40.2673   5
  -8   1  -3-14.4537 30.9059   9
   8  -1   3-20.7188 76.0823   8
   8   0 -10 3.33308 47.6577   4
   8   0 -10 90.7498 79.6046   1
  -8   0  10-8.09294 24.8833  11
  -8   0  10 91.5833 73.8942   9
   8   0  -9 193.330 109.080   4
   8   0  -9 152.188 104.576   1
  -8   0   9 64.7166 66.5452  11
  -8   0   9 64.8477 72.0792   9
   8   0  -8 539.131 167.065   4
   8   0  -8 468.626 146.092   1
  -8   0   8 428.230 144.448  11
  -8   0   8 562.606 166.271   9
   8   0  -8 641.683 148.660   8
   8   0  -7 534.408 164.140   4
   8   0  -7 505.496 147.608   1
  -8   0   7 374.496 128.956  11
  -8   0   7 432.057 141.907   9
   8   0  -7 342.228 111.992   8
   8   0  -6 84.0787 61.5542   4
   8   0  -6 80.3162 59.9558   1
  -8   0   6 92.2667 89.0337  11
  -8   0   6 52.8982 48.2263   9
   8   0  -6 79.6714 49.1154   8
   8   0  -5 105.704 107.449   4
   8   0  -5 79.7711 49.0651   1
  -8   0   5 6.54120 40.9412  11
  -8   0   5 101.917 69.9304   9
   8   0  -5-0.25923 13.9193   8
   8   0  -4 559.277 161.758   4
  -8   0   4 543.833 144.449  11
   8   0  -4 508.274 132.366   1
  -8   0   4 619.594 163.525   9
   8   0  -4 690.087 161.474   8
   8   0  -3-31.9866 18.4841   4
  -8   0   3-3.91395 23.2155  11
   8   0  -3 61.8987 34.1064   1
  -8   0   3 43.6246 35.0806   9
   8   0  -3 129.395 81.0752   8
  -8   0   2 2192.59 272.725  11
  -8   0   2 4677.20 461.011   9
   8   0  -2 4501.43 471.303   4
   8   0  -2 4526.66 441.888   8
   8   0  -2 4249.29 353.518   1
   8   0  -1 1111.09 173.704   1
   8   0  -1 1155.30 235.526   4
  -8   0   1 1363.00 196.979   2
  -8   0   1 1242.21 233.729   9
   8   0  -1 1369.27 238.194   8
   8   0   0 476.620 164.813   4
  -8   0   0 601.825 129.587   2
   8   0   0 553.772 113.765   1
  -8   0   0 467.566 141.260   9
   8   0   0 530.262 150.305   8
   8   0   1-11.8890 24.0415   4
   8   0   1-26.5821 19.7508   1
  -8   0  -1 86.1204 38.9169   2
  -8   0  -1 114.898 120.401   5
  -8   0  -1 83.9380 85.3430   9
   8   0   1-12.4388 17.9297   8
   8   0   2 831.266 222.818   4
  -8   0  -2 719.361 210.044   5
  -8   0  -2 507.895 152.119   9
   8   0   2 825.969 198.026   8
  -8   0  -3 1122.32 282.004   5
  -8   0  -3 510.011 154.857   9
   8   0   3 1085.12 249.303   8
   8   1 -10 2065.41 332.894   1
   8   1 -10 2052.52 368.626   4
  -8  -1  10 2750.39 418.744  11
  -8  -1  10 2068.07 323.640   9
   8   1  -9 344.818 129.582   1
   8   1  -9 364.787 162.049   4
  -8  -1   9 332.617 142.403  11
  -8  -1   9 533.490 163.582   9
   8   1  -8 887.190 205.047   1
   8   1  -8 996.898 234.400   4
  -8  -1   8 806.168 204.416  11
  -8  -1   8 815.021 197.081   9
   8   1  -7 165.846 77.7324   1
   8   1  -7 156.950 131.436   4
  -8  -1   7 192.251 108.690  11
  -8  -1   7 73.4354 66.5674   9
   8   1  -6 271.910 125.402   4
   8   1  -6 188.402 86.2896   1
  -8  -1   6 314.301 122.266  11
  -8  -1   6 236.047 108.530   9
   8   1  -5 664.905 179.575   4
   8   1  -5 754.044 163.182   1
  -8  -1   5 485.686 143.362  11
  -8  -1   5 481.619 151.907   9
   8   1  -5 528.625 146.087   8
   8   1  -4 230.062 100.017   4
   8   1  -4 174.675 81.5593   1
  -8  -1   4 166.101 67.6562  11
  -8  -1   4 229.380 110.348   9
   8   1  -4 266.653 105.534   8
   8   1  -3 742.785 192.528   4
   8   1  -3 717.438 145.792   1
  -8  -1   3 433.241 135.662  11
  -8  -1   3 801.710 190.887   9
   8   1  -3 626.188 161.818   8
   8   1  -2 1367.59 268.776   4
  -8  -1   2 607.866 147.145  11
   8   1  -2 1234.39 185.300   1
  -8  -1   2 1173.11 232.310   9
   8   1  -2 1143.75 227.838   8
   8   1  -1 88.0644 24.3772   4
  -8  -1   1 68.4684 69.6296   9
   8   1  -1 2.62181 8.67412   1
   8   1  -1-3.14324 46.1161   8
   8   1   0 2892.18 257.060   1
  -8  -1   0 2429.18 344.566   9
   8   1   0 2701.90 402.151   4
   8   1   0 3131.35 383.769   8
   8   1   1 646.633 199.290   4
  -8  -1  -1 414.967 144.056   5
  -8  -1  -1 424.746 143.595   9
   8   1   1 522.771 153.288   8
   8   1   2 1094.06 267.462   4
  -8  -1  -2 1316.56 305.051   5
  -8  -1  -2 909.536 208.500   9
   8   1   2 890.105 208.294   8
   8   2  -9 341.465 133.215   1
   8   2  -9 384.635 146.951   4
  -8  -2   9 464.082 161.231  11
  -8  -2   9 461.471 149.641   9
   8   2  -8 39.4893 35.9786   1
   8   2  -8 25.5901 46.4496   4
  -8  -2   8-26.7616 10.1229  11
  -8  -2   8-60.8386 64.6854   9
   8   2  -7 205.426 84.2854   1
   8   2  -7 186.523 110.576   4
  -8  -2   7 248.161 106.575  11
   8   2  -7 261.300 80.6588  10
  -8  -2   7 286.210 125.274   9
   8   2  -6 67.3888 48.4384   1
   8   2  -6 223.275 108.238   4
  -8  -2   6 27.3093 38.1057  11
   8   2  -6 111.193 57.0344  10
  -8  -2   6 235.104 106.794   9
   8   2  -5-78.0891 49.6625   4
   8   2  -5 1.60293 17.0806   1
  -8  -2   5-11.2062 5.29309  11
  -8  -2   5 8.92991 25.6066   9
   8   2  -4 975.808 230.429   4
   8   2  -4 961.510 187.258   1
  -8  -2   4 719.734 168.126  11
  -8  -2   4 1018.74 221.042   9
   8   2  -3 54.3709 70.2387   4
   8   2  -3-11.9158 55.0002   1
  -8  -2   3 88.8649 83.5808  11
  -8  -2   3 43.6736 34.8144   9
   8   2  -3 66.7496 55.6870   8
   8   2  -2 1956.51 339.990   4
  -8  -2   2 2421.91 350.027   9
   8   2  -2 2292.03 252.038   1
   8   2  -2 2402.43 339.080   8
   8   2  -1 1966.78 339.425   4
  -8  -2   1 2107.31 326.350   9
   8   2  -1 2044.16 320.904   8
   8   2  -1 1855.14 212.350   1
   8   2   0 628.969 192.304   4
  -8  -2   0 390.772 141.784   9
   8   2   0 388.645 143.360   8
   8   2   1 906.592 246.813   4
  -8  -2  -1 713.099 223.344   5
  -8  -2  -1 981.542 226.317   9
   8   2   1 910.703 218.546   8
   8   2   2 528.179 168.597   4
  -8  -2  -2 635.020 211.558   5
  -8  -2  -2 470.575 146.910   9
   8   2   2 643.987 197.408   8
   8   3  -8 122.998 81.3678   4
  -8  -3   8 4.90748 76.7176  11
  -8  -3   8 298.702 131.794   9
   8   3  -8 52.0760 90.4397   1
   8   3  -7 941.410 212.426   1
   8   3  -7 1071.78 251.531   4
  -8  -3   7 1072.41 243.047  11
   8   3  -7 1350.08 201.930  10
  -8  -3   7 1545.91 287.524   9
   8   3  -6 69.9185 57.2326   1
   8   3  -6 78.8596 56.6314   4
  -8  -3   6 9.91602 40.0142  11
   8   3  -6 64.0248 54.5055  10
  -8  -3   6 154.747 86.2130   9
  -8  -3   5 3451.76 418.703  11
   8   3  -5 4157.37 392.047  10
  -8  -3   5 5159.59 514.760   9
   8   3  -5 4053.33 410.730   1
   8   3  -5 4773.74 538.010   4
   8   3  -4 224.576 120.481   4
   8   3  -4 250.066 92.2758   1
  -8  -3   4 314.228 113.425  11
   8   3  -4 248.655 94.8974  10
  -8  -3   4 354.506 139.914   9
   8   3  -3 1050.04 247.444   4
   8   3  -3 901.882 167.349   1
   8   3  -3 917.797 195.382  10
  -8  -3   3 1002.32 234.581   9
   8   3  -3 1123.55 237.712   8
   8   3  -2 1069.06 265.656   4
   8   3  -2 919.366 159.172   1
  -8  -3   2 1080.95 241.947   9
   8   3  -2 1354.34 267.960   8
   8   3  -1 373.481 149.358   4
  -8  -3   1 384.049 141.974   9
   8   3  -1 212.631 106.867   8
   8   3   0 117.318 95.5816   4
  -8  -3   0-19.7548 60.8260   9
   8   3   0-66.7634 95.2722   8
   8   4  -7 105.104 103.436   4
  -8  -4   7-52.2216 30.5947  11
   8   4  -7 38.9029 40.4738  10
  -8  -4   7-15.5752 43.8921   9
   8   4  -7 6.19086 94.3965   1
   8   4  -6 84.2388 81.6332   4
  -8  -4   6 104.622 83.5590  11
   8   4  -6 125.616 75.3620  10
  -8  -4   6 178.255 100.898   9
   8   4  -6 104.857 60.4532   1
   8   4  -5 54.7433 49.9023   1
   8   4  -5-89.1967 78.7714   4
   8   4  -5-71.2991 50.4857  10
  -8  -4   5-51.9159 63.9495   9
   8   4  -4 564.399 134.335   1
   8   4  -4 667.855 207.846   4
   8   4  -4 661.729 169.290  10
  -8  -4   4 772.953 205.619   9
   8   4  -3 1270.12 299.418   4
   8   4  -3 996.661 178.456   1
   8   4  -3 1242.91 234.882  10
  -8  -4   3 1324.30 270.443   9
   8   4  -2 62.6086 13.6553   4
   8   4  -2 71.1032 58.3863  10
  -8  -4   2 70.4993 71.7334   9
   8   4  -2 86.2845 75.7192   8
   8   4  -1 2123.08 389.503   4
  -8  -4   1 2284.64 369.056   9
   8   4  -1 2312.68 361.910   8
  -9   5   4 22.9701 63.0473  11
   9  -5  -4-18.9624 34.3431   1
  -9   5   4 41.5883 30.7046   9
   9  -5  -3 182.950 107.597   1
  -9   5   3 157.951 109.022   9
   9  -5  -2 1005.87 211.085   1
  -9   5   2 810.938 197.965   9
   9  -4  -6 484.954 154.485   4
   9  -4  -6 587.297 171.696   1
  -9   4   6 182.353 95.7945  11
  -9   4   6 380.260 142.121   9
   9  -4  -5 152.215 80.5301   8
   9  -4  -5 3.16775 36.9958   4
   9  -4  -5 65.2565 46.8493   1
  -9   4   5-11.7503 37.8966  11
  -9   4   5 58.8874 67.4942   9
   9  -4  -4 1339.19 225.826   8
   9  -4  -4 1014.81 207.971   4
   9  -4  -4 909.638 199.176   1
  -9   4   4 137.090 71.1023  11
  -9   4   4 1184.30 244.250   9
   9  -4  -3 1712.71 265.993   8
   9  -4  -3 1334.01 243.065   4
   9  -4  -3 1453.22 247.175   1
  -9   4   3 1963.83 309.617   9
   9  -4  -2 343.665 132.627   1
   9  -4  -2 191.538 96.0851   4
  -9   4   2 120.470 74.6662   9
   9  -4  -1 812.744 194.841   4
   9  -4  -1 590.612 154.402   1
  -9   4   1 661.832 176.010   9
   9  -4   0 369.713 121.725   1
  -9   4   0 243.793 108.382   9
   9  -3  -7 206.024 111.940   4
  -9   3   7 115.087 60.1236  11
  -9   3   7 435.790 151.733   9
   9  -3  -7 396.458 129.802   1
   9  -3  -6 1004.66 216.543   4
  -9   3   6 241.270 113.024  11
  -9   3   6 735.768 202.771   9
   9  -3  -6 609.080 158.906   1
   9  -3  -6 842.079 168.216   8
   9  -3  -5 388.307 121.032   1
   9  -3  -5 523.012 157.468   4
  -9   3   5 120.114 80.7130  11
  -9   3   5 389.855 143.509   9
   9  -3  -5 468.061 134.701   8
   9  -3  -4 1233.11 231.189   4
   9  -3  -4 1272.86 221.901   1
  -9   3   4 550.789 152.929  11
  -9   3   4 1596.49 289.162   9
   9  -3  -4 1382.81 240.278   8
   9  -3  -3 1269.85 244.171   4
   9  -3  -3 1000.08 192.133   1
  -9   3   3 388.278 118.217  11
  -9   3   3 1452.88 262.257   9
   9  -3  -3 1242.31 228.091   8
   9  -3  -2 358.288 133.663   4
   9  -3  -2 203.490 84.3936   1
  -9   3   2 170.561 93.2777   9
   9  -3  -2 243.267 88.7226   8
   9  -3  -1 232.037 104.424   4
   9  -3  -1 108.797 68.1358   1
  -9   3   1 90.1814 76.5709   9
   9  -3  -1 179.982 71.7582   8
   9  -3   0 67.7621 52.8351   4
  -9   3   0 66.1780 1.39980   2
  -9   3   0-21.7958 39.7752   5
  -9   3   0 81.8421 49.0018   9
   9  -3   0 57.8557 55.6040   1
   9  -3   0 153.797 88.9912   8
   9  -2  -8 451.602 156.754   4
  -9   2   8 415.971 155.850  11
   9  -2  -8 587.315 172.760   1
  -9   2   8 718.964 198.199   9
   9  -2  -7-36.9450 50.6849   4
  -9   2   7-0.71642 20.4845  11
   9  -2  -7 55.0602 50.7165   1
  -9   2   7 53.7895 62.0864   9
   9  -2  -7 14.4504 26.3012   8
   9  -2  -6 79.4093 38.2670   4
  -9   2   6-0.32764 18.3490  11
   9  -2  -6-62.6771 83.8094   1
  -9   2   6 18.3501 79.0992   9
   9  -2  -6 79.5167 61.9245   8
   9  -2  -5 661.882 185.876   4
  -9   2   5 144.534 71.8384  11
  -9   2   5 539.913 170.204   9
   9  -2  -5 674.522 165.026   1
   9  -2  -5 566.403 140.799   8
   9  -2  -4 132.062 68.6160   1
   9  -2  -4 2.80177 34.2488   4
  -9   2   4 48.4794 48.4920  11
  -9   2   4 203.625 106.759   9
   9  -2  -4 53.6325 34.5553   8
   9  -2  -3 373.074 135.933   4
   9  -2  -3 473.965 141.431   1
  -9   2   3 212.599 106.849  11
  -9   2   3 497.008 153.253   9
   9  -2  -3 456.865 131.909   8
   9  -2  -2 849.213 211.204   4
   9  -2  -2 696.870 160.077   1
  -9   2   2 771.474 195.403   9
   9  -2  -2 1041.27 214.366   8
   9  -2  -1 941.877 218.824   4
  -9   2   1 813.851 196.075   9
   9  -2  -1 632.210 152.384   1
   9  -2  -1 953.355 216.973   8
   9  -2   0 141.222 91.4930   4
  -9   2   0 207.561 96.3862   2
   9  -2   0 92.3404 64.2641   1
  -9   2   0-5.63287 76.0570   5
  -9   2   0 76.4185 26.0988   9
   9  -2   0 206.240 102.483   8
   9  -2   1 33.2197 28.8178   1
  -9   2  -1 83.4611 73.7149   5
  -9   2  -1-81.3290 61.6579   9
   9  -1  -8-5.73458 0.09202   4
   9  -1  -8 14.3225 38.1748   1
  -9   1   8-41.3855 57.2774  11
  -9   1   8 57.2125 69.2814   9
   9  -1  -8-34.1520 54.1155   8
   9  -1  -7 293.935 132.606   4
  -9   1   7 126.004 64.8120  11
   9  -1  -7 253.751 104.216   1
  -9   1   7 344.141 143.986   9
   9  -1  -7 144.407 70.4216   8
   9  -1  -6 511.059 170.989   4
  -9   1   6 281.720 108.719  11
   9  -1  -6 440.274 133.592   1
  -9   1   6 605.415 181.527   9
   9  -1  -6 536.740 148.537   8
   9  -1  -5 59.1285 26.0419   4
  -9   1   5-12.8233 32.4644  11
   9  -1  -5-47.8790 41.3181   1
  -9   1   5 49.1674 26.8207   9
   9  -1  -5-43.4052 56.3814   8
   9  -1  -4 2159.09 339.138   4
  -9   1   4 902.135 196.781  11
  -9   1   4 2468.17 353.492   9
   9  -1  -4 2276.08 311.798   8
   9  -1  -4 2019.99 278.620   1
   9  -1  -3 240.471 85.8703   1
   9  -1  -3 509.293 163.003   4
  -9   1   3 181.770 92.1776  11
  -9   1   3 394.189 137.347   9
   9  -1  -3 422.519 128.283   8
   9  -1  -2 49.6718 57.5523   4
   9  -1  -2 33.1396 42.5326   1
  -9   1   2-7.48861 30.8887  11
  -9   1   2 50.6080 49.2212   9
   9  -1  -2-23.6372 56.6873   8
   9  -1  -1 105.070 71.5131   4
  -9   1   1 53.4247 51.8911   2
   9  -1  -1 41.7558 44.5479   1
  -9   1   1-12.8274 41.1748   9
   9  -1  -1-17.8850 21.5848   8
   9  -1   0 3158.42 310.624   1
  -9   1   0 2600.61 367.831   9
   9  -1   0 3164.46 429.602   4
   9  -1   0 3320.08 413.160   8
  -9   1  -1 4.10650 92.5445   5
  -9   1  -1-38.7298 20.2651   9
   9   0  -8 35.6946 23.8153   4
   9   0  -8 64.2473 43.0603   1
  -9   0   8 68.4030 91.1992  11
  -9   0   8 50.8223 50.6545   9
   9   0  -8 54.2073 28.2260   8
   9   0  -7 274.239 123.801   4
   9   0  -7 168.352 66.2126   1
  -9   0   7 134.238 81.5238  11
  -9   0   7 256.475 104.269   9
   9   0  -7 72.7564 37.1939   8
   9   0  -6 228.934 120.161   4
   9   0  -6 130.082 78.2220   1
  -9   0   6 89.4790 61.0355  11
  -9   0   6 90.2127 102.333   9
   9   0  -6 115.320 73.3048   8
   9   0  -5 67.5708 20.0396   4
  -9   0   5 62.7351 43.2091  11
   9   0  -5 28.9380 49.6988   1
  -9   0   5 154.506 90.5313   9
   9   0  -5 45.1379 51.4311   8
   9   0  -4 95.9325 80.8590   4
  -9   0   4-6.83678 54.8659  11
   9   0  -4 41.4949 27.7730   1
  -9   0   4 107.355 87.8858   9
   9   0  -4 50.2237 45.2999   8
   9   0  -3 348.945 141.269   4
  -9   0   3 140.732 61.8034  11
   9   0  -3 256.989 90.7354   1
  -9   0   3 488.096 160.139   9
   9   0  -3 431.100 149.880   8
   9   0  -2 1529.20 219.694   1
   9   0  -2 1771.95 326.808   4
  -9   0   2 471.465 128.602  11
  -9   0   2 1559.55 284.304   9
   9   0  -2 2014.41 311.120   8
   9   0  -1 64.3322 52.5631   4
   9   0  -1 103.887 63.2663   1
  -9   0   1 115.289 79.6064   9
   9   0  -1 139.381 74.6991   8
   9   0   0 182.442 131.182   4
  -9   0   0 134.548 83.7507   9
   9   0   0 139.740 84.3860   8
   9   1  -8 178.994 113.987   4
   9   1  -8 61.8799 53.3635   1
  -9  -1   8 35.2006 33.4911  11
   9   1  -7-21.0909 65.5146   4
   9   1  -7 53.3319 44.3337   1
  -9  -1   7 85.0681 11.9176  11
  -9  -1   7 88.2941 70.9971   9
   9   1  -7 94.5070 75.8920   8
   9   1  -6 981.603 242.287   4
   9   1  -6 807.237 176.199   1
  -9  -1   6 486.357 152.988  11
  -9  -1   6 1004.84 233.573   9
   9   1  -6 1279.56 240.270   8
   9   1  -5 420.740 172.149   4
   9   1  -5 369.518 113.283   1
  -9  -1   5 252.423 115.344  11
  -9  -1   5 542.822 182.048   9
   9   1  -5 494.290 150.110   8
   9   1  -4 1372.02 297.943   4
  -9  -1   4 490.508 159.846  11
   9   1  -4 774.870 180.320   1
  -9  -1   4 1190.55 257.834   9
   9   1  -4 1260.91 245.544   8
   9   1  -3 782.290 218.277   4
  -9  -1   3 303.515 126.737  11
   9   1  -3 784.313 158.291   1
  -9  -1   3 812.827 206.151   9
   9   1  -3 807.295 192.232   8
   9   1  -2 1907.54 245.317   1
   9   1  -2 2207.13 373.568   4
  -9  -1   2 2264.02 345.518   9
   9   1  -2 2551.00 359.776   8
   9   1  -1 2401.94 404.301   4
  -9  -1   1 2591.45 381.026   9
   9   1  -1 2779.27 386.678   8
   9   2  -7 341.199 168.281   4
   9   2  -7 81.6606 78.1546   1
  -9  -2   7 156.720 101.575  11
   9   2  -6 298.408 144.186   4
   9   2  -6 181.747 76.6293   1
  -9  -2   6 116.318 60.9461  11
  -9  -2   6 352.901 140.019   9
   9   2  -6 389.937 144.223   8
   9   2  -5 117.497 86.3524   4
   9   2  -5 128.517 69.3605   1
  -9  -2   5 61.9293 49.0049  11
  -9  -2   5 101.653 75.1282   9
   9   2  -5 212.158 118.293   8
   9   2  -4 480.728 180.874   4
   9   2  -4 478.808 130.041   1
  -9  -2   4 293.852 120.086  11
  -9  -2   4 869.441 218.956   9
   9   2  -4 791.301 207.357   8
   9   2  -3 45.1943 53.3162   4
   9   2  -3 148.205 65.4121   1
  -9  -2   3 17.8376 62.6150   9
   9   2  -3 72.6978 58.5209   8
   9   2  -2 1629.98 337.934   4
  -9  -2   2 1669.79 313.005   9
   9   2  -2 1732.82 310.823   8
   0   0   0    0.00    0.00   0
TITL 2017Uniandes132_Mo_2509 in P-1
REM P-1 (#2 in standard setting)
CELL 0.71073   7.658092   7.806926  10.010692  94.4884 108.6569  97.5674
ZERR    2.00   0.000865   0.000803   0.001223   0.0091   0.0106   0.0089
LATT  1
SFAC C H N O F S
UNIT 20.00 16.00 8.00 2.00 2.00 2.00
TREF
HKLF 4
END
;
_shelx_hkl_checksum              19293
_shelx_res_file
;
TITL 2017Uniandes132_Mo_2509 in P-1
    shelxs_2.res
    created by SHELXL-2016/6 at 18:25:32 on 04-Oct-2017
CELL  0.71073   7.65991   7.80787  10.01398  94.48669 108.66759  97.56519
ZERR    2 0.0009 0.0008 0.0012 0.0092 0.0106 0.0090
LATT   1
SFAC C H N O F S
UNIT 20 18 8 2 2 2
LIST 4 ! automatically inserted. Change 6 to 4 for CHECKCIF!!
L.S. 10
FMAP 2
PLAN 10
TEMP 25
SIZE 0.38 0.34 0.22
ACTA
CONF
HTAB
BOND $H
HTAB N7 O9
EQIV $1 x-1, y, z
HTAB C14B O9_$1
SIMU 0.001 C10A C10B C11A C12B C13A C13B C14A C14B C15A C15B
DELU 0.001 C10A C10B C11A C12B C13A C13B C14A C14B C15A C15B
DFIX 0.86 0.001 N7 H1 N7 H2
SADI 0.0001 C10A C8 C10B C8
DANG 2.377 0.001 C8 C11B
DANG 2.533 0.001 C8 C11A
DANG 2.641 0.001 C8 C15B
DANG 2.484 0.001 C8 C15A
WGHT    0.056300    0.421600
FVAR       7.43574   0.63275
S1    6    1.025152    0.259412    1.098522    11.00000    0.05036    0.06891 =
         0.03362    0.00806    0.00984    0.00070
H1    2    1.372756    0.476108    0.705301    11.00000   -1.20000
H2    2    1.495730    0.518196    0.858711    11.00000   -1.20000
PART 1
SAME C10A C11A C12A C13A C14A C15A
SAME C10B C11B C12B C13B C14B C15B
C10A  1    0.819128    0.234622    0.511472    21.00000    0.03225    0.04373 =
         0.03371    0.00642    0.01085    0.00401
C11A  1    0.766730    0.107307    0.394417    21.00000    0.03266    0.04474 =
         0.03460    0.00526    0.01066    0.00435
C12A  1    0.584578    0.048135    0.312806    21.00000    0.03285    0.06219 =
         0.03623    0.00241    0.00241    0.00449
AFIX  43
H12A  2    0.554375   -0.037357    0.235294    21.00000   -1.20000
AFIX   0
C13A  1    0.446369    0.118425    0.348263    21.00000    0.03315    0.04695 =
         0.03670    0.00311    0.00897    0.00490
AFIX  43
H13A  2    0.321606    0.079988    0.294066    21.00000   -1.20000
AFIX   0
C14A  1    0.492506    0.246279    0.464451    21.00000    0.03275    0.04647 =
         0.03601    0.00366    0.00996    0.00439
AFIX  43
H14A  2    0.399095    0.295157    0.486343    21.00000   -1.20000
AFIX   0
C15A  1    0.678100    0.300517    0.547418    21.00000    0.03248    0.04540 =
         0.03483    0.00475    0.01043    0.00389
AFIX  43
H15A  2    0.708397    0.381670    0.627779    21.00000   -1.20000
AFIX   0
F1A   5    0.912077    0.050370    0.361543    21.00000    0.05177    0.06319 =
         0.04466   -0.00487    0.01548    0.01823
PART 2
C10B  1    0.817471    0.237668    0.514364   -21.00000    0.03238    0.04412 =
         0.03399    0.00599    0.01075    0.00403
C11B  1    0.798108    0.116836    0.399442   -21.00000    0.02080    0.05444 =
         0.03358    0.00888    0.00788   -0.00143
AFIX  43
H11B  2    0.903845    0.091889    0.380400   -21.00000   -1.20000
AFIX   0
C12B  1    0.622037    0.032392    0.312189   -21.00000    0.03290    0.04620 =
         0.03583    0.00377    0.00979    0.00489
AFIX  43
H12B  2    0.612361   -0.055916    0.241001   -21.00000   -1.20000
AFIX   0
C13B  1    0.464368    0.076698    0.329217   -21.00000    0.03308    0.04657 =
         0.03624    0.00297    0.00955    0.00495
AFIX  43
H13B  2    0.347918    0.018856    0.269960   -21.00000   -1.20000
AFIX   0
C14B  1    0.476476    0.206472    0.433541   -21.00000    0.03268    0.04621 =
         0.03580    0.00354    0.00999    0.00444
AFIX  43
H14B  2    0.368949    0.241264    0.442838   -21.00000   -1.20000
AFIX   0
C15B  1    0.651937    0.285553    0.525445   -21.00000    0.03261    0.04532 =
         0.03484    0.00470    0.01044    0.00409
F1B   5    0.686272    0.416329    0.635983   -21.00000    0.05619    0.06171 =
         0.05406   -0.00051    0.02478    0.01526
PART 0
N3    3    0.965335    0.260501    0.817645    11.00000    0.03656    0.04708 =
         0.03377    0.00424    0.01186   -0.00193
N4    3    1.076291    0.327134    0.740146    11.00000    0.03191    0.04791 =
         0.03389    0.00125    0.01030   -0.00325
C5    1    1.252915    0.399811    0.834322    11.00000    0.03223    0.04754 =
         0.04178    0.00032    0.00768   -0.00026
N6    3    1.258078    0.383597    0.964900    11.00000    0.03554    0.05717 =
         0.03960    0.00206    0.00654   -0.00081
N7    3    1.390754    0.474417    0.794442    11.00000    0.03487    0.08925 =
         0.04448    0.00003    0.00882   -0.01582
C2    1    1.080727    0.300353    0.947500    11.00000    0.03616    0.04581 =
         0.03769    0.00470    0.00900    0.00208
C8    1    1.017846    0.310171    0.592868    11.00000    0.03416    0.04087 =
         0.03751    0.00496    0.01366    0.00544
O9    4    1.128662    0.354915    0.533421    11.00000    0.03730    0.06756 =
         0.04353    0.00640    0.01844    0.00118
C18   1    0.783010    0.164260    1.018599    11.00000    0.05313    0.07429 =
         0.04903    0.00588    0.02200   -0.00621
AFIX 137
H18A  2    0.724733    0.160853    1.090360    11.00000   -1.50000
H18B  2    0.773136    0.047986    0.974666    11.00000   -1.50000
H18C  2    0.721750    0.233088    0.948057    11.00000   -1.50000
REM #####
REM #####
AFIX   0
HKLF 4
REM  2017Uniandes132_Mo_2509 in P-1
REM R1 =  0.0424 for    2107 Fo > 4sig(Fo)  and  0.0491 for all    2450 data
REM    225 parameters refined using    159 restraints
END
WGHT      0.0428      0.2517
REM Instructions for potential hydrogen bonds
HTAB N7 O9
EQIV $2 -x+3, -y+1, -z+2
HTAB N7 N6_$2
HTAB C14B O9_$1
REM Highest difference peak  0.273,  deepest hole -0.218,  1-sigma level  0.044
Q1    1   0.8892  0.2646  0.5423  11.00000  0.05    0.27
Q2    1   1.0340  0.2924  1.0056  11.00000  0.05    0.23
Q3    1   1.1592  0.3635  0.7842  11.00000  0.05    0.19
Q4    1   1.1744  0.3530  0.9683  11.00000  0.05    0.18
Q5    1   1.0615  0.2949  0.6788  11.00000  0.05    0.16
Q6    1   1.0053  0.2709  0.8771  11.00000  0.05    0.15
Q7    1   1.3585  0.4206  1.0169  11.00000  0.05    0.14
Q8    1   0.6961  0.2537  1.0619  11.00000  0.05    0.14
Q9    1   0.5082  0.1369  0.3052  11.00000  0.05    0.14
Q10   1   1.2742  0.3603  0.9090  11.00000  0.05    0.14
;
_shelx_res_checksum              73527
loop_
_space_group_symop_operation_xyz
'x, y, z'
'-x, -y, -z'
loop_
_atom_site_type_symbol
_atom_site_label
_atom_site_fract_x
_atom_site_fract_y
_atom_site_fract_z
_atom_site_U_iso_or_equiv
_atom_site_adp_type
_atom_site_calc_flag
_atom_site_occupancy
_atom_site_disorder_assembly
_atom_site_disorder_group
S S1 1.02515(8) 0.25941(8) 1.09852(5) 0.05278(19) Uani d 1 . .
H H1 1.373(3) 0.476(3) 0.7053(6) 0.063 Uiso d 1 . .
H H2 1.4957(16) 0.518(3) 0.8587(18) 0.063 Uiso d 1 . .
C C10A 0.8191(3) 0.2346(10) 0.5115(8) 0.0367(4) Uani d 0.633(3) A 1
C C11A 0.7667(7) 0.1073(11) 0.3944(7) 0.0377(5) Uani d 0.633(3) A 1
C C12A 0.5846(5) 0.0481(9) 0.3128(7) 0.0465(12) Uani d 0.633(3) A 1
H H12A 0.554375 -0.037357 0.235294 0.056 Uiso calc 0.633(3) A 1
C C13A 0.4464(5) 0.1184(5) 0.3483(4) 0.0399(5) Uani d 0.633(3) A 1
H H13A 0.321606 0.079988 0.294066 0.048 Uiso calc 0.633(3) A 1
C C14A 0.4925(5) 0.2463(5) 0.4645(4) 0.0391(4) Uani d 0.633(3) A 1
H H14A 0.399095 0.295157 0.486343 0.047 Uiso calc 0.633(3) A 1
C C15A 0.6781(2) 0.3005(7) 0.5474(5) 0.0380(4) Uani d 0.633(3) A 1
H H15A 0.708397 0.381670 0.627779 0.046 Uiso calc 0.633(3) A 1
F F1A 0.9121(3) 0.0504(3) 0.3615(2) 0.0532(6) Uani d 0.633(3) A 1
C C10B 0.8175(4) 0.2377(16) 0.5144(14) 0.0371(4) Uani d 0.367(3) A 2
C C11B 0.7981(9) 0.1168(17) 0.3994(10) 0.0371(16) Uani d 0.367(3) A 2
H H11B 0.903845 0.091889 0.380400 0.045 Uiso calc 0.367(3) A 2
C C12B 0.6220(13) 0.0324(17) 0.3122(13) 0.0390(5) Uani d 0.367(3) A 2
H H12B 0.612361 -0.055916 0.241001 0.047 Uiso calc 0.367(3) A 2
C C13B 0.4644(11) 0.0767(9) 0.3292(7) 0.0394(5) Uani d 0.367(3) A 2
H H13B 0.347918 0.018856 0.269960 0.047 Uiso calc 0.367(3) A 2
C C14B 0.4765(9) 0.2065(9) 0.4335(7) 0.0389(4) Uani d 0.367(3) A 2
H H14B 0.368949 0.241264 0.442838 0.047 Uiso calc 0.367(3) A 2
C C15B 0.6519(3) 0.2856(12) 0.5254(8) 0.0380(4) Uani d 0.367(3) A 2
F F1B 0.6863(5) 0.4163(5) 0.6360(4) 0.0557(11) Uani d 0.367(3) A 2
N N3 0.9653(2) 0.2605(2) 0.81764(16) 0.0400(4) Uani d 1 . .
N N4 1.0763(2) 0.3271(2) 0.74015(16) 0.0392(4) Uani d 1 . .
C C5 1.2529(3) 0.3998(3) 0.8343(2) 0.0426(4) Uani d 1 . .
N N6 1.2581(2) 0.3836(2) 0.96490(18) 0.0466(4) Uani d 1 . .
N N7 1.3908(3) 0.4744(3) 0.7944(2) 0.0603(5) Uani d 1 . .
C C2 1.0807(3) 0.3004(3) 0.9475(2) 0.0412(4) Uani d 1 . .
C C8 1.01785(18) 0.3102(2) 0.59287(17) 0.0372(4) Uani d 1 . .
O O9 1.12866(18) 0.3549(2) 0.53342(15) 0.0490(4) Uani d 1 . .
C C18 0.7830(3) 0.1643(3) 1.0186(2) 0.0593(6) Uani d 1 . .
H H18A 0.724733 0.160853 1.090360 0.089 Uiso calc 1 . .
H H18B 0.773136 0.047986 0.974666 0.089 Uiso calc 1 . .
H H18C 0.721750 0.233088 0.948057 0.089 Uiso calc 1 . .
loop_
_atom_site_aniso_label
_atom_site_aniso_U_11
_atom_site_aniso_U_22
_atom_site_aniso_U_33
_atom_site_aniso_U_12
_atom_site_aniso_U_13
_atom_site_aniso_U_23
S1 0.0504(3) 0.0689(4) 0.0336(3) 0.0007(3) 0.0098(2) 0.0081(2)
C10A 0.0323(6) 0.0437(8) 0.0337(8) 0.0040(6) 0.0108(6) 0.0064(6)
C11A 0.0327(8) 0.0447(10) 0.0346(9) 0.0044(8) 0.0107(7) 0.0053(7)
C12A 0.033(2) 0.062(3) 0.0362(16) 0.004(2) 0.002(2) 0.0024(16)
C13A 0.0332(7) 0.0470(10) 0.0367(9) 0.0049(7) 0.0090(7) 0.0031(7)
C14A 0.0328(6) 0.0465(9) 0.0360(9) 0.0044(7) 0.0100(6) 0.0037(7)
C15A 0.0325(6) 0.0454(9) 0.0348(9) 0.0039(6) 0.0104(6) 0.0048(7)
F1A 0.0518(12) 0.0632(13) 0.0447(11) 0.0182(9) 0.0155(9) -0.0049(9)
C10B 0.0324(7) 0.0441(9) 0.0340(8) 0.0040(7) 0.0107(6) 0.0060(7)
C11B 0.021(3) 0.054(4) 0.034(3) -0.001(3) 0.008(3) 0.009(2)
C12B 0.0329(8) 0.0462(10) 0.0358(10) 0.0049(8) 0.0098(8) 0.0038(8)
C13B 0.0331(7) 0.0466(10) 0.0362(9) 0.0049(7) 0.0095(7) 0.0030(8)
C14B 0.0327(6) 0.0462(10) 0.0358(9) 0.0044(7) 0.0100(6) 0.0035(7)
C15B 0.0326(6) 0.0453(9) 0.0348(9) 0.0041(7) 0.0104(6) 0.0047(7)
F1B 0.056(2) 0.062(2) 0.054(2) 0.0153(16) 0.0248(16) -0.0005(16)
N3 0.0366(8) 0.0471(9) 0.0338(8) -0.0019(6) 0.0119(6) 0.0042(6)
N4 0.0319(8) 0.0479(9) 0.0339(8) -0.0032(6) 0.0103(6) 0.0012(6)
C5 0.0322(9) 0.0475(11) 0.0418(10) -0.0003(8) 0.0077(8) 0.0003(8)
N6 0.0355(8) 0.0572(10) 0.0396(9) -0.0008(7) 0.0065(7) 0.0021(7)
N7 0.0349(9) 0.0893(15) 0.0445(10) -0.0158(9) 0.0088(8) 0.0000(10)
C2 0.0362(9) 0.0458(10) 0.0377(10) 0.0021(8) 0.0090(8) 0.0047(8)
C8 0.0342(9) 0.0409(9) 0.0375(9) 0.0054(7) 0.0137(7) 0.0050(7)
O9 0.0373(7) 0.0676(10) 0.0435(8) 0.0012(6) 0.0184(6) 0.0064(7)
C18 0.0531(13) 0.0743(16) 0.0490(12) -0.0062(11) 0.0220(10) 0.0059(11)
loop_
_atom_type_symbol
_atom_type_description
_atom_type_scat_dispersion_real
_atom_type_scat_dispersion_imag
_atom_type_scat_source
C C 0.0033 0.0016 'International Tables Vol C Tables 4.2.6.8 and 6.1.1.4'
H H 0.0000 0.0000 'International Tables Vol C Tables 4.2.6.8 and 6.1.1.4'
N N 0.0061 0.0033 'International Tables Vol C Tables 4.2.6.8 and 6.1.1.4'
O O 0.0106 0.0060 'International Tables Vol C Tables 4.2.6.8 and 6.1.1.4'
F F 0.0171 0.0103 'International Tables Vol C Tables 4.2.6.8 and 6.1.1.4'
S S 0.1246 0.1234 'International Tables Vol C Tables 4.2.6.8 and 6.1.1.4'
loop_
_geom_angle_atom_site_label_1
_geom_angle_atom_site_label_2
_geom_angle_atom_site_label_3
_geom_angle
C2 S1 C18 100.21(10)
C15A C10A C11A 117.7(3)
C15A C10A C8 119.2(3)
C11A C10A C8 123.0(4)
C12A C11A F1A 121.8(4)
C12A C11A C10A 123.0(5)
F1A C11A C10A 115.2(3)
C11A C12A C13A 118.4(5)
C11A C12A H12A 120.8
C13A C12A H12A 120.8
C12A C13A C14A 120.5(4)
C12A C13A H13A 119.7
C14A C13A H13A 119.7
C15A C14A C13A 119.8(3)
C15A C14A H14A 120.1
C13A C14A H14A 120.1
C14A C15A C10A 120.5(3)
C14A C15A H15A 119.7
C10A C15A H15A 119.7
C11B C10B C15B 116.3(5)
C11B C10B C8 111.4(5)
C15B C10B C8 131.7(6)
C10B C11B C12B 120.7(7)
C10B C11B H11B 119.6
C12B C11B H11B 119.6
C13B C12B C11B 121.1(10)
C13B C12B H12B 119.4
C11B C12B H12B 119.4
C12B C13B C14B 120.1(7)
C12B C13B H13B 120.0
C14B C13B H13B 120.0
C13B C14B C15B 119.0(6)
C13B C14B H14B 120.5
C15B C14B H14B 120.5
F1B C15B C14B 125.7(4)
F1B C15B C10B 112.1(4)
C14B C15B C10B 122.2(6)
C2 N3 N4 101.36(14)
C8 N4 C5 127.12(15)
C8 N4 N3 123.84(14)
C5 N4 N3 108.91(15)
N6 C5 N7 126.71(18)
N6 C5 N4 109.42(16)
N7 C5 N4 123.86(18)
C5 N6 C2 103.34(16)
C5 N7 H1 119.0(17)
C5 N7 H2 118.8(17)
H1 N7 H2 122(2)
N3 C2 N6 116.95(17)
N3 C2 S1 124.73(15)
N6 C2 S1 118.31(14)
O9 C8 N4 119.78(14)
O9 C8 C10B 122.9(6)
N4 C8 C10B 117.4(6)
O9 C8 C10A 121.7(4)
N4 C8 C10A 118.5(4)
S1 C18 H18A 109.5
S1 C18 H18B 109.5
H18A C18 H18B 109.5
S1 C18 H18C 109.5
H18A C18 H18C 109.5
H18B C18 H18C 109.5
loop_
_geom_bond_atom_site_label_1
_geom_bond_atom_site_label_2
_geom_bond_distance
S1 C2 1.739(2)
S1 C18 1.796(2)
C10A C15A 1.388(5)
C10A C11A 1.391(5)
C10A C8 1.491(2)
C11A C12A 1.367(6)
C11A F1A 1.374(6)
C12A C13A 1.382(5)
C12A H12A 0.9300
C13A C14A 1.392(4)
C13A H13A 0.9300
C14A C15A 1.386(4)
C14A H14A 0.9300
C15A H15A 0.9300
C10B C11B 1.386(9)
C10B C15B 1.403(7)
C10B C8 1.491(2)
C11B C12B 1.392(10)
C11B H11B 0.9300
C12B C13B 1.356(9)
C12B H12B 0.9300
C13B C14B 1.369(7)
C13B H13B 0.9300
C14B C15B 1.391(6)
C14B H14B 0.9300
C15B F1B 1.380(8)
N3 C2 1.303(2)
N3 N4 1.402(2)
N4 C8 1.387(2)
N4 C5 1.393(2)
C5 N6 1.312(3)
C5 N7 1.326(3)
N6 C2 1.377(2)
N7 H1 0.8600(11)
N7 H2 0.8600(11)
C8 O9 1.214(2)
C18 H18A 0.9600
C18 H18B 0.9600
C18 H18C 0.9600
loop_
_geom_hbond_atom_site_label_D
_geom_hbond_atom_site_label_H
_geom_hbond_atom_site_label_A
_geom_hbond_site_symmetry_A
_geom_hbond_distance_DH
_geom_hbond_distance_HA
_geom_hbond_distance_DA
_geom_hbond_angle_DHA
N7 H1 O9 . 0.8600(11) 2.14(2) 2.738(2) 126(2)
C15A H15A N3 . 0.93 2.60 2.960(5) 104
N7 H2 N6 2_867 0.859(17) 2.131(17) 2.987(3) 173.6(17)
C14A H14A O9 1_455 0.93 2.36 3.275(4) 167
loop_
_geom_torsion_atom_site_label_1
_geom_torsion_atom_site_label_2
_geom_torsion_atom_site_label_3
_geom_torsion_atom_site_label_4
_geom_torsion
C15A C10A C11A C12A 1.4(15)
C8 C10A C11A C12A -174.5(8)
C15A C10A C11A F1A 178.3(8)
C8 C10A C11A F1A 2.4(14)
F1A C11A C12A C13A -176.6(7)
C10A C11A C12A C13A 0.1(14)
C11A C12A C13A C14A 0.0(9)
C12A C13A C14A C15A -1.6(7)
C13A C14A C15A C10A 3.2(8)
C11A C10A C15A C14A -3.1(12)
C8 C10A C15A C14A 173.0(6)
C15B C10B C11B C12B -8(2)
C8 C10B C11B C12B 179.6(13)
C10B C11B C12B C13B 6(2)
C11B C12B C13B C14B 0.0(17)
C12B C13B C14B C15B -3.1(12)
C13B C14B C15B F1B -179.4(8)
C13B C14B C15B C10B 0.4(15)
C11B C10B C15B F1B -175.0(13)
C8 C10B C15B F1B -5(2)
C11B C10B C15B C14B 5(2)
C8 C10B C15B C14B 175.4(12)
C2 N3 N4 C8 177.04(17)
C2 N3 N4 C5 0.9(2)
C8 N4 C5 N6 -176.37(18)
N3 N4 C5 N6 -0.4(2)
C8 N4 C5 N7 4.2(3)
N3 N4 C5 N7 -179.8(2)
N7 C5 N6 C2 179.1(2)
N4 C5 N6 C2 -0.3(2)
N4 N3 C2 N6 -1.2(2)
N4 N3 C2 S1 177.63(14)
C5 N6 C2 N3 1.0(2)
C5 N6 C2 S1 -177.93(15)
C18 S1 C2 N3 -1.9(2)
C18 S1 C2 N6 176.86(17)
C5 N4 C8 O9 3.3(3)
N3 N4 C8 O9 -172.11(17)
C5 N4 C8 C10B -176.2(6)
N3 N4 C8 C10B 8.4(6)
C5 N4 C8 C10A -177.5(4)
N3 N4 C8 C10A 7.1(4)
C11B C10B C8 O9 44.0(16)
C15B C10B C8 O9 -126.6(15)
C11B C10B C8 N4 -136.5(11)
C15B C10B C8 N4 52.9(19)
C15A C10A C8 O9 -130.7(7)
C11A C10A C8 O9 45.2(11)
C15A C10A C8 N4 50.1(9)
C11A C10A C8 N4 -134.0(8)

_cod_database_fobs_code 2021525
