#------------------------------------------------------------------------------
#$Date: 2019-07-10 07:33:04 +0300 (Wed, 10 Jul 2019) $
#$Revision: 216917 $
#$URL: file:///home/coder/svn-repositories/cod/cif/2/02/17/2021714.cif $
#------------------------------------------------------------------------------
#
# This file is available in the Crystallography Open Database (COD),
# http://www.crystallography.net/. The original data for this entry
# were provided by IUCr Journals, http://journals.iucr.org/.
#
# The file may be used within the scientific community so long as
# proper attribution is given to the journal article from which the
# data were obtained.
#
data_2021714
loop_
_publ_author_name
'Priya Vadhana, K. T.'
'Parveen, S.'
'Ushadevi, B.'
'Selvakumar, R.'
'Sangeetha, S.'
'Vairam, S.'
_publ_section_title
;
 New barium, strontium and strontium-doped barium squarates: synthesis,
 crystal structures and DNA/BSA binding, antioxidant and <i>in vitro</i>
 cytotoxicity studies
;
_journal_coeditor_code           LF3099
_journal_issue                   8
_journal_name_full               'Acta Crystallographica Section C'
_journal_page_first
;
;
_journal_paper_doi               10.1107/S2053229619009082
_journal_volume                  75
_journal_year                    2019
_chemical_formula_iupac          '[Sr (C4 O4) (H2 O)2], H2 O'
_chemical_formula_moiety         'C4 H4 O6 Sr, H2 O'
_chemical_formula_sum            'C4 H6 O7 Sr'
_chemical_formula_weight         253.71
_chemical_name_systematic
;
Poly[[diaqua(\m-1,2-dioxocyclobut-3-ene-1,2-diolato)strontium] monohydrate]
;
_space_group_crystal_system      triclinic
_space_group_IT_number           2
_space_group_name_Hall           '-P 1'
_space_group_name_H-M_alt        'P -1'
_symmetry_space_group_name_Hall  '-P 1'
_symmetry_space_group_name_H-M   'P -1'
_atom_sites_solution_hydrogens   difmap
_audit_creation_method           SHELXL-2014/7
_cell_angle_alpha                101.270(2)
_cell_angle_beta                 94.952(2)
_cell_angle_gamma                111.578(2)
_cell_formula_units_Z            2
_cell_length_a                   6.0313(2)
_cell_length_b                   7.7677(3)
_cell_length_c                   8.6375(3)
_cell_measurement_reflns_used    9995
_cell_measurement_temperature    296(2)
_cell_measurement_theta_max      36.09
_cell_measurement_theta_min      2.90
_cell_volume                     363.45(2)
_computing_cell_refinement
;
APEX2 and SAINT (Bruker, 2004)
;
_computing_data_collection
;
APEX2 (Bruker, 2004)
;
_computing_data_reduction
;
SAINT and XPREP (Bruker, 2004)
;
_computing_molecular_graphics
;
ORTEP-3 (Farrugia, 2012) and Mercury (Macrae <i>et al.</i>,
2008)
;
_computing_publication_material
;
SHELXL2014 (Sheldrick, 2015b)
;
_computing_structure_refinement
;
SHELXL2014 (Sheldrick, 2015b)
;
_computing_structure_solution
;
SHELXT2014 (Sheldrick, 2015a)
;
_diffrn_ambient_temperature      296(2)
_diffrn_measured_fraction_theta_full 1.000
_diffrn_measured_fraction_theta_max 0.990
_diffrn_measurement_device_type  'Bruker Kappa APEXII CCD'
_diffrn_measurement_method       '\w and \f scan'
_diffrn_radiation_monochromator  graphite
_diffrn_radiation_source         'fine-focus sealed tube'
_diffrn_radiation_type           MoK\a
_diffrn_radiation_wavelength     0.71073
_diffrn_reflns_av_R_equivalents  0.0464
_diffrn_reflns_av_unetI/netI     0.0283
_diffrn_reflns_limit_h_max       9
_diffrn_reflns_limit_h_min       -9
_diffrn_reflns_limit_k_max       11
_diffrn_reflns_limit_k_min       -11
_diffrn_reflns_limit_l_max       13
_diffrn_reflns_limit_l_min       -13
_diffrn_reflns_number            14971
_diffrn_reflns_theta_full        25.242
_diffrn_reflns_theta_max         32.499
_diffrn_reflns_theta_min         2.441
_exptl_absorpt_coefficient_mu    7.416
_exptl_absorpt_correction_T_max  0.7480
_exptl_absorpt_correction_T_min  0.4990
_exptl_absorpt_correction_type   multi-scan
_exptl_absorpt_process_details
;
(SADABS; Bruker, 2004)
;
_exptl_crystal_colour            colourless
_exptl_crystal_density_diffrn    2.318
_exptl_crystal_description       block
_exptl_crystal_F_000             248
_exptl_crystal_size_max          0.150
_exptl_crystal_size_mid          0.100
_exptl_crystal_size_min          0.050
_refine_diff_density_max         0.494
_refine_diff_density_min         -0.399
_refine_ls_extinction_coef       0.068(2)
_refine_ls_extinction_expression Fc^*^=kFc[1+0.001xFc^2^\l^3^/sin(2\q)]^-1/4^
_refine_ls_extinction_method
;
SHELXL2014 (Sheldrick, 2015b)
;
_refine_ls_goodness_of_fit_ref   1.069
_refine_ls_hydrogen_treatment    refall
_refine_ls_matrix_type           full
_refine_ls_number_parameters     134
_refine_ls_number_reflns         2604
_refine_ls_number_restraints     9
_refine_ls_restrained_S_all      1.069
_refine_ls_R_factor_all          0.0215
_refine_ls_R_factor_gt           0.0181
_refine_ls_shift/su_max          0.004
_refine_ls_shift/su_mean         0.000
_refine_ls_structure_factor_coef Fsqd
_refine_ls_weighting_details
'w=1/[\s^2^(Fo^2^)+(0.0179P)^2^+0.0871P] where P=(Fo^2^+2Fc^2^)/3'
_refine_ls_weighting_scheme      calc
_refine_ls_wR_factor_gt          0.0424
_refine_ls_wR_factor_ref         0.0433
_reflns_number_gt                2440
_reflns_number_total             2604
_reflns_threshold_expression     'I > 2\s(I)'
_cod_data_source_file            lf3099sup1.cif
_cod_data_source_block           SRSANEW30-4
_cod_database_code               2021714
_shelx_space_group_comment
;
The symmetry employed for this shelxl refinement is uniquely defined
by the following loop, which should always be used as a source of
symmetry information in preference to the above space-group names.
They are only intended as comments.
;
_shelx_estimated_absorpt_t_min   0.403
_shelx_estimated_absorpt_t_max   0.708
_shelx_hkl_file
;
  -1   0   0    0.89    0.19
  -1   0   0    1.18    0.22
  -1   0   0    1.11    0.20
  -1   0   0    1.77    0.22
  -1   0   0    1.27    0.18
  -1   0   0    1.23    0.20
  -1   0   0    0.84    0.18
   1   0   0    0.96    0.27
   1   0   0    2.27    0.23
   1   0   0    1.18    0.16
   1   0   0    1.32    0.19
   1   0   0    0.97    0.19
   1   0   0    1.11    0.19
   1   0   0    0.89    0.18
  -2   0   0  127.64    6.14
  -2   0   0  112.80    6.93
  -2   0   0  127.51    6.87
  -2   0   0  131.32    6.01
  -2   0   0  116.24    6.02
  -2   0   0  130.11    7.19
  -2   0   0  122.26    6.16
   2   0   0  119.43    6.00
   2   0   0  118.55    6.89
   2   0   0  111.49    6.14
   2   0   0  131.32    6.61
   2   0   0  117.96    7.18
   2   0   0  132.26    6.94
   2   0   0  130.35    6.17
   2   0   0  127.78    6.83
   2   0   0  124.98    6.01
  -3   0   0  656.45   32.46
  -3   0   0  708.83   33.23
  -3   0   0  712.93   37.39
   3   0   0  647.27   32.43
   3   0   0  690.48   33.20
   3   0   0  610.15   38.76
   3   0   0  679.63   37.01
   3   0   0  731.23   35.98
  -4   0   0   24.40    2.00
  -4   0   0   24.29    1.71
  -4   0   0   24.71    1.76
   4   0   0   26.40    1.71
   4   0   0   26.68    1.49
   4   0   0   22.03    1.90
   4   0   0   25.79    1.67
   4   0   0   26.91    1.71
  -5   0   0   35.28    2.40
  -5   0   0   40.74    2.49
  -5   0   0   35.94    2.84
   5   0   0   38.68    2.73
   5   0   0   38.17    2.42
   5   0   0   41.47    2.36
   5   0   0   33.76    2.35
  -6   0   0  159.57    9.48
  -6   0   0  157.49    8.34
  -6   0   0  164.35    8.21
  -6   0   0  173.92    9.41
   6   0   0  150.15    9.02
   6   0   0  161.47    9.66
   6   0   0  152.51    8.30
  -7   0   0    6.68    2.05
  -7   0   0    4.88    1.70
  -7   0   0    6.54    1.74
   7   0   0    5.08    1.67
   7   0   0    3.44    1.67
   7   0   0    5.74    1.66
  -8   0   0   54.83    3.66
  -8   0   0   56.02    4.20
   8  -1   0   28.18    2.40
   8  -1   0   30.06    2.56
  -8   1   0   29.75    2.89
  -8   1   0   35.36    3.02
  -8   1   0   28.42    2.88
   7  -1   0   93.08    5.71
   7  -1   0   78.00    4.54
   7  -1   0   81.24    4.82
  -7   1   0   83.84    4.80
  -7   1   0   82.44    4.69
  -7   1   0   75.60    5.46
   6  -1   0    0.06    1.17
   6  -1   0   -1.30    1.36
   6  -1   0    1.36    0.67
   6  -1   0   -0.65    1.16
  -6   1   0   -1.56    1.20
  -6   1   0    1.40    1.24
  -6   1   0   -0.49    1.39
  -6   1   0   -0.16    0.86
   5  -1   0  115.52    6.04
   5  -1   0  101.76    6.60
   5  -1   0  103.00    5.63
   5  -1   0  117.69    5.82
  -5   1   0  101.60    5.48
  -5   1   0  103.78    6.27
  -5   1   0  100.62    6.39
  -5   1   0  104.59    5.60
   4  -1   0  325.71   20.68
   4  -1   0  353.26   17.70
   4  -1   0  383.93   19.62
   4  -1   0  341.17   17.28
  -4   1   0  352.04   17.33
  -4   1   0  377.37   19.98
  -4   1   0  372.26   20.24
  -4   1   0  364.51   17.74
   3  -1   0   92.19    4.48
   3  -1   0   97.62    4.89
   3  -1   0   80.76    4.37
   3  -1   0   82.66    5.28
  -3   1   0   85.53    5.06
  -3   1   0   87.36    4.40
  -3   1   0   88.07    5.07
  -3   1   0   86.71    4.52
   2  -1   0  475.05   26.44
   2  -1   0  519.17   23.32
   2  -1   0  513.36   26.84
   2  -1   0  438.49   25.01
   2  -1   0  491.62   23.86
   2  -1   0  460.39   23.84
   2  -1   0  409.11   27.85
  -2   1   0  509.82   27.87
  -2   1   0  476.66   23.31
  -2   1   0  508.53   25.04
  -2   1   0  432.58   26.80
  -2   1   0  518.87   26.45
  -2   1   0  537.18   23.31
  -2   1   0  541.40   23.86
  -2   1   0  489.70   27.34
  -2   1   0  492.69   23.86
   1  -1   0   10.13    0.83
   1  -1   0   10.88    0.72
   1  -1   0   10.48    0.66
   1  -1   0   10.79    0.68
   1  -1   0   11.25    0.76
   1  -1   0   10.08    0.66
   1  -1   0   10.85    0.70
   1  -1   0   10.85    0.71
  -1   1   0    9.78    0.76
  -1   1   0   12.25    0.68
  -1   1   0   10.92    0.82
  -1   1   0   11.46    0.71
  -1   1   0    9.77    0.69
  -1   1   0   11.10    0.66
  -1   1   0   10.28    0.71
  -1   1   0   10.04    0.67
   0  -1   0   90.52    4.27
   0  -1   0   87.72    4.85
   0  -1   0   89.26    4.37
   0  -1   0   90.50    4.38
   0  -1   0   88.26    4.27
   0  -1   0   84.96    5.09
   0  -1   0   86.18    4.78
   0   1   0   86.83    4.85
   0   1   0   85.59    4.78
   0   1   0   94.33    4.37
   0   1   0   95.55    4.27
   0   1   0   90.52    5.09
   0   1   0   91.63    4.38
   0   1   0   88.46    4.27
  -1  -1   0  506.40   28.70
  -1  -1   0  538.99   24.46
  -1  -1   0  499.60   24.47
  -1  -1   0  485.95   26.73
  -1  -1   0  509.23   27.17
  -1  -1   0  559.47   23.90
  -1  -1   0  522.27   23.91
   1   1   0  447.73   27.17
   1   1   0  522.09   23.90
   1   1   0  465.44   28.66
   1   1   0  449.62   26.57
   1   1   0  534.64   27.53
   1   1   0  554.12   24.47
   1   1   0  483.50   24.46
   1   1   0  450.47   23.89
  -2  -1   0   27.73    1.68
  -2  -1   0   30.02    1.73
  -2  -1   0   33.61    1.63
  -2  -1   0   28.86    1.64
  -2  -1   0   33.19    1.90
  -2  -1   0   27.85    1.93
   2   1   0   32.55    1.70
   2   1   0   32.30    1.74
   2   1   0   28.53    1.66
   2   1   0   30.86    1.63
   2   1   0   26.63    1.97
   2   1   0   31.60    1.88
  -3  -1   0  172.19    9.09
  -3  -1   0  146.16    7.66
  -3  -1   0  153.26    8.86
  -3  -1   0  157.71    7.84
   3   1   0  156.69    9.07
   3   1   0  162.83    8.38
   3   1   0  158.75    8.74
   3   1   0  140.73    7.79
   3   1   0  158.65    7.63
  -4  -1   0  308.48   14.71
  -4  -1   0  265.30   16.55
  -4  -1   0  288.80   14.36
   4   1   0  311.93   15.77
   4   1   0  306.79   14.33
   4   1   0  288.50   17.04
   4   1   0  301.13   16.36
  -5  -1   0   53.78    3.20
  -5  -1   0   53.97    3.27
  -5  -1   0   49.79    3.71
   5   1   0   58.08    3.57
   5   1   0   57.08    3.15
   5   1   0   57.10    3.49
   5   1   0   54.39    3.12
  -6  -1   0   65.15    4.41
  -6  -1   0   66.57    3.98
  -6  -1   0   67.27    3.92
   6   1   0   68.12    3.96
   6   1   0   65.15    3.80
   6   1   0   67.55    4.10
   6   1   0   64.50    4.28
  -7  -1   0   42.70    2.96
  -7  -1   0   49.44    3.94
  -7  -1   0   42.51    3.29
   7   1   0   45.20    3.01
  -9   2   0   42.01    3.24
   8  -2   0    1.06    1.30
   8  -2   0   -1.33    1.51
   8  -2   0    0.93    1.26
  -8   2   0   -0.19    1.86
  -8   2   0   -0.90    1.78
   7  -2   0   83.86    5.26
   7  -2   0   77.97    4.45
   7  -2   0   70.57    4.28
  -7   2   0   70.11    4.93
  -7   2   0   68.42    4.23
  -7   2   0   68.69    4.39
   6  -2   0   22.41    2.11
   6  -2   0   25.99    2.65
   6  -2   0   26.06    2.09
   6  -2   0   28.09    1.71
  -6   2   0   23.67    2.14
  -6   2   0   28.73    1.96
  -6   2   0   23.26    2.45
  -6   2   0   24.72    2.16
   5  -2   0   85.01    4.52
   5  -2   0   81.88    4.47
   5  -2   0   89.67    5.18
   5  -2   0   80.71    4.28
   5  -2   0   77.48    4.29
  -5   2   0   77.65    4.93
  -5   2   0   79.74    4.77
  -5   2   0   68.84    4.28
  -5   2   0   80.75    4.26
   4  -2   0  136.12    7.07
   4  -2   0  130.23    7.76
   4  -2   0  129.77    6.40
   4  -2   0  124.24    6.53
  -4   2   0  128.79    7.39
  -4   2   0  126.62    6.45
  -4   2   0  124.84    7.38
  -4   2   0  125.52    6.56
   3  -2   0  155.35    9.57
   3  -2   0  159.73    7.97
   3  -2   0  166.79    8.17
  -3   2   0  167.70    8.56
  -3   2   0  184.19    9.01
  -3   2   0  156.42    7.98
  -3   2   0  163.11    9.28
  -3   2   0  150.52    8.16
   2  -2   0  852.02   42.23
   2  -2   0  892.58   48.47
   2  -2   0  855.90   47.49
   2  -2   0  910.37   42.24
   2  -2   0  782.49   41.24
   2  -2   0  838.71   45.89
   2  -2   0  944.32   41.29
  -2   2   0  887.87   41.28
  -2   2   0  954.60   42.24
  -2   2   0  827.03   42.23
  -2   2   0  779.02   48.46
  -2   2   0  823.93   44.48
  -2   2   0  864.48   49.32
  -2   2   0  921.08   47.00
   1  -2   0  409.96   25.66
   1  -2   0  447.26   25.26
   1  -2   0  458.46   21.97
   1  -2   0  420.69   21.46
   1  -2   0  488.35   21.48
   1  -2   0  455.42   21.97
   1  -2   0  418.05   23.92
  -1   2   0  437.08   25.67
  -1   2   0  445.84   21.47
  -1   2   0  453.65   23.91
  -1   2   0  487.18   21.98
  -1   2   0  467.80   21.46
  -1   2   0  476.16   25.28
  -1   2   0  439.67   21.97
   0  -2   0   10.47    0.62
   0  -2   0   10.58    0.62
   0  -2   0    9.56    0.67
   0  -2   0    9.88    0.61
   0  -2   0   10.75    0.71
   0  -2   0   10.59    0.61
   0  -2   0   10.23    0.76
   0   2   0   10.57    0.72
   0   2   0    9.77    0.62
   0   2   0   11.16    0.66
   0   2   0    9.86    0.63
   0   2   0   10.61    0.59
   0   2   0    9.89    0.60
  -1  -2   0  541.43   29.81
  -1  -2   0  568.64   27.42
  -1  -2   0  521.24   30.85
  -1  -2   0  586.23   30.46
  -1  -2   0  528.47   26.78
  -1  -2   0  617.94   26.79
   1   2   0  521.72   30.46
   1   2   0  569.28   27.41
   1   2   0  578.65   26.78
   1   2   0  616.63   27.43
   1   2   0  568.11   26.78
   1   2   0  529.20   29.81
  -2  -2   0  149.27    8.95
  -2  -2   0  177.72    9.14
  -2  -2   0  155.37    7.75
  -2  -2   0  166.37    7.73
  -2  -2   0  145.91    7.92
   2   2   0  146.63    7.71
   2   2   0  175.63    7.94
   2   2   0  150.88    7.91
   2   2   0  165.41    8.58
   2   2   0  160.73    9.12
  -3  -2   0    1.32    0.65
  -3  -2   0    2.89    0.43
  -3  -2   0    2.51    0.51
  -3  -2   0    1.81    0.42
  -3  -2   0    2.27    0.66
   3   2   0    1.73    0.44
   3   2   0    0.65    0.60
   3   2   0    2.61    0.45
   3   2   0    1.99    0.65
  -4  -2   0  185.71   10.76
  -4  -2   0  187.54    9.51
  -4  -2   0  184.06    9.30
   4   2   0  205.25    9.29
   4   2   0  190.82   10.89
   4   2   0  188.95   10.63
   4   2   0  175.96    9.46
  -5  -2   0   65.70    3.96
  -5  -2   0   61.18    3.85
  -5  -2   0   71.78    4.47
   5   2   0   71.25    4.25
   5   2   0   75.69    4.40
   5   2   0   69.36    3.82
  -6  -2   0   64.96    3.81
  -6  -2   0   64.17    4.30
  -6  -2   0   60.78    3.85
   6   2   0   63.56    3.70
   6   2   0   63.06    3.65
   6   2   0   57.98    4.14
  -7  -2   0   61.04    3.92
  -7  -2   0   58.99    4.33
   7   2   0   56.82    4.01
   7   2   0   55.71    3.81
   9  -3   0   39.94    4.03
   9  -3   0   37.33    3.22
  -9   3   0   35.10    3.47
   8  -3   0   45.62    3.40
   8  -3   0   44.75    3.20
   8  -3   0   52.66    4.35
  -8   3   0   45.60    3.22
  -8   3   0   49.25    3.30
   7  -3   0    1.95    1.08
   7  -3   0    0.65    1.91
   7  -3   0   -2.56    1.37
  -7   3   0    0.55    1.49
  -7   3   0   -0.52    1.04
   6  -3   0  181.74    9.55
   6  -3   0  171.79    8.84
   6  -3   0  167.14    9.06
   6  -3   0  173.11   10.66
  -6   3   0  176.94    9.11
  -6   3   0  182.71   10.14
  -6   3   0  172.13    8.85
   5  -3   0   90.57    4.83
   5  -3   0   87.72    4.87
   5  -3   0   94.89    5.16
   5  -3   0   95.28    5.83
  -5   3   0   93.36    5.43
  -5   3   0   93.37    4.87
  -5   3   0   88.28    4.96
   4  -3   0   44.69    2.67
   4  -3   0   45.67    3.07
   4  -3   0   48.32    2.58
   4  -3   0   46.04    2.65
  -4   3   0   45.36    2.53
  -4   3   0   45.41    2.82
  -4   3   0   43.94    2.66
  -4   3   0   45.75    2.74
   3  -3   0  104.11    6.65
   3  -3   0  112.22    5.70
   3  -3   0  125.51    6.46
   3  -3   0  114.10    5.57
   3  -3   0  102.03    6.12
  -3   3   0  121.31    6.17
  -3   3   0  112.41    6.04
  -3   3   0  108.09    5.71
  -3   3   0  109.89    5.93
  -3   3   0  109.07    5.57
  -3   3   0  106.20    6.44
   2  -3   0   20.18    1.21
   2  -3   0   20.55    1.25
   2  -3   0   21.84    1.43
   2  -3   0   20.98    1.54
   2  -3   0   22.44    1.26
   2  -3   0   17.70    1.38
  -2   3   0   20.43    1.26
  -2   3   0   20.38    1.25
  -2   3   0   19.47    1.22
  -2   3   0   18.45    1.25
  -2   3   0   18.14    1.41
  -2   3   0   20.12    1.16
  -2   3   0   20.70    1.20
   1  -3   0    7.71    0.73
   1  -3   0    8.28    0.80
   1  -3   0    7.88    0.46
   1  -3   0    7.81    0.57
   1  -3   0    9.78    0.57
   1  -3   0    6.12    0.67
   1  -3   0    7.49    0.61
  -1   3   0    8.37    0.55
  -1   3   0    6.83    0.62
  -1   3   0    6.29    0.56
  -1   3   0    6.97    0.69
  -1   3   0    8.58    0.61
   0  -3   0   16.92    1.02
   0  -3   0   13.54    1.08
   0  -3   0   17.94    0.92
   0  -3   0   15.99    0.90
   0  -3   0   15.77    0.97
   0  -3   0   15.87    0.90
   0  -3   0   14.04    1.05
   0   3   0   15.45    0.92
   0   3   0   14.96    0.88
   0   3   0   13.84    0.91
   0   3   0   16.08    0.95
  -1  -3   0    3.35    0.42
  -1  -3   0    2.08    0.52
  -1  -3   0    4.92    0.56
  -1  -3   0    2.62    0.44
  -1  -3   0    2.66    0.37
   1   3   0    2.48    0.44
   1   3   0    2.65    0.37
   1   3   0    2.70    0.41
  -2  -3   0  401.42   20.73
  -2  -3   0  380.07   18.65
  -2  -3   0  387.24   19.09
  -2  -3   0  354.10   21.50
   2   3   0  405.81   18.63
   2   3   0  403.15   19.08
  -3  -3   0    7.00    0.92
  -3  -3   0    7.47    0.79
  -3  -3   0    7.44    0.99
  -3  -3   0    7.99    0.79
   3   3   0    9.09    0.89
   3   3   0    5.39    0.87
  -4  -3   0   98.36    5.39
  -4  -3   0  104.70    5.50
  -4  -3   0  101.33    6.23
   4   3   0  112.07    5.35
   4   3   0  104.41    6.18
   4   3   0  103.83    5.43
  -5  -3   0   66.50    3.89
  -5  -3   0   73.38    4.10
  -5  -3   0   66.63    4.71
   5   3   0   74.84    4.50
   5   3   0   72.09    3.82
  -6  -3   0   -1.24    1.43
  -6  -3   0    2.69    1.93
   6   3   0   -0.59    1.03
   6   3   0    1.36    1.60
   7   3   0   28.37    2.92
   9  -4   0   15.85    3.07
   9  -4   0   17.71    2.53
   9  -4   0   14.74    2.37
  -9   4   0   10.02    2.46
  -9   4   0   19.88    2.59
   8  -4   0   39.59    3.31
   8  -4   0   42.46    3.23
   8  -4   0   41.45    4.07
  -8   4   0   45.50    3.43
  -8   4   0   50.12    3.46
   7  -4   0   15.05    1.95
   7  -4   0   10.82    1.44
   7  -4   0   10.88    1.74
  -7   4   0    9.37    1.78
  -7   4   0   17.43    1.92
   6  -4   0  114.19    6.02
   6  -4   0  113.60    5.94
   6  -4   0  118.30    6.36
   6  -4   0  113.40    7.21
  -6   4   0  105.57    5.96
  -6   4   0  114.49    6.66
  -6   4   0  108.74    6.10
   5  -4   0   45.08    2.63
   5  -4   0   45.88    2.72
   5  -4   0   49.67    2.88
   5  -4   0   45.84    3.39
  -5   4   0   45.37    2.90
  -5   4   0   44.23    2.84
  -5   4   0   44.34    2.64
   4  -4   0   -0.38    0.74
   4  -4   0    0.34    0.81
   4  -4   0    0.95    0.82
   4  -4   0    0.28    0.73
  -4   4   0    0.04    0.39
  -4   4   0   -0.27    0.56
  -4   4   0   -0.75    0.82
  -4   4   0    0.74    0.69
  -4   4   0   -0.58    0.74
  -4   4   0   -0.52    0.56
   3  -4   0  211.02   10.62
   3  -4   0  217.10   12.73
   3  -4   0  229.86   10.89
   3  -4   0  208.19   11.82
  -3   4   0  220.87   11.64
  -3   4   0  228.87   11.83
  -3   4   0  209.98   12.43
  -3   4   0  234.77   11.36
  -3   4   0  209.36   10.61
  -3   4   0  207.16   10.86
   2  -4   0  150.75    9.19
   2  -4   0  155.07    7.67
   2  -4   0  178.76    7.71
   2  -4   0  141.63    8.59
   2  -4   0  133.54    7.82
  -2   4   0  157.38    7.66
  -2   4   0  154.92    7.86
  -2   4   0  178.18    7.87
  -2   4   0  167.68    9.10
   1  -4   0   62.46    3.29
   1  -4   0   68.05    3.60
   1  -4   0   69.65    3.31
   1  -4   0   56.41    3.77
   1  -4   0   66.89    3.38
  -1   4   0   61.44    3.28
  -1   4   0   70.71    3.38
  -1   4   0   74.34    3.94
  -1   4   0   59.72    3.36
   0  -4   0  286.14   16.24
   0  -4   0  310.62   13.69
   0  -4   0  306.17   15.52
   0  -4   0  252.81   15.29
   0  -4   0  280.16   15.82
   0  -4   0  275.98   13.99
   0  -4   0  286.27   13.68
   0   4   0  305.03   14.01
   0   4   0  274.96   13.65
   0   4   0  270.48   13.98
  -1  -4   0   12.26    0.85
  -1  -4   0   11.80    0.88
  -1  -4   0   11.09    0.89
  -1  -4   0   10.23    1.15
  -1  -4   0   10.96    1.04
   1   4   0    9.63    0.88
   1   4   0   10.68    0.82
   1   4   0   11.63    0.88
  -2  -4   0   90.64    4.43
  -2  -4   0   85.02    5.09
  -2  -4   0   81.30    4.30
  -2  -4   0   82.35    4.76
   2   4   0   86.42    4.27
   2   4   0   83.28    4.38
  -3  -4   0  132.34    6.42
  -3  -4   0  112.89    6.24
  -3  -4   0  116.42    7.32
  -3  -4   0  127.07    6.86
   3   4   0  122.46    6.38
   3   4   0  133.90    6.20
  -4  -4   0    1.97    1.45
  -4  -4   0    3.53    0.85
  -4  -4   0    1.90    1.05
   4   4   0    3.76    1.55
   4   4   0    3.48    1.01
   4   4   0    2.49    0.82
  -5  -4   0   83.47    5.38
  -5  -4   0   76.46    4.36
   5   4   0   79.11    5.11
   5   4   0   80.41    4.41
  -6  -4   0   39.52    3.83
  -6  -4   0   42.58    3.12
   6   4   0   40.92    3.08
   6   4   0   41.10    3.48
   7   4   0    5.82    2.30
   9  -5   0    9.91    2.23
   9  -5   0    7.66    2.26
  -9   5   0    8.72    1.76
   8  -5   0   46.01    4.12
   8  -5   0   43.87    3.10
   8  -5   0   44.71    3.29
  -8   5   0   41.99    3.35
  -8   5   0   47.36    3.52
   7  -5   0  102.14    5.67
   7  -5   0  101.68    6.91
   7  -5   0  110.40    6.09
   7  -5   0  100.51    5.62
  -7   5   0   99.38    5.69
  -7   5   0  103.77    5.85
   6  -5   0   28.16    2.22
   6  -5   0   24.59    2.77
   6  -5   0   29.86    2.27
   6  -5   0   27.20    2.14
  -6   5   0   27.75    2.22
  -6   5   0   28.90    2.02
  -6   5   0   28.48    2.11
   5  -5   0  252.70   13.52
   5  -5   0  248.63   12.50
   5  -5   0  235.58   14.60
   5  -5   0  232.49   12.19
  -5   5   0  253.17   12.21
  -5   5   0  252.69   12.53
  -5   5   0  249.82   14.15
  -5   5   0  258.70   13.04
   4  -5   0   13.12    1.25
   4  -5   0   15.86    1.70
   4  -5   0   13.85    1.20
   4  -5   0   13.48    1.14
  -4   5   0   11.60    1.31
  -4   5   0   12.90    1.25
  -4   5   0   13.51    1.32
  -4   5   0   13.81    1.33
  -4   5   0   13.92    1.28
  -4   5   0   12.81    0.90
   3  -5   0    9.72    1.20
   3  -5   0    7.16    1.19
   3  -5   0    9.91    0.99
   3  -5   0    7.12    0.96
  -3   5   0    9.51    1.00
  -3   5   0    8.45    0.90
  -3   5   0    6.89    0.98
  -3   5   0    7.70    0.84
  -3   5   0    8.09    0.96
   2  -5   0  169.53    9.63
   2  -5   0  161.35   10.20
   2  -5   0  185.27    8.74
   2  -5   0  170.77    8.53
  -2   5   0  175.38    8.53
  -2   5   0  186.02    8.75
   1  -5   0   14.59    1.32
   1  -5   0   15.59    1.10
   1  -5   0   17.23    1.14
   1  -5   0   17.28    1.02
   1  -5   0   15.76    1.23
   1  -5   0   15.36    1.04
  -1   5   0   19.46    1.24
  -1   5   0   16.10    1.16
  -1   5   0   17.47    1.15
  -1   5   0   15.54    1.07
   0  -5   0   53.33    2.80
   0  -5   0   52.49    3.34
   0  -5   0   57.08    3.12
   0  -5   0   52.19    3.26
   0  -5   0   51.45    2.84
   0   5   0   55.49    2.76
   0   5   0   54.74    2.85
   0   5   0   48.51    2.82
  -1  -5   0  259.05   12.78
  -1  -5   0  263.52   14.51
  -1  -5   0  252.79   13.98
  -1  -5   0  253.06   12.50
   1   5   0  265.90   12.46
   1   5   0  255.79   12.77
  -2  -5   0   16.10    1.32
  -2  -5   0   15.03    1.34
  -2  -5   0   19.43    1.49
  -2  -5   0   15.62    1.74
   2   5   0   14.65    1.29
   2   5   0   15.90    1.22
  -3  -5   0   70.17    3.73
  -3  -5   0   66.27    4.29
  -3  -5   0   60.00    3.62
  -3  -5   0   67.16    3.93
   3   5   0   68.27    3.57
   3   5   0   66.85    3.63
  -4  -5   0   43.47    3.29
  -4  -5   0   41.27    2.83
   4   5   0   44.93    2.82
   4   5   0   45.17    3.53
  -5  -5   0    5.34    1.56
  -5  -5   0    7.83    1.72
   5   5   0    5.18    1.55
   5   5   0    7.68    2.23
   6   5   0   19.80    2.93
   7   5   0    8.02    2.66
   9  -6   0   67.38    4.27
  -9   6   0   63.72    4.41
   8  -6   0   30.16    3.42
   8  -6   0   35.81    2.89
   8  -6   0   29.11    2.42
  -8   6   0   26.79    2.50
  -8   6   0   28.87    2.79
   7  -6   0   57.92    3.75
   7  -6   0   60.38    3.51
   7  -6   0   52.81    3.76
   7  -6   0   55.30    4.52
  -7   6   0   58.05    3.69
  -7   6   0   61.50    3.85
   6  -6   0   38.87    3.54
   6  -6   0   44.76    3.04
   6  -6   0   44.81    2.99
   6  -6   0   51.70    3.12
  -6   6   0   47.62    2.78
  -6   6   0   44.94    3.04
  -6   6   0   39.29    2.95
   5  -6   0   29.21    2.28
   5  -6   0   30.70    2.81
   5  -6   0   32.92    2.35
   5  -6   0   32.01    2.36
  -5   6   0   35.85    2.33
  -5   6   0   31.25    2.42
  -5   6   0   37.36    2.48
  -5   6   0   35.93    2.19
  -5   6   0   33.11    2.38
   4  -6   0  253.50   15.51
   4  -6   0  266.94   14.49
   4  -6   0  259.61   12.97
   4  -6   0  265.81   13.25
  -4   6   0  249.55   13.24
  -4   6   0  266.79   13.81
  -4   6   0  275.03   12.99
  -4   6   0  278.34   15.20
  -4   6   0  267.02   14.20
   3  -6   0   62.10    4.02
   3  -6   0   65.06    3.51
   3  -6   0   66.68    3.56
   3  -6   0   67.12    4.21
  -3   6   0   61.37    3.58
  -3   6   0   64.19    3.46
  -3   6   0   65.91    3.59
   2  -6   0  147.57    8.68
   2  -6   0  148.03    7.65
   2  -6   0  156.92    7.84
   2  -6   0  156.71    9.17
  -2   6   0  163.66    7.86
  -2   6   0  160.24    7.65
   1  -6   0  274.88   13.68
   1  -6   0  283.24   14.00
   1  -6   0  285.35   16.26
   1  -6   0  271.45   15.40
  -1   6   0  285.93   13.99
  -1   6   0  296.74   13.66
   0  -6   0    8.01    1.03
   0  -6   0    7.89    0.91
   0  -6   0    4.95    1.22
   0  -6   0    7.56    0.86
   0   6   0    7.01    0.88
   0   6   0    7.97    0.81
  -1  -6   0   82.64    4.39
  -1  -6   0   77.23    4.29
  -1  -6   0   82.34    5.13
  -1  -6   0   83.04    4.90
   1   6   0   81.71    4.36
   1   6   0   91.75    4.26
  -2  -6   0   60.85    3.59
  -2  -6   0   55.98    3.09
  -2  -6   0   52.66    3.89
   2   6   0   56.71    3.19
  -3  -6   0    8.56    1.50
  -3  -6   0    9.29    1.35
  -3  -6   0    6.39    1.26
   3   6   0    8.75    2.13
   3   6   0    7.41    1.25
  -4  -6   0   93.27    5.72
  -4  -6   0   82.15    4.81
   4   6   0   87.48    4.85
   4   6   0   80.67    5.89
   5   6   0   18.47    3.01
   5   6   0   16.00    2.03
   6   6   0   23.17    2.84
   7   6   0   20.05    3.39
   8  -7   0   92.75    6.45
   8  -7   0   89.10    5.21
   8  -7   0   89.07    5.12
  -8   7   0   83.68    5.17
  -8   7   0   86.90    5.17
   7  -7   0   42.36    3.09
   7  -7   0   40.91    3.03
   7  -7   0   37.74    3.37
   7  -7   0   46.56    3.16
  -7   7   0   40.05    3.04
  -7   7   0   41.57    3.18
   6  -7   0   95.37    5.46
   6  -7   0   98.39    6.74
   6  -7   0  105.13    5.72
   6  -7   0  104.18    6.19
  -6   7   0  104.66    5.75
  -6   7   0  104.33    6.03
  -6   7   0  102.22    5.76
  -6   7   0  112.06    5.64
   5  -7   0   59.51    3.70
   5  -7   0   66.26    3.65
   5  -7   0   62.53    3.93
   5  -7   0   63.10    4.40
  -5   7   0   63.94    3.66
  -5   7   0   60.14    3.55
  -5   7   0   58.64    3.85
  -5   7   0   57.56    3.71
   4  -7   0  150.97    7.76
   4  -7   0  145.15    8.74
   4  -7   0  147.82    9.20
   4  -7   0  150.53    7.91
  -4   7   0  165.97    7.78
  -4   7   0  144.47    7.92
  -4   7   0  159.04    8.17
  -4   7   0  159.44    8.48
   3  -7   0  122.11    7.13
   3  -7   0  123.75    6.26
   3  -7   0  124.24    7.46
   3  -7   0  119.81    6.35
  -3   7   0  123.92    6.20
  -3   7   0  123.51    6.35
   2  -7   0   18.36    1.40
   2  -7   0   18.42    1.70
   2  -7   0   17.61    1.41
   2  -7   0   19.14    1.59
  -2   7   0   15.13    1.43
  -2   7   0   17.41    1.38
   1  -7   0  176.38    9.17
   1  -7   0  188.66    9.38
   1  -7   0  201.10   10.80
   1  -7   0  177.72   10.39
   1  -7   0  190.88   10.74
  -1   7   0  187.72    9.13
  -1   7   0  181.93    9.38
   0  -7   0  129.33    7.31
   0  -7   0  129.63    7.09
   0  -7   0  121.49    6.17
   0  -7   0  131.35    6.31
   0   7   0  110.20    6.13
   0   7   0  114.22    6.26
  -1  -7   0    0.20    1.23
  -1  -7   0    0.55    0.95
  -1  -7   0   -0.17    1.40
   1   7   0    1.58    0.93
  -2  -7   0   99.62    5.85
  -2  -7   0  101.52    6.28
  -2  -7   0   89.85    5.18
   2   7   0  103.54    5.28
  -3  -7   0   22.98    2.03
  -3  -7   0   20.11    2.67
   3   7   0   20.68    2.99
   3   7   0   21.22    2.01
  -4  -7   0    4.24    1.62
  -4  -7   0    4.67    1.77
   4   7   0    2.59    2.64
   4   7   0    3.62    1.51
   5   7   0   28.12    3.18
   6   7   0    0.83    2.13
   8  -8   0   39.30    3.65
   8  -8   0   41.43    2.97
  -8   8   0   44.85    3.41
   7  -8   0    3.18    1.74
   7  -8   0    8.19    1.83
   7  -8   0    2.88    2.08
  -7   8   0    4.77    1.34
   6  -8   0   64.86    3.88
   6  -8   0   62.27    4.64
   6  -8   0   65.75    4.10
   6  -8   0   62.61    3.91
  -6   8   0   59.98    3.85
  -6   8   0   56.63    3.88
  -6   8   0   61.86    3.92
   5  -8   0  115.12    7.37
   5  -8   0  122.44    6.30
   5  -8   0  118.84    6.95
   5  -8   0  110.28    6.13
  -5   8   0  110.46    6.38
  -5   8   0  113.75    6.77
  -5   8   0  119.66    6.48
  -5   8   0  131.07    6.27
   4  -8   0    5.13    1.19
   4  -8   0    3.85    1.32
   4  -8   0    3.11    1.74
   4  -8   0    3.34    1.20
  -4   8   0    5.85    1.43
  -4   8   0    3.61    1.29
  -4   8   0    6.83    1.05
  -4   8   0    3.86    1.20
   3  -8   0  217.88   10.97
   3  -8   0  207.62   10.75
   3  -8   0  231.94   12.87
   3  -8   0  212.01   12.20
  -3   8   0  217.88   11.01
   2  -8   0   58.74    3.71
   2  -8   0   56.02    3.23
   2  -8   0   57.18    4.02
  -2   8   0   57.63    3.31
   1  -8   0   10.01    1.44
   1  -8   0    7.11    1.70
   1  -8   0    7.79    1.18
  -1   8   0    8.72    1.20
   0  -8   0   85.82    5.51
   0  -8   0   88.34    5.70
   0  -8   0   92.35    4.73
   0   8   0   88.42    4.76
  -1  -8   0   35.41    2.79
  -1  -8   0   32.48    2.76
  -1  -8   0   29.67    2.27
   1   8   0   33.43    2.29
  -2  -8   0   31.59    2.74
  -2  -8   0   25.75    2.29
  -2  -8   0   27.00    2.64
   2   8   0   27.49    3.31
   2   8   0   28.39    2.23
  -3  -8   0   69.66    4.17
  -3  -8   0   61.29    4.80
   3   8   0   67.47    5.51
   3   8   0   75.15    4.20
   4   8   0   -2.33    2.95
   5   8   0   20.14    3.98
   7  -9   0   70.50    4.10
   7  -9   0   64.17    4.72
  -7   9   0   69.80    4.40
   6  -9   0    0.87    2.05
   6  -9   0    0.23    1.60
   6  -9   0    4.85    2.00
  -6   9   0    1.49    1.66
  -6   9   0    1.36    0.96
  -6   9   0    1.90    1.76
   5  -9   0   92.49    5.59
   5  -9   0   85.71    4.98
   5  -9   0   86.11    5.92
  -5   9   0   89.17    5.11
  -5   9   0   83.10    5.40
  -5   9   0   89.88    5.01
   4  -9   0   34.59    2.93
   4  -9   0   31.54    2.47
   4  -9   0   32.68    3.14
  -4   9   0   32.38    2.19
  -4   9   0   29.79    2.45
  -4   9   0   32.10    2.50
   3  -9   0    0.39    1.83
   3  -9   0   -0.24    1.20
   3  -9   0    2.17    1.32
  -3   9   0    2.48    0.91
   2  -9   0  138.53    7.98
   2  -9   0  119.34    6.66
   2  -9   0  130.91    7.88
  -2   9   0  134.00    6.83
   1  -9   0   37.02    2.90
   1  -9   0   35.18    3.11
   1  -9   0   32.04    2.38
  -1   9   0   35.93    2.25
   0  -9   0   18.89    1.87
   0  -9   0   23.63    2.22
   0  -9   0   22.30    2.21
   0   9   0   19.30    1.88
  -1  -9   0   82.30    4.77
  -1  -9   0   86.96    5.50
  -1  -9   0   88.85    5.68
   1   9   0   85.84    4.79
   1   9   0   82.54    6.08
  -2  -9   0    2.61    1.80
  -2  -9   0    7.25    1.65
   2   9   0    3.18    1.51
   2   9   0    1.51    1.99
   3   9   0   11.81    2.71
   4   9   0   12.09    2.82
   5   9   0   -1.86    3.49
   7 -10   0   24.87    2.97
   7 -10   0   23.08    2.73
  -7  10   0   21.88    2.78
   6 -10   0   30.83    3.28
   6 -10   0   27.83    2.75
   6 -10   0   28.64    3.22
  -6  10   0   29.72    2.81
  -6  10   0   24.98    2.87
   5 -10   0    3.93    1.72
   5 -10   0    5.45    1.98
   5 -10   0    7.44    1.82
  -5  10   0    2.14    1.72
  -5  10   0    4.94    1.96
   4 -10   0   69.05    4.93
   4 -10   0   64.24    3.80
  -4  10   0   64.87    4.48
  -4  10   0   66.40    4.07
   3 -10   0    4.18    1.44
   3 -10   0    2.28    2.17
  -3  10   0    1.47    1.45
  -3  10   0    3.09    1.39
   2 -10   0   17.85    2.78
   2 -10   0   20.62    1.71
   2 -10   0   19.24    2.31
  -2  10   0   22.96    2.58
  -2  10   0   21.37    2.00
   1 -10   0   51.78    3.26
   1 -10   0   51.33    3.87
   1 -10   0   52.56    4.23
  -1  10   0   51.92    3.28
  -1  10   0   51.13    3.77
   0 -10   0    2.82    2.19
   0 -10   0    2.78    1.09
   0 -10   0    0.03    2.10
   0  10   0    1.17    1.71
   0  10   0    3.65    1.48
  -1 -10   0   39.23    3.47
   1  10   0   30.39    3.43
   2  10   0   23.29    3.85
   3  10   0    3.66    3.51
   4  10   0   27.05    4.64
  -7  11   0   15.99    2.67
  -6  11   0   16.15    2.65
   5 -11   0    7.46    2.07
   5 -11   0    3.16    2.01
  -5  11   0    8.97    2.01
  -5  11   0   10.75    2.32
   4 -11   0   23.03    3.35
   4 -11   0   26.27    2.56
  -4  11   0   23.73    2.94
  -4  11   0   30.02    2.62
   3 -11   0   31.01    2.59
   3 -11   0   34.81    3.79
   3 -11   0   35.61    3.64
  -3  11   0   31.42    2.68
  -3  11   0   31.60    2.86
   2 -11   0    1.28    1.09
   2 -11   0    2.10    2.62
   2 -11   0    2.80    2.36
  -2  11   0    0.74    1.53
  -2  11   0    3.36    1.93
  -1  11   0   54.66    3.70
  -1  11   0   51.62    4.28
   0  11   0   17.33    3.12
   1  11   0    3.96    2.18
   2  11   0   23.72    4.14
  -7  12   0    9.63    2.61
  -6  12   0   12.72    2.73
  -5  12   0   16.82    2.79
  -4  12   0   -0.95    2.25
  -2  12   0    1.70    2.22
  -1  12   0    2.74    2.58
   0  12   0   27.27    3.74
   1  12   0   -1.01    3.29
  -7  13   0   16.92    2.42
  -6  13   0    2.41    2.53
  -5  13   0   13.12    2.29
  -4  13   0   24.19    2.61
  -1  13   0    5.11    2.08
  -4  14   0   14.40    2.46
  -3  14  -1    1.93    2.74
  -4  14  -1    1.91    2.67
  -5  14  -1   19.61    3.17
   0  13  -1   17.92    3.45
  -1  13  -1    2.80    2.76
  -2  13  -1    8.61    1.98
  -4  13  -1    1.99    2.49
  -5  13  -1   10.63    2.66
  -6  13  -1    8.95    2.68
  -7  13  -1    2.44    1.76
   1  12  -1   12.59    3.55
   0  12  -1   33.59    3.46
  -1  12  -1   13.70    2.86
  -2  12  -1    4.70    2.19
  -4  12  -1   31.76    3.20
  -5  12  -1    0.15    2.15
  -6  12  -1   61.39    4.51
  -7  12  -1    6.77    2.39
   3  11  -1   -0.18    2.57
   2  11  -1   15.93    3.08
   1  11  -1   16.78    3.50
   0  11  -1    5.08    2.03
  -1  11  -1   54.76    3.60
   1 -11   1   52.64    4.56
  -2  11  -1   29.77    2.66
   2 -11   1   28.91    2.62
   2 -11   1   32.31    3.20
   2 -11   1   38.13    3.10
  -3  11  -1    5.51    1.32
   3 -11   1    3.00    2.24
   3 -11   1    1.78    1.66
   3 -11   1    2.70    1.87
  -4  11  -1   63.51    4.28
  -4  11  -1   62.83    4.54
   4 -11   1   69.72    4.27
   4 -11   1   71.66    5.19
  -5  11  -1    2.84    2.08
  -5  11  -1    4.20    1.98
   5 -11   1    8.95    2.05
   5 -11   1    7.24    2.60
  -6  11  -1    7.77    2.22
   6 -11   1    5.60    2.34
  -7  11  -1   54.92    3.81
   4  10  -1    8.11    3.90
   3  10  -1   27.81    4.43
   2  10  -1   -4.86    2.92
   1  10  -1   69.05    5.40
   1  10  -1   61.19    4.16
  -1 -10   1   76.44    4.98
  -1 -10   1   67.43    5.17
   0  10  -1   28.75    2.50
   0 -10   1   30.36    2.55
   0 -10   1   33.75    3.31
  -1  10  -1    6.68    1.52
   1 -10   1    7.96    2.36
   1 -10   1    6.48    2.10
   1 -10   1    5.89    1.53
  -2  10  -1  115.72    6.12
   2 -10   1  110.57    5.99
   2 -10   1  102.41    6.86
   2 -10   1  120.24    7.21
  -3  10  -1   45.26    3.28
   3 -10   1   50.39    3.27
   3 -10   1   51.24    4.15
   3 -10   1   53.14    3.99
  -4  10  -1   24.76    2.45
  -4  10  -1   27.36    2.35
   4 -10   1   26.23    2.66
   4 -10   1   26.46    2.41
  -5  10  -1   94.52    5.82
  -5  10  -1  104.48    5.95
   5 -10   1  121.41    6.95
   5 -10   1   95.68    5.77
   5 -10   1  102.82    6.46
  -6  10  -1   12.83    2.11
  -6  10  -1   14.58    1.81
  -6  10  -1    8.25    2.16
   6 -10   1   13.05    2.15
   6 -10   1    9.41    1.94
   6 -10   1   12.52    2.50
  -7  10  -1   31.21    3.02
  -7  10  -1   35.87    2.58
   7 -10   1   35.49    3.27
   7 -10   1   29.36    3.23
   5   9  -1   23.12    4.38
   4   9  -1    3.59    2.48
   3   9  -1   11.65    3.41
   2   9  -1   30.34    2.66
   2   9  -1   37.41    4.04
  -2  -9   1   29.84    2.70
  -2  -9   1   35.61    3.13
  -2  -9   1   38.68    3.19
   1   9  -1    1.57    1.38
  -1  -9   1   -1.04    1.71
  -1  -9   1   -0.81    1.38
  -1  -9   1    1.14    1.42
   0   9  -1   91.08    5.07
   0  -9   1   92.53    4.99
   0  -9   1   93.97    5.82
   0  -9   1   89.22    5.82
  -1   9  -1   11.09    1.53
   1  -9   1    9.33    2.13
   1  -9   1   15.47    2.09
   1  -9   1   13.37    1.34
  -2   9  -1   26.23    2.06
   2  -9   1   23.35    2.64
   2  -9   1   23.36    2.03
   2  -9   1   21.09    2.43
  -3   9  -1   88.81    5.13
   3  -9   1   92.16    5.85
   3  -9   1   93.82    5.93
   3  -9   1   96.63    5.06
  -4   9  -1    2.23    1.09
  -4   9  -1   -0.40    1.44
  -4   9  -1    0.87    1.47
   4  -9   1    2.59    1.40
   4  -9   1    4.33    1.51
   4  -9   1    2.13    1.58
  -5   9  -1   29.02    2.82
  -5   9  -1   36.77    2.62
  -5   9  -1   38.65    2.85
   5  -9   1   34.38    2.83
   5  -9   1   35.99    3.25
   5  -9   1   42.10    3.36
  -6   9  -1   76.90    4.66
  -6   9  -1   76.41    4.98
  -6   9  -1   88.66    4.85
   6  -9   1   78.97    5.31
   6  -9   1   84.77    5.73
   6  -9   1   76.39    4.79
  -7   9  -1    4.56    1.94
  -7   9  -1    4.54    1.27
   7  -9   1    4.39    1.74
   7  -9   1    4.76    1.96
   7  -9   1    1.14    1.95
   6   8  -1    0.46    2.37
   5   8  -1    4.34    2.42
   4   8  -1   36.74    4.32
   3   8  -1    8.82    2.23
   3   8  -1   13.65    1.88
  -3  -8   1   12.30    1.53
  -3  -8   1   16.13    2.65
   2   8  -1   59.42    3.56
  -2  -8   1   61.03    4.19
  -2  -8   1   53.25    3.36
  -2  -8   1   60.57    4.03
   1   8  -1   21.85    1.95
  -1  -8   1   24.51    2.07
  -1  -8   1   21.93    1.97
  -1  -8   1   21.47    2.18
   0   8  -1   69.72    3.78
   0  -8   1   64.63    3.74
   0  -8   1   61.88    4.37
   0  -8   1   69.82    4.50
  -1   8  -1   82.14    4.53
  -1   8  -1   88.05    4.46
   1  -8   1   86.30    5.34
   1  -8   1   83.84    4.51
   1  -8   1   79.62    5.27
   1  -8   1   87.10    4.62
  -2   8  -1    7.31    1.27
  -2   8  -1   10.52    1.26
   2  -8   1   13.67    1.87
   2  -8   1   11.79    1.31
   2  -8   1   10.00    1.33
   2  -8   1    8.82    1.27
  -3   8  -1   70.44    4.14
  -3   8  -1   77.79    4.14
   3  -8   1   80.51    4.92
   3  -8   1   73.15    4.86
   3  -8   1   76.62    4.09
   3  -8   1   74.90    4.22
  -4   8  -1  130.90    7.00
  -4   8  -1  127.82    6.80
  -4   8  -1  129.23    6.73
  -4   8  -1  124.33    7.31
   4  -8   1  136.26    7.69
   4  -8   1  119.41    6.68
   4  -8   1  133.11    8.04
   4  -8   1  135.36    6.83
  -5   8  -1   12.04    1.69
  -5   8  -1    9.83    1.63
  -5   8  -1   10.32    1.70
  -5   8  -1   12.85    1.52
  -5   8  -1   12.31    1.46
   5  -8   1   10.74    1.42
   5  -8   1   11.41    1.67
   5  -8   1   11.39    1.43
   5  -8   1   12.25    1.61
  -6   8  -1   56.44    3.84
  -6   8  -1   66.29    3.87
  -6   8  -1   58.15    3.77
  -6   8  -1   60.62    3.94
  -6   8  -1   68.84    4.14
   6  -8   1   63.00    3.86
   6  -8   1   52.37    4.52
   6  -8   1   57.16    3.88
   6  -8   1   57.76    3.95
  -7   8  -1   48.55    3.32
  -7   8  -1   39.86    3.34
  -7   8  -1   46.62    3.28
   7  -8   1   47.98    3.77
   7  -8   1   48.51    3.46
   7  -8   1   44.49    3.04
   7  -8   1   38.85    3.40
  -8   8  -1   21.90    2.65
   8  -8   1   22.92    3.31
   8  -8   1   25.19    2.66
   8  -8   1   28.17    2.38
   6   7  -1   40.43    4.47
   5   7  -1    3.89    2.80
   4   7  -1   28.23    2.41
   4   7  -1   22.60    2.86
  -4  -7   1   25.52    2.14
  -4  -7   1   26.43    2.71
   3   7  -1   69.76    3.96
  -3  -7   1   65.82    4.76
  -3  -7   1   65.78    3.94
  -3  -7   1   66.08    4.26
   2   7  -1   25.36    1.98
  -2  -7   1   27.04    2.28
  -2  -7   1   24.14    1.96
  -2  -7   1   23.44    2.58
   1   7  -1   36.37    2.17
   1   7  -1   31.26    2.17
  -1  -7   1   31.61    2.51
  -1  -7   1   31.49    2.20
  -1  -7   1   34.60    2.43
  -1  -7   1   36.71    2.29
   0   7  -1   36.11    2.10
   0   7  -1   33.90    2.19
   0  -7   1   35.01    2.51
   0  -7   1   37.10    2.49
   0  -7   1   31.70    2.21
   0  -7   1   32.56    2.17
  -1   7  -1  107.19    5.48
  -1   7  -1  105.54    5.63
   1  -7   1  103.69    5.47
   1  -7   1  106.25    6.34
   1  -7   1  111.56    5.65
   1  -7   1  101.25    6.43
   1  -7   1  119.08    6.38
  -2   7  -1    4.43    0.93
  -2   7  -1    3.95    0.97
   2  -7   1    3.95    1.02
   2  -7   1    2.90    0.92
   2  -7   1    1.96    0.89
   2  -7   1    2.41    0.93
  -3   7  -1    0.18    0.99
  -3   7  -1    1.03    0.94
   3  -7   1    0.68    1.10
   3  -7   1    1.02    0.68
   3  -7   1    2.23    1.03
   3  -7   1    0.34    0.93
  -4   7  -1  171.71    9.54
  -4   7  -1  168.79    8.97
  -4   7  -1  181.33    8.80
  -4   7  -1  178.25   10.29
  -4   7  -1  177.47    9.28
   4  -7   1  172.37    9.79
   4  -7   1  173.87   10.48
   4  -7   1  162.01    8.73
   4  -7   1  181.21    8.99
  -5   7  -1    5.97    0.99
  -5   7  -1    5.64    1.24
  -5   7  -1    5.15    1.24
  -5   7  -1    4.71    1.38
  -5   7  -1    4.28    1.41
   5  -7   1    3.51    1.70
   5  -7   1    1.98    1.38
   5  -7   1    3.82    1.04
   5  -7   1    5.92    1.51
  -6   7  -1   31.91    2.45
  -6   7  -1   34.94    2.59
  -6   7  -1   29.77    2.34
  -6   7  -1   31.84    2.50
   6  -7   1   30.53    2.62
   6  -7   1   31.39    2.65
   6  -7   1   26.54    3.04
   6  -7   1   36.23    2.65
  -7   7  -1   81.56    4.78
  -7   7  -1   82.12    4.91
   7  -7   1   80.47    4.79
   7  -7   1   88.74    4.97
   7  -7   1   70.99    5.82
   7  -7   1   82.83    5.05
  -8   7  -1    1.05    1.39
  -8   7  -1    2.99    1.87
   8  -7   1    0.96    1.77
   8  -7   1    4.07    1.96
   8  -7   1    0.05    1.86
  -9   7  -1   32.52    2.76
   7   6  -1    1.38    1.90
   6   6  -1   33.86    3.81
   5   6  -1   14.15    1.95
   5   6  -1   13.42    2.81
  -5  -6   1   14.03    1.67
  -5  -6   1   11.51    2.65
   4   6  -1   40.00    2.81
   4   6  -1   40.82    3.31
  -4  -6   1   42.25    3.25
  -4  -6   1   36.76    2.82
   3   6  -1  100.79    5.39
  -3  -6   1  102.71    6.31
  -3  -6   1  109.02    5.94
  -3  -6   1   95.76    5.30
   2   6  -1    4.71    0.78
   2   6  -1    5.45    1.07
  -2  -6   1    5.85    1.10
  -2  -6   1    6.78    1.17
  -2  -6   1    6.64    1.07
  -2  -6   1    5.11    0.96
   1   6  -1  105.01    5.48
   1   6  -1  111.81    5.34
  -1  -6   1  108.54    5.48
  -1  -6   1  101.72    6.06
  -1  -6   1  103.47    5.38
  -1  -6   1  103.04    6.26
   0   6  -1   98.19    5.25
   0   6  -1  106.83    5.13
   0  -6   1  107.77    5.30
   0  -6   1  104.39    5.14
   0  -6   1   96.01    5.80
   0  -6   1   98.00    6.00
  -1   6  -1    0.89    0.74
  -1   6  -1    0.60    0.66
   1  -6   1    0.58    0.60
   1  -6   1    1.57    1.00
   1  -6   1    0.40    0.31
   1  -6   1    1.20    0.71
   1  -6   1    0.11    0.69
  -2   6  -1  260.50   13.08
  -2   6  -1  267.90   12.78
   2  -6   1  249.00   14.35
   2  -6   1  261.47   13.08
   2  -6   1  256.76   12.79
   2  -6   1  282.24   15.26
  -3   6  -1   33.85    2.08
  -3   6  -1   33.52    2.53
  -3   6  -1   30.45    1.98
   3  -6   1   30.92    2.28
   3  -6   1   29.35    2.03
   3  -6   1   30.26    2.37
   3  -6   1   32.36    2.12
  -4   6  -1   25.35    2.18
  -4   6  -1   28.84    1.92
  -4   6  -1   25.31    1.82
  -4   6  -1   26.44    1.95
  -4   6  -1   27.49    1.86
   4  -6   1   32.08    2.13
   4  -6   1   30.22    1.90
   4  -6   1   23.57    2.42
   4  -6   1   28.82    2.24
  -5   6  -1  181.71   10.76
  -5   6  -1  181.96    9.51
  -5   6  -1  192.93    9.29
  -5   6  -1  191.57    9.89
  -5   6  -1  181.16   10.01
   5  -6   1  189.44    9.28
   5  -6   1  173.10   11.10
   5  -6   1  178.24    9.51
   5  -6   1  193.80   10.31
  -6   6  -1    2.94    1.08
  -6   6  -1    3.19    1.02
  -6   6  -1    1.01    1.44
  -6   6  -1    1.62    1.39
   6  -6   1    3.79    1.38
   6  -6   1    2.26    1.23
   6  -6   1    7.11    1.51
   6  -6   1    3.94    1.48
  -7   6  -1   37.05    2.75
  -7   6  -1   41.36    3.12
   7  -6   1   43.35    3.12
   7  -6   1   38.98    3.64
   7  -6   1   41.90    3.03
  -8   6  -1   65.71    4.24
  -8   6  -1   61.65    4.07
   8  -6   1   55.71    4.15
   8  -6   1   60.88    4.07
   8  -6   1   62.13    4.66
  -9   6  -1    8.50    2.34
   7   5  -1    8.46    2.52
   6   5  -1   22.45    2.51
   5   5  -1   88.80    5.81
   5   5  -1   91.80    5.14
  -5  -5   1   94.94    6.16
  -5  -5   1   87.52    4.95
   4   5  -1    3.42    1.24
  -4  -5   1    2.76    0.96
  -4  -5   1    2.68    1.68
  -4  -5   1    4.58    1.28
   3   5  -1   41.40    2.65
   3   5  -1   53.00    2.75
  -3  -5   1   44.38    3.33
  -3  -5   1   48.82    2.97
  -3  -5   1   49.33    2.73
  -3  -5   1   44.28    2.67
   2   5  -1  171.16    7.97
   2   5  -1  156.17    8.14
  -2  -5   1  161.43    8.87
  -2  -5   1  161.20    8.01
  -2  -5   1  161.91    8.19
  -2  -5   1  156.92    9.27
   1   5  -1    5.34    0.75
   1   5  -1    4.29    0.76
  -1  -5   1    5.34    0.81
  -1  -5   1    5.60    1.05
  -1  -5   1    5.19    0.96
  -1  -5   1    5.00    0.80
   0   5  -1   98.45    5.41
   0   5  -1  108.99    5.55
   0   5  -1   93.99    4.76
   0   5  -1   88.39    4.90
   0  -5   1   92.15    5.57
   0  -5   1   98.63    4.93
   0  -5   1   85.52    5.40
   0  -5   1   97.65    4.82
  -1   5  -1  164.46    8.59
  -1   5  -1  178.55    9.99
  -1   5  -1  174.35    8.41
   1  -5   1  184.74    9.38
   1  -5   1  181.73    9.97
   1  -5   1  175.87    8.63
   1  -5   1  160.43    9.44
   1  -5   1  156.82    8.39
  -2   5  -1  201.51   10.16
  -2   5  -1  205.60   11.81
  -2   5  -1  205.04    9.91
   2  -5   1  206.59   10.15
   2  -5   1  196.49    9.91
   2  -5   1  195.77   11.11
   2  -5   1  214.55   11.86
  -3   5  -1  110.90    6.79
  -3   5  -1  112.58    5.90
  -3   5  -1  118.56    6.18
  -3   5  -1  110.75    5.77
  -3   5  -1  116.40    6.17
  -3   5  -1  122.74    6.26
   3  -5   1  111.16    5.75
   3  -5   1  104.45    6.41
   3  -5   1  121.88    5.89
   3  -5   1  104.28    6.86
  -4   5  -1   14.23    1.23
  -4   5  -1   13.10    1.27
  -4   5  -1   16.40    1.02
  -4   5  -1   12.62    1.21
  -4   5  -1   14.89    1.26
  -4   5  -1   13.31    1.33
   4  -5   1   15.67    1.54
   4  -5   1   12.78    1.38
   4  -5   1   13.28    1.47
   4  -5   1   14.13    1.48
  -5   5  -1  103.45    5.61
  -5   5  -1  105.47    6.33
  -5   5  -1  101.90    5.85
  -5   5  -1  104.54    5.56
   5  -5   1   99.37    5.66
   5  -5   1  100.06    6.67
   5  -5   1  115.30    6.05
   5  -5   1  112.62    5.58
  -6   5  -1   72.88    4.58
  -6   5  -1   76.34    4.22
  -6   5  -1   70.78    4.32
  -6   5  -1   70.41    4.38
   6  -5   1   71.94    4.16
   6  -5   1   72.77    4.34
   6  -5   1   79.13    4.22
   6  -5   1   70.03    4.95
  -7   5  -1    1.90    1.54
  -7   5  -1   -0.79    1.08
   7  -5   1    2.12    1.13
   7  -5   1    0.16    1.98
   7  -5   1    1.80    1.14
  -8   5  -1   47.70    3.30
  -8   5  -1   44.09    3.59
   8  -5   1   51.34    3.35
   8  -5   1   44.89    3.45
   8  -5   1   53.79    4.43
  -9   5  -1   12.20    2.46
   9  -5   1   15.18    1.95
   7   4  -1   31.65    2.85
   6   4  -1    2.55    1.88
  -6  -4   1    5.57    1.74
  -6  -4   1    4.88    2.20
   5   4  -1  101.80    6.46
   5   4  -1  110.13    5.46
   5   4  -1  101.03    5.58
  -5  -4   1  108.95    5.75
  -5  -4   1   99.86    5.62
  -5  -4   1  103.29    6.66
   4   4  -1   42.87    2.63
   4   4  -1   52.14    2.80
  -4  -4   1   46.98    3.26
  -4  -4   1   45.67    2.92
  -4  -4   1   47.41    2.89
   3   4  -1   32.58    2.18
   3   4  -1   36.46    2.14
  -3  -4   1   35.80    2.23
  -3  -4   1   39.57    2.26
  -3  -4   1   32.38    2.64
  -3  -4   1   38.83    2.23
   2   4  -1  403.73   19.32
   2   4  -1  396.86   19.78
   2   4  -1  387.01   22.08
  -2  -4   1  439.12   19.83
  -2  -4   1  390.89   21.51
  -2  -4   1  393.95   22.34
  -2  -4   1  405.16   19.36
   1   4  -1  119.93    6.91
   1   4  -1  124.91    6.01
   1   4  -1  121.14    6.15
  -1  -4   1  124.22    6.75
  -1  -4   1  121.95    6.16
  -1  -4   1  124.92    6.99
  -1  -4   1  121.06    6.02
   0   4  -1  148.41    9.05
   0   4  -1  158.69    9.45
   0   4  -1  179.07    8.21
   0   4  -1  171.14    8.20
   0   4  -1  169.99    8.00
   0  -4   1  155.74    8.98
   0  -4   1  177.69    9.05
   0  -4   1  158.59    8.01
   0  -4   1  166.29    8.21
   0  -4   1  164.44    9.24
  -1   4  -1  630.73   38.49
  -1   4  -1  719.62   33.91
  -1   4  -1  802.24   34.72
  -1   4  -1  657.20   40.47
  -1   4  -1  700.90   40.01
  -1   4  -1  729.72   34.71
   1  -4   1  711.69   33.90
   1  -4   1  701.90   34.71
   1  -4   1  779.91   33.93
   1  -4   1  645.75   37.77
   1  -4   1  714.13   40.48
   1  -4   1  739.44   38.52
  -2   4  -1   39.43    2.19
  -2   4  -1   39.35    2.14
  -2   4  -1   40.82    2.13
  -2   4  -1   32.69    2.57
   2  -4   1   35.71    2.39
   2  -4   1   37.80    2.10
   2  -4   1   39.20    2.18
   2  -4   1   39.31    2.49
  -3   4  -1  212.52   11.69
  -3   4  -1  223.02   12.86
  -3   4  -1  227.88   11.94
  -3   4  -1  258.63   12.22
  -3   4  -1  221.46   10.97
  -3   4  -1  202.32   11.19
   3  -4   1  221.78   13.10
   3  -4   1  222.05   10.94
   3  -4   1  223.42   12.14
   3  -4   1  228.36   11.22
  -4   4  -1  160.78    7.81
  -4   4  -1  148.97    7.95
  -4   4  -1  165.56    8.39
  -4   4  -1  147.21    9.02
  -4   4  -1  157.54    8.30
   4  -4   1  148.52    7.77
   4  -4   1  151.68    9.34
   4  -4   1  158.49    7.94
   4  -4   1  161.39    8.53
  -5   4  -1    1.50    1.07
  -5   4  -1    1.12    1.07
  -5   4  -1    0.74    0.77
  -5   4  -1    1.84    0.85
   5  -4   1    1.50    0.75
   5  -4   1    3.00    1.42
   5  -4   1    1.73    1.09
   5  -4   1    2.91    1.11
  -6   4  -1  167.12    8.90
  -6   4  -1  184.98   10.25
  -6   4  -1  176.21    9.13
   6  -4   1  174.49    9.10
   6  -4   1  169.78   10.71
   6  -4   1  162.92    8.85
   6  -4   1  188.99    9.63
  -7   4  -1   38.06    2.89
  -7   4  -1   37.18    2.90
   7  -4   1   39.06    2.81
   7  -4   1   36.18    3.21
   7  -4   1   35.79    2.62
  -8   4  -1   17.69    2.35
  -8   4  -1   17.68    2.37
   8  -4   1   17.34    2.23
   8  -4   1   15.97    2.34
   8  -4   1   22.56    3.04
  -9   4  -1   51.04    3.94
   9  -4   1   45.68    3.66
   7   3  -1   43.64    3.50
   6   3  -1   79.76    5.16
  -6  -3   1   89.20    5.63
  -6  -3   1   81.13    4.75
  -6  -3   1   75.00    4.64
   5   3  -1   11.85    1.44
   5   3  -1   10.71    1.49
   5   3  -1   10.36    1.40
  -5  -3   1   11.63    1.55
  -5  -3   1   11.74    1.91
  -5  -3   1   13.87    1.55
   4   3  -1  111.57    5.78
   4   3  -1  109.98    6.46
   4   3  -1  116.28    5.69
  -4  -3   1  112.01    5.85
  -4  -3   1  109.47    5.73
  -4  -3   1  108.79    6.71
   3   3  -1  169.72    9.91
   3   3  -1  183.85    9.98
   3   3  -1  171.35    8.76
   3   3  -1  181.70    8.56
  -3  -3   1  171.33    8.76
  -3  -3   1  164.84    9.94
  -3  -3   1  186.62    9.46
  -3  -3   1  161.71    8.54
   2   3  -1  107.83    5.20
   2   3  -1  104.12    5.34
   2   3  -1   99.19    6.07
  -2  -3   1  101.67    6.07
  -2  -3   1  101.82    5.22
  -2  -3   1  107.18    5.34
  -2  -3   1  114.08    5.81
   1   3  -1  698.84   32.95
   1   3  -1  750.08   32.97
   1   3  -1  580.61   36.57
   1   3  -1  663.24   32.18
  -1  -3   1  753.41   32.20
  -1  -3   1  651.51   35.84
  -1  -3   1  684.99   32.20
  -1  -3   1  649.39   37.06
  -1  -3   1  645.53   32.95
   0   3  -1    0.22    0.33
   0   3  -1    0.08    0.18
   0   3  -1    1.12    0.35
   0   3  -1    0.23    0.24
   0   3  -1   -0.13    0.24
   0  -3   1    0.17    0.38
   0  -3   1   -0.20    0.31
   0  -3   1    0.00    0.25
   0  -3   1    0.67    0.45
   0  -3   1    0.33    0.28
  -1   3  -1  260.83   14.90
  -1   3  -1  305.61   13.54
  -1   3  -1  252.24   15.63
  -1   3  -1  279.34   15.77
  -1   3  -1  263.63   13.52
  -1   3  -1  275.16   13.22
   1  -3   1  267.01   15.77
   1  -3   1  276.58   13.53
   1  -3   1  289.29   15.64
   1  -3   1  259.96   14.74
   1  -3   1  278.62   13.22
   1  -3   1  300.40   13.24
  -2   3  -1  696.39   30.06
  -2   3  -1  540.74   34.52
  -2   3  -1  666.20   32.65
  -2   3  -1  659.09   29.40
  -2   3  -1  602.78   30.05
   2  -3   1  599.72   30.05
   2  -3   1  581.09   29.34
   2  -3   1  571.72   35.08
   2  -3   1  640.04   34.56
   2  -3   1  592.75   32.66
  -3   3  -1    2.35    0.71
  -3   3  -1    1.57    0.63
  -3   3  -1    1.07    0.51
  -3   3  -1    1.00    0.46
  -3   3  -1    1.68    0.42
  -3   3  -1    1.57    0.47
   3  -3   1    0.69    0.68
   3  -3   1    1.14    0.49
   3  -3   1    0.60    0.80
   3  -3   1    0.65    0.50
  -4   3  -1  185.16    9.08
  -4   3  -1  177.40    8.87
  -4   3  -1  172.38   10.30
  -4   3  -1  176.87    9.49
   4  -3   1  190.44    9.72
   4  -3   1  172.23   10.63
   4  -3   1  170.47    9.05
   4  -3   1  190.37    8.88
  -5   3  -1  171.61    8.96
  -5   3  -1  179.37   10.34
  -5   3  -1  174.99    9.16
   5  -3   1  170.49   10.73
   5  -3   1  176.39    9.14
   5  -3   1  194.77    9.71
   5  -3   1  182.43    8.90
  -6   3  -1    3.71    1.02
  -6   3  -1    4.98    1.37
  -6   3  -1    4.84    1.04
   6  -3   1    6.27    1.35
   6  -3   1    2.15    0.93
   6  -3   1    3.98    1.00
  -7   3  -1   73.67    4.67
  -7   3  -1   71.74    4.27
  -7   3  -1   72.26    4.36
   7  -3   1   70.55    4.41
   7  -3   1   72.96    4.30
   7  -3   1   78.80    5.35
  -8   3  -1   12.40    1.71
  -8   3  -1    8.85    2.06
   8  -3   1   10.08    2.08
   8  -3   1   11.68    2.01
   8  -3   1   11.79    2.63
  -9   3  -1   18.11    2.24
   9  -3   1   25.09    2.90
   7   2  -1    7.18    1.89
   7   2  -1    7.91    1.70
  -7  -2   1   10.28    2.02
  -7  -2   1   11.33    1.97
   6   2  -1   50.63    3.55
   6   2  -1   53.26    3.08
   6   2  -1   54.72    3.40
  -6  -2   1   52.02    4.02
  -6  -2   1   47.07    3.34
  -6  -2   1   55.54    3.44
   5   2  -1   53.99    3.01
   5   2  -1   47.15    2.93
   5   2  -1   50.25    3.22
  -5  -2   1   52.69    3.07
  -5  -2   1   48.49    3.61
  -5  -2   1   50.32    3.13
   4   2  -1  233.17   13.15
   4   2  -1  210.19   11.37
   4   2  -1  240.09   11.14
  -4  -2   1  225.37   12.93
  -4  -2   1  231.28   11.18
  -4  -2   1  226.15   11.42
   3   2  -1  190.86   10.84
   3   2  -1  180.84   11.10
   3   2  -1  192.66    9.38
   3   2  -1  178.47    9.60
  -3  -2   1  196.80    9.65
  -3  -2   1  222.85   11.10
  -3  -2   1  192.12    9.43
  -3  -2   1  186.89   10.90
   2   2  -1   75.29    3.71
   2   2  -1   75.58    4.13
   2   2  -1   73.12    4.34
   2   2  -1   77.58    3.83
   2   2  -1   72.14    4.37
  -2  -2   1   71.43    4.34
  -2  -2   1   81.66    4.14
  -2  -2   1   74.26    3.84
  -2  -2   1   70.16    3.73
   1   2  -1  993.89   42.82
   1   2  -1  773.82   41.91
   1   2  -1  892.65   43.03
   1   2  -1  774.26   47.50
   1   2  -1  947.88   48.13
   1   2  -1  862.64   46.54
   1   2  -1  937.40   41.82
   1   2  -1  774.96   50.09
  -1  -2   1  912.63   49.23
  -1  -2   1  834.64   42.81
  -1  -2   1 1000.00   41.83
  -1  -2   1  865.92   48.14
  -1  -2   1  850.89   41.82
  -1  -2   1  884.74   47.50
   0   2  -1  173.31    9.81
   0   2  -1  174.32    8.84
   0   2  -1  196.60    8.65
   0   2  -1  172.77    8.64
   0   2  -1  191.45    8.85
   0   2  -1  176.21   10.28
   0   2  -1  183.37    9.64
   0   2  -1  173.64   10.24
   0  -2   1  180.12    8.85
   0  -2   1  181.86    9.80
   0  -2   1  188.55    8.65
   0  -2   1  176.65    8.65
   0  -2   1  175.87    9.65
   0  -2   1  186.42   10.24
   0  -2   1  186.60    8.84
   0  -2   1  168.14    9.93
  -1   2  -1   21.99    1.59
  -1   2  -1   23.53    1.25
  -1   2  -1   24.93    1.40
  -1   2  -1   22.04    1.31
  -1   2  -1   24.19    1.31
  -1   2  -1   24.55    1.30
  -1   2  -1   24.96    1.51
   1  -2   1   23.07    1.52
   1  -2   1   25.32    1.30
   1  -2   1   23.61    1.31
   1  -2   1   23.78    1.60
   1  -2   1   23.15    1.26
   1  -2   1   24.20    1.33
   1  -2   1   24.52    1.44
  -2   2  -1  383.20   19.71
  -2   2  -1  427.53   20.17
  -2   2  -1  438.99   21.86
  -2   2  -1  405.85   21.15
  -2   2  -1  395.10   23.15
  -2   2  -1  392.88   23.53
  -2   2  -1  402.47   20.17
  -2   2  -1  434.05   19.70
   2  -2   1  436.38   19.73
   2  -2   1  398.17   21.86
   2  -2   1  388.90   20.17
   2  -2   1  447.15   23.18
   2  -2   1  377.76   23.54
   2  -2   1  431.81   20.18
   2  -2   1  397.94   19.70
   2  -2   1  427.75   22.66
  -3   2  -1  247.35   12.04
  -3   2  -1  246.61   13.81
  -3   2  -1  257.01   12.34
  -3   2  -1  256.50   12.94
  -3   2  -1  254.68   14.08
   3  -2   1  260.35   13.27
   3  -2   1  258.20   13.59
   3  -2   1  239.34   14.39
   3  -2   1  238.34   12.32
   3  -2   1  225.52   12.01
  -4   2  -1   78.95    4.52
  -4   2  -1   83.14    4.75
  -4   2  -1   80.71    4.79
  -4   2  -1   74.34    4.14
  -4   2  -1   77.62    4.30
   4  -2   1   76.79    5.00
   4  -2   1   78.82    4.18
   4  -2   1   86.83    4.43
   4  -2   1   83.19    4.53
   4  -2   1   81.01    4.30
  -5   2  -1  271.25   15.26
  -5   2  -1  272.77   15.05
  -5   2  -1  260.78   13.14
  -5   2  -1  261.38   13.43
   5  -2   1  294.30   14.29
   5  -2   1  273.71   13.10
   5  -2   1  236.53   15.65
   5  -2   1  293.34   14.72
   5  -2   1  236.78   13.37
  -6   2  -1   10.70    1.33
  -6   2  -1   10.28    1.56
  -6   2  -1    9.51    1.55
  -6   2  -1   14.93    1.78
   6  -2   1   11.42    1.90
   6  -2   1   12.06    1.29
   6  -2   1   10.93    1.50
  -7   2  -1   69.94    4.20
  -7   2  -1   69.98    4.69
  -7   2  -1   64.46    4.17
  -7   2  -1   62.90    4.34
   7  -2   1   72.58    4.07
   7  -2   1   69.90    4.98
   7  -2   1   66.85    3.99
  -8   2  -1   55.78    4.27
  -8   2  -1   60.13    3.88
  -8   2  -1   63.07    4.14
   8  -2   1   64.06    4.93
   8  -2   1   63.55    4.00
   8  -2   1   60.63    4.13
   7   1  -1   11.82    1.85
   7   1  -1   10.76    1.93
  -7  -1   1   13.20    1.96
  -7  -1   1   14.00    2.01
  -7  -1   1   12.61    2.42
   6   1  -1    3.40    1.11
   6   1  -1    4.67    1.34
   6   1  -1    6.83    1.36
   6   1  -1    5.61    1.41
  -6  -1   1    5.56    1.44
  -6  -1   1    5.08    1.78
  -6  -1   1    4.83    1.42
   5   1  -1  187.75    9.19
   5   1  -1  191.24   10.44
   5   1  -1  181.84   10.95
  -5  -1   1  172.98   10.68
  -5  -1   1  193.72    9.30
  -5  -1   1  187.38    9.45
   4   1  -1   11.93    1.03
   4   1  -1   13.05    1.25
   4   1  -1   13.14    1.15
   4   1  -1   12.32    1.55
  -4  -1   1   10.49    1.14
  -4  -1   1   11.16    1.16
  -4  -1   1   10.66    1.42
   3   1  -1  209.93   10.11
   3   1  -1  171.16   10.88
   3   1  -1  188.84    9.13
   3   1  -1  164.43   10.49
   3   1  -1  175.94    9.34
  -3  -1   1  212.23   10.86
  -3  -1   1  199.25    9.38
  -3  -1   1  178.18    9.16
  -3  -1   1  190.78   10.61
   2   1  -1   77.62    3.86
   2   1  -1   75.67    3.95
   2   1  -1   86.15    3.97
   2   1  -1   73.97    4.48
   2   1  -1   66.16    4.56
   2   1  -1   84.65    4.27
  -2  -1   1   88.29    4.56
  -2  -1   1   76.13    4.50
  -2  -1   1   74.29    3.86
  -2  -1   1   75.38    3.95
  -2  -1   1   80.59    3.86
   1   1  -1    0.91    0.27
   1   1  -1    0.94    0.25
   1   1  -1    0.42    0.17
   1   1  -1    0.36    0.23
   1   1  -1    0.39    0.15
   1   1  -1   -0.22    0.23
   1   1  -1    0.04    0.26
   1   1  -1    0.73    0.39
  -1  -1   1   -0.03    0.22
  -1  -1   1    0.27    0.18
  -1  -1   1    0.36    0.17
  -1  -1   1    0.70    0.31
  -1  -1   1    0.44    0.26
  -1  -1   1    0.46    0.24
  -1  -1   1    0.19    0.22
   0   1  -1  524.88   24.37
   0   1  -1  555.23   24.83
   0   1  -1  575.06   28.02
   0   1  -1  524.91   27.01
   0   1  -1  497.40   24.95
   0   1  -1  475.77   24.30
   0  -1   1  529.77   24.99
   0  -1   1  435.39   28.48
   0  -1   1  471.88   27.09
   0  -1   1  528.93   24.35
   0  -1   1  450.80   27.51
   0  -1   1  518.35   24.30
   0  -1   1  519.41   24.93
   0  -1   1  510.86   27.98
  -1   1  -1  224.15   12.63
  -1   1  -1  219.47   12.13
  -1   1  -1  213.61   10.82
  -1   1  -1  204.23   10.58
  -1   1  -1  227.19   10.82
  -1   1  -1  234.10   10.57
  -1   1  -1  229.40   11.72
  -1   1  -1  208.01   12.44
   1  -1   1  214.56   10.56
   1  -1   1  229.38   11.72
   1  -1   1  239.55   12.46
   1  -1   1  225.98   10.83
   1  -1   1  219.61   12.13
   1  -1   1  219.55   12.63
   1  -1   1  216.32   10.59
   1  -1   1  204.75   10.82
  -2   1  -1   21.62    1.50
  -2   1  -1   26.05    1.41
  -2   1  -1   26.67    1.42
  -2   1  -1   24.97    1.39
  -2   1  -1   23.68    1.58
  -2   1  -1   23.49    1.43
  -2   1  -1   26.68    1.68
  -2   1  -1   27.08    1.63
   2  -1   1   26.21    1.58
   2  -1   1   26.41    1.40
   2  -1   1   27.73    1.41
   2  -1   1   25.69    1.70
   2  -1   1   24.37    1.43
   2  -1   1   25.68    1.42
   2  -1   1   25.87    1.47
   2  -1   1   26.54    1.53
  -3   1  -1  545.45   25.86
  -3   1  -1  526.56   27.15
  -3   1  -1  548.37   29.04
  -3   1  -1  525.81   25.26
  -3   1  -1  562.93   29.65
   3  -1   1  478.71   30.15
   3  -1   1  525.18   25.25
   3  -1   1  562.98   28.76
   3  -1   1  496.29   28.06
   3  -1   1  502.83   25.83
  -4   1  -1   31.00    2.42
  -4   1  -1   34.23    2.36
  -4   1  -1   35.43    2.14
  -4   1  -1   34.43    2.07
   4  -1   1   32.53    2.17
   4  -1   1   38.74    2.00
   4  -1   1   34.76    2.05
   4  -1   1   36.55    2.22
   4  -1   1   36.75    2.47
   4  -1   1   38.19    1.98
  -5   1  -1   53.83    3.06
  -5   1  -1   50.59    3.35
  -5   1  -1   54.07    3.30
  -5   1  -1   51.58    3.12
   5  -1   1   49.65    3.55
   5  -1   1   54.57    3.09
   5  -1   1   48.68    2.95
   5  -1   1   50.40    2.77
   5  -1   1   54.70    3.14
  -6   1  -1   75.53    4.34
  -6   1  -1   77.69    4.77
  -6   1  -1   74.13    4.39
  -6   1  -1   71.31    4.86
   6  -1   1   75.80    5.04
   6  -1   1   74.36    4.34
   6  -1   1   75.61    4.11
   6  -1   1   78.49    4.50
  -7   1  -1    4.10    1.29
  -7   1  -1    1.46    1.78
  -7   1  -1    1.93    1.19
  -7   1  -1    2.44    1.16
   7  -1   1    3.71    1.19
   7  -1   1    3.11    1.29
   7  -1   1    2.79    1.54
  -8   1  -1   46.21    3.73
  -8   1  -1   53.50    4.22
   8  -1   1   49.86    3.68
   8   0  -1    6.15    2.04
   8   0  -1    3.68    1.42
  -8   0   1    3.76    1.45
  -8   0   1    5.03    2.06
  -8   0   1    6.15    2.41
   7   0  -1  101.75    5.61
   7   0  -1  104.41    6.50
  -7   0   1   95.09    5.74
  -7   0   1  110.93    5.74
  -7   0   1   95.47    6.55
   6   0  -1    0.80    0.98
   6   0  -1    3.41    1.42
   6   0  -1    2.52    0.90
   6   0  -1    3.64    1.27
  -6   0   1    1.85    1.30
  -6   0   1    2.69    1.32
  -6   0   1    0.93    1.16
   5   0  -1   51.86    3.09
   5   0  -1   51.31    3.39
   5   0  -1   50.69    2.99
   5   0  -1   48.90    2.91
  -5   0   1   48.60    3.51
  -5   0   1   50.54    2.99
  -5   0   1   54.84    2.96
   4   0  -1  177.68   10.94
   4   0  -1  180.26    9.11
   4   0  -1  193.22   10.33
   4   0  -1  188.58   10.51
  -4   0   1  186.84    9.16
  -4   0   1  192.68   10.61
  -4   0   1  187.71    9.39
   3   0  -1  106.92    6.11
   3   0  -1  116.71    5.82
   3   0  -1  106.42    5.42
   3   0  -1  106.87    6.37
   3   0  -1  106.61    5.28
  -3   0   1  100.14    5.31
  -3   0   1  103.99    5.44
  -3   0   1  109.68    6.17
   2   0  -1   10.28    0.72
   2   0  -1    6.30    0.53
   2   0  -1    4.73    0.52
   2   0  -1    6.95    0.66
   2   0  -1    6.62    0.66
   2   0  -1    4.67    0.54
   2   0  -1    7.37    0.57
  -2   0   1    5.88    0.50
  -2   0   1    7.66    0.75
  -2   0   1    7.10    0.55
  -2   0   1    7.14    0.61
  -2   0   1    6.64    0.48
  -2   0   1    7.34    0.58
  -2   0   1    7.80    0.76
   1   0  -1   95.39    4.59
   1   0  -1   89.89    5.49
   1   0  -1   97.03    4.71
   1   0  -1   87.13    5.24
   1   0  -1   99.18    4.60
   1   0  -1   95.79    5.32
   1   0  -1   94.69    4.70
  -1   0   1   99.17    5.49
  -1   0   1   93.53    5.32
  -1   0   1  104.38    5.38
  -1   0   1   99.25    4.70
  -1   0   1  103.96    5.26
  -1   0   1   90.63    4.60
  -1   0   1   95.10    4.59
  -1   0   1   87.61    4.71
   0   0  -1  130.88    6.21
   0   0   1  126.75    6.07
   0   0   1  124.78    6.21
  -1   0  -1  152.83    7.93
  -1   0  -1  170.48    7.75
  -1   0  -1  153.72    7.75
  -1   0  -1  158.60    8.91
  -1   0  -1  163.81    8.34
  -1   0  -1  168.27    9.26
   1   0   1  169.96    8.91
   1   0   1  139.30    7.74
   1   0   1  161.58    9.26
   1   0   1  156.24    7.93
   1   0   1  167.88    7.74
   1   0   1  165.55    8.87
   1   0   1  158.07    8.33
   1   0   1  164.07    7.94
  -2   0  -1   44.99    2.38
  -2   0  -1   41.81    2.32
  -2   0  -1   41.58    2.67
  -2   0  -1   46.67    2.75
  -2   0  -1   49.26    2.31
   2   0   1   48.93    2.37
   2   0   1   42.42    2.36
   2   0   1   44.50    2.74
   2   0   1   46.98    2.64
   2   0   1   48.81    2.66
   2   0   1   43.16    2.31
  -3   0  -1  423.90   20.77
  -3   0  -1  423.54   23.34
  -3   0  -1  412.71   20.29
   3   0   1  409.64   20.74
   3   0   1  414.14   20.26
   3   0   1  453.75   22.42
   3   0   1  405.68   24.19
   3   0   1  439.25   23.14
  -4   0  -1  134.54    6.78
  -4   0  -1  125.53    7.61
  -4   0  -1  137.87    6.65
   4   0   1  130.34    6.72
   4   0   1  133.14    7.44
   4   0   1  132.70    7.83
  -5   0  -1   26.62    1.91
  -5   0  -1   27.14    2.35
  -5   0  -1   32.10    2.15
   5   0   1   31.93    2.07
   5   0   1   31.76    2.06
   5   0   1   27.97    2.28
   5   0   1   27.35    2.01
  -6   0  -1  159.43    8.75
  -6   0  -1  178.94    9.03
  -6   0  -1  176.56   10.18
  -6   0  -1  177.43   10.23
   6   0   1  171.54    9.83
   6   0   1  172.63   10.36
   6   0   1  171.71    8.97
   6   0   1  178.81    8.79
  -7   0  -1   32.77    2.71
  -7   0  -1   34.79    2.74
  -7   0  -1   29.07    2.66
  -7   0  -1   29.39    2.34
   7   0   1   24.42    2.60
   7   0   1   30.00    2.59
  -8   0  -1   -0.44    2.19
   8  -1  -1    8.88    2.33
   8  -1  -1    4.46    1.94
   8  -1  -1    7.99    1.51
  -8   1   1    9.34    2.05
  -8   1   1    8.24    1.84
  -8   1   1    6.74    2.03
   7  -1  -1   75.76    5.03
   7  -1  -1   65.43    4.01
   7  -1  -1   69.80    3.97
  -7   1   1   66.71    4.25
  -7   1   1   65.18    4.17
  -7   1   1   73.51    4.91
   6  -1  -1   80.04    4.41
   6  -1  -1   79.78    5.32
  -6   1   1   78.50    5.10
  -6   1   1   82.36    4.84
  -6   1   1   80.23    4.59
  -6   1   1   81.85    4.50
   5  -1  -1    4.04    1.26
   5  -1  -1    4.50    1.00
   5  -1  -1    3.30    0.73
   5  -1  -1    3.84    0.55
  -5   1   1    2.82    1.02
  -5   1   1    3.86    1.05
  -5   1   1    3.31    0.72
  -5   1   1    4.12    1.28
   4  -1  -1  109.34    6.79
   4  -1  -1  105.23    5.61
   4  -1  -1  115.70    5.79
   4  -1  -1  120.62    6.27
   4  -1  -1  113.30    6.45
  -4   1   1  110.33    6.47
  -4   1   1  119.23    5.81
  -4   1   1  114.81    5.70
  -4   1   1  107.35    6.55
   3  -1  -1   69.77    3.82
   3  -1  -1   66.37    3.40
   3  -1  -1   60.77    3.30
   3  -1  -1   61.00    3.98
  -3   1   1   61.16    3.39
  -3   1   1   68.50    3.76
  -3   1   1   68.84    3.36
  -3   1   1   67.52    3.88
   2  -1  -1  116.81    6.12
   2  -1  -1  114.83    5.83
   2  -1  -1  102.62    5.69
   2  -1  -1  126.14    5.74
   2  -1  -1  119.48    6.49
   2  -1  -1  117.05    6.65
   2  -1  -1  104.90    6.84
   2  -1  -1  124.53    5.86
  -2   1   1  130.33    5.71
  -2   1   1  124.91    6.50
  -2   1   1  120.70    6.86
  -2   1   1  117.70    5.86
  -2   1   1  101.23    5.71
  -2   1   1  111.36    6.62
  -2   1   1  125.46    5.85
  -2   1   1  122.55    6.62
   1  -1  -1  407.55   19.41
   1  -1  -1  413.70   20.87
   1  -1  -1  380.23   22.09
   1  -1  -1  390.87   19.45
   1  -1  -1  378.80   23.20
   1  -1  -1  393.76   19.85
   1  -1  -1  436.17   19.86
  -1   1   1  435.91   19.86
  -1   1   1  370.96   19.40
  -1   1   1  452.42   19.49
  -1   1   1  409.01   19.86
  -1   1   1  416.16   22.11
   0  -1  -1   59.07    2.79
   0  -1  -1   52.44    2.72
   0  -1  -1   58.41    2.79
   0  -1  -1   58.85    2.72
   0   1   1   55.46    3.19
   0   1   1   55.01    2.79
  -1  -1  -1  640.99   35.65
  -1  -1  -1  652.51   29.87
  -1  -1  -1  657.79   30.41
  -1  -1  -1  562.91   33.16
  -1  -1  -1  674.64   30.49
  -1  -1  -1  618.92   29.86
  -1  -1  -1  559.49   34.20
   1   1   1  584.17   29.83
   1   1   1  623.98   31.90
   1   1   1  623.47   30.59
   1   1   1  652.14   34.21
   1   1   1  666.39   30.41
   1   1   1  600.81   33.20
   1   1   1  646.83   29.74
   1   1   1  602.86   33.99
  -2  -1  -1  216.43   11.87
  -2  -1  -1  202.51   10.20
  -2  -1  -1  220.09    9.96
  -2  -1  -1  210.87   10.99
  -2  -1  -1  199.54    9.97
  -2  -1  -1  194.71   11.51
   2   1   1  228.85   10.22
   2   1   1  199.19   11.43
   2   1   1  216.81   11.01
   2   1   1  203.47    9.96
   2   1   1  183.90   10.18
  -3  -1  -1   15.88    1.12
  -3  -1  -1   18.11    1.26
  -3  -1  -1   15.47    1.36
   3   1   1   16.12    1.19
   3   1   1   19.14    1.35
   3   1   1   20.69    1.09
   3   1   1   19.23    1.31
  -4  -1  -1   63.81    4.09
  -4  -1  -1   65.53    3.52
  -4  -1  -1   73.33    3.69
   4   1   1   60.53    4.05
   4   1   1   72.11    3.59
   4   1   1   64.31    3.96
   4   1   1   65.59    3.47
   4   1   1   66.33    3.63
  -5  -1  -1   68.66    4.09
  -5  -1  -1   79.98    4.14
  -5  -1  -1   76.56    4.80
   5   1   1   73.93    4.10
   5   1   1   77.81    4.60
   5   1   1   74.21    4.65
  -6  -1  -1   21.21    2.06
  -6  -1  -1   17.48    1.99
  -6  -1  -1   18.11    1.69
   6   1   1   21.22    1.98
   6   1   1   15.51    1.85
   6   1   1   20.60    1.74
  -7  -1  -1   75.96    5.05
  -7  -1  -1   71.52    5.04
  -7  -1  -1   75.22    4.56
   7   1   1   78.13    4.58
   7   1   1   71.35    4.76
   9  -2  -1   31.55    3.07
   8  -2  -1   47.09    3.65
   8  -2  -1   59.36    4.45
   8  -2  -1   48.35    3.53
  -8   2   1   48.66    3.69
  -8   2   1   51.08    3.64
   7  -2  -1    9.05    1.68
   7  -2  -1    7.40    1.99
   7  -2  -1    5.67    1.58
  -7   2   1    8.17    1.71
  -7   2   1    7.89    1.67
  -7   2   1   11.79    2.04
   6  -2  -1  150.15    7.65
   6  -2  -1  148.31    7.82
   6  -2  -1  162.09    9.34
  -6   2   1  144.10    8.71
  -6   2   1  148.85    7.87
  -6   2   1  160.89    8.95
  -6   2   1  150.48    7.76
   5  -2  -1   47.72    3.32
   5  -2  -1   44.13    2.75
  -5   2   1   46.83    2.79
  -5   2   1   43.12    3.04
  -5   2   1   46.82    2.64
  -5   2   1   46.45    2.69
   4  -2  -1    9.04    1.28
   4  -2  -1   10.70    1.12
   4  -2  -1   11.29    1.11
  -4   2   1   11.48    1.14
  -4   2   1   11.39    0.94
  -4   2   1   10.84    0.82
   3  -2  -1  289.14   18.01
   3  -2  -1  302.77   17.03
   3  -2  -1  321.96   15.41
  -3   2   1  321.36   15.07
  -3   2   1  302.09   15.41
  -3   2   1  307.77   17.56
  -3   2   1  345.77   17.06
   2  -2  -1    3.63    0.61
   2  -2  -1    4.43    0.49
   2  -2  -1    3.94    0.49
   2  -2  -1    3.24    0.48
   2  -2  -1    4.29    0.51
   2  -2  -1    4.42    0.48
   2  -2  -1    3.68    0.46
   2  -2  -1    3.93    0.42
  -2   2   1    4.10    0.45
  -2   2   1    3.61    0.40
  -2   2   1    4.12    0.44
  -2   2   1    5.32    0.50
  -2   2   1    3.60    0.50
  -2   2   1    5.95    0.45
  -2   2   1    4.04    0.64
  -2   2   1    3.82    0.50
   1  -2  -1  251.46   11.13
   1  -2  -1  215.67   11.12
   1  -2  -1  235.24   11.38
   1  -2  -1  251.40   12.58
   1  -2  -1  235.54   13.32
   1  -2  -1  229.34   11.39
  -1   2   1  250.35   12.72
  -1   2   1  210.26   11.38
  -1   2   1  216.52   11.11
  -1   2   1  239.96   12.84
  -1   2   1  215.01   11.92
  -1   2   1  243.37   11.39
   0  -2  -1   29.35    1.56
   0  -2  -1   31.07    1.53
   0  -2  -1   33.18    1.84
   0  -2  -1   29.52    1.80
   0  -2  -1   29.17    1.53
   0  -2  -1   32.50    1.56
   0   2   1   28.75    1.56
   0   2   1   32.71    1.53
   0   2   1   32.43    1.58
  -1  -2  -1  158.68    7.14
  -1  -2  -1  143.29    7.14
  -1  -2  -1  151.09    7.31
  -1  -2  -1  135.43    8.29
  -1  -2  -1  160.34    8.48
  -1  -2  -1  130.44    7.95
   1   2   1  156.50    7.32
   1   2   1  139.42    7.30
   1   2   1  150.55    7.99
   1   2   1  150.45    8.28
   1   2   1  152.24    7.13
   1   2   1  148.75    7.13
  -2  -2  -1  258.25   12.68
  -2  -2  -1  268.06   15.06
  -2  -2  -1  252.56   14.03
  -2  -2  -1  258.24   12.97
  -2  -2  -1  284.55   12.66
   2   2   1  279.41   14.08
   2   2   1  252.31   12.65
   2   2   1  250.88   12.95
   2   2   1  277.25   12.97
   2   2   1  254.46   14.57
  -3  -2  -1   50.64    2.87
  -3  -2  -1   49.58    2.91
  -3  -2  -1   57.83    3.29
  -3  -2  -1   51.55    3.34
  -3  -2  -1   54.43    2.97
   3   2   1   54.12    2.84
   3   2   1   58.54    3.03
   3   2   1   53.79    2.92
   3   2   1   51.87    3.30
  -4  -2  -1  137.71    7.31
  -4  -2  -1  139.32    8.48
  -4  -2  -1  152.15    7.48
   4   2   1  149.41    8.41
   4   2   1  151.99    7.28
  -5  -2  -1  133.67    6.94
  -5  -2  -1  136.83    6.84
  -5  -2  -1  121.45    7.80
   5   2   1  135.59    7.76
   5   2   1  130.35    6.67
   5   2   1  135.68    6.92
  -6  -2  -1   11.26    1.74
  -6  -2  -1    7.48    2.02
   6   2   1   10.53    1.82
   6   2   1   10.99    1.37
  -7  -2  -1   51.60    3.69
  -7  -2  -1   54.94    4.48
   7   2   1   55.95    4.01
   7   2   1   56.36    3.78
   9  -3  -1   13.10    2.89
   9  -3  -1   17.97    2.43
  -9   3   1    9.66    2.37
   8  -3  -1   74.81    4.36
   8  -3  -1   85.22    5.68
   8  -3  -1   69.75    4.45
  -8   3   1   75.22    4.66
  -8   3   1   75.06    4.78
   7  -3  -1   44.29    2.93
   7  -3  -1   52.91    3.88
   7  -3  -1   43.33    3.05
  -7   3   1   43.86    3.22
  -7   3   1   46.55    3.19
   6  -3  -1   70.00    5.24
   6  -3  -1   75.78    4.43
   6  -3  -1   81.36    4.35
   6  -3  -1   85.32    4.59
  -6   3   1   81.27    4.32
  -6   3   1   79.60    4.42
   5  -3  -1  213.07   10.50
   5  -3  -1  217.03   10.78
   5  -3  -1  204.35   12.61
  -5   3   1  226.36   12.12
  -5   3   1  207.09   10.54
  -5   3   1  211.54   10.81
   4  -3  -1   29.44    1.90
   4  -3  -1   32.80    2.30
   4  -3  -1   32.11    1.99
   4  -3  -1   35.84    2.07
  -4   3   1   32.17    1.97
  -4   3   1   31.25    2.02
  -4   3   1   31.23    1.97
   3  -3  -1  416.92   20.19
   3  -3  -1  425.57   20.67
   3  -3  -1  440.06   22.80
   3  -3  -1  372.03   24.14
   3  -3  -1  455.44   23.63
  -3   3   1  416.53   21.65
  -3   3   1  478.56   20.69
  -3   3   1  410.32   20.20
  -3   3   1  402.32   23.62
  -3   3   1  405.91   22.80
  -3   3   1  426.36   22.20
  -3   3   1  400.04   20.68
   2  -3  -1  671.99   33.60
   2  -3  -1  668.61   32.83
   2  -3  -1  692.24   37.25
   2  -3  -1  706.90   32.85
   2  -3  -1  672.21   36.61
   2  -3  -1  646.97   39.26
   2  -3  -1  729.34   38.59
  -2   3   1  634.19   33.60
  -2   3   1  701.61   36.15
  -2   3   1  738.68   37.43
  -2   3   1  671.19   32.83
  -2   3   1  714.22   35.23
  -2   3   1  704.35   33.61
   1  -3  -1    3.01    0.34
   1  -3  -1    3.42    0.37
   1  -3  -1    3.24    0.53
   1  -3  -1    2.71    0.50
   1  -3  -1    3.10    0.36
   1  -3  -1    3.09    0.47
   1  -3  -1    3.66    0.36
  -1   3   1    4.51    0.48
  -1   3   1    3.28    0.33
  -1   3   1    3.54    0.37
  -1   3   1    3.28    0.33
  -1   3   1    2.94    0.36
   0  -3  -1  538.11   27.03
   0  -3  -1  545.33   31.63
   0  -3  -1  572.41   30.04
   0  -3  -1  551.09   26.42
   0  -3  -1  486.88   29.48
   0  -3  -1  597.61   26.42
   0   3   1  575.93   27.05
   0   3   1  542.41   27.03
   0   3   1  573.47   26.41
   0   3   1  563.90   26.40
  -1  -3  -1  212.02   10.15
  -1  -3  -1  205.69    9.92
  -1  -3  -1  180.24   11.06
  -1  -3  -1  225.32    9.92
  -1  -3  -1  192.67   11.50
  -1  -3  -1  220.08   11.75
   1   3   1  200.29   10.14
   1   3   1  198.53    9.89
   1   3   1  219.29   10.16
  -2  -3  -1    2.08    0.31
  -2  -3  -1    1.83    0.49
  -2  -3  -1    2.22    0.42
  -2  -3  -1    1.64    0.47
  -2  -3  -1    2.03    0.54
  -2  -3  -1    2.09    0.60
   2   3   1    1.78    0.52
   2   3   1    1.81    0.47
   2   3   1    2.65    0.95
   2   3   1    2.06    0.55
  -3  -3  -1  162.11    8.47
  -3  -3  -1  161.00    7.92
  -3  -3  -1  152.19    7.72
  -3  -3  -1  146.85    9.00
   3   3   1  160.37    7.90
   3   3   1  151.30    8.99
   3   3   1  161.64    7.70
  -4  -3  -1   32.34    2.13
  -4  -3  -1   27.60    2.56
  -4  -3  -1   32.58    2.11
   4   3   1   29.12    2.11
   4   3   1   30.76    2.56
   4   3   1   34.94    2.03
  -5  -3  -1   34.45    2.97
  -5  -3  -1   28.95    2.14
   5   3   1   32.24    2.54
   5   3   1   34.05    2.18
  -6  -3  -1   53.87    3.97
  -6  -3  -1   56.36    3.55
   6   3   1   54.62    3.55
   6   3   1   52.48    3.94
   7   3   1    2.25    1.98
   9  -4  -1    7.24    1.64
   9  -4  -1   11.47    2.79
   9  -4  -1    6.08    2.20
  -9   4   1    9.59    1.79
  -9   4   1   10.30    2.29
   8  -4  -1   31.51    3.47
   8  -4  -1   34.69    2.89
   8  -4  -1   30.22    2.75
  -8   4   1   30.07    2.53
  -8   4   1   30.37    2.47
   7  -4  -1  126.77    7.21
   7  -4  -1  121.15    8.14
   7  -4  -1  132.57    6.68
   7  -4  -1  128.23    6.82
  -7   4   1  130.20    6.99
  -7   4   1  129.73    6.83
   6  -4  -1   25.81    1.97
   6  -4  -1   25.27    2.58
   6  -4  -1   23.36    1.84
   6  -4  -1   25.30    2.05
  -6   4   1   25.31    2.11
  -6   4   1   30.20    2.23
   5  -4  -1  151.07    8.08
   5  -4  -1  165.74    8.95
   5  -4  -1  164.49    9.79
   5  -4  -1  163.16    8.28
  -5   4   1  167.91    9.28
  -5   4   1  160.32    8.14
  -5   4   1  164.67    8.33
   4  -4  -1  276.70   13.77
   4  -4  -1  242.21   13.42
   4  -4  -1  311.36   15.67
   4  -4  -1  270.53   14.96
  -4   4   1  284.97   15.10
  -4   4   1  285.09   14.41
  -4   4   1  275.50   13.79
  -4   4   1  269.77   14.77
  -4   4   1  282.94   15.65
  -4   4   1  266.25   13.46
   3  -4  -1    5.81    0.79
   3  -4  -1    4.24    0.75
   3  -4  -1    4.12    0.75
   3  -4  -1    6.39    0.80
   3  -4  -1    5.21    0.81
  -3   4   1    6.11    0.50
  -3   4   1    6.50    0.73
  -3   4   1    4.92    0.64
  -3   4   1    5.72    0.47
  -3   4   1    4.66    0.77
  -3   4   1    4.64    0.68
  -3   4   1    5.04    0.70
   2  -4  -1  163.95   10.55
   2  -4  -1  186.59    8.82
   2  -4  -1  200.76    8.85
   2  -4  -1  180.80    9.00
   2  -4  -1  174.82    9.94
  -2   4   1  198.60    9.03
  -2   4   1  172.16    9.01
  -2   4   1  178.62    8.79
  -2   4   1  179.38    9.40
   1  -4  -1  101.62    4.91
   1  -4  -1  110.30    4.92
   1  -4  -1   91.10    5.61
   1  -4  -1   93.60    5.87
   1  -4  -1  108.81    5.51
   1  -4  -1   92.44    5.00
  -1   4   1   96.81    4.87
  -1   4   1   98.21    5.02
  -1   4   1  108.74    5.03
   0  -4  -1   24.95    1.53
   0  -4  -1   23.99    1.46
   0  -4  -1   20.08    1.27
   0  -4  -1   25.63    1.60
   0  -4  -1   21.97    1.69
   0  -4  -1   22.84    1.30
   0  -4  -1   24.14    1.29
   0   4   1   22.77    1.31
   0   4   1   24.76    1.33
   0   4   1   21.99    1.24
  -1  -4  -1  188.67   11.64
  -1  -4  -1  201.01   10.00
  -1  -4  -1  234.89   10.00
  -1  -4  -1  207.56   11.21
  -1  -4  -1  200.74   10.23
   1   4   1  209.60    9.97
   1   4   1  222.49   10.25
   1   4   1  191.05   10.21
  -2  -4  -1   48.48    2.84
  -2  -4  -1   46.78    2.61
  -2  -4  -1   44.79    3.14
  -2  -4  -1   47.06    2.58
   2   4   1   43.96    2.58
   2   4   1   49.33    2.52
   2   4   1   49.70    2.60
   2   4   1   51.20    3.17
  -3  -4  -1  161.12    8.30
  -3  -4  -1  151.56    7.71
  -3  -4  -1  150.87    7.56
  -3  -4  -1  150.11    8.87
   3   4   1  150.20    8.89
   3   4   1  146.81    7.70
  -4  -4  -1   87.84    4.89
  -4  -4  -1   96.72    5.94
   4   4   1  102.96    6.01
   4   4   1   92.39    5.05
  -5  -4  -1    4.01    1.89
  -5  -4  -1    2.37    1.03
   5   4   1    2.77    1.38
  -6  -4  -1   27.34    2.56
  -6  -4  -1   22.33    2.60
   6   4   1   24.41    2.89
   6   4   1   24.56    2.47
   7   4   1   19.95    2.82
   9  -5  -1   60.81    4.07
   9  -5  -1   61.42    4.32
   8  -5  -1   -0.46    1.71
   8  -5  -1    2.12    1.24
   8  -5  -1    1.84    1.59
  -8   5   1    0.97    1.79
  -8   5   1    1.16    1.63
   7  -5  -1   79.45    4.77
   7  -5  -1   77.90    4.56
   7  -5  -1   80.25    4.65
   7  -5  -1   75.78    5.50
  -7   5   1   83.29    4.60
  -7   5   1   79.64    4.71
   6  -5  -1  110.25    6.44
   6  -5  -1  116.09    7.21
   6  -5  -1  112.07    5.90
   6  -5  -1  109.98    5.95
  -6   5   1  112.92    5.94
  -6   5   1  112.97    6.09
   5  -5  -1   25.16    1.84
   5  -5  -1   22.84    2.25
   5  -5  -1   23.94    1.68
   5  -5  -1   22.82    1.66
  -5   5   1   23.15    1.93
  -5   5   1   25.75    1.75
  -5   5   1   23.17    1.85
  -5   5   1   20.82    1.83
   4  -5  -1  322.92   20.33
   4  -5  -1  373.23   17.41
   4  -5  -1  331.35   18.94
   4  -5  -1  344.44   16.99
  -4   5   1  324.53   17.38
  -4   5   1  376.18   17.01
  -4   5   1  336.18   18.67
  -4   5   1  379.58   19.01
  -4   5   1  366.21   18.18
   3  -5  -1  197.36    9.79
   3  -5  -1  204.84   10.01
   3  -5  -1  192.43   11.02
   3  -5  -1  194.99   11.73
  -3   5   1  196.10   10.41
  -3   5   1  199.88    9.77
  -3   5   1  218.98   11.02
  -3   5   1  199.40   10.02
  -3   5   1  194.74   10.78
   2  -5  -1   52.62    2.80
   2  -5  -1   48.52    2.76
   2  -5  -1   55.67    2.78
   2  -5  -1   54.81    3.36
   2  -5  -1   50.93    3.25
  -2   5   1   47.74    2.81
  -2   5   1   57.55    2.84
  -2   5   1   54.04    2.72
   1  -5  -1  484.38   25.40
   1  -5  -1  444.32   26.83
   1  -5  -1  499.55   22.47
   1  -5  -1  487.61   22.98
   1  -5  -1  422.62   25.17
   1  -5  -1  448.76   22.45
  -1   5   1  458.68   22.97
  -1   5   1  499.13   23.00
  -1   5   1  479.06   22.43
   0  -5  -1  163.19    9.41
   0  -5  -1  161.11    8.19
   0  -5  -1  157.01    8.02
   0  -5  -1  167.31    9.49
   0  -5  -1  162.87    9.11
   0  -5  -1  178.21    8.03
   0   5   1  174.40    8.22
   0   5   1  166.34    7.98
   0   5   1  154.85    8.19
  -1  -5  -1   91.59    5.28
  -1  -5  -1   92.10    5.55
  -1  -5  -1   96.04    4.79
  -1  -5  -1   93.32    4.69
   1   5   1   92.51    4.62
   1   5   1   94.92    4.77
  -2  -5  -1  101.27    5.05
  -2  -5  -1   92.79    4.94
  -2  -5  -1  103.06    5.54
  -2  -5  -1   90.88    5.90
   2   5   1   94.68    6.00
   2   5   1   93.42    5.03
   2   5   1  103.67    4.89
  -3  -5  -1   20.06    1.66
  -3  -5  -1   20.32    1.62
  -3  -5  -1   21.39    2.01
   3   5   1   20.19    1.61
   3   5   1   20.07    2.40
  -4  -5  -1   63.36    3.69
  -4  -5  -1   59.00    4.42
   4   5   1   69.09    3.71
   4   5   1   59.26    4.53
  -5  -5  -1   24.02    2.62
  -5  -5  -1   24.34    2.31
   5   5   1   24.45    2.98
   6   5   1   -1.30    2.37
   7   5   1   26.33    3.41
   8  -6  -1   60.59    4.48
   8  -6  -1   56.52    3.83
   8  -6  -1   57.06    3.91
  -8   6   1   60.40    4.02
  -8   6   1   58.39    3.88
   7  -6  -1   -2.40    1.83
   7  -6  -1    4.31    1.56
   7  -6  -1    0.28    1.43
   7  -6  -1    2.26    1.34
  -7   6   1    0.18    1.38
  -7   6   1   -0.94    1.53
   6  -6  -1   99.41    5.46
   6  -6  -1  106.18    5.63
   6  -6  -1  104.63    6.00
   6  -6  -1  100.67    6.56
  -6   6   1  108.36    5.50
  -6   6   1   96.61    5.60
   5  -6  -1   45.80    2.97
   5  -6  -1   38.57    3.00
   5  -6  -1   37.75    2.47
   5  -6  -1   40.63    2.66
  -5   6   1   43.60    2.80
  -5   6   1   39.79    2.59
  -5   6   1   42.01    2.61
  -5   6   1   37.19    2.63
   4  -6  -1   22.07    1.60
   4  -6  -1   24.39    2.17
   4  -6  -1   21.48    1.72
   4  -6  -1   24.85    2.11
  -4   6   1   23.70    1.59
  -4   6   1   23.09    1.66
  -4   6   1   22.72    1.90
  -4   6   1   21.92    1.80
   3  -6  -1  121.70    7.34
   3  -6  -1  121.73    6.42
   3  -6  -1  129.83    6.54
   3  -6  -1  130.67    7.74
  -3   6   1  128.87    7.14
  -3   6   1  140.72    7.24
  -3   6   1  130.94    6.58
  -3   6   1  129.82    6.38
  -3   6   1  119.36    6.76
   2  -6  -1    1.40    0.59
   2  -6  -1    1.79    0.68
   2  -6  -1    2.27    0.87
   2  -6  -1    0.82    0.80
  -2   6   1    0.77    0.56
  -2   6   1    2.23    0.63
  -2   6   1    0.94    0.68
   1  -6  -1   30.00    1.76
   1  -6  -1   32.26    1.83
   1  -6  -1   33.96    2.06
   1  -6  -1   28.68    2.18
   1  -6  -1   28.36    1.77
   1  -6  -1   28.95    1.79
  -1   6   1   29.66    1.69
  -1   6   1   28.53    1.80
  -1   6   1   31.16    1.80
   0  -6  -1  228.70   11.37
   0  -6  -1  225.11   11.14
   0  -6  -1  241.59   13.12
   0  -6  -1  218.32   12.55
   0  -6  -1  223.43   13.03
   0   6   1  222.45   11.36
   0   6   1  243.25   11.08
  -1  -6  -1   15.32    1.59
  -1  -6  -1   15.20    1.67
  -1  -6  -1   17.76    1.29
   1   6   1   13.93    1.24
   1   6   1   14.39    2.00
  -2  -6  -1  114.24    5.94
  -2  -6  -1  127.49    6.73
  -2  -6  -1  114.49    7.16
   2   6   1  113.08    7.33
   2   6   1  118.29    6.09
  -3  -6  -1   43.81    3.38
  -3  -6  -1   39.82    2.57
   3   6   1   39.53    2.56
   3   6   1   35.16    3.51
  -4  -6  -1   14.66    2.37
  -4  -6  -1   12.68    1.68
   4   6   1    8.63    1.56
   4   6   1   16.07    2.72
   5   6   1   24.47    3.39
   6   6   1    6.66    2.88
   7   6   1    3.38    2.91
   8  -7  -1   48.20    3.97
   8  -7  -1   52.17    3.55
  -8   7   1   50.12    3.35
   7  -7  -1    9.31    1.69
   7  -7  -1    8.93    2.20
   7  -7  -1    8.85    1.74
   7  -7  -1    7.76    1.34
  -7   7   1    9.25    1.40
   6  -7  -1   48.57    3.44
   6  -7  -1   48.92    2.92
   6  -7  -1   45.13    3.12
   6  -7  -1   42.13    3.78
  -6   7   1   47.76    3.17
  -6   7   1   46.22    3.17
  -6   7   1   51.02    3.04
   5  -7  -1   79.14    4.92
   5  -7  -1   95.78    5.13
   5  -7  -1   91.91    6.05
   5  -7  -1   87.92    5.65
  -5   7   1   91.27    5.14
  -5   7   1   98.92    5.01
  -5   7   1   94.79    5.42
  -5   7   1  100.96    5.20
   4  -7  -1   13.37    1.78
   4  -7  -1   14.12    1.40
   4  -7  -1   13.00    1.58
   4  -7  -1   12.59    1.44
  -4   7   1   17.30    1.47
  -4   7   1   11.99    1.25
  -4   7   1   14.23    1.68
  -4   7   1   18.14    1.59
   3  -7  -1  131.12    7.80
   3  -7  -1  130.06    8.07
   3  -7  -1  129.01    6.83
   3  -7  -1  126.33    6.72
  -3   7   1  135.15    7.07
  -3   7   1  141.36    7.61
  -3   7   1  138.44    6.68
  -3   7   1  137.76    6.90
   2  -7  -1  204.19   10.17
   2  -7  -1  217.80   11.95
   2  -7  -1  188.52   11.42
   2  -7  -1  199.68    9.95
  -2   7   1  206.20   10.20
   1  -7  -1   20.83    2.16
   1  -7  -1   22.53    2.25
   1  -7  -1   20.91    1.54
  -1   7   1   24.27    1.60
   0  -7  -1   81.42    4.29
   0  -7  -1   84.77    5.18
   0  -7  -1   77.18    5.04
   0   7   1   86.56    4.36
   0   7   1   82.62    5.32
  -1  -7  -1   69.17    4.19
  -1  -7  -1   65.15    4.02
  -1  -7  -1   58.26    3.39
   1   7   1   63.68    3.43
   1   7   1   52.86    4.32
  -2  -7  -1   26.03    1.97
  -2  -7  -1   21.95    2.18
  -2  -7  -1   25.20    2.73
   2   7   1   26.53    1.90
   2   7   1   24.99    2.97
  -3  -7  -1   39.95    3.44
  -3  -7  -1   31.87    2.41
   3   7   1   33.19    2.44
   3   7   1   31.38    3.13
  -4  -7  -1   38.79    2.87
   4   7   1   30.97    2.65
   4   7   1   33.39    3.88
   5   7   1   55.09    5.04
   6   7   1   13.64    2.76
   8  -8  -1    3.54    2.50
   8  -8  -1    4.20    1.44
  -8   8   1    5.36    1.92
   7  -8  -1   46.54    3.15
   7  -8  -1   52.53    3.56
   7  -8  -1   49.51    3.94
  -7   8   1   52.98    3.52
   6  -8  -1    7.78    1.64
   6  -8  -1   12.26    2.04
   6  -8  -1    9.31    1.71
  -6   8   1    9.44    1.51
  -6   8   1    9.26    1.73
   5  -8  -1   61.45    4.22
   5  -8  -1   59.05    4.08
   5  -8  -1   55.77    3.53
  -5   8   1   57.76    3.64
  -5   8   1   61.00    3.50
  -5   8   1   57.25    3.76
   4  -8  -1   14.32    1.92
   4  -8  -1   14.84    2.24
   4  -8  -1   15.92    1.63
  -4   8   1   16.69    1.91
  -4   8   1   16.51    1.47
  -4   8   1   14.58    1.49
   3  -8  -1    1.61    1.23
   3  -8  -1    1.40    1.22
   3  -8  -1    2.18    1.01
  -3   8   1    1.13    0.65
  -3   8   1    0.75    0.99
  -3   8   1    0.47    1.03
   2  -8  -1   99.28    6.43
   2  -8  -1  113.93    6.57
   2  -8  -1  104.87    5.48
  -2   8   1  115.68    6.49
  -2   8   1  105.30    5.63
   1  -8  -1   10.91    1.60
   1  -8  -1    8.09    1.15
   1  -8  -1   10.07    1.48
  -1   8   1   10.79    1.18
  -1   8   1    6.50    1.78
   0  -8  -1   25.10    2.63
   0  -8  -1   23.61    2.53
   0  -8  -1   23.08    1.82
   0   8   1   24.39    2.71
   0   8   1   22.19    1.78
  -1  -8  -1  124.74    6.95
  -1  -8  -1  121.68    7.19
  -1  -8  -1  108.90    5.99
   1   8   1  114.77    7.26
   1   8   1  112.43    6.08
  -2  -8  -1    1.45    1.27
  -2  -8  -1    2.24    2.03
   2   8   1    0.32    2.42
   2   8   1    2.06    1.22
  -3  -8  -1   38.88    2.80
   3   8   1   34.10    2.68
   3   8   1   38.05    4.27
   4   8   1   15.75    3.50
   5   8   1    3.13    3.37
   8  -9  -1   -1.40    1.91
   7  -9  -1   29.08    3.39
   7  -9  -1   27.64    2.60
   7  -9  -1   30.75    3.09
  -7   9   1   27.63    2.31
   6  -9  -1   50.53    4.05
   6  -9  -1   52.95    4.22
   6  -9  -1   48.91    3.39
  -6   9   1   52.29    3.83
  -6   9   1   53.91    3.54
   5  -9  -1    3.20    1.34
   5  -9  -1    2.96    1.48
   5  -9  -1    0.76    1.42
  -5   9   1    2.03    1.52
  -5   9   1    3.65    1.32
   4  -9  -1  116.97    6.97
   4  -9  -1  101.79    5.74
   4  -9  -1  119.58    6.91
  -4   9   1   99.52    6.44
  -4   9   1  108.87    5.89
   3  -9  -1   34.52    3.38
   3  -9  -1   32.94    2.38
  -3   9   1   33.29    2.41
  -3   9   1   40.98    2.75
   2  -9  -1   37.16    2.51
   2  -9  -1   40.59    3.12
   2  -9  -1   43.54    3.54
  -2   9   1   37.46    3.11
  -2   9   1   39.26    2.58
   1  -9  -1   89.77    4.62
   1  -9  -1   81.20    5.43
   1  -9  -1   86.53    5.74
  -1   9   1   85.06    5.65
  -1   9   1   85.81    4.75
   0  -9  -1    1.22    1.22
   0  -9  -1   -0.19    1.88
   0  -9  -1    0.47    1.93
   0   9   1    1.81    2.20
   0   9   1    0.52    1.10
  -1  -9  -1    9.94    2.53
  -1  -9  -1   16.75    1.77
  -1  -9  -1   18.70    2.36
   1   9   1   13.02    2.91
   1   9   1   15.71    1.67
  -2  -9  -1   64.29    4.01
   2   9   1   56.41    5.29
   2   9   1   65.66    3.87
   3   9   1    0.99    3.19
   4   9   1   35.17    4.77
   7 -10  -1   -0.75    2.33
   7 -10  -1   -0.57    2.21
  -7  10   1    0.72    2.23
   6 -10  -1   56.87    3.54
   6 -10  -1   63.46    4.57
  -6  10   1   47.25    4.18
  -6  10   1   60.48    3.87
   5 -10  -1   16.52    2.49
   5 -10  -1   22.61    2.24
   5 -10  -1   21.55    2.47
  -5  10   1   15.46    2.55
  -5  10   1   21.04    1.93
   4 -10  -1   12.73    1.77
   4 -10  -1   13.49    2.19
  -4  10   1   18.29    2.42
  -4  10   1   13.93    1.81
   3 -10  -1   32.85    3.60
   3 -10  -1   30.20    2.45
  -3  10   1   32.51    2.51
  -3  10   1   40.10    2.89
   2 -10  -1   16.60    2.87
   2 -10  -1   21.12    2.74
   2 -10  -1   17.44    1.77
  -2  10   1   18.80    2.04
  -2  10   1   16.03    1.74
   1 -10  -1   32.72    2.44
   1 -10  -1   31.25    3.45
   1 -10  -1   38.61    3.63
  -1  10   1   31.58    2.95
  -1  10   1   34.65    2.46
   0 -10  -1   57.93    4.19
   0 -10  -1   47.78    3.20
   0 -10  -1   45.85    4.28
   0  10   1   45.17    4.38
   0  10   1   51.42    3.20
   1  10   1    2.49    2.90
   2  10   1   21.58    3.13
   3  10   1    3.88    3.61
  -7  11   1   10.17    2.02
  -6  11   1    3.99    1.72
  -5  11   1   97.37    6.08
   4 -11  -1    3.97    1.59
  -4  11   1    6.78    1.68
  -4  11   1    0.06    2.16
   3 -11  -1   23.75    3.15
   3 -11  -1   20.80    2.14
  -3  11   1   23.34    2.26
   2 -11  -1   40.76    2.85
  -2  11   1   41.87    3.63
  -1  11   1   -1.76    2.30
   0  11   1   18.18    3.21
   1  11   1   24.42    3.81
   2  11   1    3.12    3.41
  -7  12   1   43.19    3.96
  -6  12   1    1.71    2.47
  -5  12   1    5.15    2.53
  -4  12   1   38.96    3.33
  -2  12   1   18.86    2.78
   0  12   1    4.26    2.22
   1  12   1    2.51    2.34
  -7  13   1   20.28    3.17
  -6  13   1   14.60    3.08
  -5  13   1    3.20    2.71
  -3  13   1    3.58    2.84
  -1  13   1   13.94    3.07
  -4  14  -2   10.15    2.84
  -5  14  -2   16.18    2.37
  -6  14  -2   14.18    2.71
   0  13  -2    6.11    2.32
  -1  13  -2   28.72    3.12
  -2  13  -2    5.44    2.46
  -4  13  -2   17.19    2.89
  -5  13  -2    3.88    2.45
  -6  13  -2   27.21    3.22
  -7  13  -2    8.30    2.45
   2  12  -2    5.64    2.72
   1  12  -2   22.32    3.89
   0  12  -2   -2.96    2.76
   3 -12   2    4.92    1.83
  -4  12  -2   34.32    3.32
  -5  12  -2   26.94    2.60
  -6  12  -2   10.14    2.36
  -7  12  -2   18.23    2.63
   3  11  -2   15.67    3.19
   2  11  -2    9.62    2.75
  -1  11  -2   -4.24    1.60
   1 -11   2   -2.26    2.14
   1 -11   2    3.00    2.53
  -2  11  -2   26.37    2.54
   2 -11   2   24.45    2.59
   2 -11   2   20.92    3.23
   2 -11   2   26.49    2.52
  -3  11  -2   25.89    2.54
   3 -11   2   26.70    2.94
   3 -11   2   23.26    2.48
   3 -11   2   29.22    2.86
  -4  11  -2    4.67    1.98
  -4  11  -2    6.45    1.94
   4 -11   2    4.61    2.18
   4 -11   2    3.71    2.54
   4 -11   2    4.11    1.92
  -5  11  -2   46.18    3.70
  -5  11  -2   50.13    3.50
   5 -11   2   47.99    3.75
   5 -11   2   51.51    3.95
  -6  11  -2   13.40    2.32
   6 -11   2   15.48    2.70
   6 -11   2   14.62    2.78
  -7  11  -2   30.53    2.97
   4  10  -2   -0.04    3.79
   3  10  -2   11.83    2.81
   1  10  -2   -1.15    1.57
  -1 -10   2    0.25    1.68
  -1 -10   2    1.94    2.25
  -1 -10   2    2.86    2.11
   0  10  -2   32.03    2.66
   0 -10   2   36.51    3.38
   0 -10   2   37.24    3.01
   0 -10   2   31.69    2.41
  -1  10  -2   23.14    2.16
   1 -10   2   19.64    2.55
   1 -10   2   19.85    1.83
   1 -10   2   23.21    2.81
  -2  10  -2    4.33    1.56
   2 -10   2    9.10    2.01
   2 -10   2    8.93    1.75
   2 -10   2    2.84    1.50
  -3  10  -2  100.51    5.63
   3 -10   2   96.90    5.52
   3 -10   2  107.29    6.41
   3 -10   2   92.17    6.49
  -4  10  -2    3.59    1.68
  -4  10  -2    2.50    1.72
   4 -10   2    4.65    1.79
   4 -10   2    3.19    1.71
   4 -10   2    4.92    1.62
  -5  10  -2   27.04    2.26
  -5  10  -2   20.76    2.40
  -5  10  -2   22.79    2.47
   5 -10   2   22.27    2.50
   5 -10   2   23.56    2.83
   5 -10   2   24.88    2.98
  -6  10  -2   47.22    3.67
  -6  10  -2   41.41    3.52
  -6  10  -2   52.43    3.49
   6 -10   2   47.32    3.70
   6 -10   2   56.77    4.38
   6 -10   2   53.26    4.05
  -7  10  -2    0.90    1.23
   7 -10   2    1.39    2.37
   7 -10   2    1.10    2.10
   5   9  -2    4.80    3.78
   4   9  -2   45.03    5.05
   2   9  -2   34.20    2.81
  -2  -9   2   37.97    3.15
  -2  -9   2   33.64    2.76
  -2  -9   2   35.14    2.86
   1   9  -2   41.52    3.07
  -1  -9   2   48.89    3.78
  -1  -9   2   49.28    3.41
  -1  -9   2   46.33    3.12
   0   9  -2   24.37    1.88
   0  -9   2   26.92    2.63
   0  -9   2   23.48    1.89
   0  -9   2   23.78    2.64
  -1   9  -2   44.08    3.22
   1  -9   2   52.16    3.67
   1  -9   2   57.93    3.67
   1  -9   2   56.38    3.29
  -2   9  -2   18.33    1.93
   2  -9   2   19.25    1.91
   2  -9   2   20.21    1.98
   2  -9   2   21.66    2.28
   2  -9   2   18.44    2.41
  -3   9  -2   34.25    2.36
  -3   9  -2   25.84    2.43
   3  -9   2   29.60    2.45
   3  -9   2   26.46    2.61
   3  -9   2   31.95    2.38
   3  -9   2   35.76    2.66
  -4   9  -2  103.43    6.00
  -4   9  -2  101.82    5.61
  -4   9  -2  105.18    5.68
   4  -9   2  102.94    5.80
   4  -9   2  112.50    6.70
   4  -9   2  105.12    6.49
   4  -9   2   94.78    5.63
  -5   9  -2   -0.18    1.60
  -5   9  -2   -1.37    1.29
  -5   9  -2    1.70    1.66
  -5   9  -2    2.10    1.44
  -5   9  -2    2.30    1.61
   5  -9   2    1.79    1.86
   5  -9   2    2.05    1.66
   5  -9   2    1.20    1.68
   5  -9   2    0.34    1.80
  -6   9  -2   45.72    3.39
  -6   9  -2   49.16    3.31
  -6   9  -2   43.92    3.47
  -6   9  -2   43.24    3.29
  -6   9  -2   48.00    3.67
   6  -9   2   45.60    3.50
   6  -9   2   48.87    3.72
   6  -9   2   48.63    3.55
   6  -9   2   48.07    3.71
  -7   9  -2   23.11    2.61
  -7   9  -2   23.18    2.52
   7  -9   2   26.33    2.39
   7  -9   2   27.77    3.27
   7  -9   2   19.82    2.57
   7  -9   2   26.12    2.39
   6   8  -2   17.71    3.05
   5   8  -2    3.24    2.27
   4   8  -2   47.44    4.17
   3   8  -2   13.89    1.91
  -3  -8   2   16.55    2.15
  -3  -8   2   10.83    1.94
  -3  -8   2   14.12    2.03
   2   8  -2    2.14    1.03
  -2  -8   2    3.81    1.11
  -2  -8   2    3.34    1.87
  -2  -8   2    4.32    1.26
   1   8  -2   89.01    5.03
  -1  -8   2   92.92    4.98
  -1  -8   2   89.59    5.49
  -1  -8   2   95.54    5.88
   0   8  -2   41.12    2.48
   0   8  -2   45.56    2.59
   0  -8   2   38.66    3.15
   0  -8   2   38.28    2.59
   0  -8   2   38.49    2.68
   0  -8   2   39.96    2.90
  -1   8  -2  100.43    5.49
  -1   8  -2  104.38    5.35
   1  -8   2  105.36    6.23
   1  -8   2  100.54    5.41
   1  -8   2   99.54    5.50
   1  -8   2  107.47    6.18
  -2   8  -2   74.71    3.91
  -2   8  -2   73.38    4.01
   2  -8   2   65.84    4.56
   2  -8   2   73.16    4.42
   2  -8   2   67.49    3.91
   2  -8   2   69.01    4.00
  -3   8  -2    2.91    0.93
  -3   8  -2    3.07    1.23
   3  -8   2    5.98    1.33
   3  -8   2    2.33    1.21
   3  -8   2    2.19    1.25
   3  -8   2    3.67    1.59
  -4   8  -2   77.39    4.77
  -4   8  -2   86.34    4.71
  -4   8  -2   84.30    4.88
  -4   8  -2   89.04    5.57
   4  -8   2   89.16    5.57
   4  -8   2   81.14    5.30
   4  -8   2   81.33    4.67
   4  -8   2   82.86    4.71
  -5   8  -2   33.62    2.53
  -5   8  -2   30.25    2.54
  -5   8  -2   37.07    2.76
  -5   8  -2   35.48    2.95
  -5   8  -2   34.54    2.48
   5  -8   2   34.91    2.52
   5  -8   2   37.23    2.48
   5  -8   2   34.67    2.82
   5  -8   2   31.56    2.63
  -6   8  -2    7.54    1.62
  -6   8  -2    7.97    1.32
  -6   8  -2    7.38    1.83
  -6   8  -2    7.47    1.87
  -6   8  -2    7.99    1.54
   6  -8   2    8.75    1.96
   6  -8   2    8.91    1.89
   6  -8   2    9.10    1.79
   6  -8   2    7.87    1.81
  -7   8  -2   87.72    5.16
  -7   8  -2   87.78    5.34
  -7   8  -2   89.31    5.31
   7  -8   2   82.80    5.34
   7  -8   2   91.49    5.23
   7  -8   2   86.16    6.31
  -8   8  -2   19.60    2.57
  -8   8  -2   18.69    2.09
   8  -8   2   23.51    2.65
   8  -8   2   19.86    2.59
   8  -8   2   18.39    3.17
   6   7  -2   23.95    3.66
   5   7  -2   12.24    3.13
   4   7  -2    7.92    1.69
  -4  -7   2    3.85    1.66
  -4  -7   2    1.80    1.64
   3   7  -2  180.98    9.18
  -3  -7   2  163.97   10.51
  -3  -7   2  181.50    9.97
  -3  -7   2  181.18    9.04
   2   7  -2    7.86    1.28
   2   7  -2    6.94    1.31
  -2  -7   2    8.45    1.11
  -2  -7   2    8.28    1.73
  -2  -7   2    8.13    1.12
  -2  -7   2    8.68    1.58
   1   7  -2   90.85    4.71
   1   7  -2   91.52    4.84
  -1  -7   2   89.89    4.77
  -1  -7   2   89.89    5.58
  -1  -7   2   90.44    4.89
  -1  -7   2   85.83    5.37
   0   7  -2  238.41   11.24
   0   7  -2  220.88   11.48
   0  -7   2  228.84   11.50
   0  -7   2  242.02   11.30
   0  -7   2  222.46   12.99
   0  -7   2  223.05   12.64
  -1   7  -2   -0.57    0.90
  -1   7  -2    1.72    0.88
   1  -7   2    1.04    1.04
   1  -7   2    2.64    1.24
   1  -7   2    0.41    0.65
   1  -7   2    0.21    0.91
  -2   7  -2   88.49    4.52
  -2   7  -2   83.91    4.62
   2  -7   2   77.93    4.48
   2  -7   2   96.86    5.28
   2  -7   2   84.15    5.18
   2  -7   2   81.97    4.56
  -3   7  -2  232.19   12.48
  -3   7  -2  258.21   12.24
  -3   7  -2  257.87   14.53
   3  -7   2  243.13   13.69
   3  -7   2  255.51   14.53
   3  -7   2  252.59   12.48
   3  -7   2  240.26   12.20
  -4   7  -2   -0.06    1.23
  -4   7  -2    0.43    1.00
  -4   7  -2    0.64    0.85
  -4   7  -2    0.74    1.21
  -4   7  -2    1.66    0.97
   4  -7   2   -0.08    1.35
   4  -7   2    0.96    0.89
   4  -7   2    0.69    1.34
   4  -7   2   -0.05    0.84
  -5   7  -2  123.30    7.50
  -5   7  -2  121.57    6.88
  -5   7  -2  119.19    6.72
  -5   7  -2  121.72    6.93
  -5   7  -2  127.69    6.61
   5  -7   2  124.49    6.50
   5  -7   2  122.79    7.15
   5  -7   2  132.96    6.78
   5  -7   2  127.22    7.78
  -6   7  -2   26.09    2.49
  -6   7  -2   27.22    2.47
  -6   7  -2   22.70    2.21
  -6   7  -2   24.12    2.36
   6  -7   2   25.92    2.36
   6  -7   2   26.98    2.19
   6  -7   2   28.27    2.18
   6  -7   2   24.47    2.95
  -7   7  -2   20.79    2.35
  -7   7  -2   20.22    1.92
  -7   7  -2   16.53    2.17
   7  -7   2   14.62    2.68
   7  -7   2   17.45    2.27
   7  -7   2   18.50    2.26
  -8   7  -2   18.45    2.09
  -8   7  -2   18.14    2.02
   8  -7   2   16.91    2.45
   8  -7   2   19.95    2.52
   8  -7   2   18.41    3.11
   7   6  -2   13.65    2.36
   6   6  -2   16.07    2.97
   5   6  -2   44.66    3.30
   5   6  -2   51.32    4.29
  -5  -6   2   45.69    4.10
  -5  -6   2   47.77    3.35
   4   6  -2   17.83    1.63
  -4  -6   2   15.68    1.85
  -4  -6   2   14.89    2.39
   3   6  -2   63.79    3.46
   3   6  -2   63.49    3.58
  -3  -6   2   58.39    3.55
  -3  -6   2   59.49    3.61
  -3  -6   2   60.73    3.85
  -3  -6   2   58.95    4.21
   2   6  -2  131.58    6.28
   2   6  -2  118.44    6.41
  -2  -6   2  123.91    6.37
  -2  -6   2  116.85    7.39
  -2  -6   2  127.79    7.11
  -2  -6   2  128.47    6.47
   1   6  -2    5.91    1.07
   1   6  -2    7.22    0.81
   1   6  -2    6.71    0.82
  -1  -6   2    6.90    1.04
  -1  -6   2    6.08    1.00
  -1  -6   2    6.43    0.85
  -1  -6   2    5.41    0.97
   0   6  -2  174.16    9.13
   0   6  -2  185.39    8.90
   0   6  -2  195.89   10.45
   0   6  -2  182.60   10.05
   0  -6   2  186.20    9.14
   0  -6   2  170.24   10.02
   0  -6   2  185.63   10.31
   0  -6   2  170.13    8.92
  -1   6  -2   96.36    5.25
  -1   6  -2  103.44    5.67
  -1   6  -2  104.62    5.19
   1  -6   2  114.07    5.65
   1  -6   2  105.69    5.33
   1  -6   2   96.95    5.18
   1  -6   2   94.87    5.81
   1  -6   2   97.21    5.92
  -2   6  -2   28.71    1.66
  -2   6  -2   29.65    1.82
  -2   6  -2   31.58    2.32
  -2   6  -2   30.06    1.91
   2  -6   2   29.95    2.10
   2  -6   2   27.11    1.85
   2  -6   2   30.63    1.97
   2  -6   2   27.12    2.23
  -3   6  -2  149.86    8.07
  -3   6  -2  158.16    7.52
  -3   6  -2  152.29    8.08
  -3   6  -2  144.08    8.84
  -3   6  -2  145.05    7.62
   3  -6   2  153.79    7.65
   3  -6   2  135.01    8.88
   3  -6   2  150.68    8.38
   3  -6   2  151.68    7.46
  -4   6  -2   51.99    2.97
  -4   6  -2   50.22    3.43
  -4   6  -2   47.13    2.87
  -4   6  -2   49.52    3.07
  -4   6  -2   46.30    3.00
   4  -6   2   49.83    3.23
   4  -6   2   48.33    2.91
   4  -6   2   45.74    3.51
   4  -6   2   49.87    3.00
  -5   6  -2   37.57    2.45
  -5   6  -2   32.96    2.64
  -5   6  -2   42.10    2.75
  -5   6  -2   43.18    2.62
  -5   6  -2   37.21    2.77
   5  -6   2   44.33    3.34
   5  -6   2   42.49    2.83
   5  -6   2   41.92    2.59
   5  -6   2   41.12    2.82
  -6   6  -2  160.79    8.44
  -6   6  -2  158.34    8.76
  -6   6  -2  163.31    9.58
  -6   6  -2  153.67    8.22
   6  -6   2  170.41    9.04
   6  -6   2  154.91    9.90
   6  -6   2  163.90    8.56
   6  -6   2  162.37    8.24
  -7   6  -2    3.78    1.34
  -7   6  -2    2.13    1.69
   7  -6   2    4.58    2.24
   7  -6   2    1.16    1.69
   7  -6   2    6.03    1.78
  -8   6  -2   50.98    3.86
  -8   6  -2   54.89    3.52
   8  -6   2   50.85    3.90
   8  -6   2   49.31    3.40
   8  -6   2   55.77    4.63
   7   5  -2   18.48    2.84
   6   5  -2   11.79    2.48
   5   5  -2   54.40    3.33
  -5  -5   2   55.13    4.01
  -5  -5   2   54.60    3.34
   4   5  -2  103.47    5.13
   4   5  -2   93.35    5.15
  -4  -5   2   95.85    5.21
  -4  -5   2   95.00    6.11
  -4  -5   2   91.64    5.28
   3   5  -2    2.37    0.98
   3   5  -2    2.27    1.50
   3   5  -2    2.69    1.02
  -3  -5   2    2.45    1.01
  -3  -5   2    4.27    1.09
  -3  -5   2    3.07    0.80
  -3  -5   2    1.19    1.01
   2   5  -2  348.99   16.85
   2   5  -2  346.04   17.27
   2   5  -2  329.25   19.28
  -2  -5   2  361.40   18.83
  -2  -5   2  349.47   17.30
  -2  -5   2  352.85   16.91
  -2  -5   2  357.25   19.51
   1   5  -2   37.27    2.13
   1   5  -2   37.04    2.08
   1   5  -2   36.14    2.46
  -1  -5   2   35.16    2.44
  -1  -5   2   36.80    2.15
  -1  -5   2   38.02    2.21
  -1  -5   2   35.91    2.39
   0   5  -2    5.96    0.78
   0   5  -2    4.99    0.71
   0   5  -2    4.30    0.75
   0   5  -2    5.67    0.59
   0  -5   2    4.86    0.79
   0  -5   2    6.17    0.79
   0  -5   2    5.17    0.66
   0  -5   2    6.10    0.72
  -1   5  -2  466.58   27.26
  -1   5  -2  512.76   24.70
  -1   5  -2  511.29   24.14
  -1   5  -2  487.45   28.58
   1  -5   2  470.89   26.92
   1  -5   2  511.18   24.14
   1  -5   2  510.50   24.72
   1  -5   2  557.38   27.25
  -2   5  -2  249.05   13.76
  -2   5  -2  250.57   12.31
  -2   5  -2  259.99   12.60
  -2   5  -2  240.52   14.60
   2  -5   2  258.64   12.30
   2  -5   2  237.06   13.72
   2  -5   2  268.55   14.68
   2  -5   2  262.98   12.61
  -3   5  -2   37.61    2.32
  -3   5  -2   40.64    2.40
  -3   5  -2   43.44    2.43
  -3   5  -2   39.00    2.83
   3  -5   2   36.37    2.34
   3  -5   2   41.10    2.74
   3  -5   2   41.98    2.62
   3  -5   2   40.14    2.50
  -4   5  -2  345.87   17.89
  -4   5  -2  329.53   19.27
  -4   5  -2  343.44   16.84
  -4   5  -2  361.97   16.50
  -4   5  -2  306.09   17.56
   4  -5   2  337.97   18.21
   4  -5   2  327.21   19.64
   4  -5   2  346.83   16.85
   4  -5   2  344.44   16.45
  -5   5  -2    0.17    1.21
  -5   5  -2    1.65    1.17
  -5   5  -2   -1.53    1.04
  -5   5  -2   -0.87    1.01
   5  -5   2    0.46    0.88
   5  -5   2   -0.84    1.42
   5  -5   2    0.96    0.88
   5  -5   2    0.31    1.20
  -6   5  -2   21.78    1.90
  -6   5  -2   23.61    2.11
  -6   5  -2   22.11    2.15
  -6   5  -2   22.31    2.05
   6  -5   2   22.25    2.16
   6  -5   2   18.23    2.51
   6  -5   2   22.52    1.93
   6  -5   2   21.99    1.75
  -7   5  -2   62.66    3.99
  -7   5  -2   63.38    3.91
  -7   5  -2   57.84    4.07
   7  -5   2   60.36    3.62
   7  -5   2   59.58    4.76
   7  -5   2   60.43    3.99
  -8   5  -2   -0.36    1.36
  -8   5  -2    3.70    1.92
   8  -5   2    1.47    1.33
   8  -5   2    4.90    2.51
   8  -5   2    3.71    1.45
   9  -5   2   24.04    2.74
   7   4  -2   16.55    2.46
   6   4  -2   66.19    4.15
   6   4  -2   68.10    4.50
  -6  -4   2   65.24    4.00
  -6  -4   2   70.59    4.81
   5   4  -2    4.84    1.44
   5   4  -2    4.29    1.35
  -5  -4   2    3.85    1.47
  -5  -4   2    0.02    1.41
  -5  -4   2    3.29    1.32
   4   4  -2   33.13    2.29
   4   4  -2   34.15    2.20
   4   4  -2   34.35    3.06
  -4  -4   2   32.54    2.34
  -4  -4   2   30.88    2.29
  -4  -4   2   29.37    2.77
   3   4  -2   59.47    4.04
   3   4  -2   64.35    3.29
   3   4  -2   61.36    3.39
  -3  -4   2   58.13    3.34
  -3  -4   2   57.17    3.89
  -3  -4   2   60.52    3.60
  -3  -4   2   60.75    3.32
   2   4  -2    1.31    0.71
   2   4  -2   -0.37    0.99
   2   4  -2    1.81    0.70
  -2  -4   2    0.93    0.65
  -2  -4   2    0.18    0.54
  -2  -4   2    1.22    0.72
  -2  -4   2    2.13    0.55
   1   4  -2  151.04    8.82
   1   4  -2  168.66    9.00
   1   4  -2  150.10    7.86
   1   4  -2  155.81    7.70
  -1  -4   2  159.98    8.62
  -1  -4   2  151.38    8.88
  -1  -4   2  158.04    7.72
  -1  -4   2  162.44    7.89
   0   4  -2    4.46    0.52
   0   4  -2    3.79    0.62
   0   4  -2    4.70    0.84
   0   4  -2    5.15    0.49
   0   4  -2    4.63    0.65
   0  -4   2    4.22    0.62
   0  -4   2    4.57    0.66
   0  -4   2    5.68    0.57
   0  -4   2    3.92    0.76
   0  -4   2    4.42    0.64
  -1   4  -2  180.40    9.87
  -1   4  -2  171.79   10.45
  -1   4  -2  189.60   10.47
  -1   4  -2  173.13    8.77
  -1   4  -2  193.49    8.97
   1  -4   2  179.43    8.98
   1  -4   2  171.22    9.80
   1  -4   2  169.53    8.75
   1  -4   2  193.90   10.42
  -2   4  -2  197.20    9.99
  -2   4  -2  173.75   10.60
  -2   4  -2  189.47    9.14
  -2   4  -2  185.33    8.96
   2  -4   2  175.15   10.65
   2  -4   2  176.60    8.91
   2  -4   2  181.46    9.16
   2  -4   2  183.74    9.95
  -3   4  -2   45.94    2.62
  -3   4  -2   48.76    3.01
  -3   4  -2   45.19    2.56
  -3   4  -2   45.41    2.65
   3  -4   2   44.51    3.10
   3  -4   2   45.51    2.78
   3  -4   2   48.65    2.61
   3  -4   2   43.28    2.59
  -4   4  -2  149.15    8.09
  -4   4  -2  154.53    7.79
  -4   4  -2  144.24    8.85
  -4   4  -2  152.39    7.62
   4  -4   2  162.49    8.31
   4  -4   2  150.15    7.55
   4  -4   2  141.83    9.09
   4  -4   2  154.68    7.81
  -5   4  -2  152.57    7.66
  -5   4  -2  148.86    8.19
  -5   4  -2  148.33    7.86
  -5   4  -2  142.21    8.82
   5  -4   2  159.56    7.85
   5  -4   2  152.17    8.27
   5  -4   2  149.41    9.22
   5  -4   2  156.24    7.63
  -6   4  -2   10.92    1.70
  -6   4  -2   12.79    1.60
  -6   4  -2   15.50    1.77
   6  -4   2   14.82    1.51
   6  -4   2   14.63    1.83
   6  -4   2   14.84    1.46
  -7   4  -2  103.91    6.55
  -7   4  -2  103.98    5.87
  -7   4  -2  101.99    5.91
   7  -4   2  106.09    6.03
   7  -4   2  109.36    5.85
   7  -4   2  115.29    7.21
  -8   4  -2   22.45    2.57
  -8   4  -2   28.78    2.83
   8  -4   2   22.35    2.59
   8  -4   2   25.74    2.53
   8  -4   2   26.30    3.34
  -9   4  -2   15.84    2.57
   7   3  -2    0.79    1.66
   7   3  -2    2.96    1.37
  -7  -3   2   -0.97    1.89
  -7  -3   2   -0.65    2.30
   6   3  -2   46.13    3.42
   6   3  -2   47.51    3.18
  -6  -3   2   51.80    3.09
  -6  -3   2   48.36    3.09
  -6  -3   2   44.57    3.63
   5   3  -2   47.54    3.01
   5   3  -2   47.81    2.90
  -5  -3   2   49.38    3.02
  -5  -3   2   46.13    3.53
  -5  -3   2   42.15    2.99
   4   3  -2   93.29    4.99
   4   3  -2   96.56    5.87
   4   3  -2   92.00    5.50
   4   3  -2   95.75    4.85
  -4  -3   2   91.10    4.99
  -4  -3   2   94.72    4.91
  -4  -3   2   90.17    5.75
   3   3  -2  128.17    7.55
   3   3  -2  129.29    6.44
   3   3  -2  127.77    6.59
   3   3  -2  130.01    7.50
  -3  -3   2  126.31    7.49
  -3  -3   2  135.43    7.10
  -3  -3   2  126.22    6.62
  -3  -3   2  131.08    6.46
   2   3  -2   29.42    1.72
   2   3  -2   26.92    1.67
   2   3  -2   26.36    2.08
   2   3  -2   26.37    1.63
  -2  -3   2   28.04    1.97
  -2  -3   2   26.35    1.59
  -2  -3   2   30.57    1.86
  -2  -3   2   27.61    1.72
   1   3  -2  192.95   11.40
   1   3  -2  208.62    9.99
   1   3  -2  199.43   10.21
  -1  -3   2  210.43   11.51
  -1  -3   2  211.93   11.17
  -1  -3   2  208.71   10.24
  -1  -3   2  216.23   10.00
   0   3  -2  441.14   21.57
   0   3  -2  516.31   25.73
   0   3  -2  487.90   22.08
   0   3  -2  415.80   24.48
   0   3  -2  411.34   25.48
   0  -3   2  451.72   22.09
   0  -3   2  478.26   21.58
   0  -3   2  411.86   24.03
   0  -3   2  458.09   24.45
   0  -3   2  439.89   24.78
  -1   3  -2    4.39    0.56
  -1   3  -2    4.75    0.84
  -1   3  -2    5.31    0.59
  -1   3  -2    6.08    0.52
  -1   3  -2    6.29    0.61
   1  -3   2    5.07    0.57
   1  -3   2    5.21    0.56
   1  -3   2    5.51    0.54
   1  -3   2    5.11    0.59
  -2   3  -2  420.15   19.81
  -2   3  -2  421.95   20.25
  -2   3  -2  434.15   21.95
  -2   3  -2  361.26   23.28
   2  -3   2  429.99   19.77
   2  -3   2  400.44   23.62
   2  -3   2  399.40   20.25
   2  -3   2  432.09   21.98
  -3   3  -2  161.24    8.95
  -3   3  -2  160.53    8.55
  -3   3  -2  161.03    8.38
  -3   3  -2  170.07    9.82
  -3   3  -2  189.38    9.17
   3  -3   2  169.42    8.36
   3  -3   2  164.92    8.58
   3  -3   2  169.16   10.00
   3  -3   2  181.83    9.19
  -4   3  -2   74.06    4.14
  -4   3  -2   76.91    4.08
  -4   3  -2   70.89    4.58
  -4   3  -2   74.10    4.30
   4  -3   2   77.30    4.11
   4  -3   2   81.78    4.06
   4  -3   2   79.34    4.24
   4  -3   2   73.85    4.80
  -5   3  -2  117.87    6.05
  -5   3  -2  105.51    5.66
  -5   3  -2   97.22    6.38
  -5   3  -2  106.86    5.58
   5  -3   2  103.38    5.73
   5  -3   2  115.71    5.86
   5  -3   2  101.09    6.72
   5  -3   2  108.30    5.52
  -6   3  -2   40.82    2.64
  -6   3  -2   34.38    2.61
  -6   3  -2   38.91    2.72
   6  -3   2   31.72    2.55
   6  -3   2   33.50    2.86
   6  -3   2   36.28    2.54
  -7   3  -2   32.07    2.67
  -7   3  -2   35.24    2.77
  -7   3  -2   31.62    2.77
   7  -3   2   32.73    2.42
   7  -3   2   34.23    2.37
   7  -3   2   26.66    3.25
  -8   3  -2   81.69    5.02
  -8   3  -2   78.05    4.73
   8  -3   2   79.96    5.96
   8  -3   2   83.69    4.86
   8  -3   2   80.46    5.06
   7   2  -2   26.67    2.35
   7   2  -2   29.46    2.23
  -7  -2   2   26.55    2.77
  -7  -2   2   29.22    2.82
  -7  -2   2   27.55    2.78
   6   2  -2    6.53    1.46
   6   2  -2    3.69    1.30
  -6  -2   2    2.65    1.52
  -6  -2   2    6.85    1.55
  -6  -2   2    5.13    1.93
   5   2  -2   50.28    3.27
   5   2  -2   55.45    3.23
   5   2  -2   55.24    3.61
   5   2  -2   57.31    3.87
  -5  -2   2   56.68    3.94
  -5  -2   2   52.11    3.36
  -5  -2   2   62.16    3.22
   4   2  -2   62.97    3.48
   4   2  -2   65.64    4.26
   4   2  -2   65.21    3.47
   4   2  -2   65.46    4.00
  -4  -2   2   64.61    4.18
  -4  -2   2   63.57    3.60
  -4  -2   2   62.60    3.50
   3   2  -2    7.30    0.92
   3   2  -2   10.81    0.94
   3   2  -2    9.13    1.10
   3   2  -2   11.96    1.01
  -3  -2   2    9.26    0.86
  -3  -2   2   10.13    1.06
  -3  -2   2    9.53    0.83
   2   2  -2  158.52    7.42
   2   2  -2  136.43    8.51
   2   2  -2  149.85    7.59
   2   2  -2  161.16    8.78
  -2  -2   2  151.99    8.25
  -2  -2   2  149.22    7.43
  -2  -2   2  155.10    7.61
  -2  -2   2  153.68    8.59
   1   2  -2   44.13    2.43
   1   2  -2   47.12    2.50
   1   2  -2   49.81    2.87
   1   2  -2   48.23    2.52
   1   2  -2   51.37    2.82
   1   2  -2   50.88    2.98
   1   2  -2   50.48    2.82
  -1  -2   2   46.99    2.84
  -1  -2   2   46.60    2.51
  -1  -2   2   45.62    2.77
  -1  -2   2   48.99    2.95
  -1  -2   2   45.62    2.45
  -1  -2   2   51.60    2.49
  -1  -2   2   50.65    2.83
   0   2  -2  641.63   27.22
   0   2  -2  575.63   30.30
   0   2  -2  599.75   27.85
   0   2  -2  506.16   30.88
   0   2  -2  622.55   27.86
   0   2  -2  601.77   31.33
   0   2  -2  571.80   27.21
   0  -2   2  511.38   32.07
   0  -2   2  546.29   31.42
   0  -2   2  547.58   30.87
   0  -2   2  595.99   27.22
   0  -2   2  511.82   30.29
   0  -2   2  598.34   27.85
   0  -2   2  584.58   27.21
   0  -2   2  552.07   27.86
  -1   2  -2   95.19    5.05
  -1   2  -2  105.63    5.07
  -1   2  -2   87.70    5.89
  -1   2  -2   95.27    4.96
  -1   2  -2  103.68    5.49
  -1   2  -2  112.10    5.91
  -1   2  -2  107.88    4.94
   1  -2   2  109.71    5.08
   1  -2   2  100.57    5.91
   1  -2   2  106.19    4.96
   1  -2   2  100.47    5.08
   1  -2   2   94.67    4.93
   1  -2   2   98.06    5.49
  -2   2  -2  214.56   13.74
  -2   2  -2  261.68   11.68
  -2   2  -2  234.77   11.71
  -2   2  -2  253.70   12.90
  -2   2  -2  243.26   11.96
   2  -2   2  253.78   11.97
   2  -2   2  241.95   11.67
   2  -2   2  228.91   12.90
   2  -2   2  241.74   13.95
   2  -2   2  261.46   13.37
   2  -2   2  226.44   11.97
  -3   2  -2  184.02    9.20
  -3   2  -2  179.13   10.23
  -3   2  -2  187.39    9.01
  -3   2  -2  182.99   10.52
  -3   2  -2  191.10    9.66
   3  -2   2  188.64   10.14
   3  -2   2  186.30    9.19
   3  -2   2  163.79   10.69
   3  -2   2  183.62    9.79
   3  -2   2  188.62    8.98
  -4   2  -2  106.30    6.19
  -4   2  -2   98.72    5.38
  -4   2  -2   96.68    6.05
  -4   2  -2  109.49    5.74
  -4   2  -2  108.11    5.53
   4  -2   2  111.31    5.34
   4  -2   2   97.22    5.48
   4  -2   2  106.84    5.63
   4  -2   2  109.58    5.94
   4  -2   2  104.42    6.40
  -5   2  -2  173.22   10.08
  -5   2  -2  181.26    8.85
  -5   2  -2  171.39    8.66
  -5   2  -2  163.24    9.87
   5  -2   2  162.80    8.80
   5  -2   2  179.51    9.66
   5  -2   2  174.35    8.65
   5  -2   2  177.66   10.37
  -6   2  -2  127.18    6.65
  -6   2  -2  128.94    7.63
  -6   2  -2  125.67    6.75
  -6   2  -2  127.88    7.68
   6  -2   2  121.22    6.74
   6  -2   2  117.78    7.96
   6  -2   2  136.06    6.69
   6  -2   2  137.02    7.30
  -7   2  -2   -1.38    1.02
  -7   2  -2    1.52    1.64
  -7   2  -2    1.09    1.33
  -7   2  -2   -0.48    1.15
   7  -2   2    0.87    1.87
   7  -2   2    3.90    1.65
   7  -2   2    3.10    1.57
  -8   2  -2   57.96    4.53
  -8   2  -2   63.39    3.90
   8  -2   2   61.45    4.16
   8  -2   2   60.58    4.87
  -8  -1   2   11.59    2.26
  -8  -1   2   12.57    2.54
   7   1  -2   68.11    3.92
   7   1  -2   63.36    3.98
  -7  -1   2   61.91    3.86
  -7  -1   2   64.94    4.84
  -7  -1   2   63.73    4.16
   6   1  -2   19.62    1.69
   6   1  -2   16.69    1.85
   6   1  -2   18.02    1.81
   6   1  -2   20.37    2.30
  -6  -1   2   17.86    2.30
  -6  -1   2   17.29    1.64
  -6  -1   2   17.59    1.88
   5   1  -2  170.31   10.04
   5   1  -2  189.37   10.36
   5   1  -2  172.26    8.64
   5   1  -2  173.83    8.86
  -5  -1   2  174.15   10.11
  -5  -1   2  166.55    8.69
  -5  -1   2  168.76    8.84
   4   1  -2  255.15   11.85
   4   1  -2  238.82   13.60
   4   1  -2  260.99   12.15
   4   1  -2  238.47   14.15
  -4  -1   2  222.21   13.74
  -4  -1   2  240.74   11.87
  -4  -1   2  247.75   12.17
   3   1  -2    5.90    0.72
   3   1  -2    4.36    0.80
   3   1  -2    5.63    0.73
   3   1  -2    7.10    0.81
  -3  -1   2    6.34    0.75
  -3  -1   2    5.23    0.76
  -3  -1   2    5.45    0.98
   2   1  -2  696.52   31.97
   2   1  -2  595.08   36.35
   2   1  -2  693.74   35.57
   2   1  -2  679.31   32.72
   2   1  -2  649.05   38.16
  -2  -1   2  757.32   37.60
  -2  -1   2  674.72   31.98
  -2  -1   2  633.47   36.83
  -2  -1   2  656.25   32.73
   1   1  -2  163.77    7.63
   1   1  -2  159.01    8.51
   1   1  -2  140.06    8.71
   1   1  -2  159.74    9.00
   1   1  -2  145.42    7.62
   1   1  -2  158.95    8.78
   1   1  -2  163.55    7.82
   1   1  -2  164.55    7.81
  -1  -1   2  162.85    7.63
  -1  -1   2  156.81    7.82
  -1  -1   2  165.60    9.02
  -1  -1   2  169.40    8.73
  -1  -1   2  166.91    7.81
  -1  -1   2  153.82    7.63
  -1  -1   2  150.03    8.79
   0   1  -2   30.57    1.63
   0   1  -2   28.21    1.84
   0   1  -2   29.01    1.98
   0   1  -2   34.02    1.60
   0   1  -2   30.83    1.60
   0   1  -2   32.61    1.81
   0   1  -2   32.53    1.64
   0   1  -2   31.82    1.78
   0  -1   2   31.98    1.64
   0  -1   2   32.18    1.96
   0  -1   2   31.63    1.81
   0  -1   2   32.26    1.60
   0  -1   2   33.39    1.60
   0  -1   2   32.45    1.64
   0  -1   2   28.53    1.79
  -1   1  -2  861.97   39.54
  -1   1  -2  803.93   46.35
  -1   1  -2  831.22   39.54
  -1   1  -2  796.58   40.50
  -1   1  -2  884.10   40.41
  -1   1  -2  920.88   44.09
  -1   1  -2  874.03   47.19
  -1   1  -2  803.92   45.49
   1  -1   2  839.93   40.42
   1  -1   2  910.32   45.48
   1  -1   2  786.26   39.39
   1  -1   2  876.51   46.37
   1  -1   2  745.66   45.00
   1  -1   2  783.10   44.13
   1  -1   2  767.40   40.30
   1  -1   2  754.07   39.51
  -2   1  -2   18.91    1.42
  -2   1  -2   20.60    1.33
  -2   1  -2   19.37    1.23
  -2   1  -2   19.68    1.14
  -2   1  -2   23.41    1.22
  -2   1  -2   20.23    1.26
  -2   1  -2   20.13    1.29
   2  -1   2   20.97    1.27
   2  -1   2   20.39    1.39
   2  -1   2   20.10    1.28
   2  -1   2   20.01    1.21
   2  -1   2   22.37    1.33
   2  -1   2   21.40    1.29
   2  -1   2   20.42    1.15
  -3   1  -2   66.32    3.61
  -3   1  -2   61.07    3.31
  -3   1  -2   62.80    3.90
  -3   1  -2   64.47    3.44
  -3   1  -2   69.02    3.78
   3  -1   2   60.20    3.41
   3  -1   2   66.92    3.73
   3  -1   2   64.20    3.33
   3  -1   2   62.56    3.91
  -4   1  -2  268.13   13.34
  -4   1  -2  282.92   15.29
  -4   1  -2  278.02   13.65
  -4   1  -2  263.99   15.62
   4  -1   2  261.15   13.62
   4  -1   2  275.58   15.89
   4  -1   2  276.07   13.30
   4  -1   2  285.45   15.13
  -5   1  -2    3.03    1.07
  -5   1  -2    1.55    0.82
  -5   1  -2    1.44    1.04
  -5   1  -2    3.59    1.07
   5  -1   2    2.77    0.78
   5  -1   2    2.50    1.16
   5  -1   2    2.00    0.84
   5  -1   2    4.45    1.07
  -6   1  -2   97.57    5.95
  -6   1  -2  100.56    5.92
  -6   1  -2   89.91    5.20
  -6   1  -2   97.17    5.23
   6  -1   2   96.90    5.65
   6  -1   2   96.62    5.16
   6  -1   2   98.20    6.04
   6  -1   2   87.15    5.26
  -7   1  -2   68.77    4.31
  -7   1  -2   74.87    4.73
  -7   1  -2   64.70    4.26
  -7   1  -2   71.01    4.65
   7  -1   2   67.29    4.31
  -8   1  -2    2.89    1.94
  -8   1  -2    0.22    1.48
   8  -1   2    1.76    1.91
   8   0  -2   12.79    1.81
  -8   0   2   14.87    2.77
  -8   0   2   13.96    1.88
  -8   0   2   17.37    2.33
   7   0  -2   57.01    3.60
   7   0  -2   57.03    3.76
   7   0  -2   61.19    4.34
  -7   0   2   59.97    3.74
  -7   0   2   59.06    3.56
  -7   0   2   50.14    4.06
   6   0  -2  107.29    6.46
   6   0  -2  122.81    7.10
   6   0  -2  111.59    5.86
   6   0  -2  111.79    6.10
  -6   0   2  117.51    7.08
  -6   0   2  114.01    6.16
  -6   0   2  112.77    6.00
   5   0  -2   48.70    2.78
   5   0  -2   47.48    3.34
   5   0  -2   47.73    2.79
   5   0  -2   52.78    3.40
  -5   0   2   47.28    2.86
  -5   0   2   44.47    3.42
  -5   0   2   49.25    2.82
   4   0  -2  166.90    9.73
   4   0  -2  169.36    8.69
   4   0  -2  167.62    8.47
   4   0  -2  178.78   10.18
  -4   0   2  183.65    8.53
  -4   0   2  162.92    9.91
  -4   0   2  182.62    8.75
   3   0  -2  277.93   13.53
   3   0  -2  260.60   13.20
   3   0  -2  257.33   15.08
   3   0  -2  276.49   15.80
  -3   0   2  285.39   13.25
  -3   0   2  276.34   15.32
  -3   0   2  285.05   15.12
  -3   0   2  277.40   13.55
   2   0  -2   35.53    2.35
   2   0  -2   37.52    2.01
   2   0  -2   36.07    2.39
   2   0  -2   43.63    2.05
   2   0  -2   43.70    2.42
   2   0  -2   39.28    2.05
  -2   0   2   37.53    2.08
  -2   0   2   36.09    2.37
  -2   0   2   39.66    2.04
  -2   0   2   39.72    2.30
  -2   0   2   44.32    2.08
   1   0  -2  371.59   22.62
   1   0  -2  415.21   19.89
   1   0  -2  452.11   20.37
   1   0  -2  450.90   19.90
   1   0  -2  392.33   22.93
   1   0  -2  421.63   20.35
  -1   0   2  420.47   22.64
  -1   0   2  399.77   20.36
  -1   0   2  460.96   19.89
  -1   0   2  412.77   19.89
  -1   0   2  376.72   22.94
  -1   0   2  407.88   23.38
  -1   0   2  439.08   20.36
   0   0  -2    1.54    0.31
   0   0  -2    1.50    0.17
   0   0  -2    1.67    0.19
   0   0  -2    1.70    0.17
   0   0  -2    1.50    0.15
   0   0   2    0.87    0.15
   0   0   2    1.48    0.17
   0   0   2    1.81    0.18
   0   0   2    1.97    0.31
  -1   0  -2   16.24    0.94
  -1   0  -2   15.93    0.95
  -1   0  -2   17.38    1.06
  -1   0  -2   17.70    0.94
  -1   0  -2   15.76    1.03
  -1   0  -2   19.67    0.95
   1   0   2   17.27    0.91
   1   0   2   19.11    1.19
   1   0   2   17.30    0.91
   1   0   2   18.17    1.06
   1   0   2   16.25    0.97
   1   0   2   18.77    0.98
  -2   0  -2  723.49   40.99
  -2   0  -2  808.69   34.33
  -2   0  -2  723.67   36.88
  -2   0  -2  721.26   34.33
  -2   0  -2  693.46   39.46
  -2   0  -2  691.55   35.13
   2   0   2  639.00   34.30
   2   0   2  752.22   35.13
   2   0   2  784.44   39.48
   2   0   2  712.47   39.24
   2   0   2  670.65   35.12
  -3   0  -2   -0.01    0.39
  -3   0  -2   -0.10    0.55
  -3   0  -2   -0.94    0.60
   3   0   2    1.52    0.58
   3   0   2    1.33    0.59
   3   0   2    2.46    0.67
   3   0   2   -0.02    0.55
  -4   0  -2   49.09    2.84
  -4   0  -2   45.30    3.29
  -4   0  -2   53.34    2.92
   4   0   2   55.55    2.92
   4   0   2   55.67    3.28
   4   0   2   53.89    2.89
   4   0   2   54.08    3.32
  -5   0  -2  186.53   10.57
  -5   0  -2  179.77   10.29
  -5   0  -2  169.26    8.99
  -5   0  -2  179.54    9.15
   5   0   2  189.17   10.15
   5   0   2  171.54    9.12
   5   0   2  181.65    8.97
  -6   0  -2   41.18    2.81
  -6   0  -2   43.94    3.04
  -6   0  -2   46.13    3.42
  -6   0  -2   45.34    3.40
   6   0   2   49.54    2.99
   6   0   2   43.68    2.98
   6   0   2   47.04    3.01
  -7   0  -2   18.12    1.87
  -7   0  -2   18.56    2.41
  -7   0  -2   10.61    2.01
   7   0   2   15.85    1.94
   7   0   2   17.30    2.06
  -8   0  -2   17.97    2.35
   8  -1  -2   61.04    4.47
   8  -1  -2   73.70    5.28
   8  -1  -2   77.78    4.44
  -8   1   2   65.19    4.52
  -8   1   2   69.34    4.93
  -8   1   2   71.55    4.25
   7  -1  -2    4.16    1.50
   7  -1  -2    1.13    1.81
  -7   1   2    2.49    1.57
  -7   1   2    2.52    1.92
  -7   1   2    2.87    1.13
   6  -1  -2  236.27   12.20
   6  -1  -2  228.51   11.94
   6  -1  -2  255.71   14.36
   6  -1  -2  254.59   13.71
  -6   1   2  231.96   13.94
  -6   1   2  248.49   12.32
  -6   1   2  242.46   12.04
   5  -1  -2  166.57    8.44
   5  -1  -2  152.06    7.79
   5  -1  -2  149.82    7.61
   5  -1  -2  151.60    9.12
   5  -1  -2  146.17    8.67
  -5   1   2  145.24    8.66
  -5   1   2  160.26    7.69
  -5   1   2  146.98    8.93
  -5   1   2  152.98    7.84
   4  -1  -2  146.47    7.23
   4  -1  -2  151.25    7.41
   4  -1  -2  130.97    8.67
   4  -1  -2  151.68    8.26
  -4   1   2  152.17    7.43
  -4   1   2  157.57    7.30
  -4   1   2  122.32    8.40
  -4   1   2  157.78    8.29
   3  -1  -2  346.02   21.40
   3  -1  -2  356.18   17.88
   3  -1  -2  364.96   20.33
   3  -1  -2  384.01   18.31
  -3   1   2  385.00   20.54
  -3   1   2  379.88   17.91
  -3   1   2  345.21   20.67
  -3   1   2  414.68   20.91
  -3   1   2  377.74   20.89
  -3   1   2  374.02   18.33
   2  -1  -2  574.51   27.97
   2  -1  -2  643.47   27.37
   2  -1  -2  542.36   27.32
   2  -1  -2  507.20   32.69
  -2   1   2  575.08   31.07
  -2   1   2  576.04   31.44
  -2   1   2  550.14   27.99
  -2   1   2  600.48   27.32
  -2   1   2  553.99   27.34
  -2   1   2  614.65   27.98
   1  -1  -2   39.34    2.36
   1  -1  -2   42.34    2.08
   1  -1  -2   44.35    2.05
   1  -1  -2   40.30    2.03
   1  -1  -2   41.86    2.08
  -1   1   2   41.34    2.08
  -1   1   2   41.35    2.09
  -1   1   2   42.70    2.02
  -1   1   2   41.49    2.41
  -1   1   2   41.58    2.38
   0  -1  -2  566.15   31.90
   0   1   2  680.72   33.95
  -1  -1  -2  286.93   13.11
  -1  -1  -2  259.16   14.60
  -1  -1  -2  287.88   13.40
  -1  -1  -2  237.75   15.12
  -1  -1  -2  237.38   13.11
  -1  -1  -2  283.41   13.43
   1   1   2  292.30   15.11
   1   1   2  269.94   14.11
   1   1   2  308.75   13.43
   1   1   2  281.46   13.09
  -2  -1  -2  349.87   19.33
  -2  -1  -2  331.38   20.12
  -2  -1  -2  372.06   17.48
  -2  -1  -2  355.68   17.88
  -2  -1  -2  401.45   17.46
  -2  -1  -2  381.23   20.86
   2   1   2  354.94   17.87
   2   1   2  380.45   17.88
   2   1   2  361.63   20.04
   2   1   2  362.39   17.47
  -3  -1  -2   82.18    5.36
  -3  -1  -2   95.30    4.77
  -3  -1  -2   89.88    4.66
   3   1   2   89.34    4.72
   3   1   2   91.08    5.38
   3   1   2   99.45    4.66
   3   1   2  100.87    4.77
  -4  -1  -2   15.37    1.32
  -4  -1  -2   15.89    1.33
  -4  -1  -2   12.39    1.50
   4   1   2   14.93    1.55
   4   1   2   12.21    1.26
   4   1   2   14.65    1.32
  -5  -1  -2   63.10    4.22
  -5  -1  -2   62.33    3.66
  -5  -1  -2   67.16    3.63
   5   1   2   61.54    3.70
   5   1   2   67.35    4.13
   5   1   2   65.11    3.62
  -6  -1  -2   56.37    3.54
  -6  -1  -2   67.49    4.40
   6   1   2   58.69    3.76
   6   1   2   64.96    4.13
  -7  -1  -2   32.68    3.30
  -7  -1  -2   28.32    2.68
  -7  -1  -2   36.51    3.14
   7   1   2   27.76    2.81
   7   1   2   31.76    2.76
  -9   2   2    5.13    2.25
   8  -2  -2   49.27    3.60
   8  -2  -2   51.79    4.38
   8  -2  -2   51.27    3.67
  -8   2   2   52.58    3.77
  -8   2   2   54.22    3.68
   7  -2  -2   80.46    5.53
   7  -2  -2   77.68    4.64
   7  -2  -2   79.77    4.58
  -7   2   2   84.93    4.67
  -7   2   2   78.29    4.72
   6  -2  -2    4.88    0.96
   6  -2  -2    5.13    1.20
   6  -2  -2    4.84    1.39
  -6   2   2    6.00    1.34
  -6   2   2    4.61    1.29
   5  -2  -2  153.19    7.59
   5  -2  -2  138.86    8.93
   5  -2  -2  147.14    7.43
   5  -2  -2  154.60    8.46
  -5   2   2  151.86    7.64
  -5   2   2  157.90    7.47
  -5   2   2  141.08    8.41
   4  -2  -2  132.89    6.63
   4  -2  -2  140.98    7.54
   4  -2  -2  126.70    7.99
   4  -2  -2  135.87    6.80
  -4   2   2  138.98    6.85
  -4   2   2  135.62    7.53
  -4   2   2  126.97    6.65
   3  -2  -2  110.16    6.01
   3  -2  -2  103.12    5.29
   3  -2  -2   96.13    6.36
   3  -2  -2  120.78    5.37
   3  -2  -2  109.13    5.43
  -3   2   2  106.07    5.46
  -3   2   2  125.74    5.47
  -3   2   2   98.85    6.10
  -3   2   2  100.33    5.31
   2  -2  -2  461.73   21.82
   2  -2  -2  400.01   24.34
   2  -2  -2  455.10   20.37
   2  -2  -2  394.15   20.81
   2  -2  -2  410.97   23.06
   2  -2  -2  425.67   20.33
   2  -2  -2  446.66   23.84
  -2   2   2  415.50   23.43
  -2   2   2  399.35   20.35
  -2   2   2  459.84   23.09
  -2   2   2  419.41   20.83
  -2   2   2  424.29   22.43
   1  -2  -2   92.29    4.63
   1  -2  -2  102.12    4.73
   1  -2  -2   95.00    4.72
   1  -2  -2   93.57    4.64
   1  -2  -2   93.86    5.60
  -1   2   2   96.05    4.60
  -1   2   2   94.48    5.42
  -1   2   2  103.66    4.59
  -1   2   2   91.79    4.74
  -1   2   2   94.85    5.37
   0  -2  -2  324.33   18.30
   0  -2  -2  337.33   16.77
   0  -2  -2  329.76   16.34
   0  -2  -2  347.66   16.76
   0  -2  -2  353.81   16.34
   0   2   2  352.47   16.69
   0   2   2  359.22   18.85
   0   2   2  340.86   16.78
   0   2   2  339.82   18.79
  -1  -2  -2  202.91   12.03
  -1  -2  -2  212.08   10.38
  -1  -2  -2  215.76   10.63
  -1  -2  -2  191.49   11.59
  -1  -2  -2  226.93   10.37
   1   2   2  230.61   10.36
   1   2   2  211.34   10.62
   1   2   2  228.78   10.63
   1   2   2  227.63   11.17
   1   2   2  207.61   12.01
   1   2   2  228.98   11.97
  -2  -2  -2   43.05    2.42
  -2  -2  -2   38.46    2.12
  -2  -2  -2   42.37    2.05
  -2  -2  -2   36.64    2.46
  -2  -2  -2   38.67    2.23
  -2  -2  -2   38.35    2.08
   2   2   2   37.40    2.56
   2   2   2   39.36    2.05
   2   2   2   35.73    2.10
   2   2   2   42.60    2.13
  -3  -2  -2  210.69   10.80
  -3  -2  -2  201.61    9.89
  -3  -2  -2  210.80   10.12
  -3  -2  -2  187.70   11.43
   3   2   2  204.46    9.86
   3   2   2  199.57   11.41
  -4  -2  -2   20.22    1.87
  -4  -2  -2   21.16    1.59
  -4  -2  -2   16.35    1.49
   4   2   2   17.38    1.64
   4   2   2   19.68    1.54
  -5  -2  -2    0.37    1.45
  -5  -2  -2    4.01    1.23
   5   2   2    2.67    1.07
   5   2   2    2.07    0.85
  -6  -2  -2   46.31    3.81
  -6  -2  -2   45.10    3.20
   6   2   2   49.15    3.25
   6   2   2   51.20    3.66
  -7  -2  -2    0.21    1.54
  -7  -2  -2    1.11    1.34
   7   2   2    2.41    1.90
   7   2   2    0.74    1.85
   9  -3  -2   15.65    2.05
   9  -3  -2   21.58    3.16
   9  -3  -2   21.73    2.64
  -9   3   2   21.63    2.26
   8  -3  -2   21.68    2.94
   8  -3  -2   27.06    2.25
   8  -3  -2   21.04    2.42
  -8   3   2   24.05    2.49
  -8   3   2   26.80    2.70
   7  -3  -2  105.13    5.58
   7  -3  -2  100.85    5.67
   7  -3  -2  111.77    6.92
  -7   3   2  109.21    5.64
  -7   3   2   97.54    5.84
   6  -3  -2    9.02    1.36
   6  -3  -2    8.36    1.35
   6  -3  -2   11.23    1.79
  -6   3   2    9.51    1.40
  -6   3   2   10.11    1.48
   5  -3  -2  174.11    8.35
   5  -3  -2  176.29    9.43
   5  -3  -2  155.30   10.01
   5  -3  -2  168.11    8.54
  -5   3   2  172.22    8.37
  -5   3   2  162.62    8.57
   4  -3  -2  141.23    7.68
   4  -3  -2  142.64    7.01
   4  -3  -2  128.42    8.24
   4  -3  -2  131.25    6.82
  -4   3   2  138.38    6.86
  -4   3   2  145.08    7.04
   3  -3  -2   22.12    1.73
   3  -3  -2   21.36    1.43
   3  -3  -2   26.28    1.54
   3  -3  -2   25.18    1.46
   3  -3  -2   24.60    1.52
   3  -3  -2   26.33    1.54
  -3   3   2   27.08    1.51
  -3   3   2   23.40    1.69
  -3   3   2   23.09    1.46
  -3   3   2   24.66    1.51
  -3   3   2   27.49    1.59
   2  -3  -2  256.29   12.41
   2  -3  -2  280.04   14.56
   2  -3  -2  263.35   12.43
   2  -3  -2  241.30   14.86
   2  -3  -2  249.73   12.68
   2  -3  -2  257.94   14.01
  -2   3   2  244.81   12.70
  -2   3   2  272.39   14.15
  -2   3   2  263.29   13.73
  -2   3   2  244.25   12.38
  -2   3   2  278.20   12.71
  -2   3   2  246.47   14.33
   1  -3  -2  466.62   21.23
   1  -3  -2  419.61   21.23
   1  -3  -2  418.74   23.27
   1  -3  -2  438.90   20.75
   1  -3  -2  480.31   24.87
   1  -3  -2  457.49   20.76
  -1   3   2  424.56   20.74
  -1   3   2  411.59   23.96
  -1   3   2  389.37   21.23
  -1   3   2  466.81   20.72
  -1   3   2  405.46   23.79
  -1   3   2  446.03   21.23
   0  -3  -2  151.97    7.34
   0  -3  -2  151.32    7.33
   0  -3  -2  141.61    7.18
   0  -3  -2  157.03    8.62
   0  -3  -2  150.42    7.18
   0  -3  -2  144.91    8.17
   0   3   2  148.91    8.37
   0   3   2  160.27    7.14
   0   3   2  152.53    7.14
   0   3   2  143.12    7.34
   0   3   2  141.23    8.37
  -1  -3  -2  222.36   13.03
  -1  -3  -2  226.63   11.20
  -1  -3  -2  229.09   11.45
  -1  -3  -2  226.74   12.54
  -1  -3  -2  250.52   11.19
   1   3   2  256.77   12.04
   1   3   2  240.51   12.92
   1   3   2  212.19   12.98
   1   3   2  223.42   11.45
   1   3   2  242.18   11.46
  -2  -3  -2   28.22    1.76
  -2  -3  -2   26.80    1.59
  -2  -3  -2   24.80    1.99
  -2  -3  -2   29.55    1.54
  -2  -3  -2   28.90    1.75
  -2  -3  -2   26.60    1.59
   2   3   2   29.68    1.58
   2   3   2   27.27    2.15
   2   3   2   25.53    1.60
   2   3   2   27.89    1.60
  -3  -3  -2   52.90    2.96
  -3  -3  -2   56.21    3.48
  -3  -3  -2   50.80    2.84
  -3  -3  -2   53.83    2.89
   3   3   2   53.41    2.78
   3   3   2   48.75    3.40
   3   3   2   49.73    2.87
  -4  -3  -2  136.02    7.25
  -4  -3  -2  146.54    8.45
   4   3   2  149.42    8.43
   4   3   2  143.92    7.38
  -5  -3  -2    7.52    1.46
  -5  -3  -2    9.20    1.45
   5   3   2    7.77    1.47
   5   3   2    6.48    1.37
  -6  -3  -2   37.42    2.88
  -6  -3  -2   42.91    3.66
   6   3   2   40.28    3.45
   6   3   2   36.85    2.91
   7   3   2   46.87    3.92
   9  -4  -2   45.33    4.30
   8  -4  -2   14.38    1.99
   8  -4  -2   12.20    2.48
   8  -4  -2    8.31    1.86
  -8   4   2    9.88    1.91
  -8   4   2    9.59    1.62
   7  -4  -2   26.11    2.08
   7  -4  -2   24.14    2.37
   7  -4  -2   20.75    2.13
   7  -4  -2   25.91    2.25
  -7   4   2   26.52    2.34
  -7   4   2   22.96    2.26
   6  -4  -2   47.49    3.51
   6  -4  -2   49.65    2.88
   6  -4  -2   49.92    3.19
   6  -4  -2   49.83    3.05
  -6   4   2   48.48    2.96
  -6   4   2   47.79    2.87
   5  -4  -2   26.28    1.77
   5  -4  -2   25.11    1.81
   5  -4  -2   21.84    2.20
   5  -4  -2   24.87    1.65
  -5   4   2   24.93    1.83
  -5   4   2   23.86    1.88
   4  -4  -2  349.25   17.48
   4  -4  -2  347.40   17.87
   4  -4  -2  302.59   20.92
   4  -4  -2  415.40   20.37
   4  -4  -2  362.05   19.69
  -4   4   2  381.57   17.51
  -4   4   2  379.11   19.29
  -4   4   2  357.97   17.91
   3  -4  -2   34.02    1.95
   3  -4  -2   29.44    2.33
   3  -4  -2   31.49    2.28
   3  -4  -2   33.92    1.92
   3  -4  -2   34.91    1.96
   3  -4  -2   33.63    1.94
   3  -4  -2   33.42    2.10
  -3   4   2   35.54    1.97
  -3   4   2   30.02    1.96
  -3   4   2   37.67    1.96
  -3   4   2   33.66    1.92
  -3   4   2   32.21    2.11
   2  -4  -2   41.57    2.11
   2  -4  -2   40.68    2.25
   2  -4  -2   34.87    2.55
   2  -4  -2   43.17    2.12
   2  -4  -2   39.65    2.11
   2  -4  -2   37.29    2.57
  -2   4   2   39.56    2.14
  -2   4   2   36.21    2.13
  -2   4   2   41.42    2.40
  -2   4   2   39.85    2.05
  -2   4   2   40.95    2.17
   1  -4  -2  427.98   19.92
   1  -4  -2  423.45   23.86
   1  -4  -2  431.99   19.93
   1  -4  -2  360.77   22.35
   1  -4  -2  429.73   20.37
  -1   4   2  437.97   20.40
  -1   4   2  421.42   20.38
  -1   4   2  401.15   22.89
   0  -4  -2   21.38    1.14
   0  -4  -2   21.56    1.16
   0  -4  -2   19.61    1.58
   0  -4  -2   20.25    1.15
   0  -4  -2   23.15    1.37
   0   4   2   21.47    1.17
   0   4   2   18.66    1.15
   0   4   2   20.43    1.08
   0   4   2   18.00    1.62
  -1  -4  -2   29.39    1.54
  -1  -4  -2   26.87    1.65
  -1  -4  -2   25.73    1.49
  -1  -4  -2   26.73    1.50
  -1  -4  -2   26.27    2.00
  -1  -4  -2   28.66    1.84
   1   4   2   26.54    1.51
   1   4   2   26.56    1.55
   1   4   2   24.53    1.97
  -2  -4  -2  190.03    9.70
  -2  -4  -2  199.20   11.35
  -2  -4  -2  208.05   10.80
  -2  -4  -2  206.81    9.91
   2   4   2  197.27   11.38
   2   4   2  194.74    9.90
  -3  -4  -2   15.35    1.38
  -3  -4  -2   13.60    1.77
  -3  -4  -2   15.94    1.20
   3   4   2   15.78    2.00
   3   4   2   14.12    1.33
  -4  -4  -2   58.50    3.24
  -4  -4  -2   51.78    3.70
   4   4   2   54.10    4.08
  -5  -4  -2   38.74    2.73
  -5  -4  -2   40.04    3.17
   5   4   2   37.10    3.37
   5   4   2   38.74    2.53
   6   4   2    4.20    2.31
   7   4   2   19.64    3.03
   8  -5  -2   75.23    4.76
   8  -5  -2   83.36    5.78
   8  -5  -2   73.39    4.61
  -8   5   2   79.15    4.88
  -8   5   2   82.04    4.55
   7  -5  -2   11.34    1.70
   7  -5  -2    8.48    1.48
   7  -5  -2    4.84    1.55
   7  -5  -2    8.77    1.60
  -7   5   2    9.24    1.59
  -7   5   2    9.18    1.66
   6  -5  -2   84.53    4.91
   6  -5  -2   77.03    5.41
   6  -5  -2   77.71    4.51
   6  -5  -2   81.27    4.43
  -6   5   2   83.44    4.62
  -6   5   2   78.84    4.40
   5  -5  -2   36.82    2.40
   5  -5  -2   34.60    2.24
   5  -5  -2   30.61    2.54
   5  -5  -2   35.34    2.30
  -5   5   2   35.91    2.55
  -5   5   2   36.89    2.27
  -5   5   2   32.60    2.30
   4  -5  -2   14.64    1.30
   4  -5  -2   17.05    1.68
   4  -5  -2   14.65    1.70
   4  -5  -2   16.16    1.41
   4  -5  -2   16.99    1.08
  -4   5   2   15.77    1.37
  -4   5   2   16.17    1.54
  -4   5   2   17.10    1.46
   3  -5  -2  264.28   13.05
   3  -5  -2  249.14   15.63
   3  -5  -2  266.24   13.32
   3  -5  -2  283.11   13.08
   3  -5  -2  253.35   14.67
   3  -5  -2  281.08   14.56
  -3   5   2  244.66   14.42
  -3   5   2  285.61   13.92
  -3   5   2  263.01   13.35
  -3   5   2  284.24   13.34
  -3   5   2  286.20   14.79
  -3   5   2  266.07   13.00
   2  -5  -2    9.86    0.82
   2  -5  -2    8.48    0.73
   2  -5  -2    8.25    0.60
   2  -5  -2    8.92    1.06
   2  -5  -2   10.24    0.81
   2  -5  -2    6.61    1.03
  -2   5   2    8.12    0.80
  -2   5   2    8.99    0.80
  -2   5   2    8.61    0.93
  -2   5   2    7.61    0.65
  -2   5   2    9.49    0.73
   1  -5  -2   76.40    3.91
   1  -5  -2   71.49    4.60
   1  -5  -2   77.70    4.64
   1  -5  -2   74.06    3.84
   1  -5  -2   85.39    4.38
   1  -5  -2   81.04    3.86
  -1   5   2   73.76    3.92
  -1   5   2   82.53    3.94
  -1   5   2   70.45    4.60
   0  -5  -2  320.49   14.36
   0  -5  -2  303.78   14.36
   0  -5  -2  276.66   14.65
   0  -5  -2  288.55   16.73
   0  -5  -2  319.38   17.13
   0  -5  -2  268.99   16.17
   0   5   2  326.17   14.70
   0   5   2  295.44   14.67
   0   5   2  287.90   16.67
  -1  -5  -2   41.85    2.85
  -1  -5  -2   44.87    2.30
  -1  -5  -2   45.37    2.51
  -1  -5  -2   38.94    2.28
  -1  -5  -2   44.71    2.78
   1   5   2   39.80    2.30
   1   5   2   39.25    2.92
  -2  -5  -2  109.09    5.60
  -2  -5  -2  118.41    6.28
  -2  -5  -2  106.66    6.69
   2   5   2  107.37    6.84
   2   5   2  113.77    5.73
  -3  -5  -2  170.72    9.58
  -3  -5  -2  155.09    8.06
   3   5   2  163.46    8.22
   3   5   2  157.67    9.64
  -4  -5  -2   20.34    1.92
  -4  -5  -2   20.06    2.51
   4   5   2   18.97    2.66
  -5  -5  -2   70.34    5.04
  -5  -5  -2   61.96    4.00
   5   5   2   66.14    5.05
   5   5   2   67.59    4.04
   6   5   2   28.97    3.56
   7   5   2    7.75    2.16
   8  -6  -2   15.97    2.70
   8  -6  -2   17.33    2.12
  -8   6   2   15.00    2.18
   7  -6  -2   97.49    5.77
   7  -6  -2  118.46    6.02
   7  -6  -2  109.70    6.43
   7  -6  -2  107.29    7.09
  -7   6   2  108.22    6.02
   6  -6  -2   35.25    3.03
   6  -6  -2   37.14    2.48
   6  -6  -2   40.26    2.97
   6  -6  -2   39.82    2.53
  -6   6   2   40.00    2.77
  -6   6   2   47.73    2.73
   5  -6  -2   83.70    4.66
   5  -6  -2   92.74    5.28
   5  -6  -2   94.21    4.81
   5  -6  -2   79.76    5.59
  -5   6   2   85.91    5.20
  -5   6   2   90.26    4.84
  -5   6   2   91.11    4.70
   4  -6  -2   63.31    4.62
   4  -6  -2   73.28    3.83
   4  -6  -2   73.48    3.87
   4  -6  -2   73.16    4.44
  -4   6   2   69.23    3.91
  -4   6   2   65.53    4.18
  -4   6   2   77.98    3.79
   3  -6  -2  202.23   11.52
   3  -6  -2  205.85   10.14
   3  -6  -2  196.28   12.17
   3  -6  -2  207.50   10.32
  -3   6   2  217.44   10.09
  -3   6   2  196.75   11.27
  -3   6   2  212.60   10.76
  -3   6   2  215.56   11.51
  -3   6   2  209.29   10.38
   2  -6  -2   83.52    5.41
   2  -6  -2   95.19    4.94
   2  -6  -2   87.10    4.54
   2  -6  -2   91.93    4.63
   2  -6  -2   87.99    5.51
  -2   6   2   92.51    4.75
  -2   6   2   90.01    5.31
  -2   6   2   90.23    4.64
   1  -6  -2   25.09    1.47
   1  -6  -2   24.59    1.52
   1  -6  -2   25.58    2.22
   1  -6  -2   25.88    1.89
  -1   6   2   24.24    2.10
  -1   6   2   25.36    1.52
   0  -6  -2  118.40    6.85
   0  -6  -2  101.85    6.90
   0  -6  -2  125.38    6.82
   0  -6  -2  114.68    5.82
   0   6   2  119.86    7.07
   0   6   2  124.44    5.93
  -1  -6  -2  137.07    7.37
  -1  -6  -2  134.89    7.73
  -1  -6  -2  126.67    6.43
   1   6   2  123.55    6.53
   1   6   2  127.22    7.82
  -2  -6  -2    7.25    1.04
  -2  -6  -2    6.31    1.35
  -2  -6  -2    8.17    1.28
   2   6   2    6.75    1.14
   2   6   2    6.73    2.02
  -3  -6  -2   57.95    3.48
  -3  -6  -2   66.83    4.49
   3   6   2   64.04    3.54
   3   6   2   57.83    4.61
  -4  -6  -2   13.44    1.70
  -4  -6  -2   14.56    2.49
   4   6   2   13.96    2.26
   5   6   2   19.99    3.30
   6   6   2   17.30    3.35
   8  -7  -2   10.38    2.10
   8  -7  -2   13.19    2.05
   8  -7  -2   12.84    2.03
  -8   7   2   10.92    2.03
   7  -7  -2   65.92    4.07
   7  -7  -2   73.36    4.92
   7  -7  -2   65.75    4.56
  -7   7   2   68.51    4.22
   6  -7  -2   32.35    2.54
   6  -7  -2   30.95    2.18
   6  -7  -2   30.53    2.72
  -6   7   2   31.12    2.46
  -6   7   2   34.03    2.27
   5  -7  -2   52.40    3.89
   5  -7  -2   51.32    3.55
   5  -7  -2   51.81    3.16
  -5   7   2   51.08    3.53
  -5   7   2   56.12    3.12
   4  -7  -2   42.57    3.28
   4  -7  -2   43.63    2.64
   4  -7  -2   46.13    3.27
  -4   7   2   40.52    3.07
  -4   7   2   44.37    2.75
   3  -7  -2   32.22    2.53
   3  -7  -2   31.50    2.53
   3  -7  -2   30.38    2.02
  -3   7   2   24.94    2.39
  -3   7   2   34.58    2.09
  -3   7   2   35.74    2.37
  -3   7   2   35.01    1.96
   2  -7  -2  185.02   11.31
   2  -7  -2  187.76   10.89
   2  -7  -2  183.21    9.42
  -2   7   2  211.34   10.98
  -2   7   2  198.25    9.65
   1  -7  -2   23.51    2.43
   1  -7  -2   25.01    1.60
   1  -7  -2   26.10    1.80
   1  -7  -2   22.32    2.31
  -1   7   2   21.98    1.56
  -1   7   2   26.03    2.10
   0  -7  -2    3.29    1.48
   0  -7  -2    4.71    1.50
   0  -7  -2    3.79    0.83
   0   7   2    2.42    1.66
   0   7   2    1.78    0.74
  -1  -7  -2  178.04    8.98
  -1  -7  -2  188.49   10.71
  -1  -7  -2  190.58   10.23
   1   7   2  171.51    9.12
   1   7   2  184.18   10.73
  -2  -7  -2    7.10    1.48
  -2  -7  -2    4.48    1.11
  -2  -7  -2    4.68    1.46
   2   7   2    4.10    1.04
   2   7   2    3.00    2.27
  -3  -7  -2   22.49    2.75
  -3  -7  -2   19.63    1.91
   3   7   2   20.05    1.88
   3   7   2   15.30    2.48
   4   7   2   52.89    4.90
   5   7   2   -3.56    2.06
   6   7   2   11.25    3.56
   8  -8  -2   17.96    2.42
   7  -8  -2   20.67    2.53
   7  -8  -2   23.88    2.58
   7  -8  -2   21.64    2.22
  -7   8   2   20.93    2.22
   6  -8  -2  148.54    9.48
   6  -8  -2  150.66    7.75
   6  -8  -2  148.58    8.86
  -6   8   2  152.40    8.72
  -6   8   2  157.09    8.04
   5  -8  -2    2.69    1.76
   5  -8  -2   -1.11    1.59
   5  -8  -2    1.77    1.27
  -5   8   2    2.46    1.33
  -5   8   2    3.72    1.67
   4  -8  -2   73.34    3.96
   4  -8  -2   76.12    4.84
   4  -8  -2   75.69    4.85
  -4   8   2   61.75    4.42
  -4   8   2   70.17    4.04
   3  -8  -2  117.03    7.07
   3  -8  -2  115.29    7.23
   3  -8  -2  113.75    5.99
  -3   8   2  116.20    6.15
  -3   8   2  126.65    6.89
   2  -8  -2    0.96    1.27
   2  -8  -2    1.81    1.05
  -2   8   2    2.02    0.87
  -2   8   2    2.14    1.41
   1  -8  -2  111.65    6.27
   1  -8  -2   96.22    6.38
   1  -8  -2  100.42    5.22
  -1   8   2  103.52    6.27
  -1   8   2  100.22    5.30
   0  -8  -2   28.04    1.94
   0  -8  -2   29.39    2.77
   0  -8  -2   28.88    2.85
   0   8   2   27.74    2.96
   0   8   2   27.63    1.91
  -1  -8  -2    3.22    1.91
  -1  -8  -2    2.59    1.07
  -1  -8  -2    2.25    1.17
   1   8   2    3.30    1.20
   1   8   2    4.00    1.68
  -2  -8  -2   47.85    3.59
  -2  -8  -2   44.53    2.97
   2   8   2   39.62    2.75
   2   8   2   43.41    4.25
   3   8   2   -0.20    2.89
   3   8   2    2.83    1.37
   4   8   2   14.75    3.59
   5   8   2   15.61    4.00
   7  -9  -2    2.95    1.73
   7  -9  -2    4.99    2.32
   7  -9  -2    4.36    2.14
  -7   9   2    4.06    1.32
   6  -9  -2   32.06    3.29
   6  -9  -2   36.53    2.49
   6  -9  -2   33.17    3.03
  -6   9   2   36.90    2.86
   5  -9  -2   49.69    3.26
   5  -9  -2   48.24    3.70
   5  -9  -2   59.75    4.06
  -5   9   2   46.80    3.75
  -5   9   2   52.45    3.38
   4  -9  -2   -0.76    1.19
   4  -9  -2   -0.37    1.50
   4  -9  -2    0.20    1.43
  -4   9   2   -0.66    1.76
  -4   9   2    0.04    1.18
   3  -9  -2   65.62    3.74
   3  -9  -2   69.48    4.88
  -3   9   2   69.49    4.34
  -3   9   2   66.15    3.80
   2  -9  -2   15.67    2.42
   2  -9  -2   19.00    2.64
   2  -9  -2   17.71    1.62
  -2   9   2   23.91    2.43
  -2   9   2   16.25    1.64
   1  -9  -2   21.88    2.83
   1  -9  -2   24.99    1.88
   1  -9  -2   24.87    2.52
  -1   9   2   23.34    2.45
  -1   9   2   26.70    1.89
   0  -9  -2   46.78    2.91
   0  -9  -2   49.56    3.69
   0  -9  -2   53.39    3.55
   0   9   2   46.22    4.11
   0   9   2   41.84    2.83
  -1  -9  -2    1.69    1.28
  -1  -9  -2    2.70    2.20
   1   9   2    1.70    1.91
   1   9   2    2.10    1.18
   2   9   2   22.86    2.30
   2   9   2   25.48    3.77
   3   9   2   23.80    3.37
   4   9   2    5.73    3.78
  -7  10   2   38.12    3.22
   6 -10  -2    7.29    1.82
   6 -10  -2    5.30    1.81
   6 -10  -2    4.46    2.12
  -6  10   2    7.98    1.84
  -6  10   2    5.18    1.75
   5 -10  -2   94.67    6.26
   5 -10  -2   91.22    5.13
   5 -10  -2   94.13    6.03
  -5  10   2   89.10    5.21
  -5  10   2   88.92    5.65
   4 -10  -2   22.80    3.08
   4 -10  -2   18.66    1.91
  -4  10   2   18.10    2.66
  -4  10   2   23.55    2.08
   3 -10  -2   13.99    2.18
   3 -10  -2   10.50    1.49
  -3  10   2   14.35    1.54
  -3  10   2    9.03    1.85
   2 -10  -2   59.98    5.07
   2 -10  -2   66.77    3.81
   2 -10  -2   66.35    5.01
  -2  10   2   73.54    4.78
   1 -10  -2    7.35    1.85
   1 -10  -2    6.20    1.33
   1 -10  -2   10.58    1.97
  -1  10   2    5.46    1.50
  -1  10   2    6.49    2.32
   0 -10  -2   16.30    1.96
   0 -10  -2   10.93    2.58
   0  10   2   16.26    3.01
   1  10   2   32.02    4.02
   2  10   2   -1.66    3.25
   3  10   2   12.42    3.95
  -7  11   2   10.67    2.75
  -6  11   2   17.08    2.87
  -5  11   2   23.45    2.62
  -4  11   2   22.50    2.23
  -4  11   2   22.04    2.92
   3 -11  -2   -0.43    1.30
  -3  11   2   -1.83    2.25
  -3  11   2    1.91    1.38
  -2  11   2   44.78    3.09
  -2  11   2   43.24    3.75
  -1  11   2   20.65    3.03
   0  11   2   -1.19    1.90
   1  11   2   36.21    3.80
   2  11   2    2.71    2.58
  -7  12   2   32.34    3.63
  -6  12   2   18.52    3.07
  -5  12   2    2.27    1.83
  -4  12   2   43.25    3.56
  -3  12   2   17.79    3.02
  -2  12   2   -1.93    2.19
  -1  12   2   39.88    4.07
   0  12   2    4.92    3.02
  -7  13   2   -0.45    2.76
  -6  13   2   19.20    3.25
  -5  13   2    5.53    2.95
  -4  13   2    5.50    2.89
  -3  13   2   14.75    3.23
  -5  14  -3   -1.78    2.33
  -6  14  -3    5.50    2.30
   0  13  -3   13.00    3.39
  -4  13  -3   14.84    2.76
  -5  13  -3   21.60    2.88
  -6  13  -3    4.18    2.22
   2  12  -3    9.42    2.96
  -4  12  -3    0.96    1.49
  -5  12  -3   50.16    3.58
  -6  12  -3    1.19    2.02
   3  11  -3    6.51    2.85
   0 -11   3   59.54    4.74
  -1  11  -3   31.42    2.76
   1 -11   3   33.76    3.25
   1 -11   3   25.65    2.49
  -2  11  -3   -3.09    1.67
   2 -11   3    3.73    1.82
   2 -11   3    0.49    2.40
   2 -11   3    2.12    1.95
  -3  11  -3   58.59    3.77
   3 -11   3   61.73    4.52
   3 -11   3   59.29    4.19
   3 -11   3   60.32    3.99
  -4  11  -3   18.00    2.34
  -4  11  -3   13.32    2.28
   4 -11   3   16.77    1.98
   4 -11   3   18.20    3.00
  -5  11  -3    2.11    1.62
  -5  11  -3    2.95    1.50
  -5  11  -3    0.63    1.81
   5 -11   3    5.26    2.49
   5 -11   3    1.85    2.14
  -6  11  -3   60.90    3.94
  -6  11  -3   57.61    4.18
   6 -11   3   67.80    4.54
   4  10  -3   42.85    5.23
   1  10  -3   46.11    3.00
  -1 -10   3   42.43    3.45
  -1 -10   3   43.32    3.89
   0  10  -3   -0.29    1.56
   0 -10   3    1.94    1.92
   0 -10   3   -1.72    1.42
   0 -10   3   -0.45    1.58
  -1  10  -3   47.37    3.26
   1 -10   3   50.72    3.71
   1 -10   3   44.53    3.90
   1 -10   3   42.63    3.14
  -2  10  -3   41.67    2.95
   2 -10   3   40.30    3.23
   2 -10   3   36.39    2.86
   2 -10   3   37.13    3.51
  -3  10  -3    9.65    1.86
   3 -10   3   14.33    2.05
   3 -10   3   11.12    2.43
   3 -10   3    9.84    1.51
  -4  10  -3   63.07    4.27
  -4  10  -3   66.52    4.25
   4 -10   3   73.51    4.32
   4 -10   3   65.13    4.20
   4 -10   3   62.35    4.81
  -5  10  -3    5.03    1.63
  -5  10  -3    3.85    1.64
  -5  10  -3    1.76    1.41
   5 -10   3    8.09    1.59
   5 -10   3    5.89    1.73
   5 -10   3    6.72    1.97
   5 -10   3    3.88    2.13
  -6  10  -3   18.82    2.20
  -6  10  -3   23.34    2.60
  -6  10  -3   21.97    2.34
  -6  10  -3   16.30    2.53
   6 -10   3   22.92    2.68
   6 -10   3   15.56    2.39
   6 -10   3   21.46    2.76
  -7  10  -3   35.82    3.15
   5   9  -3   -2.81    3.39
   4   9  -3   31.60    4.34
   2   9  -3    8.25    1.42
  -2  -9   3   10.17    2.12
  -2  -9   3    5.79    2.20
  -2  -9   3    8.23    1.89
   1   9  -3   97.64    5.49
  -1  -9   3  102.84    6.05
  -1  -9   3  100.33    6.33
  -1  -9   3   92.37    5.44
   0   9  -3   45.03    3.20
   0  -9   3   52.07    3.22
   0  -9   3   52.29    3.51
   0  -9   3   49.32    3.55
  -1   9  -3   17.33    1.53
  -1   9  -3   15.58    1.55
   1  -9   3   15.20    1.57
   1  -9   3   13.11    2.19
   1  -9   3   13.48    1.90
   1  -9   3   17.03    1.82
  -2   9  -3  107.33    5.96
  -2   9  -3  113.10    6.07
   2  -9   3  112.93    6.96
   2  -9   3  110.96    6.05
   2  -9   3  109.76    6.14
   2  -9   3  125.81    6.90
  -3   9  -3   31.83    2.59
  -3   9  -3   32.45    2.54
   3  -9   3   33.19    2.62
   3  -9   3   26.73    2.49
   3  -9   3   32.60    3.01
   3  -9   3   33.67    2.69
  -4   9  -3   37.35    3.08
  -4   9  -3   42.89    2.81
  -4   9  -3   40.56    2.76
  -4   9  -3   45.11    3.67
   4  -9   3   39.36    3.47
   4  -9   3   39.74    3.13
   4  -9   3   44.62    3.07
   4  -9   3   40.76    3.43
  -5   9  -3   66.28    4.31
  -5   9  -3   76.87    4.41
  -5   9  -3   73.65    4.49
  -5   9  -3   74.30    4.53
  -5   9  -3   76.38    5.17
   5  -9   3   75.24    4.99
   5  -9   3   70.68    4.48
   5  -9   3   74.36    5.27
   5  -9   3   72.43    4.41
  -6   9  -3    1.03    1.89
  -6   9  -3   -1.02    1.07
  -6   9  -3    1.10    0.98
  -6   9  -3    0.91    1.74
  -6   9  -3   -0.17    1.82
   6  -9   3   -0.92    1.96
   6  -9   3    0.57    1.89
   6  -9   3    2.19    2.25
   6  -9   3    1.82    1.92
  -7   9  -3   23.26    2.64
  -7   9  -3   25.34    2.39
  -7   9  -3   30.52    3.03
   7  -9   3   24.62    2.92
   7  -9   3   23.25    2.40
   7  -9   3   27.91    2.57
  -8   9  -3   34.11    3.32
   8  -9   3   35.70    3.71
   6   8  -3   11.24    2.69
   5   8  -3   40.45    4.59
   3   8  -3   25.25    2.43
  -3  -8   3   29.17    2.39
  -3  -8   3   25.13    2.22
  -3  -8   3   28.63    3.15
   2   8  -3   34.38    2.53
  -2  -8   3   32.89    2.59
  -2  -8   3   26.46    3.00
  -2  -8   3   33.52    2.86
   1   8  -3   19.25    1.83
   1   8  -3   15.81    1.75
  -1  -8   3   19.99    1.98
  -1  -8   3   17.25    2.14
  -1  -8   3   22.00    1.95
  -1  -8   3   14.26    1.77
   0   8  -3   80.56    4.10
   0   8  -3   72.45    4.27
   0   8  -3   74.94    4.48
   0  -8   3   71.67    4.11
   0  -8   3   72.88    4.70
   0  -8   3   81.96    4.24
   0  -8   3   75.77    4.82
  -1   8  -3   22.87    2.06
  -1   8  -3   28.16    1.87
   1  -8   3   25.15    2.46
   1  -8   3   27.09    2.30
   1  -8   3   28.77    2.15
   1  -8   3   29.88    2.14
  -2   8  -3  105.70    5.46
  -2   8  -3   96.55    5.54
   2  -8   3  102.16    6.26
   2  -8   3  110.66    6.11
   2  -8   3  101.54    5.59
   2  -8   3  100.28    5.45
  -3   8  -3   67.55    4.09
  -3   8  -3   71.12    4.77
  -3   8  -3   75.98    3.91
   3  -8   3   60.03    4.04
   3  -8   3   66.92    4.54
   3  -8   3   65.75    3.96
   3  -8   3   76.12    4.59
  -4   8  -3    1.64    1.66
  -4   8  -3    2.60    1.16
  -4   8  -3    1.66    1.46
  -4   8  -3    4.51    1.50
   4  -8   3    6.44    1.58
   4  -8   3    3.46    1.57
   4  -8   3    3.65    1.67
   4  -8   3    3.12    1.50
  -5   8  -3   90.04    5.15
  -5   8  -3   86.95    5.13
  -5   8  -3   91.00    5.09
  -5   8  -3   88.06    5.10
  -5   8  -3   92.78    5.84
   5  -8   3   80.59    5.54
   5  -8   3   85.15    5.97
   5  -8   3   92.96    5.11
   5  -8   3   87.25    5.20
  -6   8  -3   31.74    2.76
  -6   8  -3   31.48    2.60
  -6   8  -3   27.37    2.74
  -6   8  -3   26.64    2.23
  -6   8  -3   29.91    2.81
   6  -8   3   28.83    2.71
   6  -8   3   28.27    2.42
   6  -8   3   23.83    2.74
   6  -8   3   27.51    2.38
  -7   8  -3    4.13    1.84
  -7   8  -3    6.05    2.01
  -7   8  -3    5.66    2.06
   7  -8   3    4.47    2.53
   7  -8   3    5.37    1.56
   7  -8   3    6.02    2.09
  -8   8  -3   21.62    2.82
   8  -8   3   24.70    2.52
   8  -8   3   27.11    2.53
   6   7  -3   11.58    3.14
   4   7  -3   17.18    1.78
  -4  -7   3   15.32    2.10
  -4  -7   3   18.69    2.68
   3   7  -3   49.11    3.41
  -3  -7   3   57.70    4.14
  -3  -7   3   59.11    3.76
  -3  -7   3   53.64    3.49
  -3  -7   3   51.98    3.52
   2   7  -3   73.44    3.83
   2   7  -3   68.67    4.46
   2   7  -3   59.51    3.83
  -2  -7   3   66.42    3.87
  -2  -7   3   68.40    4.35
  -2  -7   3   69.45    4.56
  -2  -7   3   67.39    3.99
   1   7  -3   19.13    1.68
   1   7  -3   15.69    1.66
   1   7  -3   17.85    1.75
  -1  -7   3   17.79    1.70
  -1  -7   3   16.93    1.96
  -1  -7   3   16.72    1.67
  -1  -7   3   17.36    1.44
   0   7  -3  176.04    8.64
   0   7  -3  163.23    9.68
   0   7  -3  171.62    8.83
   0  -7   3  181.98    8.85
   0  -7   3  186.65    8.69
   0  -7   3  173.89    9.90
   0  -7   3  161.31    9.71
  -1   7  -3   77.60    4.06
  -1   7  -3   77.83    4.15
  -1   7  -3   75.68    4.33
   1  -7   3   79.27    4.19
   1  -7   3   69.58    4.55
   1  -7   3   78.48    4.08
   1  -7   3   69.80    4.54
  -2   7  -3    2.65    0.77
  -2   7  -3   -1.23    1.51
  -2   7  -3    1.53    1.01
  -2   7  -3    0.70    0.39
   2  -7   3    1.08    1.05
   2  -7   3    1.81    1.04
   2  -7   3    0.31    1.26
   2  -7   3    0.05    0.85
  -3   7  -3  235.35   13.60
  -3   7  -3  235.70   11.45
  -3   7  -3  214.86   11.64
   3  -7   3  220.98   12.72
   3  -7   3  227.03   11.69
   3  -7   3  239.75   13.54
   3  -7   3  241.49   11.43
  -4   7  -3   12.25    1.89
  -4   7  -3   13.19    1.68
  -4   7  -3   13.09    1.37
  -4   7  -3   14.53    1.48
   4  -7   3   14.99    1.75
   4  -7   3   14.13    1.68
   4  -7   3   14.39    1.68
   4  -7   3   15.46    1.83
  -5   7  -3    2.58    1.53
  -5   7  -3    4.50    1.03
  -5   7  -3    4.33    1.05
  -5   7  -3    4.80    1.18
  -5   7  -3    1.90    1.11
   5  -7   3    6.42    1.63
   5  -7   3    5.73    1.50
   5  -7   3    4.45    1.83
   5  -7   3    5.05    1.62
  -6   7  -3  197.57   11.20
  -6   7  -3  178.86    9.63
  -6   7  -3  192.93    9.88
  -6   7  -3  175.25   10.19
   6  -7   3  194.01   10.52
   6  -7   3  185.04   11.57
   6  -7   3  185.64    9.65
   6  -7   3  189.34    9.91
  -7   7  -3    5.99    1.88
  -7   7  -3    2.37    1.63
  -7   7  -3    5.12    1.47
  -7   7  -3    4.20    1.83
   7  -7   3    3.93    1.75
   7  -7   3    5.60    1.95
   7  -7   3    5.87    2.01
  -8   7  -3   14.46    2.39
  -8   7  -3   18.78    2.55
   8  -7   3   13.74    2.46
   8  -7   3   16.08    2.56
   8  -7   3   19.55    2.50
   7   6  -3   33.49    3.28
   6   6  -3    9.47    2.68
   5   6  -3    1.47    1.22
  -5  -6   3    7.08    1.89
  -5  -6   3    8.08    1.82
   4   6  -3   53.44    3.20
   4   6  -3   46.54    3.23
  -4  -6   3   54.03    3.32
  -4  -6   3   51.25    3.98
  -4  -6   3   41.52    3.25
   3   6  -3    7.75    1.31
   3   6  -3    4.79    0.97
   3   6  -3    4.25    1.77
  -3  -6   3    3.49    1.34
  -3  -6   3    4.92    1.04
  -3  -6   3    3.04    0.99
  -3  -6   3    4.15    1.61
   2   6  -3   60.42    3.51
   2   6  -3   65.09    3.54
   2   6  -3   67.23    4.24
  -2  -6   3   69.86    3.73
  -2  -6   3   66.02    4.01
  -2  -6   3   58.40    4.14
  -2  -6   3   62.76    3.51
   1   6  -3   80.18    4.53
   1   6  -3   87.45    4.47
   1   6  -3   85.37    5.11
  -1  -6   3   90.98    5.19
  -1  -6   3   83.32    4.49
  -1  -6   3   87.31    4.62
  -1  -6   3   83.68    4.99
   0   6  -3   34.82    2.08
   0   6  -3   32.99    2.24
   0   6  -3   32.86    2.16
   0  -6   3   32.39    1.99
   0  -6   3   32.86    2.43
   0  -6   3   34.53    2.30
   0  -6   3   33.12    2.04
  -1   6  -3  171.32    8.82
  -1   6  -3  171.04    9.66
  -1   6  -3  174.57    8.64
  -1   6  -3  178.07   10.44
   1  -6   3  177.63    8.85
   1  -6   3  181.45    8.67
   1  -6   3  172.32    9.73
   1  -6   3  176.04    9.86
  -2   6  -3   51.25    2.86
  -2   6  -3   52.04    2.87
  -2   6  -3   42.90    2.80
  -2   6  -3   47.74    3.57
   2  -6   3   46.16    2.68
   2  -6   3   50.66    3.22
   2  -6   3   51.77    2.90
  -3   6  -3   46.15    3.40
  -3   6  -3   42.38    2.69
  -3   6  -3   48.22    2.72
  -3   6  -3   43.91    2.80
   3  -6   3   44.96    2.88
   3  -6   3   47.03    2.97
   3  -6   3   45.42    3.11
   3  -6   3   50.04    2.78
  -4   6  -3  185.37    9.49
  -4   6  -3  192.80   10.13
  -4   6  -3  202.30   11.16
  -4   6  -3  182.28    9.65
   4  -6   3  185.47    9.44
   4  -6   3  177.28   11.26
   4  -6   3  191.37   10.45
   4  -6   3  189.34    9.66
  -5   6  -3   11.12    1.41
  -5   6  -3   10.67    1.35
  -5   6  -3   10.42    1.27
  -5   6  -3    8.55    1.62
   5  -6   3   11.93    1.63
   5  -6   3   10.22    1.69
   5  -6   3   11.13    1.47
   5  -6   3   10.72    1.34
  -6   6  -3   55.26    3.95
  -6   6  -3   59.80    3.63
  -6   6  -3   52.48    3.63
  -6   6  -3   55.95    3.71
   6  -6   3   52.62    4.40
   6  -6   3   61.90    3.43
   6  -6   3   50.29    3.72
   6  -6   3   55.02    3.53
  -7   6  -3   71.31    4.40
  -7   6  -3   67.84    4.76
  -7   6  -3   66.25    4.42
  -7   6  -3   63.99    4.43
   7  -6   3   75.86    5.43
   7  -6   3   75.52    4.37
   7  -6   3   67.32    4.44
  -8   6  -3    2.15    2.02
  -8   6  -3    1.51    1.99
   8  -6   3    4.69    1.47
   8  -6   3   -1.84    1.97
   8  -6   3    0.62    2.62
   7   5  -3    3.15    2.28
   6   5  -3   44.40    3.86
   5   5  -3    1.71    1.07
   5   5  -3    3.22    1.49
  -5  -5   3   -1.14    2.00
  -5  -5   3   -0.45    1.10
  -5  -5   3    1.47    1.13
   4   5  -3   50.30    3.30
   4   5  -3   53.65    4.20
   4   5  -3   52.68    3.20
  -4  -5   3   56.78    3.37
  -4  -5   3   49.69    3.86
  -4  -5   3   53.02    3.13
   3   5  -3  111.85    7.31
   3   5  -3  116.83    6.29
   3   5  -3  130.08    6.21
  -3  -5   3  125.10    6.84
  -3  -5   3  126.46    7.30
  -3  -5   3  119.98    6.33
  -3  -5   3  117.84    6.24
   2   5  -3   36.13    2.56
   2   5  -3   35.70    2.16
   2   5  -3   36.58    2.25
  -2  -5   3   33.26    2.44
  -2  -5   3   32.65    2.53
  -2  -5   3   32.44    2.27
  -2  -5   3   38.44    2.26
   1   5  -3  168.44    8.30
   1   5  -3  163.44    8.10
   1   5  -3  154.49    9.24
   1   5  -3  180.63    9.45
  -1  -5   3  154.77    8.11
  -1  -5   3  169.06    9.33
  -1  -5   3  161.06    9.09
  -1  -5   3  160.25    8.32
   0   5  -3   26.79    1.59
   0   5  -3   28.64    2.36
   0   5  -3   24.26    1.68
   0   5  -3   25.66    1.86
   0   5  -3   29.92    1.73
   0  -5   3   24.43    1.62
   0  -5   3   25.26    1.67
   0  -5   3   23.57    1.83
   0  -5   3   27.09    1.81
  -1   5  -3  177.90    8.35
  -1   5  -3  171.34    9.82
  -1   5  -3  171.68    8.14
  -1   5  -3  162.28    9.15
   1  -5   3  143.16    9.08
   1  -5   3  163.62    8.33
   1  -5   3  166.10    9.25
   1  -5   3  169.99    8.15
  -2   5  -3  168.38    8.85
  -2   5  -3  163.63    7.96
  -2   5  -3  158.74    8.11
  -2   5  -3  151.88    9.49
   2  -5   3  147.59    7.90
   2  -5   3  154.72    8.85
   2  -5   3  166.65    8.13
   2  -5   3  170.78    9.45
  -3   5  -3    7.17    1.10
  -3   5  -3    7.16    1.36
  -3   5  -3    5.84    0.91
  -3   5  -3    7.60    0.76
   3  -5   3    7.85    1.25
   3  -5   3   10.74    1.21
   3  -5   3    6.29    1.06
   3  -5   3    7.25    1.10
  -4   5  -3  283.28   15.50
  -4   5  -3  279.62   14.23
  -4   5  -3  257.64   14.07
  -4   5  -3  264.08   13.48
  -4   5  -3  269.51   13.22
   4  -5   3  271.96   14.54
   4  -5   3  268.08   13.52
   4  -5   3  255.86   15.75
   4  -5   3  263.26   13.16
  -5   5  -3  136.03    6.81
  -5   5  -3  128.82    7.84
  -5   5  -3  136.47    6.93
  -5   5  -3  125.16    7.11
   5  -5   3  125.13    8.04
   5  -5   3  123.52    6.92
   5  -5   3  134.70    7.26
   5  -5   3  126.91    6.73
  -6   5  -3    1.22    1.06
  -6   5  -3    0.56    1.28
  -6   5  -3   -2.19    1.39
  -6   5  -3    0.36    1.39
   6  -5   3    0.88    1.88
   6  -5   3    3.30    1.54
   6  -5   3    2.39    1.48
  -7   5  -3  170.09   10.20
  -7   5  -3  171.18    9.06
  -7   5  -3  170.67    8.93
   7  -5   3  166.97    9.11
   7  -5   3  167.64   10.74
   7  -5   3  173.03    8.75
  -8   5  -3   38.15    3.29
  -8   5  -3   33.40    2.90
   8  -5   3   45.40    3.76
   8  -5   3   41.68    2.90
   8  -5   3   38.73    3.39
   7   4  -3    5.82    2.02
   6   4  -3   25.49    2.46
   6   4  -3   26.49    2.23
   6   4  -3   28.59    2.84
  -6  -4   3   29.99    3.19
  -6  -4   3   29.12    2.72
  -6  -4   3   30.75    2.36
   5   4  -3  115.49    7.05
   5   4  -3  109.13    5.83
   5   4  -3  107.86    5.67
  -5  -4   3  100.53    5.74
  -5  -4   3   97.69    5.84
  -5  -4   3  110.27    6.80
   4   4  -3    7.17    1.02
   4   4  -3    7.81    1.07
   4   4  -3   11.59    2.01
  -4  -4   3    8.53    1.37
  -4  -4   3    6.98    1.08
  -4  -4   3    8.64    1.69
   3   4  -3  146.79    7.10
   3   4  -3  140.28    8.24
   3   4  -3  135.29    7.29
   3   4  -3  136.40    8.36
  -3  -4   3  151.68    8.35
  -3  -4   3  146.56    7.18
  -3  -4   3  136.18    7.28
  -3  -4   3  147.76    7.92
   2   4  -3   68.10    4.04
   2   4  -3   77.72    4.76
   2   4  -3   77.84    3.99
   2   4  -3   85.14    4.53
  -2  -4   3   77.75    4.02
  -2  -4   3   77.46    4.47
  -2  -4   3   74.55    4.12
  -2  -4   3   76.76    4.61
   1   4  -3   73.94    3.88
   1   4  -3   72.61    3.97
   1   4  -3   79.70    4.58
  -1  -4   3   76.81    4.42
  -1  -4   3   78.76    4.51
  -1  -4   3   78.02    4.05
  -1  -4   3   80.14    3.96
   0   4  -3  247.60   12.61
   0   4  -3  248.85   12.34
   0   4  -3  254.38   14.03
   0   4  -3  294.70   14.67
   0   4  -3  245.99   14.68
   0  -4   3  245.36   12.33
   0  -4   3  243.94   13.78
   0  -4   3  254.21   14.14
   0  -4   3  260.43   12.64
  -1   4  -3   78.98    4.55
  -1   4  -3   65.57    4.93
  -1   4  -3   86.96    4.11
  -1   4  -3   80.09    4.14
   1  -4   3   80.88    4.04
   1  -4   3   82.00    4.59
   1  -4   3   80.63    4.54
   1  -4   3   86.29    4.18
  -2   4  -3   89.43    4.40
  -2   4  -3   84.94    5.28
  -2   4  -3   84.60    4.42
   2  -4   3   85.25    4.81
   2  -4   3   87.88    4.45
   2  -4   3   87.61    5.19
   2  -4   3   80.11    4.32
  -3   4  -3  365.89   17.52
  -3   4  -3  359.12   20.59
  -3   4  -3  373.70   17.88
   3  -4   3  353.28   17.45
   3  -4   3  363.22   17.92
   3  -4   3  349.35   19.34
   3  -4   3  367.32   20.88
  -4   4  -3    5.35    0.87
  -4   4  -3    6.78    0.93
  -4   4  -3    4.21    0.89
  -4   4  -3    5.78    0.96
   4  -4   3    7.74    1.22
   4  -4   3    6.19    1.12
   4  -4   3    5.93    0.81
   4  -4   3    8.62    1.39
  -5   4  -3  100.31    5.60
  -5   4  -3  109.14    5.72
  -5   4  -3   98.70    6.39
  -5   4  -3   99.07    5.85
   5  -4   3  115.76    5.61
   5  -4   3  105.69    5.66
   5  -4   3  104.95    6.71
   5  -4   3  108.35    5.81
  -6   4  -3   19.44    2.16
  -6   4  -3   25.90    2.24
  -6   4  -3   25.64    2.22
  -6   4  -3   23.17    1.94
   6  -4   3   24.30    2.18
   6  -4   3   16.23    2.08
   6  -4   3   24.93    2.72
  -7   4  -3   11.39    1.75
  -7   4  -3    8.65    1.89
  -7   4  -3    9.31    1.47
   7  -4   3    6.88    1.77
   7  -4   3    7.45    1.44
   7  -4   3    6.76    2.39
  -8   4  -3   56.21    3.94
  -8   4  -3   58.46    4.00
   8  -4   3   59.82    4.84
   8  -4   3   49.50    3.95
   8  -4   3   51.21    3.80
   7   3  -3   60.29    3.62
   7   3  -3   54.18    3.64
  -7  -3   3   53.75    3.87
  -7  -3   3   48.94    4.20
  -7  -3   3   51.78    3.87
   6   3  -3    8.79    1.66
   6   3  -3    5.95    1.64
  -6  -3   3    5.06    2.13
  -6  -3   3    4.47    1.69
  -6  -3   3   10.22    1.78
   5   3  -3  121.37    6.25
   5   3  -3  119.48    7.53
   5   3  -3  119.45    6.34
  -5  -3   3  121.42    7.30
  -5  -3   3  113.17    6.31
  -5  -3   3  126.55    6.49
   4   3  -3  120.45    5.63
   4   3  -3  109.21    6.58
   4   3  -3  105.44    5.68
   4   3  -3  108.17    6.49
  -4  -3   3  105.22    5.64
  -4  -3   3  108.50    5.78
  -4  -3   3  105.67    6.59
   3   3  -3   77.58    4.21
   3   3  -3   86.46    4.35
   3   3  -3   74.76    4.95
   3   3  -3   88.27    4.89
  -3  -3   3   79.47    4.90
  -3  -3   3   81.05    4.22
  -3  -3   3   82.55    4.38
   2   3  -3   93.70    4.80
   2   3  -3   93.54    5.51
   2   3  -3   90.83    4.66
   2   3  -3   88.77    5.45
  -2  -3   3   94.06    4.84
  -2  -3   3   96.89    5.24
  -2  -3   3  103.02    5.24
  -2  -3   3   87.45    4.71
  -2  -3   3   91.43    5.44
   1   3  -3  185.03    9.26
   1   3  -3  191.60   10.63
   1   3  -3  197.92   11.03
   1   3  -3  186.33    9.48
  -1  -3   3  187.02   10.66
  -1  -3   3  188.15    9.28
  -1  -3   3  195.24    9.51
  -1  -3   3  200.54   10.38
   0   3  -3  267.43   14.67
   0   3  -3  263.93   15.32
   0   3  -3  255.71   12.90
   0   3  -3  279.38   13.20
   0  -3   3  278.79   12.90
   0  -3   3  266.70   14.77
   0  -3   3  265.86   14.39
   0  -3   3  269.50   13.22
  -1   3  -3  190.32    9.99
  -1   3  -3  182.77    9.03
  -1   3  -3  162.98   10.52
  -1   3  -3  181.35    8.85
   1  -3   3  182.03    8.82
   1  -3   3  181.05    9.05
   1  -3   3  186.19   10.02
   1  -3   3  188.44    9.84
  -2   3  -3   14.67    1.46
  -2   3  -3   17.15    1.09
  -2   3  -3   15.49    1.18
   2  -3   3   17.75    1.08
   2  -3   3   14.56    1.09
   2  -3   3   17.22    1.21
   2  -3   3   15.42    1.11
  -3   3  -3  288.12   13.94
  -3   3  -3  255.75   13.59
  -3   3  -3  257.42   12.95
  -3   3  -3  251.25   14.91
  -3   3  -3  252.29   12.70
   3  -3   3  251.63   15.12
   3  -3   3  263.64   13.94
   3  -3   3  261.15   12.65
   3  -3   3  277.46   14.43
   3  -3   3  243.43   12.97
  -4   3  -3   89.97    5.65
  -4   3  -3   90.45    4.94
  -4   3  -3  103.08    5.07
  -4   3  -3   95.24    5.21
   4  -3   3   98.87    4.85
   4  -3   3   94.46    5.07
   4  -3   3   93.55    5.12
   4  -3   3   87.60    5.83
  -5   3  -3   45.53    2.78
  -5   3  -3   41.42    3.02
  -5   3  -3   47.66    2.84
  -5   3  -3   43.57    2.79
   5  -3   3   40.20    2.38
   5  -3   3   45.00    2.85
   5  -3   3   44.64    2.58
   5  -3   3   41.46    3.13
  -6   3  -3  141.44    7.18
  -6   3  -3  129.58    7.10
  -6   3  -3  132.05    8.15
   6  -3   3  136.94    8.51
   6  -3   3  132.99    7.26
   6  -3   3  139.72    7.06
  -7   3  -3   24.49    2.47
  -7   3  -3   26.35    2.14
  -7   3  -3   26.08    2.14
   7  -3   3   21.94    2.54
   7  -3   3   24.92    2.46
   7  -3   3   25.26    2.50
  -8   3  -3   48.73    3.52
   8  -3   3   37.82    3.50
   7   2  -3  101.39    5.37
   7   2  -3  100.99    5.53
  -7  -2   3   87.88    5.68
  -7  -2   3  104.38    5.66
  -7  -2   3   92.20    6.60
   6   2  -3   40.28    3.29
   6   2  -3   41.27    2.83
  -6  -2   3   40.64    2.91
  -6  -2   3   41.37    3.60
  -6  -2   3   40.21    2.74
   5   2  -3   44.85    3.04
   5   2  -3   44.55    2.78
   5   2  -3   41.86    2.70
   5   2  -3   42.29    3.38
  -5  -2   3   42.76    3.34
  -5  -2   3   40.68    2.77
  -5  -2   3   39.61    2.74
   4   2  -3  223.63   11.07
   4   2  -3  219.12   12.45
   4   2  -3  226.04   12.86
   4   2  -3  219.23   10.77
  -4  -2   3  223.78   10.86
  -4  -2   3  212.97   12.57
  -4  -2   3  218.85   11.10
   3   2  -3   95.76    4.97
   3   2  -3   94.52    5.73
   3   2  -3   97.56    4.86
   3   2  -3   97.13    5.76
  -3  -2   3   96.49    5.74
  -3  -2   3   87.85    4.98
  -3  -2   3  100.82    4.93
  -3  -2   3  103.97    5.42
   2   2  -3  240.72   11.51
   2   2  -3  233.51   13.36
   2   2  -3  232.55   11.25
   2   2  -3  217.68   12.88
  -2  -2   3  227.94   11.52
  -2  -2   3  251.83   13.02
  -2  -2   3  258.81   12.84
  -2  -2   3  200.24   11.24
   1   2  -3  459.53   25.57
   1   2  -3  420.18   24.67
   1   2  -3  474.94   22.19
   1   2  -3  452.65   21.68
   1   2  -3  515.51   24.93
  -1  -2   3  434.34   22.20
  -1  -2   3  430.43   24.17
  -1  -2   3  459.38   21.68
  -1  -2   3  416.45   24.93
  -1  -2   3  475.98   25.60
   0   2  -3  589.20   29.19
   0   2  -3  591.16   25.27
   0   2  -3  517.58   25.85
   0   2  -3  522.93   25.27
   0   2  -3  463.86   28.69
   0  -2   3  548.60   28.69
   0  -2   3  578.19   25.86
   0  -2   3  471.78   29.80
   0  -2   3  559.19   25.26
   0  -2   3  503.12   28.14
   0  -2   3  530.84   25.87
   0  -2   3  481.33   29.06
  -1   2  -3  608.84   32.01
  -1   2  -3  729.64   35.61
  -1   2  -3  655.31   32.75
  -1   2  -3  732.77   32.01
   1  -2   3  703.87   32.77
   1  -2   3  647.32   31.99
   1  -2   3  632.22   32.76
   1  -2   3  662.78   35.60
  -2   2  -3  113.90    5.21
  -2   2  -3   99.58    5.27
  -2   2  -3  104.98    5.35
  -2   2  -3   92.77    6.18
  -2   2  -3  114.38    5.71
   2  -2   3  109.51    5.87
   2  -2   3  101.76    5.36
   2  -2   3  112.00    5.38
   2  -2   3  106.72    5.20
   2  -2   3   99.45    5.70
  -3   2  -3   43.65    2.60
  -3   2  -3   48.06    2.40
  -3   2  -3   40.77    2.77
  -3   2  -3   43.48    2.42
  -3   2  -3   40.98    2.59
  -3   2  -3   40.77    2.46
   3  -2   3   40.29    2.84
   3  -2   3   44.97    2.66
   3  -2   3   38.16    2.48
   3  -2   3   45.87    2.40
   3  -2   3   42.97    2.33
  -4   2  -3  138.51    7.17
  -4   2  -3  140.75    7.97
  -4   2  -3  133.00    7.02
  -4   2  -3  149.25    7.59
  -4   2  -3  138.24    8.21
   4  -2   3  131.06    7.21
   4  -2   3  141.98    7.90
   4  -2   3  144.15    8.41
   4  -2   3  144.08    6.99
  -5   2  -3    1.12    0.76
  -5   2  -3    1.18    1.07
  -5   2  -3    0.82    0.77
  -5   2  -3    1.78    0.75
   5  -2   3    1.48    1.06
   5  -2   3   -0.09    1.25
   5  -2   3    1.31    0.84
   5  -2   3    2.40    1.10
  -6   2  -3    9.50    1.59
  -6   2  -3   10.85    1.57
  -6   2  -3    9.05    1.25
  -6   2  -3    7.94    1.49
   6  -2   3    6.93    1.22
   6  -2   3    5.67    1.15
   6  -2   3    8.63    1.81
   6  -2   3    8.87    1.49
  -7   2  -3   45.85    3.50
  -7   2  -3   42.75    3.48
  -7   2  -3   48.18    3.28
  -7   2  -3   45.77    3.29
   7  -2   3   44.25    3.29
  -8   2  -3    0.58    1.89
  -8   2  -3    2.10    1.96
   8  -2   3    2.51    1.94
   8   1  -3    8.19    1.99
   8   1  -3    6.86    2.11
  -8  -1   3    7.13    2.24
  -8  -1   3    4.37    1.59
   7   1  -3   13.10    1.65
   7   1  -3   17.52    2.02
  -7  -1   3   13.79    2.50
  -7  -1   3   14.46    2.05
  -7  -1   3   11.65    2.00
   6   1  -3  154.82    8.12
   6   1  -3  159.05    9.38
   6   1  -3  174.63    9.73
  -6  -1   3  160.24    8.22
  -6  -1   3  157.33    8.38
  -6  -1   3  150.06    9.55
   5   1  -3    3.10    1.06
   5   1  -3    1.76    1.04
   5   1  -3    1.12    1.45
   5   1  -3    2.24    1.14
  -5  -1   3    0.41    1.03
  -5  -1   3    2.42    1.10
  -5  -1   3    1.28    1.08
   4   1  -3   13.09    1.31
   4   1  -3   14.00    1.43
   4   1  -3   11.05    1.14
   4   1  -3   11.00    1.02
  -4  -1   3   13.77    1.31
  -4  -1   3   12.74    0.97
  -4  -1   3   13.23    1.29
  -4  -1   3   15.19    1.68
   3   1  -3  391.73   22.93
   3   1  -3  379.92   19.21
   3   1  -3  384.96   21.93
   3   1  -3  397.44   19.66
  -3  -1   3  375.58   19.68
  -3  -1   3  393.84   19.24
  -3  -1   3  436.62   22.00
  -3  -1   3  438.72   22.59
  -3  -1   3  404.21   22.21
   2   1  -3    8.85    0.77
   2   1  -3   10.23    0.86
   2   1  -3    9.12    0.78
   2   1  -3   11.04    0.97
  -2  -1   3   10.20    0.84
  -2  -1   3   10.31    0.79
  -2  -1   3    9.90    0.90
  -2  -1   3   11.72    0.78
  -2  -1   3   10.11    0.97
   1   1  -3  223.48   12.11
   1   1  -3  222.87   10.77
   1   1  -3  202.96   12.03
   1   1  -3  241.18   10.54
   1   1  -3  205.64   12.43
   1   1  -3  218.52   10.53
  -1  -1   3  218.58   10.53
  -1  -1   3  201.49   12.13
  -1  -1   3  229.60   12.10
  -1  -1   3  213.28   12.44
  -1  -1   3  213.35   10.78
  -1  -1   3  241.52   10.78
   0   1  -3  128.78    7.00
   0   1  -3  137.46    6.14
   0   1  -3  112.08    7.01
   0   1  -3  134.85    6.86
   0   1  -3  129.74    6.27
   0   1  -3  133.52    6.29
   0   1  -3  121.72    6.14
   0   1  -3  108.28    7.30
   0  -1   3  141.59    7.32
   0  -1   3  121.72    6.28
   0  -1   3  126.88    6.27
   0  -1   3  130.89    6.15
   0  -1   3  127.58    6.12
  -1   1  -3  235.79   11.51
  -1   1  -3  245.84   13.12
  -1   1  -3  234.26   11.75
  -1   1  -3  239.55   13.60
  -1   1  -3  263.50   12.76
  -1   1  -3  254.14   11.48
  -1   1  -3  223.37   11.74
   1  -1   3  246.06   11.46
   1  -1   3  224.52   11.75
   1  -1   3  224.87   13.19
   1  -1   3  233.30   11.50
   1  -1   3  248.16   11.77
  -2   1  -3  157.79    8.86
  -2   1  -3  185.27    9.05
  -2   1  -3  162.93    9.74
  -2   1  -3  164.55    8.43
  -2   1  -3  181.71    8.26
  -2   1  -3  169.88    9.40
  -2   1  -3  160.72    8.27
   2  -1   3  172.94    9.46
   2  -1   3  147.79    8.44
   2  -1   3  175.91    8.47
   2  -1   3  168.65    8.22
   2  -1   3  187.63    9.41
  -3   1  -3   21.50    1.39
  -3   1  -3   18.77    1.28
  -3   1  -3   18.90    1.62
  -3   1  -3   18.89    1.38
  -3   1  -3   21.53    1.50
   3  -1   3   16.71    1.29
   3  -1   3   20.82    1.50
   3  -1   3   20.07    1.44
  -4   1  -3   34.99    2.23
  -4   1  -3   37.00    2.63
  -4   1  -3   35.35    2.32
  -4   1  -3   35.83    2.44
  -4   1  -3   35.02    2.42
   4  -1   3   37.28    2.20
   4  -1   3   38.70    2.45
   4  -1   3   35.42    2.31
  -5   1  -3  230.32   12.24
  -5   1  -3  256.06   14.38
  -5   1  -3  252.76   13.98
  -5   1  -3  251.16   12.51
   5  -1   3  243.07   13.84
   5  -1   3  258.60   12.20
   5  -1   3  243.55   12.51
  -6   1  -3    3.39    1.37
  -6   1  -3    2.26    1.38
  -6   1  -3    3.92    1.34
  -6   1  -3    1.36    1.42
   6  -1   3    2.14    1.37
   6  -1   3    2.67    1.21
   6  -1   3    1.50    1.25
  -7   1  -3   43.57    3.54
  -7   1  -3   39.08    3.18
  -7   1  -3   46.59    3.56
   7  -1   3   44.17    3.20
  -8   1  -3   17.57    2.25
   8   0  -3   56.62    3.91
   8   0  -3   53.18    3.75
  -8   0   3   57.16    4.37
  -8   0   3   50.87    3.92
  -8   0   3   57.88    3.94
   7   0  -3    2.54    1.56
   7   0  -3    1.02    1.76
   7   0  -3    1.21    1.07
  -7   0   3   -1.71    1.06
  -7   0   3   -0.02    2.02
  -7   0   3    0.43    1.61
   6   0  -3   76.47    4.75
   6   0  -3   76.31    4.86
   6   0  -3   70.78    4.00
   6   0  -3   76.16    4.24
  -6   0   3   72.06    4.17
  -6   0   3   76.33    4.22
  -6   0   3   69.34    5.00
   5   0  -3  176.89    8.54
   5   0  -3  162.97   10.24
   5   0  -3  171.14    9.82
  -5   0   3  170.44   10.07
  -5   0   3  176.49    8.83
  -5   0   3  176.39    8.63
   4   0  -3   35.51    2.20
   4   0  -3   37.96    2.68
   4   0  -3   34.25    2.67
   4   0  -3   38.88    2.20
  -4   0   3   38.21    2.33
  -4   0   3   38.75    2.21
  -4   0   3   40.88    2.42
  -4   0   3   40.82    2.67
  -4   0   3   44.56    2.43
   3   0  -3  322.00   19.50
   3   0  -3  368.09   17.52
   3   0  -3  334.04   20.46
   3   0  -3  343.34   17.11
  -3   0   3  395.62   19.65
  -3   0   3  370.46   20.03
  -3   0   3  374.55   17.16
  -3   0   3  339.46   19.82
  -3   0   3  360.41   17.55
   2   0  -3  527.56   25.97
   2   0  -3  474.74   28.87
   2   0  -3  544.51   25.39
   2   0  -3  608.01   25.42
   2   0  -3  504.67   29.77
   2   0  -3  531.37   30.37
  -2   0   3  519.21   25.99
  -2   0   3  574.93   25.98
  -2   0   3  514.87   29.79
  -2   0   3  531.21   25.40
  -2   0   3  574.08   29.20
  -2   0   3  484.39   29.29
   1   0  -3  291.56   18.03
   1   0  -3  361.49   15.84
   1   0  -3  344.02   16.20
   1   0  -3  346.03   18.29
   1   0  -3  324.78   16.19
   1   0  -3  290.86   18.64
   1   0  -3  320.15   15.82
  -1   0   3  326.28   15.82
  -1   0   3  311.85   16.20
  -1   0   3  327.92   18.24
  -1   0   3  342.60   15.82
  -1   0   3  369.37   16.20
  -1   0   3  350.30   18.63
  -1   0   3  335.60   18.05
   0   0  -3  153.87    7.39
   0   0  -3  157.30    8.62
   0   0  -3  145.27    7.24
   0   0  -3  155.28    7.40
   0   0  -3  151.67    7.23
   0   0   3  142.81    7.40
   0   0   3  150.31    8.39
   0   0   3  153.64    7.23
   0   0   3  156.40    8.38
   0   0   3  142.23    7.40
  -1   0  -3  537.33   27.24
  -1   0  -3  596.40   27.25
  -1   0  -3  565.03   26.63
  -1   0  -3  528.98   31.43
  -1   0  -3  515.64   26.65
  -1   0  -3  554.74   30.63
   1   0   3  600.29   30.65
   1   0   3  535.48   27.26
   1   0   3  531.18   27.27
   1   0   3  608.86   26.62
   1   0   3  579.82   30.56
  -2   0  -3  228.35   11.46
  -2   0  -3  216.63   10.45
  -2   0  -3  194.92   11.95
  -2   0  -3  204.59   10.66
  -2   0  -3  230.77   10.43
  -2   0  -3  210.90   11.21
   2   0   3  213.35   10.39
   2   0   3  232.67   10.68
   2   0   3  204.68   10.68
   2   0   3  225.11   12.01
  -3   0  -3   87.17    4.82
  -3   0  -3   67.46    4.30
  -3   0  -3   78.61    4.24
   3   0   3   86.62    4.21
   3   0   3   85.30    4.35
   3   0   3   94.89    4.33
   3   0   3   82.96    4.85
  -4   0  -3    8.44    0.97
  -4   0  -3    6.07    0.84
  -4   0  -3    9.50    1.09
   4   0   3    6.98    1.04
   4   0   3    8.04    1.01
   4   0   3    9.33    1.02
   4   0   3    7.24    0.72
  -5   0  -3   80.07    4.93
  -5   0  -3   65.97    4.19
  -5   0  -3   76.93    4.74
  -5   0  -3   72.57    4.18
   5   0   3   74.38    4.23
   5   0   3   77.26    4.68
   5   0   3   82.70    4.15
  -6   0  -3   29.09    2.69
  -6   0  -3   32.00    2.76
  -6   0  -3   25.73    2.09
   6   0   3   29.95    2.17
   6   0   3   29.77    2.55
  -7   0  -3    6.31    1.53
  -7   0  -3    5.47    1.77
  -7   0  -3    6.34    1.90
   7   0   3    5.00    1.66
   7   0   3    0.82    1.66
   8  -1  -3   32.78    3.37
   8  -1  -3   31.21    2.50
  -8   1   3   25.32    2.77
  -8   1   3   33.74    2.97
   7  -1  -3   49.29    3.84
   7  -1  -3   50.01    3.15
   7  -1  -3   46.09    2.96
  -7   1   3   45.62    3.26
  -7   1   3   45.04    3.60
  -7   1   3   42.55    3.19
   6  -1  -3    1.25    1.37
   6  -1  -3    0.23    0.80
   6  -1  -3   -0.36    1.35
   6  -1  -3    1.58    0.84
  -6   1   3    0.32    1.23
  -6   1   3    0.92    1.20
  -6   1   3    0.69    1.53
   5  -1  -3  112.13    7.19
   5  -1  -3  122.07    6.13
   5  -1  -3  115.08    6.86
   5  -1  -3  118.91    6.02
  -5   1   3  122.87    6.10
  -5   1   3  119.25    7.16
  -5   1   3  119.68    6.72
  -5   1   3  122.03    6.25
   4  -1  -3   14.46    1.26
   4  -1  -3   15.57    1.18
   4  -1  -3   14.35    1.05
   4  -1  -3   15.33    1.33
  -4   1   3   14.78    1.63
  -4   1   3   15.00    1.14
  -4   1   3   15.65    1.10
  -4   1   3   14.57    1.12
   3  -1  -3   90.91    5.80
   3  -1  -3   96.65    5.53
   3  -1  -3   95.31    4.81
  -3   1   3  101.63    4.96
  -3   1   3   98.54    4.96
  -3   1   3   98.22    4.84
  -3   1   3  100.01    5.53
   2  -1  -3  345.63   20.33
   2  -1  -3  391.02   16.98
   2  -1  -3  339.11   16.95
   2  -1  -3  311.05   19.85
   2  -1  -3  327.97   19.30
  -2   1   3  369.54   17.37
  -2   1   3  381.02   17.36
  -2   1   3  351.85   16.96
  -2   1   3  378.77   19.56
   1  -1  -3  232.89   10.82
   1  -1  -3  216.01   12.37
   1  -1  -3  234.41   10.83
   1  -1  -3  239.61   11.07
  -1   1   3  225.93   11.08
  -1   1   3  197.94   12.46
  -1   1   3  232.77   10.80
  -1   1   3  243.09   12.55
  -1   1   3  217.39   10.81
   0  -1  -3  401.70   19.29
   0  -1  -3  414.99   19.26
   0   1   3  373.06   19.75
   0   1   3  395.64   22.13
   0   1   3  453.06   22.21
   0   1   3  387.57   19.73
  -1  -1  -3  218.17   10.66
  -1  -1  -3  205.18    9.91
  -1  -1  -3  206.55   10.12
  -1  -1  -3  205.24   10.10
  -1  -1  -3  218.99    9.90
  -1  -1  -3  195.74   11.45
   1   1   3  195.36   10.14
   1   1   3  200.92    9.85
   1   1   3  198.59   11.47
   1   1   3  215.31    9.85
   1   1   3  215.39   11.43
  -2  -1  -3    0.00    0.40
  -2  -1  -3    0.12    0.40
  -2  -1  -3   -0.11    0.34
  -2  -1  -3    0.13    0.24
  -2  -1  -3   -0.07    0.47
   2   1   3   -0.29    0.35
   2   1   3    0.77    0.43
   2   1   3    0.26    0.40
   2   1   3    0.28    0.34
   2   1   3   -0.07    0.71
  -3  -1  -3  404.10   20.27
  -3  -1  -3  397.37   19.81
  -3  -1  -3  379.42   22.79
  -3  -1  -3  455.65   19.78
   3   1   3  448.55   20.26
   3   1   3  400.07   22.72
   3   1   3  368.46   20.24
   3   1   3  403.37   19.77
   3   1   3  451.69   22.64
  -4  -1  -3  127.14    6.42
  -4  -1  -3  121.28    7.26
  -4  -1  -3  122.41    6.30
   4   1   3  126.49    7.22
   4   1   3  128.68    6.25
   4   1   3  119.52    6.40
  -5  -1  -3   17.75    2.05
  -5  -1  -3   19.44    1.75
   5   1   3   18.54    1.77
   5   1   3   17.23    1.97
  -6  -1  -3   98.61    5.34
  -6  -1  -3  100.00    6.43
  -6  -1  -3   92.16    6.10
   6   1   3   98.55    5.54
   6   1   3  104.95    6.18
  -7  -1  -3    4.92    2.06
  -7  -1  -3    3.21    1.33
  -7  -1  -3    6.38    1.66
   7   1   3    4.04    1.84
   7   1   3    5.07    1.86
  -9   2   3   25.99    2.85
   8  -2  -3    6.67    1.43
   8  -2  -3    6.72    1.76
   8  -2  -3    6.95    1.88
  -8   2   3    5.91    1.94
  -8   2   3    5.44    1.85
   7  -2  -3   87.26    5.89
   7  -2  -3   90.17    5.54
   7  -2  -3   84.91    4.95
  -7   2   3   86.04    5.03
  -7   2   3   85.46    4.90
   6  -2  -3   48.07    2.94
   6  -2  -3   48.69    3.01
   6  -2  -3   50.32    3.73
   6  -2  -3   54.68    3.34
  -6   2   3   51.63    3.12
  -6   2   3   49.58    3.01
   5  -2  -3  167.71   10.57
   5  -2  -3  176.83   10.00
   5  -2  -3  187.20    8.98
   5  -2  -3  177.50    8.79
  -5   2   3  174.24    9.05
  -5   2   3  183.22    8.85
   4  -2  -3  259.32   15.97
   4  -2  -3  266.20   13.30
   4  -2  -3  277.76   13.62
   4  -2  -3  287.40   15.13
  -4   2   3  265.96   13.66
  -4   2   3  286.25   13.34
  -4   2   3  284.61   15.33
   3  -2  -3    0.45    0.49
   3  -2  -3    0.89    0.45
   3  -2  -3    1.28    0.55
   3  -2  -3    1.48    0.47
   3  -2  -3    0.41    0.67
  -3   2   3    0.97    0.48
  -3   2   3    0.69    0.46
  -3   2   3    1.26    0.35
  -3   2   3    0.61    0.50
   2  -2  -3  178.16   10.16
   2  -2  -3  199.98    9.55
   2  -2  -3  180.93    8.90
   2  -2  -3  182.36   10.75
   2  -2  -3  204.20    8.95
   2  -2  -3  183.24    9.12
  -2   2   3  179.00    8.92
  -2   2   3  183.97   10.34
  -2   2   3  180.65   10.20
  -2   2   3  166.26    9.12
  -2   2   3  203.23    9.13
  -2   2   3  182.90    9.91
   1  -2  -3  601.52   28.61
   1  -2  -3  586.41   29.34
   1  -2  -3  668.50   29.34
   1  -2  -3  634.23   30.81
   1  -2  -3  589.54   28.68
  -1   2   3  569.60   31.58
  -1   2   3  667.29   33.04
  -1   2   3  619.14   29.46
  -1   2   3  513.68   29.40
  -1   2   3  567.47   32.81
   0  -2  -3    0.41    0.10
   0  -2  -3    0.45    0.11
   0   2   3    0.76    0.35
   0   2   3    0.61    0.10
   0   2   3   -0.18    0.42
  -1  -2  -3  403.44   18.81
  -1  -2  -3  419.59   18.80
  -1  -2  -3  372.22   21.76
  -1  -2  -3  384.44   19.24
  -1  -2  -3  402.98   21.03
   1   2   3  357.93   18.75
   1   2   3  403.30   18.76
   1   2   3  383.09   21.69
   1   2   3  423.34   21.70
  -2  -2  -3  224.37   11.19
  -2  -2  -3  208.97   10.33
  -2  -2  -3  189.32   11.70
  -2  -2  -3  197.09   10.09
  -2  -2  -3  218.50   10.07
   2   2   3  203.86   10.32
   2   2   3  190.68   11.73
   2   2   3  221.85   11.58
   2   2   3  223.77   10.32
  -3  -2  -3   98.19    4.88
  -3  -2  -3   90.91    4.70
  -3  -2  -3   87.24    5.39
  -3  -2  -3   87.15    4.60
   3   2   3   87.19    5.38
   3   2   3   93.99    4.58
   3   2   3   82.32    4.72
   3   2   3   94.55    4.70
  -4  -2  -3  102.79    5.13
  -4  -2  -3   91.08    5.93
   4   2   3   96.35    5.96
   4   2   3  101.92    5.14
  -5  -2  -3   28.54    2.50
  -5  -2  -3   20.48    1.98
   5   2   3   22.01    2.33
   5   2   3   24.16    1.80
  -6  -2  -3   16.49    2.47
  -6  -2  -3   23.29    2.19
   6   2   3   21.28    2.46
   6   2   3   18.94    2.05
  -7  -2  -3   73.53    5.26
   7   2   3   65.65    4.90
   9  -3  -3   66.10    4.48
   9  -3  -3   63.58    5.25
   8  -3  -3   29.74    2.87
   8  -3  -3   28.00    2.29
   8  -3  -3   27.96    2.68
  -8   3   3   31.18    2.73
  -8   3   3   28.09    2.83
   7  -3  -3   11.56    1.66
   7  -3  -3    7.74    1.99
   7  -3  -3   10.22    1.62
  -7   3   3    6.88    1.61
  -7   3   3    8.20    1.69
   6  -3  -3   67.81    3.93
   6  -3  -3   61.36    3.57
   6  -3  -3   59.50    4.14
  -6   3   3   61.04    3.54
  -6   3   3   55.78    3.57
   5  -3  -3   31.16    2.52
   5  -3  -3   33.22    2.21
   5  -3  -3   28.41    2.04
  -5   3   3   31.50    2.13
  -5   3   3   30.96    1.92
   4  -3  -3  144.75    7.30
   4  -3  -3  138.92    8.62
   4  -3  -3  154.02    8.09
  -4   3   3  140.94    7.17
  -4   3   3  145.79    7.37
   3  -3  -3   31.21    2.05
   3  -3  -3   36.05    1.93
   3  -3  -3   34.76    2.02
   3  -3  -3   29.83    2.32
   3  -3  -3   35.99    1.92
  -3   3   3   35.95    2.16
  -3   3   3   34.09    1.88
  -3   3   3   33.24    1.94
  -3   3   3   38.21    1.94
  -3   3   3   28.79    2.24
   2  -3  -3    9.02    0.65
   2  -3  -3    8.54    0.98
   2  -3  -3   10.26    0.73
   2  -3  -3   10.32    0.72
   2  -3  -3    9.20    0.77
  -2   3   3    9.00    1.03
  -2   3   3    9.26    0.77
  -2   3   3    9.85    0.69
  -2   3   3    8.79    0.98
  -2   3   3   11.35    0.88
   1  -3  -3  518.83   28.79
   1  -3  -3  530.54   24.58
   1  -3  -3  489.58   23.99
   1  -3  -3  519.49   24.60
   1  -3  -3  500.99   23.99
  -1   3   3  460.78   27.56
  -1   3   3  500.51   24.65
  -1   3   3  535.78   27.76
  -1   3   3  481.43   24.55
   0  -3  -3   37.22    2.31
   0  -3  -3   37.45    1.84
   0  -3  -3   36.16    1.84
   0   3   3   38.41    2.35
   0   3   3   38.06    1.87
   0   3   3   36.69    1.87
   0   3   3   37.64    2.45
  -1  -3  -3   90.17    4.60
  -1  -3  -3   95.50    5.26
  -1  -3  -3   99.29    4.59
  -1  -3  -3   89.61    5.47
   1   3   3   96.06    4.94
   1   3   3   88.79    5.56
   1   3   3   99.60    5.40
   1   3   3   93.70    4.70
  -2  -3  -3  264.09   15.89
  -2  -3  -3  288.45   13.71
  -2  -3  -3  293.93   15.24
  -2  -3  -3  281.30   14.01
  -2  -3  -3  306.38   13.68
   2   3   3  279.47   15.91
   2   3   3  277.68   14.00
  -3  -3  -3   39.37    2.85
  -3  -3  -3   40.94    2.30
  -3  -3  -3   39.89    2.31
   3   3   3   44.55    2.36
   3   3   3   32.71    2.91
  -4  -3  -3   77.61    5.16
  -4  -3  -3   82.32    4.37
   4   3   3   84.76    5.17
   4   3   3   80.52    4.40
  -5  -3  -3   71.07    4.40
  -5  -3  -3   82.73    5.35
   5   3   3   85.93    4.53
   5   3   3   78.66    5.27
  -6  -3  -3    0.65    1.57
  -6  -3  -3   -0.09    1.97
   6   3   3    2.03    1.50
   6   3   3    1.88    1.55
   7   3   3   21.36    3.01
   8  -4  -3  151.98    9.71
   8  -4  -3  150.44    8.02
   8  -4  -3  158.46    8.21
  -8   4   3  149.45    8.16
   7  -4  -3   -0.36    1.31
   7  -4  -3   -0.87    1.75
   7  -4  -3    0.61    1.36
  -7   4   3    0.37    1.42
  -7   4   3    1.28    1.35
   6  -4  -3   79.55    4.59
   6  -4  -3   70.13    5.10
   6  -4  -3   76.20    4.22
   6  -4  -3   79.58    4.29
  -6   4   3   69.97    4.21
  -6   4   3   81.19    4.15
   5  -4  -3  201.18   10.46
   5  -4  -3  187.51   12.55
   5  -4  -3  232.12   11.78
   5  -4  -3  218.30   10.69
  -5   4   3  221.58   10.49
  -5   4   3  214.77   10.76
   4  -4  -3   -0.23    0.63
   4  -4  -3    1.03    0.70
   4  -4  -3    1.57    0.69
   4  -4  -3    0.52    0.29
   4  -4  -3    0.54    0.71
  -4   4   3    1.21    0.69
  -4   4   3    0.50    0.73
  -4   4   3   -1.32    0.94
   3  -4  -3  152.69    9.82
   3  -4  -3  183.90    8.22
   3  -4  -3  161.74    9.16
   3  -4  -3  162.88    8.33
   3  -4  -3  174.49    9.52
   3  -4  -3  166.19    8.16
  -3   4   3  148.62    9.46
  -3   4   3  159.87    9.07
  -3   4   3  184.46    8.36
  -3   4   3  180.70    9.26
  -3   4   3  162.37    8.37
   2  -4  -3  283.18   13.62
   2  -4  -3  276.83   13.61
   2  -4  -3  291.88   16.36
   2  -4  -3  301.15   15.42
   2  -4  -3  255.94   13.87
  -2   4   3  290.18   15.13
  -2   4   3  276.48   13.92
  -2   4   3  296.34   13.93
  -2   4   3  301.48   13.53
  -2   4   3  263.90   15.80
  -2   4   3  281.80   15.62
   1  -4  -3    6.97    0.84
   1  -4  -3    7.35    1.11
   1  -4  -3    6.96    0.51
   1  -4  -3    7.32    0.55
   1  -4  -3    6.61    0.45
  -1   4   3    6.66    0.52
  -1   4   3    6.80    0.85
  -1   4   3    6.21    0.97
  -1   4   3    7.39    0.53
   0  -4  -3  383.24   20.65
   0  -4  -3  368.19   17.22
   0  -4  -3  358.46   17.22
   0  -4  -3  381.25   17.59
   0  -4  -3  352.48   19.41
   0   4   3  365.00   17.61
   0   4   3  346.79   19.96
   0   4   3  338.85   17.61
   0   4   3  350.93   19.97
  -1  -4  -3    4.48    0.49
  -1  -4  -3    5.23    0.87
  -1  -4  -3    4.72    0.48
  -1  -4  -3    4.39    0.88
  -1  -4  -3    5.06    0.61
   1   4   3    4.33    0.47
   1   4   3    4.76    1.28
   1   4   3    4.85    0.30
   1   4   3    5.23    0.82
   1   4   3    5.59    0.56
   1   4   3    4.59    0.52
  -2  -4  -3   78.36    3.96
  -2  -4  -3   77.31    4.76
  -2  -4  -3   79.79    4.42
   2   4   3   74.87    4.85
   2   4   3   77.55    4.04
  -3  -4  -3   62.69    3.47
  -3  -4  -3   61.19    4.13
   3   4   3   71.41    4.35
  -4  -4  -3    1.82    1.65
  -4  -4  -3    3.09    1.12
   4   4   3    3.79    1.91
   4   4   3    1.90    1.10
  -5  -4  -3   54.20    3.53
  -5  -4  -3   58.98    4.40
   5   4   3   54.16    4.45
   5   4   3   60.80    3.59
   6   4   3   49.72    4.29
   7   4   3    1.62    1.82
   8  -5  -3   14.13    2.58
   8  -5  -3   14.09    2.01
  -8   5   3   16.38    2.16
   7  -5  -3  110.39    5.74
   7  -5  -3   94.58    5.56
   7  -5  -3   97.13    6.80
   7  -5  -3  108.94    6.22
  -7   5   3  108.52    5.85
   6  -5  -3    2.01    1.10
   6  -5  -3    2.46    1.12
   6  -5  -3    2.00    1.01
   6  -5  -3    1.11    1.54
   6  -5  -3    3.29    1.34
  -6   5   3    0.57    0.74
  -6   5   3    2.05    0.91
   5  -5  -3   32.99    2.12
   5  -5  -3   39.83    2.26
   5  -5  -3   35.41    2.51
   5  -5  -3   37.82    2.33
   5  -5  -3   30.19    2.67
  -5   5   3   38.87    2.28
  -5   5   3   36.16    2.35
  -5   5   3   34.23    2.61
   4  -5  -3  176.66   11.58
   4  -5  -3  200.64    9.64
   4  -5  -3  185.02   10.84
   4  -5  -3  207.00    9.86
   4  -5  -3  207.78   10.74
  -4   5   3  201.27   10.75
  -4   5   3  192.66    9.87
   3  -5  -3   83.02    4.28
   3  -5  -3   84.01    5.23
   3  -5  -3   88.47    4.31
   3  -5  -3   80.62    4.31
   3  -5  -3   70.17    4.98
   3  -5  -3   88.34    4.69
  -3   5   3   93.34    4.38
  -3   5   3   83.49    4.20
  -3   5   3   80.84    4.82
  -3   5   3   81.59    4.42
  -3   5   3   89.53    4.84
   2  -5  -3   94.16    5.64
   2  -5  -3   93.37    4.66
   2  -5  -3   95.28    5.16
   2  -5  -3   93.42    4.63
   2  -5  -3   88.71    5.48
   2  -5  -3   96.08    4.61
  -2   5   3   91.32    4.71
  -2   5   3   93.26    5.39
  -2   5   3   90.49    4.70
   1  -5  -3   17.73    0.97
   1  -5  -3   16.74    1.36
   1  -5  -3   17.91    1.03
   1  -5  -3   17.37    1.07
   1  -5  -3   16.37    1.72
  -1   5   3   16.54    1.64
  -1   5   3   16.38    1.01
   0  -5  -3   47.14    2.88
   0  -5  -3   42.88    2.28
   0  -5  -3   44.49    2.93
   0  -5  -3   47.80    2.78
   0   5   3   43.61    3.01
   0   5   3   41.57    2.31
  -1  -5  -3   87.17    5.07
  -1  -5  -3   76.23    4.79
  -1  -5  -3   88.81    4.85
  -1  -5  -3   82.81    4.14
   1   5   3   75.99    5.12
   1   5   3   81.05    4.22
  -2  -5  -3    6.89    1.06
  -2  -5  -3    6.87    0.90
  -2  -5  -3    7.44    1.54
   2   5   3    4.93    1.80
   2   5   3    9.31    0.91
  -3  -5  -3   82.25    4.97
  -3  -5  -3   76.20    4.11
   3   5   3   71.26    5.04
  -4  -5  -3   29.93    2.93
  -4  -5  -3   24.41    2.07
   4   5   3   28.19    3.16
   4   5   3   23.51    2.05
  -5  -5  -3    8.95    1.75
   5   5   3   14.42    2.02
   5   5   3   11.86    2.91
   6   5   3   17.32    3.19
   7   5   3   -0.37    1.94
   8  -6  -3   -1.45    1.59
   8  -6  -3   -1.76    1.58
   8  -6  -3    2.70    2.29
  -8   6   3   -0.22    1.71
   7  -6  -3  152.33    9.85
   7  -6  -3  162.88    8.22
   7  -6  -3  162.20    9.06
  -7   6   3  158.69    8.43
   6  -6  -3   45.17    2.83
   6  -6  -3   44.70    3.66
   6  -6  -3   46.77    3.33
  -6   6   3   43.28    2.93
   5  -6  -3   11.94    1.18
   5  -6  -3   11.36    1.79
   5  -6  -3   10.86    1.43
  -5   6   3   10.38    1.36
  -5   6   3   11.68    1.43
   4  -6  -3  148.79    7.25
   4  -6  -3  147.33    8.31
   4  -6  -3  128.18    8.72
  -4   6   3  151.50    7.44
  -4   6   3  148.18    8.08
   3  -6  -3   75.34    3.95
   3  -6  -3   75.27    4.67
   3  -6  -3   74.01    4.84
  -3   6   3   78.74    4.04
  -3   6   3   70.28    4.49
  -3   6   3   83.87    4.51
   2  -6  -3   44.52    3.46
   2  -6  -3   51.78    2.86
   2  -6  -3   48.66    3.27
   2  -6  -3   50.92    2.63
  -2   6   3   50.87    3.21
  -2   6   3   49.60    2.66
   1  -6  -3  124.10    7.47
   1  -6  -3  125.63    6.20
   1  -6  -3  127.65    7.33
  -1   6   3  128.61    6.30
  -1   6   3  124.50    7.36
   0  -6  -3   -0.08    0.52
   0  -6  -3    1.76    1.29
   0  -6  -3   -0.47    1.20
   0   6   3    0.63    0.48
   0   6   3    1.24    1.46
  -1  -6  -3   67.09    4.03
  -1  -6  -3   64.06    4.15
  -1  -6  -3   66.14    3.35
   1   6   3   58.32    3.34
   1   6   3   65.85    4.36
  -2  -6  -3   34.94    2.17
  -2  -6  -3   32.13    2.67
  -2  -6  -3   33.36    2.39
   2   6   3   32.96    2.05
   2   6   3   30.18    3.27
  -3  -6  -3    8.51    2.17
  -3  -6  -3   10.16    1.31
   3   6   3    7.62    1.96
  -4  -6  -3   37.86    2.77
   4   6   3   36.79    3.98
   4   6   3   43.07    2.76
   5   6   3   15.78    3.30
   6   6   3   15.08    2.78
   8  -7  -3   16.37    2.27
   8  -7  -3   14.73    2.20
   8  -7  -3   12.50    2.02
  -8   7   3   10.28    2.07
   7  -7  -3    1.46    2.06
   7  -7  -3   -0.24    1.66
   7  -7  -3    0.10    1.02
  -7   7   3    1.23    1.06
   6  -7  -3  133.78    7.18
   6  -7  -3  122.37    7.78
   6  -7  -3  113.36    6.30
  -6   7   3  106.59    7.03
  -6   7   3  128.03    6.50
   5  -7  -3    8.47    1.31
   5  -7  -3   10.01    1.49
   5  -7  -3    6.84    1.40
  -5   7   3    9.67    1.39
  -5   7   3    9.76    1.46
   4  -7  -3   70.12    4.65
   4  -7  -3   67.67    3.77
   4  -7  -3   71.04    4.47
  -4   7   3   66.43    4.38
  -4   7   3   71.46    3.88
   3  -7  -3   81.96    5.41
   3  -7  -3   87.44    4.43
   3  -7  -3   76.17    5.36
  -3   7   3   82.52    5.06
  -3   7   3   89.67    5.09
  -3   7   3   92.10    4.52
   2  -7  -3    1.90    0.99
   2  -7  -3    1.28    1.56
   2  -7  -3    2.04    0.80
  -2   7   3   -0.65    1.15
  -2   7   3    1.36    0.79
   1  -7  -3   41.48    3.18
   1  -7  -3   43.28    3.27
   1  -7  -3   41.48    2.35
  -1   7   3   43.40    3.04
  -1   7   3   40.05    2.28
   0  -7  -3   70.29    3.70
   0  -7  -3   70.49    4.77
   0  -7  -3   76.85    4.65
   0   7   3   70.64    3.74
   0   7   3   68.98    4.73
  -1  -7  -3    2.15    1.36
  -1  -7  -3    0.19    1.68
  -1  -7  -3    2.85    1.01
   1   7   3    0.16    2.08
   1   7   3    1.08    0.74
  -2  -7  -3   68.31    3.73
  -2  -7  -3   70.94    4.86
   2   7   3   66.77    3.77
   2   7   3   62.33    5.18
  -3  -7  -3    4.14    1.29
  -3  -7  -3    6.25    1.78
   3   7   3    9.29    2.91
   4   7   3   24.07    3.75
   5   7   3    5.42    3.19
   8  -8  -3   57.87    4.28
   7  -8  -3    1.19    1.52
   7  -8  -3    0.09    1.88
   7  -8  -3   -0.20    1.49
  -7   8   3    0.30    1.52
   6  -8  -3   69.26    4.02
   6  -8  -3   65.17    4.75
   6  -8  -3   68.62    5.01
  -6   8   3   71.20    4.14
  -6   8   3   69.83    4.67
   5  -8  -3   56.06    4.01
   5  -8  -3   56.23    3.38
   5  -8  -3   53.49    3.90
  -5   8   3   57.91    3.96
  -5   8   3   59.86    3.48
   4  -8  -3   -1.15    0.99
   4  -8  -3    2.02    1.77
   4  -8  -3    0.12    1.03
  -4   8   3   -0.10    1.01
  -4   8   3   -1.04    1.50
   3  -8  -3  101.30    6.27
   3  -8  -3   94.26    5.09
   3  -8  -3   98.66    6.31
  -3   8   3   99.29    5.25
  -3   8   3   98.17    5.99
  -3   8   3  106.28    5.96
   2  -8  -3   63.99    3.57
   2  -8  -3   69.46    4.74
  -2   8   3   67.16    3.66
  -2   8   3   72.54    4.51
   1  -8  -3   31.23    2.96
   1  -8  -3   24.75    2.82
   1  -8  -3   27.98    1.82
  -1   8   3   27.64    1.85
  -1   8   3   27.94    2.84
   0  -8  -3  127.20    7.27
   0  -8  -3  112.36    7.45
   0  -8  -3  122.04    6.09
   0   8   3  116.57    6.16
   0   8   3  125.39    7.72
  -1  -8  -3    4.09    1.66
  -1  -8  -3    2.78    2.04
  -1  -8  -3    1.82    1.02
   1   8   3    2.85    0.90
   1   8   3    1.13    1.74
  -2  -8  -3   11.65    2.57
  -2  -8  -3   13.36    1.51
   2   8   3   15.03    2.59
   2   8   3   13.73    1.59
   3   8   3   45.54    4.89
   4   8   3    1.12    2.37
   5   8   3   11.34    2.98
   7  -9  -3   43.69    3.08
   7  -9  -3   40.16    3.65
   7  -9  -3   41.04    4.01
  -7   9   3   43.33    3.19
   6  -9  -3    0.14    1.42
   6  -9  -3    4.08    1.50
   6  -9  -3    4.48    1.60
  -6   9   3    1.00    2.13
  -6   9   3    2.51    1.51
   5  -9  -3  106.22    6.82
   5  -9  -3  110.69    5.59
   5  -9  -3  100.89    6.65
  -5   9   3   98.12    6.41
  -5   9   3  101.81    5.70
   4  -9  -3   27.90    3.10
   4  -9  -3   26.96    2.60
   4  -9  -3   23.48    2.01
  -4   9   3   22.43    2.67
  -4   9   3   27.01    2.20
   3  -9  -3   19.45    1.72
   3  -9  -3   23.87    2.49
  -3   9   3   22.72    2.22
  -3   9   3   21.75    1.88
  -3   9   3   23.87    2.18
   2  -9  -3   65.29    4.61
   2  -9  -3   65.48    4.96
   2  -9  -3   63.13    3.61
  -2   9   3   72.58    4.47
  -2   9   3   67.46    3.73
   1  -9  -3   24.36    2.56
   1  -9  -3   27.04    1.97
   1  -9  -3   28.95    3.14
  -1   9   3   31.29    2.00
  -1   9   3   27.30    3.07
   0  -9  -3   20.75    1.83
   0  -9  -3   24.47    2.63
   0  -9  -3   26.53    2.80
   0   9   3   23.38    3.22
  -1  -9  -3   56.84    3.38
   1   9   3   51.18    4.35
   2   9   3    2.43    2.25
   3   9   3   17.99    3.95
   4   9   3    8.10    3.04
  -7  10   3   31.74    3.53
   6 -10  -3   14.93    2.54
  -6  10   3   13.45    1.95
  -6  10   3   13.02    2.61
   5 -10  -3    7.17    1.96
   5 -10  -3    9.66    1.62
  -5  10   3    6.93    1.82
  -5  10   3    7.65    1.57
   4 -10  -3   71.50    4.02
   4 -10  -3   75.40    5.27
  -4  10   3   68.67    4.06
   3 -10  -3   11.58    2.18
   3 -10  -3   10.82    1.52
  -3  10   3    4.43    1.23
  -3  10   3    7.56    2.30
   2 -10  -3   60.29    5.08
   2 -10  -3   67.66    4.89
  -2  10   3   75.54    4.89
   1 -10  -3   50.72    3.88
   1 -10  -3   47.39    2.96
  -1  10   3   49.21    4.17
   0  10   3    0.72    2.66
   1  10   3   27.97    3.39
   2  10   3   24.48    3.48
   3  10   3    0.43    3.59
  -7  11   3    5.38    2.71
  -6  11   3   49.13    3.76
  -5  11   3    1.70    2.40
  -4  11   3   13.98    2.77
  -3  11   3   36.36    3.24
  -2  11   3    2.31    1.61
  -1  11   3   11.64    2.82
   0  11   3   32.16    3.99
   1  11   3    4.47    3.23
  -7  12   3    5.66    2.86
  -6  12   3    8.19    2.17
  -5  12   3   18.81    2.59
  -4  12   3    1.73    1.89
  -3  12   3   30.37    3.64
  -2  12   3    9.86    3.02
  -1  12   3    9.11    2.25
   0  12   3   11.36    3.27
  -6  13   3   -0.47    2.75
  -5  13   3   19.41    3.34
  -4  13   3    5.62    2.93
  -3  13   3    1.57    2.87
  -4  14  -4    5.64    2.44
  -5  14  -4    5.64    1.77
  -4  13  -4    2.57    2.34
  -5  13  -4   14.16    2.42
  -4  12  -4   24.18    2.35
  -5  12  -4    0.37    1.92
   0 -11   4    0.44    2.05
   1 -11   4   29.03    2.83
  -2  11  -4   29.68    2.55
   2 -11   4   30.11    3.56
   2 -11   4   38.07    3.02
  -3  11  -4    5.93    1.54
   3 -11   4    4.86    1.93
   3 -11   4    4.49    1.54
  -4  11  -4   67.99    4.55
  -4  11  -4   73.48    4.63
   4 -11   4   64.01    4.54
   4 -11   4   69.02    5.20
  -5  11  -4    3.88    1.76
  -5  11  -4    7.97    1.42
   5 -11   4    1.24    2.50
  -6  11  -4    7.23    2.51
  -6  11  -4   10.41    2.11
   6 -11   4   13.75    2.78
   4  10  -4    9.93    3.98
  -1 -10   4   53.31    3.87
  -1 -10   4   61.50    4.51
   0  10  -4   47.15    3.35
   0 -10   4   46.09    3.48
   0 -10   4   49.07    4.00
   0 -10   4   46.82    3.40
  -1  10  -4   22.90    2.00
   1 -10   4   23.96    2.51
   1 -10   4   20.34    2.30
   1 -10   4   19.58    2.77
  -2  10  -4   47.15    3.55
   2 -10   4   57.22    4.24
   2 -10   4   51.03    3.33
   2 -10   4   51.55    3.54
   2 -10   4   53.57    3.76
  -3  10  -4   19.54    2.20
  -3  10  -4   17.47    2.15
   3 -10   4   13.47    2.13
   3 -10   4   15.57    2.21
   3 -10   4   16.78    2.72
  -4  10  -4    6.35    1.93
  -4  10  -4    9.42    1.70
  -4  10  -4    2.07    2.30
  -4  10  -4    6.88    1.96
   4 -10   4    8.60    2.00
   4 -10   4    6.11    2.42
   4 -10   4    5.61    1.53
  -5  10  -4   93.21    6.10
  -5  10  -4   85.01    5.19
  -5  10  -4   85.40    5.16
  -5  10  -4   76.88    5.16
  -5  10  -4   76.64    5.26
   5 -10   4   88.53    5.00
   5 -10   4   89.13    5.40
   5 -10   4   88.25    5.54
  -6  10  -4   -0.28    2.02
  -6  10  -4    2.60    1.54
  -6  10  -4    4.26    1.89
  -6  10  -4    7.50    2.17
   6 -10   4    2.40    2.17
   6 -10   4    4.08    2.25
   6 -10   4    2.24    2.22
  -7  10  -4   28.28    2.85
  -7  10  -4   24.10    2.87
   7 -10   4   20.73    2.95
   5   9  -4   18.25    3.96
  -3  -9   4   31.50    3.15
   2   9  -4   10.48    1.89
  -2  -9   4    8.71    1.59
  -2  -9   4    9.61    2.21
  -2  -9   4   11.64    2.15
   1   9  -4   21.17    2.16
  -1  -9   4   17.19    2.11
  -1  -9   4   22.02    2.23
  -1  -9   4   23.98    2.57
   0   9  -4   31.70    2.56
   0   9  -4   31.27    2.51
   0  -9   4   32.94    2.54
   0  -9   4   29.79    2.69
   0  -9   4   32.24    2.63
   0  -9   4   31.25    2.60
  -1   9  -4   15.94    1.59
  -1   9  -4   15.56    1.82
   1  -9   4   15.60    1.90
   1  -9   4   16.91    1.69
   1  -9   4   14.76    2.32
   1  -9   4   17.15    1.63
  -2   9  -4   98.82    5.33
  -2   9  -4  102.47    5.34
   2  -9   4   94.03    5.34
   2  -9   4   94.04    5.98
   2  -9   4   92.71    5.88
   2  -9   4  100.46    5.49
  -3   9  -4   77.96    4.95
  -3   9  -4   92.00    4.79
  -3   9  -4   90.08    6.10
   3  -9   4   91.50    5.67
   3  -9   4   84.44    5.02
   3  -9   4   84.84    4.76
   3  -9   4   85.96    5.30
  -4   9  -4   -1.80    1.16
  -4   9  -4   -1.31    1.92
  -4   9  -4    1.81    1.65
  -4   9  -4   -1.12    1.09
   4  -9   4    1.06    1.67
   4  -9   4    0.77    1.89
   4  -9   4    1.15    1.68
  -5   9  -4  111.92    6.63
  -5   9  -4  112.53    6.56
  -5   9  -4  123.70    7.51
  -5   9  -4  113.71    6.42
  -5   9  -4  110.84    6.52
   5  -9   4  110.23    6.60
   5  -9   4  127.37    7.18
   5  -9   4  115.91    6.46
  -6   9  -4   35.14    3.26
  -6   9  -4   36.44    3.01
  -6   9  -4   45.49    3.55
  -6   9  -4   34.40    3.21
   6  -9   4   31.83    3.26
   6  -9   4   37.60    3.36
   6  -9   4   35.27    2.94
  -7   9  -4    1.33    2.05
  -7   9  -4    2.55    1.99
  -7   9  -4   -0.45    2.09
   7  -9   4    1.23    2.21
   7  -9   4   -1.64    2.57
   7  -9   4    0.94    1.58
   6   8  -4    2.04    2.24
   3   8  -4    2.20    1.69
  -3  -8   4    4.62    1.85
  -3  -8   4    5.25    1.59
  -3  -8   4    6.71    1.87
   2   8  -4  140.81    7.06
   2   8  -4  137.00    7.22
   2   8  -4  135.27    8.16
  -2  -8   4  143.53    7.42
  -2  -8   4  138.37    8.34
  -2  -8   4  126.61    8.00
  -2  -8   4  135.48    7.12
   1   8  -4    8.51    1.46
   1   8  -4    8.17    1.19
   1   8  -4    9.83    1.22
  -1  -8   4    5.60    1.64
  -1  -8   4    7.56    1.83
  -1  -8   4    4.89    1.53
  -1  -8   4    8.97    1.29
   0   8  -4   56.04    3.44
   0   8  -4   60.94    3.34
   0   8  -4   53.32    3.17
   0  -8   4   46.36    3.76
   0  -8   4   53.85    3.65
   0  -8   4   54.78    3.17
   0  -8   4   53.30    3.40
  -1   8  -4  115.30    5.83
  -1   8  -4  113.40    6.05
   1  -8   4  118.14    6.11
   1  -8   4  104.41    6.73
   1  -8   4  109.66    6.64
   1  -8   4  114.14    5.86
  -2   8  -4    5.72    2.02
  -2   8  -4    3.26    1.31
  -2   8  -4    0.47    1.26
   2  -8   4    3.53    1.07
   2  -8   4    0.29    1.26
   2  -8   4    4.49    1.01
   2  -8   4    3.44    1.62
  -3   8  -4   77.41    4.40
  -3   8  -4   79.42    4.47
  -3   8  -4   79.02    5.45
   3  -8   4   82.31    4.93
   3  -8   4   76.51    4.45
   3  -8   4   74.79    4.58
  -4   8  -4  102.30    6.09
  -4   8  -4   87.44    5.27
  -4   8  -4   90.18    5.28
  -4   8  -4   87.70    5.22
   4  -8   4   92.87    5.33
   4  -8   4   94.22    5.77
   4  -8   4   94.59    5.07
  -5   8  -4    1.77    1.25
  -5   8  -4    2.44    1.08
  -5   8  -4    4.90    1.18
  -5   8  -4    2.63    1.25
  -5   8  -4    1.31    1.27
   5  -8   4    1.96    1.94
   5  -8   4    4.51    1.33
   5  -8   4    4.29    1.73
   5  -8   4    6.40    1.87
  -6   8  -4  127.41    6.90
  -6   8  -4  124.36    7.00
  -6   8  -4  117.12    7.12
  -6   8  -4  136.27    7.93
   6  -8   4  122.64    8.02
   6  -8   4  127.59    6.92
   6  -8   4  119.02    7.37
   6  -8   4  123.12    7.09
  -7   8  -4    8.18    1.70
  -7   8  -4   11.11    2.16
  -7   8  -4    8.40    2.06
  -7   8  -4   10.03    2.18
   7  -8   4   10.81    2.27
   7  -8   4    9.62    2.18
   7  -8   4    7.64    1.74
   8  -8   4   10.55    2.43
   7   7  -4   15.01    3.16
   4   7  -4   67.47    3.93
  -4  -7   4   59.97    4.12
  -4  -7   4   66.81    4.86
   3   7  -4    1.30    1.32
   3   7  -4   -0.87    1.42
   3   7  -4    4.69    1.48
  -3  -7   4    2.63    1.33
  -3  -7   4    1.14    1.11
  -3  -7   4    0.74    1.54
  -3  -7   4    1.18    1.09
   2   7  -4    9.36    1.45
   2   7  -4    7.78    1.72
   2   7  -4    6.22    1.11
  -2  -7   4    6.93    1.16
  -2  -7   4    5.95    1.60
  -2  -7   4    7.55    1.50
  -2  -7   4    6.31    1.63
   1   7  -4   69.24    3.94
   1   7  -4   72.87    3.79
   1   7  -4   67.51    4.38
  -1  -7   4   68.05    3.80
  -1  -7   4   71.36    4.48
  -1  -7   4   66.52    4.31
  -1  -7   4   71.42    4.03
   0   7  -4    1.24    1.07
   0   7  -4    1.86    1.12
   0   7  -4    0.50    0.89
   0  -7   4   -0.64    1.28
   0  -7   4    1.30    1.12
   0  -7   4   -0.33    1.07
   0  -7   4   -0.66    0.99
  -1   7  -4  105.74    6.32
  -1   7  -4   96.88    5.10
  -1   7  -4   97.47    5.20
  -1   7  -4  101.09    5.57
   1  -7   4   91.67    5.06
   1  -7   4   87.20    5.65
   1  -7   4   99.77    5.26
   1  -7   4   94.99    5.66
  -2   7  -4  159.42    8.98
  -2   7  -4  141.86    7.55
  -2   7  -4  145.41    7.42
   2  -7   4  138.37    8.29
   2  -7   4  146.14    7.60
   2  -7   4  141.32    7.33
   2  -7   4  149.14    8.28
  -3   7  -4  105.96    5.67
  -3   7  -4  102.41    5.73
  -3   7  -4  113.75    6.00
  -3   7  -4   99.77    6.79
   3  -7   4  110.61    6.25
   3  -7   4  102.95    5.77
   3  -7   4  105.31    5.61
  -4   7  -4   86.51    4.80
  -4   7  -4   82.65    4.95
  -4   7  -4   92.13    5.02
  -4   7  -4   88.80    5.85
   4  -7   4   95.82    5.43
   4  -7   4   81.95    5.74
   4  -7   4   93.51    5.12
   4  -7   4   90.15    4.91
  -5   7  -4   31.40    2.63
  -5   7  -4   28.13    2.56
  -5   7  -4   28.33    2.43
  -5   7  -4   30.83    2.87
   5  -7   4   30.86    2.68
   5  -7   4   35.48    2.65
   5  -7   4   25.02    2.90
   5  -7   4   29.37    2.53
  -6   7  -4   37.64    2.58
  -6   7  -4   33.06    2.75
  -6   7  -4   31.08    3.03
  -6   7  -4   32.88    2.56
   6  -7   4   22.90    3.19
   6  -7   4   33.62    2.58
   6  -7   4   32.89    2.83
  -7   7  -4   66.18    4.80
  -7   7  -4   67.44    4.47
  -7   7  -4   68.80    4.47
  -7   7  -4   66.49    4.39
   7  -7   4   64.63    5.02
   7  -7   4   68.31    4.52
   7  -7   4   63.20    4.34
  -8   7  -4    9.42    1.77
  -8   7  -4    3.83    2.22
   8  -7   4    4.25    2.27
   8  -7   4    5.48    2.18
   7   6  -4   10.68    2.16
   5   6  -4   14.25    1.73
  -5  -6   4   14.88    1.80
  -5  -6   4   13.46    2.17
  -5  -6   4   15.48    2.74
   4   6  -4   43.87    3.47
   4   6  -4   38.86    2.56
   4   6  -4   37.54    2.89
  -4  -6   4   37.43    2.98
  -4  -6   4   38.08    3.45
  -4  -6   4   39.29    2.68
   3   6  -4  140.14    7.53
   3   6  -4  131.53    8.53
   3   6  -4  143.61    7.37
  -3  -6   4  146.35    8.16
  -3  -6   4  141.75    7.44
  -3  -6   4  147.72    7.62
  -3  -6   4  157.68    8.68
   2   6  -4   28.68    2.70
   2   6  -4   28.80    2.10
   2   6  -4   33.41    2.14
  -2  -6   4   29.43    2.04
  -2  -6   4   28.60    2.48
  -2  -6   4   32.05    2.43
  -2  -6   4   28.37    2.16
   1   6  -4  192.57   10.07
   1   6  -4  185.26   11.24
   1   6  -4  211.42    9.89
  -1  -6   4  193.80   11.02
  -1  -6   4  213.01   10.16
  -1  -6   4  197.77    9.89
  -1  -6   4  205.13   11.35
   0   6  -4  114.30    5.73
   0   6  -4  119.86    7.10
   0   6  -4  107.35    6.48
   0   6  -4  116.29    5.92
   0  -6   4  112.96    5.95
   0  -6   4  106.10    6.45
   0  -6   4  114.76    5.80
   0  -6   4  116.11    6.51
  -1   6  -4    2.33    0.99
  -1   6  -4    3.12    1.00
  -1   6  -4    3.93    1.20
  -1   6  -4    3.85    0.82
   1  -6   4    4.55    0.98
   1  -6   4    4.16    1.21
   1  -6   4    3.97    0.73
   1  -6   4    4.77    0.82
  -2   6  -4  122.48    8.07
  -2   6  -4  133.01    6.81
  -2   6  -4  135.23    6.71
  -2   6  -4  137.41    7.39
   2  -6   4  130.21    6.65
   2  -6   4  131.60    7.42
   2  -6   4  139.75    7.51
   2  -6   4  122.34    6.83
  -3   6  -4   56.03    3.19
  -3   6  -4   52.50    3.17
  -3   6  -4   56.53    3.74
  -3   6  -4   51.42    3.14
   3  -6   4   51.93    3.40
   3  -6   4   49.62    3.06
   3  -6   4   52.40    3.20
  -4   6  -4   18.62    1.95
  -4   6  -4   20.22    1.95
  -4   6  -4   19.97    1.41
  -4   6  -4   18.51    1.98
   4  -6   4   22.06    1.92
   4  -6   4   19.19    2.23
   4  -6   4   19.75    1.88
   4  -6   4   20.73    2.09
  -5   6  -4  103.82    5.55
  -5   6  -4  110.14    5.83
  -5   6  -4  105.80    6.47
  -5   6  -4   95.90    5.81
   5  -6   4  109.48    5.53
   5  -6   4  102.92    5.97
   5  -6   4   98.05    6.73
   5  -6   4  103.28    5.69
  -6   6  -4    0.41    1.57
  -6   6  -4    0.10    1.55
  -6   6  -4    2.03    1.67
  -6   6  -4    1.82    1.63
   6  -6   4    0.28    1.60
   6  -6   4   -0.92    2.05
   6  -6   4    0.57    1.25
  -7   6  -4   58.54    3.98
  -7   6  -4   60.70    4.37
  -7   6  -4   59.58    4.01
  -7   6  -4   54.99    3.97
   7  -6   4   55.34    4.07
   7  -6   4   57.14    3.87
   7  -6   4   60.38    4.60
  -8   6  -4   24.10    2.44
  -8   6  -4   25.57    2.46
   8  -6   4   27.05    2.91
   8  -6   4   25.54    2.37
   7   5  -4   19.81    2.36
  -6  -5   4   20.80    2.50
  -6  -5   4   23.00    3.15
   5   5  -4   72.02    4.16
   5   5  -4   65.39    4.09
   5   5  -4   70.94    5.53
  -5  -5   4   72.00    4.35
  -5  -5   4   67.58    5.07
  -5  -5   4   76.36    4.40
   4   5  -4    1.04    1.33
   4   5  -4    4.17    2.12
   4   5  -4    2.24    1.29
  -4  -5   4    2.19    1.40
  -4  -5   4    2.08    1.40
  -4  -5   4    3.90    1.74
   3   5  -4   26.93    2.03
   3   5  -4   28.18    2.11
   3   5  -4   30.30    2.49
  -3  -5   4   26.67    2.16
  -3  -5   4   28.66    2.11
  -3  -5   4   25.30    2.46
  -3  -5   4   27.75    2.04
   2   5  -4   88.23    4.54
   2   5  -4   95.84    5.18
   2   5  -4   83.89    4.63
   2   5  -4   85.86    5.36
  -2  -5   4   89.46    5.35
  -2  -5   4   82.12    5.15
  -2  -5   4   85.73    4.63
  -2  -5   4   90.04    4.77
   1   5  -4    2.62    1.16
   1   5  -4    2.74    0.65
   1   5  -4    2.64    0.65
  -1  -5   4    1.43    0.77
  -1  -5   4    2.68    0.93
  -1  -5   4    1.84    0.87
  -1  -5   4    2.47    0.67
   0   5  -4  263.51   15.65
   0   5  -4  271.35   14.94
   0   5  -4  280.68   13.13
   0   5  -4  258.81   13.42
   0  -5   4  276.90   13.14
   0  -5   4  274.07   13.47
   0  -5   4  276.36   15.02
   0  -5   4  261.78   14.66
  -1   5  -4    6.71    1.43
  -1   5  -4    5.98    0.94
  -1   5  -4    8.90    0.95
  -1   5  -4    6.55    0.96
   1  -5   4    5.17    1.09
   1  -5   4    4.95    0.96
   1  -5   4    6.30    0.67
   1  -5   4    7.52    0.94
  -2   5  -4   19.07    1.36
  -2   5  -4   18.79    1.51
  -2   5  -4   16.05    1.25
  -2   5  -4   17.21    1.92
   2  -5   4   14.80    1.47
   2  -5   4   15.75    1.37
   2  -5   4   18.20    1.53
  -3   5  -4  163.25    8.40
  -3   5  -4  160.44    9.74
  -3   5  -4  156.63    8.25
  -3   5  -4  169.70    8.79
   3  -5   4  163.49    9.08
   3  -5   4  169.90    8.20
   3  -5   4  170.21    8.43
   3  -5   4  162.37    9.30
  -4   5  -4    2.11    1.09
  -4   5  -4    1.36    0.93
  -4   5  -4    0.17    1.11
  -4   5  -4    0.93    1.17
   4  -5   4    1.68    1.11
   4  -5   4    2.35    0.90
   4  -5   4    0.60    1.32
   4  -5   4    0.38    0.84
  -5   5  -4   11.12    1.36
  -5   5  -4   10.86    1.73
  -5   5  -4   16.21    1.78
  -5   5  -4   15.00    1.72
   5  -5   4   12.23    1.44
   5  -5   4   12.87    1.66
   5  -5   4   12.32    1.26
   5  -5   4   12.82    1.69
  -6   5  -4   85.39    5.13
  -6   5  -4   86.31    5.85
  -6   5  -4   96.54    5.11
  -6   5  -4   93.30    5.40
   6  -5   4   85.09    6.02
   6  -5   4   93.97    5.28
   6  -5   4   91.91    4.96
  -7   5  -4   12.32    1.99
  -7   5  -4   10.05    2.05
  -7   5  -4    9.45    2.04
  -7   5  -4    7.96    1.86
   7  -5   4    7.23    2.00
   7  -5   4    8.92    1.91
  -8   5  -4   40.95    3.32
  -8   5  -4   35.64    2.83
   8  -5   4   33.78    2.83
   7   4  -4   16.32    2.39
   6   4  -4   -2.02    1.58
   6   4  -4    1.37    1.23
  -6  -4   4   -2.88    1.64
  -6  -4   4    1.69    2.23
  -6  -4   4    1.66    1.78
   5   4  -4   61.20    4.03
   5   4  -4   79.10    5.30
   5   4  -4   69.57    4.21
  -5  -4   4   69.88    4.08
  -5  -4   4   72.40    4.05
  -5  -4   4   76.23    5.00
   4   4  -4  195.29   11.50
   4   4  -4  195.48    9.88
   4   4  -4  196.61   10.13
  -4  -4   4  197.10   10.17
  -4  -4   4  203.17   11.50
  -4  -4   4  204.30    9.92
   3   4  -4   42.97    2.76
   3   4  -4   44.32    3.49
   3   4  -4   47.87    2.85
   3   4  -4   50.20    2.99
  -3  -4   4   47.41    2.88
  -3  -4   4   48.45    2.83
  -3  -4   4   50.45    3.34
   2   4  -4  249.64   12.04
   2   4  -4  249.56   13.86
   2   4  -4  244.43   12.29
   2   4  -4  260.83   14.21
  -2  -4   4  256.61   12.07
  -2  -4   4  235.46   13.41
  -2  -4   4  243.51   13.88
  -2  -4   4  237.74   12.34
   1   4  -4  133.41    7.76
   1   4  -4  128.55    6.44
   1   4  -4  130.02    6.58
   1   4  -4  136.53    7.47
  -1  -4   4  128.00    6.43
  -1  -4   4  140.49    7.40
  -1  -4   4  122.22    6.61
  -1  -4   4  121.04    7.24
   0   4  -4   87.56    4.98
   0   4  -4   86.77    4.36
   0   4  -4   89.11    5.37
   0   4  -4   85.45    4.43
   0  -4   4   85.02    4.47
   0  -4   4   85.17    4.88
   0  -4   4   88.18    4.89
   0  -4   4   79.43    4.32
  -1   4  -4   56.66    4.08
  -1   4  -4   63.41    3.69
  -1   4  -4   65.08    3.36
  -1   4  -4   61.04    3.31
   1  -4   4   59.62    3.38
   1  -4   4   68.13    3.56
   1  -4   4   63.64    3.23
   1  -4   4   60.17    3.68
  -2   4  -4  111.27    5.52
  -2   4  -4   99.18    6.50
  -2   4  -4   98.33    5.44
   2  -4   4  106.85    5.39
   2  -4   4  110.51    5.59
   2  -4   4  120.93    6.05
   2  -4   4  102.76    5.97
  -3   4  -4   91.87    4.73
  -3   4  -4   83.28    5.51
  -3   4  -4   82.76    4.65
   3  -4   4   85.03    4.58
   3  -4   4   87.48    4.77
   3  -4   4   97.56    5.06
   3  -4   4   89.89    4.99
  -4   4  -4  167.22    8.16
  -4   4  -4  150.09    9.33
  -4   4  -4  150.30    8.46
  -4   4  -4  163.79    8.01
   4  -4   4  164.15    8.21
   4  -4   4  157.11    7.91
   4  -4   4  153.49    8.56
  -5   4  -4   21.75    1.82
  -5   4  -4   23.78    2.24
  -5   4  -4   24.47    1.88
  -5   4  -4   24.18    1.84
   5  -4   4   21.23    2.47
   5  -4   4   22.44    1.54
   5  -4   4   24.01    2.02
   5  -4   4   25.03    2.22
  -6   4  -4   62.59    4.34
  -6   4  -4   68.78    4.11
  -6   4  -4   64.97    4.17
  -6   4  -4   65.93    4.03
   6  -4   4   65.53    4.05
   6  -4   4   69.54    3.96
  -7   4  -4   26.12    2.33
  -7   4  -4   29.25    2.83
  -7   4  -4   27.67    2.68
   7  -4   4   25.48    2.36
   7  -4   4   32.63    2.65
  -8   4  -4   10.21    2.35
   8  -4   4   17.21    1.99
   7   3  -4   52.26    3.85
  -7  -3   4   61.50    4.12
  -7  -3   4   64.19    4.96
  -7  -3   4   60.21    3.79
   6   3  -4   26.91    2.57
   6   3  -4   25.81    2.50
   6   3  -4   30.24    3.07
  -6  -3   4   36.73    2.72
  -6  -3   4   27.25    2.30
  -6  -3   4   31.49    3.24
   5   3  -4    6.41    2.06
   5   3  -4    3.30    0.97
   5   3  -4    5.92    1.40
  -5  -3   4    5.10    1.41
  -5  -3   4    5.64    1.47
  -5  -3   4    3.47    1.35
   4   3  -4  115.61    5.85
   4   3  -4  117.93    5.95
   4   3  -4  114.53    6.82
   4   3  -4  110.89    6.95
  -4  -3   4  113.14    6.82
  -4  -3   4  113.00    5.90
  -4  -3   4  110.59    6.03
   3   3  -4    6.48    0.98
   3   3  -4    6.02    1.46
   3   3  -4    7.08    1.00
   3   3  -4    7.45    0.88
  -3  -3   4    6.44    1.03
  -3  -3   4    6.51    1.05
  -3  -3   4    6.66    0.67
  -3  -3   4    4.92    1.01
   2   3  -4   86.38    4.53
   2   3  -4   84.73    4.46
   2   3  -4   88.17    5.20
  -2  -3   4   82.11    4.58
  -2  -3   4   89.17    5.18
  -2  -3   4   97.36    5.00
  -2  -3   4   86.59    4.48
   1   3  -4  169.76    9.28
   1   3  -4  161.96    8.23
   1   3  -4  175.77    9.64
   1   3  -4  162.29    8.07
  -1  -3   4  153.62    9.03
  -1  -3   4  167.62    8.08
  -1  -3   4  168.28    9.26
  -1  -3   4  165.70    8.29
   0   3  -4   21.59    1.37
   0   3  -4   22.82    1.39
   0   3  -4   23.39    1.55
   0   3  -4   22.71    1.87
   0  -3   4   21.16    1.35
   0  -3   4   22.05    1.62
   0  -3   4   22.78    1.38
   0  -3   4   23.48    1.45
  -1   3  -4  357.89   22.12
  -1   3  -4  385.78   18.69
  -1   3  -4  367.93   21.19
  -1   3  -4  408.03   19.11
   1  -3   4  402.65   20.80
   1  -3   4  397.12   19.14
   1  -3   4  386.29   21.32
   1  -3   4  408.23   18.66
  -2   3  -4  102.42    5.28
  -2   3  -4  100.87    6.32
  -2   3  -4  111.95    5.36
   2  -3   4  105.87    5.21
   2  -3   4  100.94    5.40
   2  -3   4  107.73    5.80
   2  -3   4  105.25    5.79
  -3   3  -4   -0.92    0.54
  -3   3  -4    0.44    0.68
  -3   3  -4    0.25    0.77
   3  -3   4    0.10    0.50
   3  -3   4    0.76    0.39
   3  -3   4    0.42    0.44
   3  -3   4    1.01    0.83
  -4   3  -4  165.15    8.78
  -4   3  -4  158.32    9.61
  -4   3  -4  165.11    8.36
  -4   3  -4  162.44    8.24
   4  -3   4  162.21    8.15
   4  -3   4  164.57    8.77
   4  -3   4  165.59    8.43
  -5   3  -4   31.29    2.27
  -5   3  -4   30.56    2.28
  -5   3  -4   28.63    2.35
  -5   3  -4   29.14    2.50
   5  -3   4   28.16    2.32
   5  -3   4   28.63    2.19
  -6   3  -4   21.37    1.98
  -6   3  -4   15.91    2.07
  -6   3  -4   16.04    1.92
   6  -3   4   18.61    1.86
   6  -3   4   16.34    1.73
  -7   3  -4   48.23    3.70
  -7   3  -4   44.02    3.33
   7  -3   4   44.72    3.35
   7   2  -4   13.04    1.70
   7   2  -4   12.26    2.03
  -7  -2   4   13.92    2.22
  -7  -2   4   12.84    2.14
  -7  -2   4   12.94    1.74
   6   2  -4  125.00    7.72
   6   2  -4  119.22    6.61
   6   2  -4  123.51    6.45
  -6  -2   4  119.62    7.58
  -6  -2   4  119.00    6.42
  -6  -2   4  127.83    6.60
   5   2  -4    8.01    1.93
   5   2  -4   13.05    1.53
   5   2  -4   16.24    1.54
   5   2  -4   13.52    1.60
  -5  -2   4   12.60    1.55
  -5  -2   4   13.30    2.03
  -5  -2   4   13.19    1.56
   4   2  -4  146.83    7.46
   4   2  -4  152.92    8.85
   4   2  -4  146.43    8.73
   4   2  -4  154.35    7.66
  -4  -2   4  148.83    7.50
  -4  -2   4  150.52    7.69
  -4  -2   4  146.46    8.71
   3   2  -4  345.07   17.40
   3   2  -4  356.69   17.02
   3   2  -4  356.41   20.26
   3   2  -4  334.33   19.47
  -3  -2   4  344.83   19.67
  -3  -2   4  347.95   17.44
  -3  -2   4  350.17   17.03
  -3  -2   4  385.97   19.44
   2   2  -4   61.65    3.31
   2   2  -4   68.94    3.86
   2   2  -4   63.25    3.26
   2   2  -4   62.32    3.86
  -2  -2   4   61.74    3.26
  -2  -2   4   65.64    3.80
  -2  -2   4   65.93    3.64
  -2  -2   4   55.86    3.32
   1   2  -4  169.99    8.51
   1   2  -4  148.42    7.42
   1   2  -4  160.35    7.59
   1   2  -4  145.55    8.51
   1   2  -4  155.17    8.85
  -1  -2   4  149.12    7.62
  -1  -2   4  152.69    7.43
  -1  -2   4  141.03    8.52
   0   2  -4  380.23   18.03
   0   2  -4  406.01   20.17
   0   2  -4  340.85   20.06
   0   2  -4  405.61   17.64
   0   2  -4  307.83   20.85
   0   2  -4  369.93   17.64
   0  -2   4  371.87   17.62
   0  -2   4  343.48   19.66
   0  -2   4  360.60   20.20
   0  -2   4  394.41   18.05
   0  -2   4  368.70   18.06
  -1   2  -4   41.63    2.00
  -1   2  -4   35.97    1.99
  -1   2  -4   36.12    1.99
  -1   2  -4   34.31    2.47
   1  -2   4   37.38    2.22
   1  -2   4   41.02    2.06
   1  -2   4   36.88    2.05
   1  -2   4   36.13    1.96
  -2   2  -4  663.90   29.70
  -2   2  -4  632.63   30.39
  -2   2  -4  597.14   29.73
  -2   2  -4  626.88   34.10
  -2   2  -4  690.08   32.97
  -2   2  -4  583.71   35.01
   2  -2   4  562.21   29.65
   2  -2   4  548.00   30.39
   2  -2   4  669.73   34.06
   2  -2   4  639.96   30.42
  -3   2  -4   86.94    4.31
  -3   2  -4   71.16    4.85
  -3   2  -4   85.26    4.54
  -3   2  -4   77.75    4.43
  -3   2  -4   75.09    4.15
  -3   2  -4   75.95    4.17
   3  -2   4   77.45    4.24
   3  -2   4   83.65    4.51
   3  -2   4   73.29    4.65
   3  -2   4   79.31    4.05
  -4   2  -4  107.01    5.68
  -4   2  -4   98.47    5.84
  -4   2  -4   96.74    6.18
  -4   2  -4   96.74    5.29
  -4   2  -4  100.45    5.35
   4  -2   4  103.62    5.22
   4  -2   4  103.75    5.42
   4  -2   4  104.95    5.93
  -5   2  -4  195.64   10.34
  -5   2  -4  207.14   11.56
  -5   2  -4  212.69   10.93
  -5   2  -4  208.51   11.95
  -5   2  -4  195.26   10.17
   5  -2   4  204.49   11.51
   5  -2   4  202.12   10.44
   5  -2   4  205.91   10.14
  -6   2  -4   11.81    1.62
  -6   2  -4   10.85    1.61
  -6   2  -4    9.81    1.83
  -6   2  -4    8.98    1.66
   6  -2   4   11.09    1.31
   6  -2   4    9.96    1.49
   6  -2   4    9.32    1.68
  -7   2  -4   27.87    2.78
  -7   2  -4   20.61    2.42
  -7   2  -4   26.37    2.61
   7  -2   4   27.03    2.54
   8   1  -4   43.27    3.64
   8   1  -4   53.39    3.47
  -8  -1   4   48.67    3.49
  -8  -1   4   53.42    3.85
   7   1  -4   31.76    3.27
   7   1  -4   31.57    2.68
   7   1  -4   23.89    2.53
  -7  -1   4   30.54    3.37
  -7  -1   4   28.62    2.71
  -7  -1   4   28.08    2.69
   6   1  -4   83.61    5.42
   6   1  -4   80.92    5.30
   6   1  -4   80.78    4.44
  -6  -1   4   83.79    5.56
  -6  -1   4   79.22    4.74
  -6  -1   4   84.70    4.52
   5   1  -4   26.38    2.07
   5   1  -4   32.28    2.10
   5   1  -4   27.74    2.38
   5   1  -4   31.35    2.66
  -5  -1   4   31.20    2.70
  -5  -1   4   29.28    1.99
  -5  -1   4   29.60    1.95
   4   1  -4    2.27    0.84
   4   1  -4    0.66    1.20
   4   1  -4    0.36    0.56
   4   1  -4    1.26    0.84
  -4  -1   4    1.02    0.61
  -4  -1   4    1.13    0.89
  -4  -1   4    2.70    1.22
  -4  -1   4   -0.17    0.51
   3   1  -4  191.02   11.43
   3   1  -4  204.31    9.80
   3   1  -4  194.78   11.03
   3   1  -4  198.13    9.58
  -3  -1   4  209.26   10.95
  -3  -1   4  193.42    9.84
  -3  -1   4  202.19   11.22
  -3  -1   4  185.39   11.11
  -3  -1   4  192.44    9.60
   2   1  -4  230.74   10.88
   2   1  -4  226.65   11.12
   2   1  -4  221.34   12.48
   2   1  -4  242.53   12.79
  -2  -1   4  215.55   10.88
  -2  -1   4  221.69   11.15
  -2  -1   4  210.11   12.57
  -2  -1   4  241.60   12.49
  -2  -1   4  219.41   12.79
   1   1  -4   43.87    2.33
   1   1  -4   42.34    2.73
   1   1  -4   41.79    2.28
   1   1  -4   43.03    2.80
   1   1  -4   46.87    2.63
   1   1  -4   47.52    2.28
  -1  -1   4   45.39    2.76
  -1  -1   4   42.45    2.65
  -1  -1   4   44.76    2.27
  -1  -1   4   50.02    2.35
  -1  -1   4   45.87    2.35
   0   1  -4  684.90   43.86
   0   1  -4  863.98   37.21
   0   1  -4  770.56   38.16
   0   1  -4  828.98   43.02
   0   1  -4  723.52   37.21
   0  -1   4  825.91   38.09
   0  -1   4  769.87   37.19
   0  -1   4  796.32   42.83
   0  -1   4  772.53   38.09
  -1   1  -4   96.78    5.82
  -1   1  -4   95.82    4.92
  -1   1  -4   95.24    5.46
  -1   1  -4  107.46    4.84
  -1   1  -4  102.89    5.38
  -1   1  -4   94.20    4.86
   1  -1   4  104.63    4.97
   1  -1   4  100.20    4.80
   1  -1   4   96.49    5.66
   1  -1   4   95.60    4.96
  -2   1  -4  123.62    6.68
  -2   1  -4  129.29    7.02
  -2   1  -4  129.34    6.32
  -2   1  -4  137.63    6.20
  -2   1  -4  122.68    6.24
  -2   1  -4  109.98    7.36
  -2   1  -4  138.10    6.78
   2  -1   4  121.73    7.15
   2  -1   4  121.78    6.13
   2  -1   4  132.57    6.37
   2  -1   4  117.35    6.34
  -3   1  -4  208.07   10.85
  -3   1  -4  206.07   12.81
  -3   1  -4  225.41   11.06
  -3   1  -4  232.26   12.35
  -3   1  -4  237.55   11.75
  -3   1  -4  223.65   11.65
   3  -1   4  228.78   12.43
   3  -1   4  232.26   11.10
   3  -1   4  218.39   10.76
   3  -1   4  203.58   11.08
  -4   1  -4   10.30    1.21
  -4   1  -4    9.85    0.99
  -4   1  -4    8.04    1.43
  -4   1  -4    9.26    1.13
  -4   1  -4   10.40    1.33
   4  -1   4   10.34    1.07
   4  -1   4    8.27    1.00
   4  -1   4   10.56    1.33
  -5   1  -4   41.82    2.54
  -5   1  -4   37.58    2.99
  -5   1  -4   35.26    2.67
  -5   1  -4   33.95    2.32
   5  -1   4   33.57    2.53
   5  -1   4   38.42    2.43
   5  -1   4   39.60    2.76
  -6   1  -4  103.42    6.42
  -6   1  -4  111.71    6.77
  -6   1  -4   93.43    5.70
   6  -1   4  107.09    5.86
   6  -1   4  111.31    6.41
  -7   1  -4    5.03    1.85
  -7   1  -4   10.67    2.03
  -7   1  -4    9.93    2.09
   7  -1   4    5.99    1.84
   7  -1   4    9.43    1.77
   8   0  -4   24.84    2.52
   8   0  -4   25.28    2.60
  -8   0   4   22.64    2.66
  -8   0   4   18.41    3.14
  -8   0   4   22.66    2.23
   7   0  -4   74.20    5.24
   7   0  -4   73.17    4.47
   7   0  -4   83.15    5.23
   7   0  -4   78.90    4.42
  -7   0   4   75.58    4.56
  -7   0   4   67.82    4.65
  -7   0   4   84.21    5.32
   6   0  -4    3.68    1.29
   6   0  -4    3.82    1.51
   6   0  -4    4.55    1.30
   6   0  -4    4.62    1.27
  -6   0   4    3.73    1.04
  -6   0   4    2.68    1.34
  -6   0   4    8.45    1.90
   5   0  -4  191.58    9.28
   5   0  -4  167.05   10.61
   5   0  -4  180.91   11.09
  -5   0   4  187.65    9.51
  -5   0   4  198.12   10.50
  -5   0   4  204.50    9.35
  -5   0   4  178.50   10.87
   4   0  -4   90.37    4.79
   4   0  -4   94.83    5.62
   4   0  -4   97.01    5.78
   4   0  -4   93.42    4.89
  -4   0   4   93.85    5.40
  -4   0   4  100.04    5.43
  -4   0   4   96.87    4.93
  -4   0   4   96.94    4.84
  -4   0   4   86.55    5.62
   3   0  -4    5.80    0.70
   3   0  -4    6.84    1.02
   3   0  -4    6.95    0.66
   3   0  -4    6.31    0.89
  -3   0   4    8.14    0.82
  -3   0   4    5.90    1.05
  -3   0   4    7.01    0.55
  -3   0   4    5.55    0.71
  -3   0   4    5.70    0.75
   2   0  -4  458.30   26.91
   2   0  -4  489.17   23.63
   2   0  -4  544.36   23.66
   2   0  -4  457.33   27.76
   2   0  -4  486.22   24.18
  -2   0   4  495.32   24.21
  -2   0   4  534.88   24.19
  -2   0   4  510.21   27.22
  -2   0   4  476.79   23.64
  -2   0   4  499.40   27.74
   1   0  -4   14.74    0.77
   1   0  -4   12.26    1.03
   1   0  -4   11.88    1.07
   1   0  -4   12.57    0.76
   1   0  -4   12.72    0.75
   1   0  -4   15.13    1.06
  -1   0   4   13.84    0.77
  -1   0   4   12.89    0.95
  -1   0   4   12.41    0.74
  -1   0   4   12.65    0.79
   0   0  -4  196.50   11.20
   0   0  -4  193.61    9.59
   0   0  -4  192.86    9.40
   0   0  -4  205.45    9.39
   0   0  -4  191.01    9.61
   0   0   4  204.80   10.90
   0   0   4  194.65    9.36
   0   0   4  200.60    9.62
   0   0   4  194.24    9.61
   0   0   4  187.37   10.92
   0   0   4  198.59    9.39
  -1   0  -4  514.99   27.33
  -1   0  -4  475.29   28.09
  -1   0  -4  504.37   24.29
  -1   0  -4  526.34   23.76
  -1   0  -4  480.53   23.78
   1   0   4  478.81   27.31
   1   0   4  484.47   24.34
   1   0   4  534.96   23.73
   1   0   4  458.98   24.31
   1   0   4  524.47   27.38
  -2   0  -4    1.32    0.51
  -2   0  -4    1.04    0.46
  -2   0  -4    1.15    0.79
  -2   0  -4    0.98    0.42
  -2   0  -4    1.30    0.30
  -2   0  -4    1.39    0.59
   2   0   4    0.26    0.50
   2   0   4    1.98    0.55
   2   0   4    1.75    0.55
   2   0   4    1.65    0.33
   2   0   4    2.06    0.87
  -3   0  -4  215.26   11.25
  -3   0  -4  245.19   11.88
  -3   0  -4  207.36   11.02
  -3   0  -4  247.89   11.01
  -3   0  -4  226.16   13.11
  -3   0  -4  215.89   12.61
   3   0   4  225.29   10.95
   3   0   4  233.40   12.57
   3   0   4  217.28   11.29
   3   0   4  222.35   12.68
   3   0   4  235.74   11.26
  -4   0  -4  255.23   13.96
  -4   0  -4  236.02   13.47
  -4   0  -4  243.93   12.02
  -4   0  -4  226.68   11.77
   4   0   4  238.31   11.69
   4   0   4  222.92   13.47
   4   0   4  261.92   13.32
   4   0   4  233.16   12.04
  -5   0  -4    3.19    1.14
  -5   0  -4    4.65    1.02
  -5   0  -4    5.26    1.23
   5   0   4    4.79    1.28
   5   0   4    5.63    1.46
  -6   0  -4   77.80    5.16
  -6   0  -4   77.97    4.72
  -6   0  -4   69.01    4.30
   6   0   4   69.81    4.35
   6   0   4   70.51    4.79
  -7   0  -4   69.55    4.55
  -7   0  -4   60.09    4.18
  -7   0  -4   63.05    4.89
   7   0   4   70.76    4.66
   7   0   4   67.38    4.29
   8  -1  -4   -2.42    1.70
   8  -1  -4    1.68    2.08
   8  -1  -4   -2.77    1.70
  -8   1   4   -0.71    1.87
  -8   1   4   -1.50    1.74
   7  -1  -4   32.98    2.75
   7  -1  -4   31.68    2.66
   7  -1  -4   37.31    3.21
   7  -1  -4   35.66    2.39
  -7   1   4   33.33    2.70
  -7   1   4   33.55    2.75
   6  -1  -4   97.40    5.95
   6  -1  -4   95.47    6.23
   6  -1  -4   93.76    5.25
   6  -1  -4  104.51    5.18
  -6   1   4   94.09    5.34
  -6   1   4   98.19    5.23
   5  -1  -4    4.51    1.25
   5  -1  -4    4.49    1.00
   5  -1  -4    5.84    1.01
   5  -1  -4    6.41    1.31
  -5   1   4    7.68    0.91
  -5   1   4    4.82    0.97
  -5   1   4    7.13    0.90
   4  -1  -4  109.49    6.04
   4  -1  -4   96.11    5.20
   4  -1  -4  103.83    6.34
   4  -1  -4  107.94    5.38
  -4   1   4  105.56    5.28
  -4   1   4  110.66    6.02
  -4   1   4  100.08    5.41
   3  -1  -4  268.84   16.46
   3  -1  -4  265.40   13.71
   3  -1  -4  303.11   13.82
   3  -1  -4  283.90   15.66
  -3   1   4  297.15   15.83
  -3   1   4  285.74   13.74
  -3   1   4  264.25   14.05
  -3   1   4  315.93   14.05
   2  -1  -4  140.86    8.24
   2  -1  -4  129.30    7.81
   2  -1  -4  144.38    6.80
   2  -1  -4  150.12    6.82
   2  -1  -4  132.23    6.94
   2  -1  -4  141.20    7.98
  -2   1   4  139.38    6.80
  -2   1   4  137.01    6.97
  -2   1   4  147.63    6.95
  -2   1   4  144.88    7.91
   1  -1  -4  329.01   15.90
   1  -1  -4  315.70   17.78
   1  -1  -4  340.57   15.55
   1  -1  -4  342.94   15.54
   1  -1  -4  334.44   18.40
  -1   1   4  327.15   15.52
  -1   1   4  346.39   18.01
  -1   1   4  322.02   17.20
  -1   1   4  341.58   15.91
  -1   1   4  290.53   15.51
  -1   1   4  295.90   17.92
   0  -1  -4   18.04    0.89
   0  -1  -4   17.41    0.88
   0   1   4   17.67    1.44
   0   1   4   16.50    0.89
   0   1   4   17.15    0.91
   0   1   4   17.36    1.24
  -1  -1  -4   51.98    2.59
  -1  -1  -4   53.00    2.84
  -1  -1  -4   54.26    2.60
  -1  -1  -4   50.66    2.62
  -1  -1  -4   51.11    3.07
   1   1   4   50.25    2.65
   1   1   4   51.37    3.23
   1   1   4   55.92    3.09
  -2  -1  -4   87.81    4.55
  -2  -1  -4   90.99    5.25
  -2  -1  -4   98.03    4.51
  -2  -1  -4   86.79    4.61
   2   1   4   96.99    4.61
   2   1   4   87.56    4.65
   2   1   4   91.34    5.39
   2   1   4   92.39    5.20
  -3  -1  -4    3.14    0.89
  -3  -1  -4    2.74    0.65
  -3  -1  -4    2.39    0.71
   3   1   4    2.90    0.58
   3   1   4    2.09    0.73
   3   1   4    2.74    0.62
   3   1   4    2.09    0.62
   3   1   4    1.07    1.13
  -4  -1  -4  107.90    5.74
  -4  -1  -4  108.20    6.60
   4   1   4  121.64    6.68
   4   1   4  111.33    5.87
  -5  -1  -4   14.81    1.45
  -5  -1  -4   15.34    1.88
  -5  -1  -4   16.93    2.18
   5   1   4   17.33    1.49
   5   1   4   16.67    1.81
  -6  -1  -4   23.84    2.35
  -6  -1  -4   31.69    2.79
  -6  -1  -4   21.19    2.73
   6   1   4   26.90    2.39
   6   1   4   25.80    2.74
  -7  -1  -4   50.53    3.84
  -7  -1  -4   44.15    3.66
   9  -2  -4   29.52    3.57
   8  -2  -4   44.37    4.11
   8  -2  -4   51.38    3.55
  -8   2   4   50.16    3.55
  -8   2   4   48.89    3.61
   7  -2  -4    1.88    1.01
   7  -2  -4    0.84    0.99
   7  -2  -4   -0.85    1.75
   7  -2  -4    0.43    1.53
  -7   2   4    2.10    1.51
  -7   2   4   -0.09    1.41
   6  -2  -4  101.89    7.12
   6  -2  -4  117.25    6.78
   6  -2  -4  121.93    6.09
   6  -2  -4  113.67    5.88
  -6   2   4  121.73    6.02
  -6   2   4  110.79    6.07
   5  -2  -4  119.82    5.85
   5  -2  -4  104.75    5.64
   5  -2  -4  111.93    6.92
   5  -2  -4  112.36    6.47
  -5   2   4  108.74    5.87
  -5   2   4  116.78    6.54
  -5   2   4  111.71    5.75
   4  -2  -4  102.23    5.85
   4  -2  -4   99.60    6.17
   4  -2  -4  100.67    5.07
   4  -2  -4  102.49    5.21
  -4   2   4  104.40    5.13
  -4   2   4  102.46    5.26
  -4   2   4   99.19    5.91
   3  -2  -4   43.67    3.00
   3  -2  -4   48.73    3.20
   3  -2  -4   55.84    2.66
   3  -2  -4   49.52    2.65
   3  -2  -4   47.25    2.59
  -3   2   4   56.77    2.67
  -3   2   4   52.89    2.70
  -3   2   4   50.74    2.61
  -3   2   4   48.20    3.11
   2  -2  -4   15.29    1.12
   2  -2  -4   13.51    0.81
   2  -2  -4   12.42    1.22
   2  -2  -4   14.04    0.83
   2  -2  -4   14.62    0.83
  -2   2   4   14.71    0.85
  -2   2   4   15.62    1.18
  -2   2   4   10.67    0.76
  -2   2   4   14.44    1.13
  -2   2   4   13.92    1.12
  -2   2   4   13.28    0.88
   1  -2  -4  149.33    7.04
   1  -2  -4  148.56    7.05
  -1   2   4  145.41    7.21
  -1   2   4  155.59    7.19
  -1   2   4  145.95    7.92
  -1   2   4  135.05    8.26
  -1   2   4  150.03    8.30
   0  -2  -4   65.30    3.15
   0  -2  -4   67.14    3.16
   0   2   4   66.62    3.85
   0   2   4   64.16    3.97
  -1  -2  -4    7.76    0.56
  -1  -2  -4    5.81    0.85
  -1  -2  -4    6.95    0.80
  -1  -2  -4    7.03    0.41
  -1  -2  -4    6.40    0.48
   1   2   4    8.31    0.72
   1   2   4    7.13    0.48
   1   2   4    6.56    0.54
   1   2   4    5.02    0.90
  -2  -2  -4  263.29   13.31
  -2  -2  -4  288.33   14.79
  -2  -2  -4  291.78   13.27
  -2  -2  -4  249.67   15.40
   2   2   4  296.41   13.59
   2   2   4  271.99   15.49
   2   2   4  267.06   13.19
   2   2   4  292.89   15.32
   2   2   4  266.88   13.61
  -3  -2  -4   41.12    2.48
  -3  -2  -4   45.01    2.99
   3   2   4   45.99    2.72
   3   2   4   42.93    3.16
   3   2   4   47.75    2.56
  -4  -2  -4   37.44    2.44
  -4  -2  -4   41.11    2.93
   4   2   4   35.09    2.83
   4   2   4   42.38    2.46
  -5  -2  -4  105.48    5.84
  -5  -2  -4  117.06    6.86
   5   2   4  115.28    5.98
   5   2   4  103.49    6.84
  -6  -2  -4    4.69    1.58
  -6  -2  -4   -2.15    1.80
  -6  -2  -4    0.96    1.45
   6   2   4    2.26    1.56
   6   2   4    2.72    2.00
   7   2   4    8.97    2.51
   8  -3  -4   89.07    5.15
   8  -3  -4   96.73    5.12
   8  -3  -4   92.94    6.35
  -8   3   4   86.63    5.43
   7  -3  -4   12.27    1.44
   7  -3  -4   14.27    1.61
   7  -3  -4   14.30    1.89
  -7   3   4   18.00    1.91
  -7   3   4   11.72    1.72
   6  -3  -4   22.83    1.88
   6  -3  -4   23.60    2.04
   6  -3  -4   22.47    2.40
  -6   3   4   22.36    1.93
  -6   3   4   25.36    1.99
   5  -3  -4  174.54    9.21
   5  -3  -4  170.97   11.13
   5  -3  -4  199.50    9.46
   5  -3  -4  195.21   10.48
  -5   3   4  193.07    9.49
  -5   3   4  190.02    9.26
   4  -3  -4   42.23    2.83
   4  -3  -4   44.19    2.59
   4  -3  -4   41.89    2.36
   4  -3  -4   41.70    2.32
  -4   3   4   42.08    2.33
  -4   3   4   37.80    2.68
  -4   3   4   41.42    2.41
   3  -3  -4  140.51    7.48
   3  -3  -4  151.97    7.67
   3  -3  -4  148.64    9.11
   3  -3  -4  146.32    8.52
   3  -3  -4  175.49    7.56
   3  -3  -4  161.02    8.70
  -3   3   4  146.59    7.69
  -3   3   4  151.21    8.79
  -3   3   4  144.81    7.49
  -3   3   4  162.59    8.43
  -3   3   4  167.43    7.68
   2  -3  -4  148.76    8.22
   2  -3  -4  153.48    8.73
   2  -3  -4  144.91    7.30
   2  -3  -4  149.05    7.18
   2  -3  -4  146.32    7.65
   2  -3  -4  155.74    7.19
  -2   3   4  146.15    8.07
  -2   3   4  142.37    7.35
  -2   3   4  144.48    8.42
  -2   3   4  155.61    8.35
   1  -3  -4   48.40    2.47
   1  -3  -4   51.50    2.46
  -1   3   4   52.85    3.11
  -1   3   4   48.70    2.48
  -1   3   4   50.74    3.10
  -1   3   4   52.65    2.48
  -1   3   4   49.62    2.96
   0  -3  -4  113.74    6.49
   0  -3  -4  114.11    5.53
   0  -3  -4  118.04    5.54
   0   3   4  118.19    6.70
   0   3   4  113.93    6.60
  -1  -3  -4   45.99    2.77
  -1  -3  -4   48.76    2.29
  -1  -3  -4   43.35    2.91
  -1  -3  -4   45.99    2.31
  -1  -3  -4   45.45    2.35
   1   3   4   43.83    3.15
   1   3   4   47.99    2.36
   1   3   4   45.53    2.86
   1   3   4   47.35    2.40
  -2  -3  -4   13.65    1.54
  -2  -3  -4   12.86    1.16
  -2  -3  -4   12.38    0.97
   2   3   4   16.88    1.83
   2   3   4   12.61    1.07
   2   3   4   13.85    1.15
  -3  -3  -4   59.91    3.17
  -3  -3  -4   57.79    3.85
   3   3   4   56.72    3.20
   3   3   4   59.29    3.91
  -4  -3  -4    0.18    0.96
  -4  -3  -4    0.12    1.03
   4   3   4    0.11    0.98
   4   3   4   -1.55    1.18
  -5  -3  -4   33.76    2.62
  -5  -3  -4   33.62    3.25
   5   3   4   40.56    3.55
   5   3   4   37.04    2.63
  -6  -3  -4   26.90    2.69
   6   3   4   21.33    3.10
   6   3   4   25.68    2.51
   7   3   4    1.71    2.41
   8  -4  -4   15.85    2.16
   8  -4  -4   22.70    2.49
  -8   4   4   18.70    2.27
   7  -4  -4  113.32    7.04
   7  -4  -4  111.21    5.79
   7  -4  -4  117.96    6.53
  -7   4   4   94.06    5.98
   6  -4  -4   -0.16    1.06
   6  -4  -4    0.90    0.99
   6  -4  -4   -1.65    1.00
   6  -4  -4    0.83    1.53
  -6   4   4    0.55    1.06
  -6   4   4    0.65    1.17
   5  -4  -4   98.30    5.48
   5  -4  -4   97.12    5.02
   5  -4  -4   85.42    6.02
   5  -4  -4   91.38    4.91
  -5   4   4  103.99    4.94
  -5   4   4   92.74    5.07
   4  -4  -4   54.79    2.85
   4  -4  -4   52.88    3.08
   4  -4  -4   48.43    2.77
   4  -4  -4   50.20    3.44
  -4   4   4   48.55    3.29
  -4   4   4   51.09    3.31
  -4   4   4   58.16    2.85
  -4   4   4   47.73    2.87
   3  -4  -4    8.99    0.85
   3  -4  -4   10.18    0.92
   3  -4  -4   10.55    0.87
   3  -4  -4    9.54    1.26
   3  -4  -4    9.90    0.88
   3  -4  -4    9.07    0.88
  -3   4   4    9.28    1.32
  -3   4   4   10.52    0.93
  -3   4   4   10.50    1.30
  -3   4   4   10.79    0.94
  -3   4   4   10.82    0.97
   2  -4  -4  202.81   11.74
   2  -4  -4  206.58   11.07
   2  -4  -4  199.37    9.72
   2  -4  -4  203.83    9.86
   2  -4  -4  206.33    9.71
  -2   4   4  201.65   11.24
  -2   4   4  183.54   11.36
  -2   4   4  205.36   10.90
  -2   4   4  202.86    9.91
   1  -4  -4   22.58    1.74
   1  -4  -4   23.27    1.91
   1  -4  -4   23.17    1.22
   1  -4  -4   23.18    1.25
  -1   4   4   23.47    1.86
  -1   4   4   23.81    1.20
  -1   4   4   23.87    1.23
  -1   4   4   23.23    1.76
   0  -4  -4   55.87    2.70
   0  -4  -4   58.44    3.40
   0  -4  -4   50.82    3.39
   0  -4  -4   55.27    2.70
   0   4   4   56.65    2.74
   0   4   4   52.16    2.73
   0   4   4   51.36    3.48
   0   4   4   56.36    3.44
  -1  -4  -4  278.82   15.57
  -1  -4  -4  287.35   13.30
  -1  -4  -4  273.51   14.99
   1   4   4  256.92   15.56
   1   4   4  286.06   15.45
  -2  -4  -4   -0.32    0.70
  -2  -4  -4    0.25    0.57
  -2  -4  -4    0.65    1.23
   2   4   4    1.54    0.57
   2   4   4    2.92    1.55
   2   4   4    1.14    0.74
  -3  -4  -4   38.65    2.85
  -3  -4  -4   40.09    2.36
   3   4   4   42.24    2.45
   3   4   4   34.78    3.00
  -4  -4  -4   75.71    4.45
  -4  -4  -4   86.81    5.50
   4   4   4   89.82    4.57
   4   4   4   75.81    5.60
  -5  -4  -4   -0.15    1.34
  -5  -4  -4   -0.96    1.96
   5   4   4    1.95    1.74
   5   4   4    3.44    1.42
   6   4   4   15.52    2.44
   7   4   4    8.75    2.85
   8  -5  -4    2.90    1.20
   8  -5  -4    4.90    1.70
   8  -5  -4    0.73    1.56
  -8   5   4    0.99    1.74
   7  -5  -4   82.61    4.99
   7  -5  -4   78.27    4.44
   7  -5  -4   70.92    5.41
  -7   5   4   79.05    4.59
   6  -5  -4   97.80    4.89
   6  -5  -4   81.60    5.94
  -6   5   4   91.42    5.01
   5  -5  -4   16.05    1.44
   5  -5  -4   14.52    1.95
   5  -5  -4   17.15    1.34
  -5   5   4   15.82    1.54
   4  -5  -4  198.82   10.83
   4  -5  -4  193.22    9.65
   4  -5  -4  183.29   11.67
  -4   5   4  205.81    9.92
  -4   5   4  204.89   10.84
   3  -5  -4  164.61    9.36
   3  -5  -4  149.62    8.90
   3  -5  -4  166.77    8.68
   3  -5  -4  155.21    7.71
  -3   5   4  157.00    7.89
  -3   5   4  149.49    8.68
  -3   5   4  170.36    8.86
  -3   5   4  142.28    9.08
   2  -5  -4   51.18    3.73
   2  -5  -4   58.82    3.75
   2  -5  -4   59.56    2.96
   2  -5  -4   58.42    3.37
  -2   5   4   61.37    3.00
  -2   5   4   58.33    2.99
  -2   5   4   60.05    3.58
  -2   5   4   51.59    3.63
  -2   5   4   61.87    3.64
   1  -5  -4  199.61    9.32
   1  -5  -4  184.05   10.75
   1  -5  -4  207.74   11.31
  -1   5   4  197.85    9.49
  -1   5   4  195.61    9.52
  -1   5   4  197.15   10.99
  -1   5   4  171.08   10.99
   0  -5  -4   15.80    0.99
   0  -5  -4   18.02    1.57
   0  -5  -4   17.15    1.32
   0  -5  -4   14.47    1.54
   0   5   4   15.31    1.86
   0   5   4   15.71    1.41
   0   5   4   15.32    0.95
  -1  -5  -4   42.09    2.32
  -1  -5  -4   44.88    3.19
  -1  -5  -4   47.82    2.97
   1   5   4   43.03    3.44
  -2  -5  -4   75.88    4.78
  -2  -5  -4   73.13    4.40
  -2  -5  -4   71.08    3.92
   2   5   4   80.76    3.98
   2   5   4   74.39    5.00
  -3  -5  -4    7.21    1.08
  -3  -5  -4    6.38    1.45
   3   5   4    5.01    1.17
   3   5   4    1.60    2.13
  -4  -5  -4   20.31    2.63
  -4  -5  -4   21.51    1.87
   4   5   4   15.53    2.44
   4   5   4   21.15    2.07
   5   5   4   34.87    3.96
   6   5   4   13.19    3.20
   8  -6  -4   44.66    3.17
   8  -6  -4   38.11    3.97
   8  -6  -4   48.11    3.53
   7  -6  -4   20.21    1.94
   7  -6  -4   17.51    2.23
   7  -6  -4   16.77    2.24
  -7   6   4   17.43    1.74
   6  -6  -4   63.77    3.68
   6  -6  -4   58.64    4.65
   6  -6  -4   61.41    4.32
  -6   6   4   72.58    3.83
   5  -6  -4   22.87    2.35
   5  -6  -4   26.90    2.20
   5  -6  -4   19.20    1.71
  -5   6   4   21.96    1.78
  -5   6   4   19.73    2.11
   4  -6  -4  118.03    6.04
   4  -6  -4  115.50    7.35
   4  -6  -4  117.69    6.94
  -4   6   4  120.26    6.80
  -4   6   4  122.86    6.17
   3  -6  -4  100.64    6.23
   3  -6  -4   98.41    5.04
   3  -6  -4  100.02    6.05
  -3   6   4  106.92    5.86
  -3   6   4   99.19    5.83
  -3   6   4   98.08    5.15
   2  -6  -4   12.47    1.43
   2  -6  -4   11.85    1.82
   2  -6  -4   14.01    1.01
   2  -6  -4   12.12    0.99
  -2   6   4   11.76    0.96
  -2   6   4   12.47    1.53
   1  -6  -4  304.72   16.47
   1  -6  -4  278.87   13.65
   1  -6  -4  281.29   15.65
  -1   6   4  271.68   15.95
   0  -6  -4   57.82    2.96
   0  -6  -4   55.04    3.80
   0  -6  -4   59.70    3.85
   0   6   4   57.89    2.97
   0   6   4   55.54    4.09
  -1  -6  -4    1.66    1.25
  -1  -6  -4    4.71    0.81
  -1  -6  -4    1.51    1.13
   1   6   4    4.24    0.70
   1   6   4    4.27    2.00
  -2  -6  -4  132.84    6.77
  -2  -6  -4  136.58    8.15
   2   6   4  138.19    8.38
  -3  -6  -4   31.67    3.22
  -3  -6  -4   31.78    2.32
   3   6   4   30.53    2.28
   3   6   4   33.19    3.18
  -4  -6  -4    6.27    1.68
   4   6   4    6.39    2.89
   5   6   4   30.05    3.46
   6   6   4   -1.22    2.17
   8  -7  -4   47.86    3.52
   7  -7  -4   20.76    2.13
   7  -7  -4   26.81    2.40
   7  -7  -4   27.69    2.73
  -7   7   4   25.95    2.35
   6  -7  -4   41.32    2.57
   6  -7  -4   42.02    3.45
   6  -7  -4   40.40    3.68
  -6   7   4   45.46    2.86
   5  -7  -4  144.79    9.11
   5  -7  -4  143.51    7.45
   5  -7  -4  145.07    8.61
  -5   7   4  152.73    8.48
  -5   7   4  149.83    7.65
   4  -7  -4   14.07    1.58
   4  -7  -4   11.87    1.25
   4  -7  -4   15.00    2.06
  -4   7   4   13.61    1.30
  -4   7   4    8.54    1.84
   3  -7  -4  113.88    5.60
   3  -7  -4  104.74    6.88
   3  -7  -4  117.39    6.71
  -3   7   4  107.01    6.52
  -3   7   4  110.86    5.71
  -3   7   4  116.16    6.54
   2  -7  -4   93.59    4.70
   2  -7  -4   94.02    5.73
   2  -7  -4   94.37    5.81
  -2   7   4   91.30    5.75
  -2   7   4   94.93    4.77
   1  -7  -4    1.39    1.14
   1  -7  -4    0.94    1.60
   1  -7  -4    2.00    0.59
  -1   7   4    1.65    1.62
  -1   7   4    0.39    0.54
   0  -7  -4  117.13    6.14
   0  -7  -4  113.07    7.57
   0  -7  -4  131.79    7.29
   0   7   4  130.62    6.23
   0   7   4  127.14    7.75
  -1  -7  -4   13.56    1.84
  -1  -7  -4   12.33    2.20
  -1  -7  -4   13.69    1.20
   1   7   4   12.10    1.18
   1   7   4   12.97    2.68
  -2  -7  -4    2.92    0.96
  -2  -7  -4    1.37    2.08
   2   7   4    0.79    1.82
  -3  -7  -4   76.03    4.31
   3   7   4   81.70    6.06
   4   7   4    1.25    3.15
   5   7   4    3.22    3.38
   7  -8  -4   40.55    3.41
   7  -8  -4   37.97    3.47
   7  -8  -4   37.74    2.80
  -7   8   4   37.08    2.91
   6  -8  -4    0.15    1.88
   6  -8  -4    0.65    1.30
   6  -8  -4    0.53    2.01
  -6   8   4    2.07    2.06
  -6   8   4   -2.34    1.25
   5  -8  -4   48.27    3.81
   5  -8  -4   48.18    3.76
   5  -8  -4   45.08    2.90
  -5   8   4   48.74    3.66
  -5   8   4   45.78    2.98
   4  -8  -4   44.74    3.35
   4  -8  -4   40.12    2.65
   4  -8  -4   48.86    3.66
  -4   8   4   41.61    3.26
  -4   8   4   38.64    2.54
   3  -8  -4   15.19    1.93
   3  -8  -4   12.56    1.57
   3  -8  -4   13.86    1.28
  -3   8   4   13.89    1.76
  -3   8   4   14.87    1.31
  -3   8   4   13.90    1.70
   2  -8  -4   66.59    4.92
   2  -8  -4   72.16    3.69
  -2   8   4   70.22    4.65
   1  -8  -4   36.65    3.28
   1  -8  -4   30.28    2.78
   1  -8  -4   34.03    2.09
  -1   8   4   36.81    2.91
   0  -8  -4   17.63    1.44
   0  -8  -4   27.10    2.27
   0  -8  -4   22.22    2.65
   0   8   4   19.80    2.90
  -1  -8  -4   64.25    4.84
   1   8   4   64.39    4.82
   2   8   4    3.84    3.01
   3   8   4   21.09    3.25
   4   8   4   22.00    4.16
   6  -9  -4   45.48    3.99
   6  -9  -4   45.65    3.95
   6  -9  -4   46.03    3.09
  -6   9   4   51.62    3.57
  -6   9   4   44.40    3.17
   5  -9  -4   -2.19    1.75
   5  -9  -4    0.05    2.11
   5  -9  -4    0.98    1.47
  -5   9   4    0.06    2.07
  -5   9   4   -0.14    1.54
   4  -9  -4   54.61    4.14
   4  -9  -4   56.66    3.23
   4  -9  -4   64.79    4.52
  -4   9   4   53.41    3.85
   3  -9  -4   17.59    1.51
   3  -9  -4   19.16    2.36
  -3   9   4   16.72    2.46
   2  -9  -4    4.55    1.10
   2  -9  -4    2.58    2.30
   2  -9  -4    7.64    2.19
  -2   9   4    6.40    1.98
   1  -9  -4   57.23    4.42
   1  -9  -4   48.55    4.41
  -1   9   4   59.89    4.46
   0  -9  -4    1.87    2.03
   0   9   4   -0.43    2.56
   1   9   4   27.32    3.84
   2   9   4   16.02    3.70
   3   9   4    0.57    3.58
   6 -10  -4   11.94    2.73
  -6  10   4   14.34    2.80
   5 -10  -4   15.29    1.92
  -5  10   4   13.44    1.65
  -5  10   4   15.98    2.21
   4 -10  -4   13.09    1.44
  -4  10   4   13.28    2.52
  -3  10   4   31.18    2.83
  -2  10   4    0.51    1.45
  -1  10   4   13.76    2.93
   0  10   4   24.22    3.56
   1  10   4   -0.82    3.20
   2  10   4   17.31    3.97
  -7  11   4   19.55    3.33
  -6  11   4   18.22    2.52
  -5  11   4   11.33    2.18
  -4  11   4   17.15    2.39
  -3  11   4   33.33    3.64
  -2  11   4    9.63    1.99
  -2  11   4    9.51    2.17
  -1  11   4    1.78    2.62
   0  11   4   36.75    4.23
   1  11   4    3.70    2.43
  -7  12   4   23.59    2.91
  -6  12   4   -1.01    1.87
  -5  12   4   22.46    2.79
  -4  12   4   14.24    3.10
  -3  12   4    2.67    2.04
  -2  12   4   25.63    3.06
  -1  12   4    4.95    2.84
  -1  12   4    2.63    2.91
  -4  14  -5    0.33    2.32
  -4  13  -5   12.83    2.41
  -4  12  -5   66.34    4.52
  -2  11  -5   47.56    3.32
   2 -11   5   45.08    3.65
   2 -11   5   52.99    4.32
  -3  11  -5   13.99    2.41
   3 -11   5   18.45    2.52
   3 -11   5   21.98    3.13
  -4  11  -5   10.11    1.86
  -4  11  -5    8.34    1.80
   4 -11   5    8.85    2.80
   4 -11   5    8.96    2.37
   4 -11   5    6.70    2.36
  -5  11  -5   62.30    4.75
  -5  11  -5   50.21    3.55
   5 -11   5   45.91    4.20
   5 -11   5   48.89    4.47
  -1 -10   5    0.95    1.91
  -1 -10   5    1.17    2.15
   0  10  -5   45.63    3.40
   0 -10   5   47.20    3.47
   0 -10   5   46.38    3.65
  -1  10  -5   33.49    2.87
  -1  10  -5   34.70    2.62
   1 -10   5   31.58    2.83
   1 -10   5   34.21    3.38
   1 -10   5   38.68    2.68
  -2  10  -5   24.26    2.53
  -2  10  -5   27.19    2.19
   2 -10   5   22.45    2.14
   2 -10   5   24.16    2.49
   2 -10   5   25.11    2.56
  -3  10  -5   49.96    3.69
  -3  10  -5   59.02    4.87
  -3  10  -5   54.79    3.65
   3 -10   5   55.66    3.85
   3 -10   5   51.60    3.96
   3 -10   5   48.60    3.68
  -4  10  -5    8.71    2.15
  -4  10  -5   15.20    1.84
  -4  10  -5   11.85    2.70
  -4  10  -5   12.93    1.78
   4 -10   5   14.79    1.92
   4 -10   5   12.41    2.10
   4 -10   5   15.35    1.90
  -5  10  -5   58.99    4.57
  -5  10  -5   42.73    3.88
  -5  10  -5   49.00    3.74
  -5  10  -5   57.74    3.97
   5 -10   5   58.28    4.04
   5 -10   5   48.83    3.56
   5 -10   5   54.37    3.71
  -6  10  -5   35.82    2.92
  -6  10  -5   32.59    3.62
  -6  10  -5   38.61    3.03
  -6  10  -5   30.89    3.16
   6 -10   5   34.67    3.61
   6 -10   5   39.18    3.62
   6 -10   5   40.10    3.04
   2   9  -5   35.07    3.06
  -2  -9   5   38.95    3.20
  -2  -9   5   34.86    3.39
  -2  -9   5   41.63    3.12
   1   9  -5   35.18    2.57
   1   9  -5   34.03    2.81
  -1  -9   5   37.36    2.96
  -1  -9   5   38.42    3.15
  -1  -9   5   35.96    3.00
  -1  -9   5   36.69    2.98
   0   9  -5    7.39    1.66
   0   9  -5    6.51    1.69
   0  -9   5    8.10    2.05
   0  -9   5    4.45    1.58
   0  -9   5    3.93    1.67
   0  -9   5    5.01    1.29
  -1   9  -5   60.76    3.64
  -1   9  -5   60.07    3.72
   1  -9   5   63.10    4.10
   1  -9   5   61.75    4.44
   1  -9   5   65.15    3.87
   1  -9   5   65.80    3.81
  -2   9  -5    7.56    1.69
  -2   9  -5    7.42    1.68
  -2   9  -5    6.28    1.88
   2  -9   5    4.26    2.04
   2  -9   5    5.75    1.26
   2  -9   5    3.84    1.68
  -3   9  -5   17.07    2.32
  -3   9  -5   17.81    2.13
  -3   9  -5   17.91    2.11
   3  -9   5   16.15    2.48
   3  -9   5   13.96    2.04
   3  -9   5   16.92    1.81
  -4   9  -5   33.70    2.44
  -4   9  -5   33.39    2.89
  -4   9  -5   32.42    2.52
  -4   9  -5   35.20    3.51
   4  -9   5   32.65    3.03
   4  -9   5   32.38    2.84
   4  -9   5   36.00    2.93
  -5   9  -5   -1.55    1.92
  -5   9  -5    0.93    1.70
  -5   9  -5    1.71    1.57
  -5   9  -5    3.35    1.97
   5  -9   5    2.30    1.45
   5  -9   5    1.41    1.43
   5  -9   5   -0.10    1.38
  -6   9  -5   48.22    3.39
  -6   9  -5   47.21    3.37
  -6   9  -5   45.07    3.81
   6  -9   5   53.99    3.83
   6  -9   5   47.35    3.94
  -7   9  -5   12.71    1.90
  -7   9  -5   13.39    2.49
  -7   9  -5    9.24    1.93
  -7   9  -5   11.51    2.47
   7  -9   5   12.79    2.06
   7  -9   5    9.97    2.62
   6   8  -5   22.38    3.79
   3   8  -5   58.86    3.78
   3   8  -5   52.31    4.45
  -3  -8   5   58.92    3.88
  -3  -8   5   55.88    3.67
  -3  -8   5   55.33    4.09
  -3  -8   5   58.27    3.83
   2   8  -5   27.19    2.48
   2   8  -5   30.21    2.90
   2   8  -5   25.04    2.51
  -2  -8   5   25.16    2.70
  -2  -8   5   27.31    2.65
  -2  -8   5   33.05    2.88
  -2  -8   5   31.25    2.61
   1   8  -5   41.51    2.83
   1   8  -5   36.29    3.04
   1   8  -5   36.20    2.82
  -1  -8   5   44.82    2.95
  -1  -8   5   37.93    3.19
  -1  -8   5   41.41    2.90
  -1  -8   5   40.13    3.00
   0   8  -5   13.69    1.74
   0   8  -5   15.82    1.79
   0   8  -5   18.87    1.64
   0  -8   5   20.07    1.88
   0  -8   5   13.49    2.09
   0  -8   5   10.89    1.79
   0  -8   5   18.92    1.86
  -1   8  -5   44.28    2.90
  -1   8  -5   44.03    2.79
  -1   8  -5   48.25    2.94
  -1   8  -5   41.82    3.56
   1  -8   5   39.18    3.17
   1  -8   5   42.40    3.06
   1  -8   5   48.45    3.01
   1  -8   5   44.20    2.90
  -2   8  -5   59.89    4.43
  -2   8  -5   58.17    3.42
  -2   8  -5   52.54    3.36
   2  -8   5   50.87    3.79
   2  -8   5   50.95    3.12
   2  -8   5   50.32    3.40
   2  -8   5   53.90    3.35
  -3   8  -5    0.59    1.00
  -3   8  -5    0.03    1.95
  -3   8  -5   -0.92    1.48
   3  -8   5    1.20    1.04
   3  -8   5   -0.26    1.47
   3  -8   5    2.56    1.70
  -4   8  -5  104.69    6.76
  -4   8  -5   97.57    5.90
  -4   8  -5  107.43    5.87
   4  -8   5  103.80    6.31
   4  -8   5  116.22    5.86
   4  -8   5  101.46    5.99
  -5   8  -5   17.75    2.27
  -5   8  -5   16.86    2.10
  -5   8  -5   16.42    2.19
  -5   8  -5   21.53    2.21
   5  -8   5   16.78    2.38
   5  -8   5   17.68    2.25
   5  -8   5   14.10    2.22
  -6   8  -5    5.92    1.58
  -6   8  -5    7.11    1.92
  -6   8  -5    5.09    1.52
  -6   8  -5    7.83    2.08
   6  -8   5    4.83    1.61
   6  -8   5    5.56    2.08
  -7   8  -5   60.18    4.09
  -7   8  -5   52.42    4.04
  -7   8  -5   55.42    3.99
   7  -8   5   47.49    4.11
   7  -8   5   53.45    3.67
   4   7  -5   21.96    2.31
   4   7  -5   18.43    2.18
   4   7  -5   16.29    2.44
  -4  -7   5   16.74    1.94
  -4  -7   5   20.77    2.37
  -4  -7   5   20.16    2.70
   3   7  -5   59.58    4.51
   3   7  -5   69.27    3.80
   3   7  -5   67.33    3.89
  -3  -7   5   58.65    4.03
  -3  -7   5   66.35    3.97
  -3  -7   5   66.28    4.42
  -3  -7   5   73.61    4.73
   2   7  -5   28.74    2.32
   2   7  -5   27.12    2.38
   2   7  -5   29.63    2.82
  -2  -7   5   29.93    2.16
  -2  -7   5   30.94    2.42
  -2  -7   5   28.44    2.45
  -2  -7   5   30.96    2.71
   1   7  -5   85.41    4.43
   1   7  -5   77.24    4.58
   1   7  -5   85.08    5.19
  -1  -7   5   79.36    4.97
  -1  -7   5   80.90    5.10
  -1  -7   5   85.42    4.72
  -1  -7   5   83.91    4.58
   0   7  -5   55.41    3.41
   0   7  -5   52.40    3.25
   0   7  -5   49.72    3.16
   0   7  -5   55.43    4.19
   0  -7   5   53.32    3.42
   0  -7   5   51.91    3.67
   0  -7   5   54.11    3.21
   0  -7   5   52.59    3.13
  -1   7  -5   28.24    2.05
  -1   7  -5   23.66    1.78
  -1   7  -5   25.63    1.84
  -1   7  -5   32.52    2.91
   1  -7   5   23.79    1.77
   1  -7   5   25.79    2.11
   1  -7   5   23.13    1.83
   1  -7   5   26.36    2.38
  -2   7  -5   86.44    6.06
  -2   7  -5  102.77    5.35
  -2   7  -5   95.61    4.98
  -2   7  -5   90.24    4.91
   2  -7   5   89.63    5.55
   2  -7   5   88.00    5.25
   2  -7   5   90.63    4.89
   2  -7   5   84.92    5.03
  -3   7  -5   28.26    2.92
  -3   7  -5   28.89    2.32
  -3   7  -5   30.93    2.08
  -3   7  -5   29.76    2.34
   3  -7   5   30.04    2.38
   3  -7   5   28.37    2.03
   3  -7   5   28.08    2.29
   3  -7   5   28.36    1.90
  -4   7  -5    2.26    1.42
  -4   7  -5    3.01    1.51
  -4   7  -5    1.42    0.94
  -4   7  -5    1.39    1.20
   4  -7   5    1.21    1.52
   4  -7   5    1.91    1.41
   4  -7   5    2.53    1.48
  -5   7  -5   88.78    5.99
  -5   7  -5   87.16    5.32
  -5   7  -5   93.34    5.37
  -5   7  -5   87.80    5.39
   5  -7   5   97.99    5.33
   5  -7   5  101.17    5.68
   5  -7   5   99.16    5.56
  -6   7  -5   -0.68    1.75
  -6   7  -5    1.23    1.32
  -6   7  -5    0.67    1.68
  -6   7  -5    1.96    1.83
   6  -7   5   -0.20    1.80
   6  -7   5    2.87    1.94
  -7   7  -5   17.54    2.47
  -7   7  -5   18.52    2.51
  -7   7  -5   14.51    2.40
  -7   7  -5   13.11    2.35
   7  -7   5   13.07    2.52
   7  -7   5   14.02    2.34
   7   6  -5   -1.09    2.33
   5   6  -5   86.10    4.84
   5   6  -5   79.50    5.13
   5   6  -5   95.17    6.57
  -5  -6   5   84.55    5.04
  -5  -6   5   91.85    5.20
  -5  -6   5   87.91    6.11
   4   6  -5    2.00    1.53
   4   6  -5    5.88    2.35
   4   6  -5    1.07    1.16
  -4  -6   5   -2.30    1.62
  -4  -6   5   -0.59    1.64
  -4  -6   5    2.98    1.98
   3   6  -5   38.70    3.12
   3   6  -5   37.20    2.42
   3   6  -5   39.87    2.72
  -3  -6   5   38.41    2.75
  -3  -6   5   39.98    3.18
  -3  -6   5   35.22    2.80
   2   6  -5   80.62    4.40
   2   6  -5   79.77    5.27
   2   6  -5   79.98    4.32
  -2  -6   5   77.46    4.57
  -2  -6   5   80.53    4.48
  -2  -6   5   87.22    5.13
  -2  -6   5   82.47    4.98
   1   6  -5   10.54    1.31
   1   6  -5    8.82    1.31
   1   6  -5   11.72    1.31
  -1  -6   5    8.87    1.29
  -1  -6   5    9.28    1.33
  -1  -6   5    9.23    1.52
  -1  -6   5    7.94    1.09
   0   6  -5  122.96    5.99
   0   6  -5  113.51    7.32
   0   6  -5  113.81    6.03
   0   6  -5  115.76    6.78
   0  -6   5  113.02    6.66
   0  -6   5  117.25    6.69
   0  -6   5  116.66    6.14
   0  -6   5  117.50    5.97
  -1   6  -5  114.88    6.07
  -1   6  -5  117.07    5.97
  -1   6  -5  119.96    6.68
  -1   6  -5  111.66    7.29
   1  -6   5  116.25    6.59
   1  -6   5  109.94    6.62
   1  -6   5  115.76    5.94
   1  -6   5  122.09    6.14
  -2   6  -5   81.79    5.28
  -2   6  -5   76.43    4.20
  -2   6  -5   70.36    4.13
  -2   6  -5   78.23    4.54
   2  -6   5   78.59    4.67
   2  -6   5   75.91    4.12
   2  -6   5   79.34    4.40
   2  -6   5   75.40    4.30
  -3   6  -5  260.83   12.65
  -3   6  -5  224.03   13.90
  -3   6  -5  230.92   11.78
  -3   6  -5  251.81   13.16
  -3   6  -5  235.53   11.96
   3  -6   5  232.30   11.70
   3  -6   5  241.76   13.01
   3  -6   5  217.62   12.02
  -4   6  -5    6.91    1.53
  -4   6  -5    5.84    1.10
  -4   6  -5    6.05    1.69
   4  -6   5    4.44    1.51
   4  -6   5    7.07    1.12
   4  -6   5    6.82    1.31
  -5   6  -5   35.07    2.80
  -5   6  -5   35.55    3.06
  -5   6  -5   32.89    2.49
  -5   6  -5   31.85    2.69
   5  -6   5   37.88    2.54
   5  -6   5   35.04    2.72
   5  -6   5   32.97    2.86
  -6   6  -5   81.66    4.71
  -6   6  -5   76.09    4.61
  -6   6  -5   67.85    5.17
  -6   6  -5   74.46    4.41
   6  -6   5   80.26    4.80
   6  -6   5   77.06    4.61
  -7   6  -5    4.93    1.47
  -7   6  -5    6.46    1.98
  -7   6  -5    5.42    1.98
  -7   6  -5    6.54    2.05
   7  -6   5    5.21    2.08
   7  -6   5    3.76    1.92
   7   5  -5   35.52    3.47
   6   5  -5    2.85    1.79
  -6  -5   5   -2.42    1.93
  -6  -5   5   -1.85    1.89
   5   5  -5   51.23    4.42
   5   5  -5   51.80    3.30
   5   5  -5   49.74    3.39
  -5  -5   5   47.43    4.04
  -5  -5   5   46.84    3.10
  -5  -5   5   40.45    3.37
   4   5  -5  106.62    7.08
   4   5  -5  100.01    5.94
   4   5  -5  108.28    5.71
  -4  -5   5  111.88    6.06
  -4  -5   5  115.49    5.83
  -4  -5   5  114.73    6.78
   3   5  -5   12.01    1.50
   3   5  -5   17.50    1.62
   3   5  -5   14.53    1.82
  -3  -5   5   11.14    1.29
  -3  -5   5   10.39    1.75
  -3  -5   5   12.19    1.56
   2   5  -5  125.20    6.79
   2   5  -5  130.95    7.81
   2   5  -5  132.35    6.62
  -2  -5   5  130.16    6.64
  -2  -5   5  135.90    7.46
  -2  -5   5  126.09    6.86
  -2  -5   5  140.78    7.72
   1   5  -5  272.59   15.80
   1   5  -5  285.94   13.29
   1   5  -5  265.39   15.20
   1   5  -5  270.31   13.56
  -1  -5   5  256.21   14.82
  -1  -5   5  274.09   13.30
  -1  -5   5  291.52   15.25
  -1  -5   5  266.00   13.61
   0   5  -5   98.32    5.16
   0   5  -5   95.98    5.20
   0   5  -5  104.96    5.91
   0   5  -5  105.62    6.38
   0  -5   5  106.25    5.77
   0  -5   5  100.53    5.31
   0  -5   5  102.05    5.15
   0  -5   5   93.10    5.79
  -1   5  -5  157.16    8.60
  -1   5  -5  164.28    7.65
  -1   5  -5  162.49    7.78
  -1   5  -5  134.54    9.11
   1  -5   5  143.82    8.50
   1  -5   5  152.91    7.58
   1  -5   5  150.88    7.78
   1  -5   5  155.05    8.50
  -2   5  -5   95.65    5.10
  -2   5  -5   95.11    5.05
  -2   5  -5   96.38    6.17
  -2   5  -5   95.80    5.60
   2  -5   5   93.90    5.11
   2  -5   5  101.36    5.40
   2  -5   5   93.39    4.97
   2  -5   5   88.10    5.54
   2  -5   5  107.50    5.47
  -3   5  -5   67.91    3.70
  -3   5  -5   68.62    4.59
  -3   5  -5   70.14    3.78
   3  -5   5   64.44    3.81
   3  -5   5   65.99    3.99
   3  -5   5   67.04    3.69
  -4   5  -5  116.13    5.93
  -4   5  -5  103.81    6.86
  -4   5  -5  103.85    5.85
   4  -5   5  109.87    6.19
   4  -5   5  118.25    5.71
   4  -5   5  107.40    5.99
  -5   5  -5    3.21    1.57
  -5   5  -5    4.46    1.13
  -5   5  -5    2.94    1.07
  -5   5  -5    3.86    1.08
   5  -5   5    5.57    1.63
   5  -5   5    6.32    1.43
   5  -5   5    3.22    0.83
  -6   5  -5   70.56    5.52
  -6   5  -5   85.60    5.14
  -6   5  -5   84.42    4.74
  -6   5  -5   89.37    4.95
   6  -5   5   85.04    4.87
   6  -5   5   85.96    4.83
  -7   5  -5   23.38    2.53
  -7   5  -5   18.85    2.57
  -7   5  -5   22.65    2.26
  -7   5  -5   19.76    2.44
   7  -5   5   22.75    2.22
   6   4  -5   39.01    4.04
   6   4  -5   32.32    2.76
   6   4  -5   34.69    2.94
  -6  -4   5   28.08    2.95
  -6  -4   5   29.76    3.58
  -6  -4   5   35.92    2.99
   5   4  -5    4.37    1.68
   5   4  -5    1.80    1.47
   5   4  -5    3.46    1.56
  -5  -4   5    5.09    2.04
  -5  -4   5    0.46    1.51
  -5  -4   5    2.42    1.56
   4   4  -5   82.04    4.23
   4   4  -5   80.87    5.35
   4   4  -5   77.98    4.41
  -4  -4   5   77.59    4.27
  -4  -4   5   74.17    4.48
  -4  -4   5   77.42    5.12
   3   4  -5   33.25    2.15
   3   4  -5   32.21    2.10
   3   4  -5   36.56    2.76
   3   4  -5   36.97    2.36
  -3  -4   5   37.38    2.22
  -3  -4   5   33.44    2.72
  -3  -4   5   33.22    2.22
  -3  -4   5   37.47    2.36
   2   4  -5   74.68    4.54
   2   4  -5   68.41    3.87
   2   4  -5   69.55    3.84
  -2  -4   5   75.12    3.91
  -2  -4   5   78.88    4.24
  -2  -4   5   74.09    4.45
  -2  -4   5   69.71    3.97
   1   4  -5  243.64   12.41
   1   4  -5  265.34   14.50
   1   4  -5  254.28   13.94
   1   4  -5  236.20   12.15
  -1  -4   5  249.78   13.61
  -1  -4   5  251.94   12.48
  -1  -4   5  255.27   13.93
  -1  -4   5  247.29   12.16
   0   4  -5   29.03    1.90
   0   4  -5   27.20    2.33
   0   4  -5   23.82    1.70
   0   4  -5   28.71    1.62
   0  -4   5   27.80    1.70
   0  -4   5   25.34    1.65
   0  -4   5   25.15    1.85
   0  -4   5   27.66    1.66
  -1   4  -5  516.94   23.52
  -1   4  -5  466.17   23.01
  -1   4  -5  434.72   27.22
  -1   4  -5  480.52   26.10
   1  -4   5  489.42   25.62
   1  -4   5  472.50   26.20
   1  -4   5  493.36   23.56
   1  -4   5  477.21   22.97
  -2   4  -5  193.51   11.91
  -2   4  -5  207.05    9.98
  -2   4  -5  217.69   10.16
   2  -4   5  201.02    9.87
   2  -4   5  196.35   10.17
   2  -4   5  199.65   11.01
  -3   4  -5    1.51    0.95
  -3   4  -5    0.16    0.82
  -3   4  -5    0.37    0.62
   3  -4   5    0.28    0.28
   3  -4   5    1.41    0.69
   3  -4   5    2.43    0.86
   3  -4   5    4.78    1.06
  -4   4  -5  176.38    8.60
  -4   4  -5  164.47    9.10
  -4   4  -5  159.08    9.99
  -4   4  -5  176.64    8.65
   4  -4   5  159.24    9.16
   4  -4   5  179.88    8.43
   4  -4   5  169.91    8.77
  -5   4  -5  107.65    5.95
  -5   4  -5  105.33    5.87
  -5   4  -5  110.24    6.25
  -5   4  -5  102.95    6.75
   5  -4   5  116.29    5.81
   5  -4   5  115.17    5.99
  -6   4  -5    0.04    1.62
  -6   4  -5    1.69    1.16
  -6   4  -5    1.37    1.09
  -6   4  -5    0.19    1.54
   6  -4   5    2.85    1.09
   6  -4   5   -3.10    1.55
  -7   4  -5   76.68    5.47
  -7   4  -5   85.78    5.04
   7  -4   5   87.12    4.92
  -8   4  -5   19.12    2.28
   7   3  -5    3.69    1.42
  -7  -3   5    4.01    2.02
  -7  -3   5    0.63    2.05
  -7  -3   5    3.26    2.01
   6   3  -5   59.01    3.90
   6   3  -5   63.00    4.95
   6   3  -5   67.03    3.84
  -6  -3   5   69.31    4.64
  -6  -3   5   60.42    4.03
  -6  -3   5   62.81    3.87
   5   3  -5   69.79    4.21
   5   3  -5   75.19    4.93
   5   3  -5   73.72    4.12
  -5  -3   5   74.41    4.05
  -5  -3   5   70.29    5.00
  -5  -3   5   70.23    4.27
   4   3  -5   18.57    1.82
   4   3  -5   24.94    1.62
   4   3  -5   22.23    2.14
   4   3  -5   21.40    1.82
  -4  -3   5   25.47    2.04
  -4  -3   5   21.76    1.91
  -4  -3   5   18.52    1.81
   3   3  -5  323.79   19.03
   3   3  -5  346.65   16.95
   3   3  -5  329.61   16.56
   3   3  -5  350.89   19.71
  -3  -3   5  378.73   18.94
  -3  -3   5  344.88   17.02
  -3  -3   5  325.14   16.58
  -3  -3   5  338.96   19.16
   2   3  -5   71.25    4.22
   2   3  -5   69.50    4.17
   2   3  -5   65.01    3.58
   2   3  -5   66.82    3.47
  -2  -3   5   65.55    4.01
  -2  -3   5   65.96    3.65
  -2  -3   5   64.01    3.53
  -2  -3   5   69.44    3.93
   1   3  -5  191.16   11.13
   1   3  -5  202.08    9.55
   1   3  -5  188.48    9.34
   1   3  -5  194.54   10.72
  -1  -3   5  198.39    9.35
  -1  -3   5  183.22    9.57
  -1  -3   5  185.39   10.68
   0   3  -5  128.65    6.46
   0   3  -5  130.00    7.25
   0   3  -5  118.74    7.60
   0   3  -5  127.04    6.35
   0  -3   5  130.77    6.32
   0  -3   5  129.09    7.12
   0  -3   5  136.41    7.15
   0  -3   5  125.28    6.48
  -1   3  -5   53.18    2.92
  -1   3  -5   56.84    2.95
  -1   3  -5   53.49    3.60
  -1   3  -5   56.51    3.36
   1  -3   5   56.90    3.26
   1  -3   5   55.14    3.00
   1  -3   5   54.20    2.86
  -2   3  -5  137.09    8.80
  -2   3  -5  144.19    7.36
  -2   3  -5  160.05    7.48
   2  -3   5  158.16    7.30
   2  -3   5  148.50    7.50
   2  -3   5  141.99    8.09
  -3   3  -5  121.31    5.88
  -3   3  -5  111.94    6.89
  -3   3  -5  101.39    5.77
   3  -3   5  109.62    5.92
   3  -3   5  121.24    5.70
  -4   3  -5    3.13    1.32
  -4   3  -5    2.94    1.14
  -4   3  -5    3.25    1.04
  -4   3  -5    2.51    0.86
   4  -3   5    4.00    0.76
   4  -3   5    2.83    1.17
  -5   3  -5  216.98   10.90
  -5   3  -5  230.52   11.61
  -5   3  -5  201.18   12.72
  -5   3  -5  213.12   11.03
   5  -3   5  224.56   11.14
   5  -3   5  213.49   10.75
  -6   3  -5    2.85    1.71
  -6   3  -5    5.98    1.75
  -6   3  -5    7.12    1.62
   6  -3   5    1.14    1.58
  -7   3  -5   14.56    2.16
  -7   3  -5   12.58    2.32
   7  -3   5   15.86    1.81
  -8   3  -5   37.48    3.28
   7   2  -5   34.46    2.97
   7   2  -5   35.42    3.07
   7   2  -5   36.16    3.84
  -7  -2   5   38.61    3.86
  -7  -2   5   37.15    2.71
  -7  -2   5   32.12    3.06
   6   2  -5    4.15    1.13
   6   2  -5    1.01    1.44
   6   2  -5    3.54    1.54
  -6  -2   5    2.36    1.54
  -6  -2   5    1.82    1.49
  -6  -2   5    0.41    1.08
   5   2  -5   76.22    4.13
   5   2  -5   76.04    4.92
   5   2  -5   79.94    4.24
   5   2  -5   77.53    4.96
  -5  -2   5   77.20    4.32
  -5  -2   5   73.41    4.40
  -5  -2   5   77.83    4.99
   4   2  -5    9.52    1.19
   4   2  -5    5.54    1.57
   4   2  -5    6.99    0.94
   4   2  -5    7.58    1.15
  -4  -2   5    7.83    1.25
  -4  -2   5    9.09    0.92
  -4  -2   5    6.31    1.21
  -4  -2   5    7.97    1.20
   3   2  -5   56.29    3.65
   3   2  -5   52.54    3.45
   3   2  -5   55.76    3.04
   3   2  -5   54.69    2.99
  -3  -2   5   53.71    3.52
  -3  -2   5   54.24    3.01
  -3  -2   5   59.87    3.28
  -3  -2   5   50.52    3.04
   2   2  -5   73.16    3.94
   2   2  -5   80.49    4.60
   2   2  -5   75.40    4.52
   2   2  -5   76.55    3.87
  -2  -2   5   73.77    3.88
  -2  -2   5   81.41    4.39
  -2  -2   5   75.70    4.50
  -2  -2   5   71.16    3.99
   1   2  -5   15.46    1.04
   1   2  -5   15.57    1.06
   1   2  -5   13.87    1.02
   1   2  -5   14.65    1.37
   1   2  -5   12.66    1.38
  -1  -2   5   15.06    0.95
  -1  -2   5   15.19    1.20
  -1  -2   5   15.29    1.08
  -1  -2   5   14.53    1.13
   0   2  -5  227.81   13.39
   0   2  -5  259.07   11.72
   0   2  -5  237.24   11.73
   0   2  -5  263.73   13.34
   0   2  -5  242.58   11.97
   0   2  -5  213.66   13.94
   0  -2   5  245.69   12.01
   0  -2   5  241.99   11.70
   0  -2   5  253.23   12.00
  -1   2  -5  100.77    5.22
  -1   2  -5  114.52    5.21
  -1   2  -5   99.79    6.34
  -1   2  -5  102.67    5.30
   1  -2   5  105.67    5.33
   1  -2   5  112.83    5.35
   1  -2   5  102.19    5.17
  -2   2  -5   54.90    3.05
  -2   2  -5   50.30    3.55
  -2   2  -5   58.99    2.91
  -2   2  -5   53.65    2.93
   2  -2   5   51.44    2.96
   2  -2   5   55.56    2.98
   2  -2   5   55.05    2.81
  -3   2  -5  256.01   12.85
  -3   2  -5  254.59   14.94
  -3   2  -5  261.93   14.30
  -3   2  -5  225.73   12.61
  -3   2  -5  256.43   13.56
  -3   2  -5  284.97   13.81
   3  -2   5  257.02   12.92
   3  -2   5  233.44   14.42
   3  -2   5  256.52   12.52
   3  -2   5  292.88   14.29
  -4   2  -5    8.39    1.16
  -4   2  -5   11.48    1.38
  -4   2  -5    8.66    1.00
  -4   2  -5   10.18    1.54
  -4   2  -5    9.86    1.11
   4  -2   5    8.10    1.06
   4  -2   5    7.40    1.35
   4  -2   5    9.83    1.32
  -5   2  -5   15.00    1.97
  -5   2  -5   16.10    1.82
  -5   2  -5   14.40    1.51
  -5   2  -5   15.29    1.56
  -5   2  -5   12.36    1.61
   5  -2   5   13.88    1.73
   5  -2   5   13.10    1.46
   5  -2   5   12.26    1.66
  -6   2  -5  142.50    8.53
  -6   2  -5  131.75    7.99
  -6   2  -5  131.76    7.10
   6  -2   5  139.75    7.28
  -7   2  -5    0.89    1.94
  -7   2  -5    0.48    1.72
   7  -2   5    4.04    1.82
   8   1  -5    4.15    2.06
  -8  -1   5    4.28    2.07
   7   1  -5  120.51    6.49
   7   1  -5  117.69    7.46
   7   1  -5  121.16    6.33
  -7  -1   5  115.33    6.44
  -7  -1   5  104.28    6.51
  -7  -1   5  120.54    7.68
   6   1  -5    9.71    2.10
   6   1  -5   11.68    1.33
   6   1  -5   11.40    1.85
  -6  -1   5   12.52    2.29
  -6  -1   5   12.72    1.43
  -6  -1   5   14.11    1.76
   5   1  -5   48.78    2.88
   5   1  -5   47.76    2.80
   5   1  -5   50.74    3.56
   5   1  -5   49.43    3.41
  -5  -1   5   50.85    3.46
  -5  -1   5   46.64    2.88
  -5  -1   5   45.50    2.78
   4   1  -5  286.25   14.12
   4   1  -5  295.16   14.45
   4   1  -5  273.26   16.19
   4   1  -5  296.62   16.88
  -4  -1   5  309.71   16.15
  -4  -1   5  273.29   16.37
  -4  -1   5  291.04   14.51
  -4  -1   5  299.53   14.14
   3   1  -5    1.15    1.01
   3   1  -5    0.57    0.74
   3   1  -5   -0.03    0.63
   3   1  -5    1.24    0.64
  -3  -1   5    0.70    0.64
  -3  -1   5    0.51    0.43
  -3  -1   5    0.89    0.65
  -3  -1   5    0.53    0.70
  -3  -1   5   -0.27    0.63
   2   1  -5   39.11    2.14
   2   1  -5   42.37    2.54
   2   1  -5   44.26    2.19
   2   1  -5   36.71    2.62
  -2  -1   5   39.46    2.14
  -2  -1   5   37.81    2.16
  -2  -1   5   38.14    2.46
   1   1  -5  194.45    8.57
   1   1  -5  189.39    9.85
   1   1  -5  178.32    8.74
   1   1  -5  156.32    9.84
   1   1  -5  167.22   10.20
   1   1  -5  178.82    8.57
  -1  -1   5  177.37    8.78
  -1  -1   5  176.26    8.55
  -1  -1   5  170.30    9.89
  -1  -1   5  182.04    8.76
   0   1  -5    1.26    0.35
   0   1  -5    1.35    0.33
   0   1  -5    1.44    0.68
   0   1  -5    0.31    0.30
   0   1  -5    0.17    0.72
   0   1  -5    0.75    0.37
   0  -1   5    1.67    0.36
   0  -1   5    0.74    0.37
   0  -1   5    1.42    0.46
   0  -1   5    0.70    0.28
  -1   1  -5   39.96    2.81
  -1   1  -5   42.06    2.19
  -1   1  -5   40.71    2.20
  -1   1  -5   47.25    2.18
  -1   1  -5   42.59    2.37
   1  -1   5   40.35    2.13
   1  -1   5   43.17    2.63
   1  -1   5   44.51    2.26
   1  -1   5   38.35    2.66
   1  -1   5   38.99    2.23
  -2   1  -5  109.43    5.87
  -2   1  -5  118.08    6.59
  -2   1  -5  114.00    7.04
  -2   1  -5  116.86    5.93
  -2   1  -5  124.45    5.84
  -2   1  -5  127.28    6.40
   2  -1   5  115.44    6.86
   2  -1   5  119.63    6.01
   2  -1   5  113.75    5.98
   2  -1   5  120.91    5.76
  -3   1  -5  210.83   11.39
  -3   1  -5  221.19   10.88
  -3   1  -5  200.85   11.90
  -3   1  -5  210.54   10.20
  -3   1  -5  188.93   10.04
  -3   1  -5  209.54   10.78
   3  -1   5  198.82   11.56
   3  -1   5  194.88   10.26
   3  -1   5  200.16    9.91
  -4   1  -5   61.78    3.95
  -4   1  -5   67.78    4.35
  -4   1  -5   70.20    3.95
  -4   1  -5   66.51    3.64
  -4   1  -5   57.68    3.63
   4  -1   5   69.69    3.55
   4  -1   5   68.93    4.27
   4  -1   5   64.84    3.75
  -5   1  -5    1.83    1.58
  -5   1  -5    1.27    1.19
  -5   1  -5    0.68    1.07
   5  -1   5    3.97    1.28
   5  -1   5    1.96    1.44
   5  -1   5    3.64    1.10
  -6   1  -5   47.88    3.34
  -6   1  -5   57.46    4.13
  -6   1  -5   48.81    3.62
   6  -1   5   51.45    3.46
   6  -1   5   52.50    3.76
  -7   1  -5   36.22    3.03
  -7   1  -5   33.69    3.09
   7  -1   5   35.28    3.15
   7  -1   5   34.67    3.04
   8   0  -5    7.58    1.62
   8   0  -5   14.14    2.17
   8   0  -5   10.11    2.01
  -8   0   5   10.78    1.73
  -8   0   5   15.28    2.33
   7   0  -5   21.14    2.50
   7   0  -5   14.69    1.98
   7   0  -5   17.85    2.05
   7   0  -5   19.49    2.53
  -7   0   5   17.61    2.11
  -7   0   5   21.47    2.23
   6   0  -5   87.86    5.35
   6   0  -5   80.03    5.36
   6   0  -5   79.10    4.49
   6   0  -5   78.37    4.56
  -6   0   5   86.37    4.59
  -6   0   5   82.34    5.55
  -6   0   5   79.14    4.54
   5   0  -5    9.64    1.02
   5   0  -5    9.00    1.33
   5   0  -5   12.08    1.53
   5   0  -5    8.99    1.20
  -5   0   5    8.62    1.73
  -5   0   5   10.66    1.18
  -5   0   5    9.04    1.29
  -5   0   5    8.67    1.27
   4   0  -5   24.40    2.00
   4   0  -5   17.25    1.47
   4   0  -5   22.20    1.88
   4   0  -5   19.69    1.54
  -4   0   5   22.80    1.69
  -4   0   5   25.31    1.36
  -4   0   5   19.86    1.47
  -4   0   5   22.60    1.46
   3   0  -5   62.49    3.99
   3   0  -5   63.91    3.37
   3   0  -5   66.37    3.43
   3   0  -5   65.46    4.11
  -3   0   5   73.46    3.81
  -3   0   5   67.44    3.46
  -3   0   5   59.17    3.37
  -3   0   5   64.66    3.91
   2   0  -5   23.83    1.41
   2   0  -5   23.77    1.70
   2   0  -5   24.50    1.84
   2   0  -5   25.44    1.42
   2   0  -5   26.44    1.42
  -2   0   5   24.76    1.46
  -2   0   5   26.39    1.40
  -2   0   5   25.23    1.40
  -2   0   5   25.60    1.72
   1   0  -5  219.24   13.87
   1   0  -5  265.15   13.59
   1   0  -5  235.81   13.44
   1   0  -5  244.87   11.69
   1   0  -5  247.37   11.94
   1   0  -5  255.86   11.70
  -1   0   5  246.31   13.56
  -1   0   5  246.10   11.96
  -1   0   5  239.04   11.67
  -1   0   5  238.95   11.97
   0   0  -5   47.97    2.43
   0   0  -5   51.52    3.07
   0   0  -5   49.47    2.41
   0   0  -5   48.72    2.41
   0   0   5   48.08    2.35
   0   0   5   44.29    2.90
   0   0   5   51.04    2.38
   0   0   5   46.90    2.45
   0   0   5   45.60    3.08
   0   0   5   48.88    2.47
  -1   0  -5  290.98   14.83
  -1   0  -5  297.49   17.64
  -1   0  -5  328.91   17.05
  -1   0  -5  322.92   14.82
  -1   0  -5  315.98   15.12
   1   0   5  291.77   15.15
   1   0   5  302.25   15.19
   1   0   5  326.99   17.15
  -2   0  -5   26.98    2.18
  -2   0  -5   26.39    1.73
  -2   0  -5   28.31    1.53
  -2   0  -5   26.61    1.60
  -2   0  -5   26.55    1.59
  -2   0  -5   24.96    1.70
   2   0   5   26.91    1.81
   2   0   5   25.42    1.58
   2   0   5   25.64    2.14
   2   0   5   27.93    1.59
  -3   0  -5    6.97    0.77
  -3   0  -5    7.10    0.89
  -3   0  -5    6.09    0.41
  -3   0  -5    7.60    1.03
  -3   0  -5    5.65    0.91
  -3   0  -5    6.79    1.09
   3   0   5    6.67    0.89
   3   0   5    6.94    1.36
   3   0   5    6.31    0.92
   3   0   5    4.92    0.61
  -4   0  -5   91.06    5.05
  -4   0  -5   94.66    5.70
  -4   0  -5  103.12    6.18
   4   0   5  102.95    5.57
   4   0   5   94.62    5.16
   4   0   5   90.39    5.87
  -5   0  -5   22.33    2.56
  -5   0  -5   22.28    2.01
  -5   0  -5   18.25    1.83
   5   0   5   16.59    2.18
   5   0   5   20.89    1.97
  -6   0  -5    1.50    1.43
  -6   0  -5    1.23    1.48
  -6   0  -5    2.58    1.55
   6   0   5    1.95    1.78
   6   0   5    2.22    1.54
  -7   0  -5   88.90    5.68
   7   0   5   74.08    5.49
   8  -1  -5   45.17    3.17
   8  -1  -5   41.49    3.69
   8  -1  -5   41.41    3.42
   8  -1  -5   38.34    2.85
  -8   1   5   35.39    2.96
   7  -1  -5    1.28    1.04
   7  -1  -5   -0.05    1.00
   7  -1  -5    3.30    1.83
   7  -1  -5    1.67    1.82
  -7   1   5   -0.67    1.48
  -7   1   5    1.31    1.55
   6  -1  -5  157.90    7.78
   6  -1  -5  151.60    8.82
   6  -1  -5  140.61    7.62
   6  -1  -5  153.88    9.23
  -6   1   5  152.38    7.70
  -6   1   5  147.28    7.87
   5  -1  -5  141.80    7.00
   5  -1  -5  135.14    8.30
   5  -1  -5  137.99    7.95
   5  -1  -5  128.59    6.85
  -5   1   5  133.90    7.08
  -5   1   5  140.02    7.88
  -5   1   5  140.97    6.93
   4  -1  -5   38.03    2.60
   4  -1  -5   36.23    2.24
   4  -1  -5   41.31    2.84
  -4   1   5   40.86    2.27
  -4   1   5   42.04    2.39
  -4   1   5   40.24    2.62
   3  -1  -5  276.02   16.28
   3  -1  -5  268.33   13.52
   3  -1  -5  289.88   15.76
   3  -1  -5  260.01   15.45
   3  -1  -5  302.67   13.57
  -3   1   5  271.33   13.53
  -3   1   5  282.13   15.65
  -3   1   5  276.76   13.86
  -3   1   5  302.37   13.85
   2  -1  -5   75.64    4.50
   2  -1  -5   76.58    3.80
   2  -1  -5   83.13    3.82
   2  -1  -5   73.84    4.52
   2  -1  -5   81.19    3.88
  -2   1   5   77.26    3.91
  -2   1   5   79.70    4.55
  -2   1   5   64.01    3.77
  -2   1   5   85.05    3.90
   1  -1  -5   62.72    3.00
   1  -1  -5   63.17    3.75
   1  -1  -5   61.30    3.00
   1  -1  -5   56.29    3.62
  -1   1   5   59.29    3.66
  -1   1   5   57.59    3.06
  -1   1   5   69.43    3.46
  -1   1   5   61.88    3.75
   0  -1  -5  252.16   11.85
   0  -1  -5  263.89   14.22
   0  -1  -5  249.07   11.85
   0   1   5  237.27   13.79
   0   1   5  250.10   12.13
   0   1   5  239.15   13.85
   0   1   5  247.04   12.11
  -1  -1  -5    0.00    0.40
  -1  -1  -5    0.33    0.15
  -1  -1  -5   -0.08    0.36
  -1  -1  -5    1.01    0.53
   1   1   5    0.24    0.63
   1   1   5    0.11    0.25
   1   1   5    0.91    0.71
   1   1   5    0.17    0.29
  -2  -1  -5  139.21    7.08
  -2  -1  -5  134.79    6.65
  -2  -1  -5  129.89    7.61
  -2  -1  -5  121.12    6.59
  -2  -1  -5  146.64    6.55
   2   1   5  137.81    6.69
   2   1   5  128.49    7.78
   2   1   5  135.12    6.73
   2   1   5  133.65    7.59
  -3  -1  -5   94.99    5.35
  -3  -1  -5   88.27    4.62
   3   1   5   87.31    5.53
   3   1   5   85.39    4.70
   3   1   5   93.09    5.20
  -4  -1  -5   24.96    2.21
  -4  -1  -5   22.12    2.00
  -4  -1  -5   19.69    1.69
   4   1   5   18.32    2.22
   4   1   5   22.95    1.78
  -5  -1  -5   67.36    4.65
  -5  -1  -5   64.99    4.03
  -5  -1  -5   76.31    5.15
   5   1   5   73.13    4.16
   5   1   5   76.62    4.91
  -6  -1  -5   11.34    1.72
  -6  -1  -5   11.92    1.83
  -6  -1  -5   13.88    2.01
   6   1   5   15.31    1.93
   6   1   5   10.55    2.29
   7   1   5    6.12    2.32
   8  -2  -5   82.15    5.51
   8  -2  -5   79.37    5.35
  -8   2   5   75.39    4.68
   7  -2  -5    9.75    1.31
   7  -2  -5   11.49    1.71
   7  -2  -5    8.61    1.88
   7  -2  -5    7.54    1.58
  -7   2   5   10.06    1.40
  -7   2   5   12.75    1.71
   6  -2  -5   21.01    1.81
   6  -2  -5   19.21    1.82
   6  -2  -5   18.88    1.78
   6  -2  -5   21.23    2.00
  -6   2   5   20.59    1.95
  -6   2   5   21.03    1.84
   5  -2  -5   96.34    6.15
   5  -2  -5  104.51    5.20
   5  -2  -5   98.16    5.85
   5  -2  -5   99.51    5.09
  -5   2   5   99.61    5.90
  -5   2   5   99.94    5.11
  -5   2   5   94.40    5.24
   4  -2  -5   44.73    3.02
   4  -2  -5   41.13    2.31
   4  -2  -5   40.37    2.33
   4  -2  -5   42.99    2.77
  -4   2   5   41.77    2.83
  -4   2   5   42.02    2.35
  -4   2   5   42.63    2.45
   3  -2  -5  218.43   12.34
   3  -2  -5  214.45   10.83
   3  -2  -5  249.09   10.64
   3  -2  -5  208.15   12.82
   3  -2  -5  215.16   10.58
   3  -2  -5  215.36   12.13
  -3   2   5  208.41   12.32
  -3   2   5  242.99   10.85
  -3   2   5  211.01   10.86
  -3   2   5  211.43   10.59
   2  -2  -5  320.80   18.56
   2  -2  -5  375.27   19.21
   2  -2  -5  362.89   16.25
   2  -2  -5  317.87   16.59
   2  -2  -5  341.93   16.23
   2  -2  -5  330.46   19.57
  -2   2   5  326.48   18.85
  -2   2   5  341.39   16.62
  -2   2   5  343.80   18.04
  -2   2   5  369.22   16.15
  -2   2   5  321.94   18.72
  -2   2   5  323.94   16.15
   1  -2  -5    0.12    0.17
   1  -2  -5    0.62    0.66
   1  -2  -5   -0.07    0.16
  -1   2   5    0.28    0.16
  -1   2   5   -0.08    0.12
  -1   2   5    0.97    0.86
  -1   2   5    0.42    0.63
  -1   2   5    0.21    0.54
   0  -2  -5  315.53   14.91
   0  -2  -5  327.16   16.01
   0  -2  -5  314.79   14.90
   0   2   5  285.43   17.37
   0   2   5  311.80   16.57
   0   2   5  319.78   17.37
  -1  -2  -5   62.18    3.91
  -1  -2  -5   64.40    3.26
  -1  -2  -5   69.06    3.20
   1   2   5   68.98    3.92
   1   2   5   63.62    3.27
   1   2   5   60.67    4.17
   1   2   5   67.77    3.26
  -2  -2  -5    1.70    0.64
  -2  -2  -5    0.70    0.50
  -2  -2  -5    1.44    0.88
   2   2   5   -0.21    0.70
   2   2   5   -0.62    0.57
   2   2   5    0.04    1.25
  -3  -2  -5   68.40    3.58
  -3  -2  -5   64.32    4.17
   3   2   5   63.16    3.59
   3   2   5   66.06    4.45
   3   2   5   69.89    3.96
  -4  -2  -5   46.79    2.74
  -4  -2  -5   44.50    3.27
   4   2   5   46.46    3.33
   4   2   5   41.93    2.76
  -5  -2  -5   41.89    3.35
  -5  -2  -5   40.36    2.81
  -5  -2  -5   45.79    3.78
   5   2   5   38.31    2.83
   5   2   5   38.82    3.20
  -6  -2  -5   37.45    3.33
  -6  -2  -5   34.05    2.52
   6   2   5   35.81    3.51
   6   2   5   33.19    2.84
   7   2   5    1.84    2.45
   8  -3  -5    8.03    2.01
   8  -3  -5   10.27    1.87
   8  -3  -5   10.67    2.44
  -8   3   5    7.00    1.93
   7  -3  -5  173.23   10.94
   7  -3  -5  173.77   10.23
  -7   3   5  186.34    9.27
   6  -3  -5   10.75    1.55
   6  -3  -5   11.84    1.52
   6  -3  -5    7.80    1.29
   6  -3  -5    9.55    1.10
  -6   3   5   10.15    1.46
   5  -3  -5  120.85    6.68
   5  -3  -5  115.28    7.20
   5  -3  -5  103.95    5.81
   5  -3  -5  123.58    5.99
  -5   3   5  112.58    5.84
  -5   3   5  115.74    6.80
  -5   3   5  116.57    6.05
   4  -3  -5  289.68   17.19
   4  -3  -5  297.73   14.59
   4  -3  -5  273.42   14.23
   4  -3  -5  310.69   16.24
  -4   3   5  294.05   14.62
  -4   3   5  304.48   14.27
  -4   3   5  297.69   16.56
   3  -3  -5    7.96    0.72
   3  -3  -5    8.36    0.98
   3  -3  -5    7.50    0.68
   3  -3  -5    8.19    1.21
   3  -3  -5    8.79    0.86
   3  -3  -5    7.61    0.76
  -3   3   5    8.25    1.24
  -3   3   5    8.22    0.82
  -3   3   5    8.70    0.78
  -3   3   5    6.79    1.22
   2  -3  -5  231.89   11.23
   2  -3  -5  224.63   11.81
   2  -3  -5  223.01   13.40
   2  -3  -5  245.37   11.06
   2  -3  -5  223.16   12.68
  -2   3   5  234.57   12.41
  -2   3   5  232.39   12.86
  -2   3   5  214.55   12.96
  -2   3   5  242.52   11.28
  -2   3   5  230.28   11.32
   1  -3  -5  123.41    5.77
   1  -3  -5  121.37    5.77
  -1   3   5  124.01    7.00
  -1   3   5  115.80    7.00
  -1   3   5  118.19    6.65
   0  -3  -5    1.08    0.12
   0  -3  -5    0.89    0.16
   0   3   5    0.73    1.14
   0   3   5    1.30    0.87
  -1  -3  -5  402.54   21.10
  -1  -3  -5  400.17   18.76
  -1  -3  -5  382.29   21.81
   1   3   5  411.44   21.77
   1   3   5  367.62   21.82
   1   3   5  401.35   19.14
   1   3   5  382.99   19.15
  -2  -3  -5   51.19    2.85
  -2  -3  -5   45.72    2.54
  -2  -3  -5   48.44    3.20
   2   3   5   47.32    2.54
   2   3   5   39.34    3.44
   2   3   5   48.96    2.99
  -3  -3  -5   39.20    2.38
  -3  -3  -5   44.03    3.06
   3   3   5   39.42    3.12
   3   3   5   40.23    2.40
  -4  -3  -5  104.74    5.40
  -4  -3  -5  106.75    6.31
   4   3   5  102.97    5.50
   4   3   5   94.84    6.60
  -5  -3  -5    5.54    1.98
  -5  -3  -5    2.69    1.36
   5   3   5    6.83    1.80
   5   3   5    4.58    1.40
   6   3   5    6.44    2.63
   7   3   5   17.82    3.17
   8  -4  -5    2.48    1.62
   8  -4  -5   -0.59    2.12
  -8   4   5    0.85    1.21
   7  -4  -5   17.35    2.11
   7  -4  -5   17.96    1.89
   7  -4  -5   20.43    2.02
  -7   4   5   19.67    2.05
   6  -4  -5   93.01    6.62
   6  -4  -5  101.98    5.41
   6  -4  -5  110.22    6.09
  -6   4   5  104.52    5.51
   5  -4  -5   10.81    1.19
   5  -4  -5    7.71    1.66
   5  -4  -5   10.96    1.16
  -5   4   5    8.77    1.20
  -5   4   5   10.07    1.63
   4  -4  -5   77.44    4.35
   4  -4  -5   76.82    4.78
   4  -4  -5   71.24    3.84
  -4   4   5   82.30    4.59
  -4   4   5   71.19    3.95
  -4   4   5   70.33    4.58
   3  -4  -5  276.57   16.40
   3  -4  -5  274.47   13.56
   3  -4  -5  280.31   15.44
  -3   4   5  290.73   13.91
  -3   4   5  285.17   15.60
  -3   4   5  284.12   15.16
   2  -4  -5  111.40    5.22
   2  -4  -5  106.17    6.42
   2  -4  -5  106.93    5.21
   2  -4  -5  103.99    6.05
  -2   4   5  106.06    6.25
  -2   4   5  107.02    5.28
  -2   4   5  104.65    5.99
  -2   4   5   95.46    6.26
  -2   4   5  115.72    5.28
   1  -4  -5  122.83    5.91
   1  -4  -5  128.63    5.90
   1  -4  -5  117.87    7.31
  -1   4   5  120.39    7.21
  -1   4   5  121.44    6.80
  -1   4   5  126.99    7.20
   0  -4  -5   80.62    5.23
   0  -4  -5   91.87    4.19
   0  -4  -5   86.27    4.18
   0  -4  -5   82.08    5.10
   0   4   5   83.98    5.36
   0   4   5   91.56    5.22
  -1  -4  -5   39.90    2.04
  -1  -4  -5   38.35    2.62
  -1  -4  -5   38.77    2.66
   1   4   5   37.50    2.01
   1   4   5   41.17    2.67
   1   4   5   38.30    3.08
  -2  -4  -5   84.25    4.29
  -2  -4  -5   81.96    5.28
   2   4   5   89.74    5.64
  -3  -4  -5    6.10    1.27
  -3  -4  -5    4.17    0.96
   3   4   5    4.03    1.07
   3   4   5    6.51    1.60
  -4  -4  -5   43.00    2.66
  -4  -4  -5   37.37    3.44
   4   4   5   39.96    3.43
  -5  -4  -5   30.68    3.23
  -5  -4  -5   32.10    2.49
   5   4   5   31.64    3.65
   5   4   5   27.43    2.42
   6   4   5    6.33    2.94
   7   4   5    7.20    3.06
   8  -5  -5   56.68    3.94
   8  -5  -5   46.66    3.47
   8  -5  -5   58.49    4.53
  -8   5   5   51.16    3.64
   7  -5  -5    0.94    1.92
   7  -5  -5    2.48    1.34
  -7   5   5    2.29    1.05
   6  -5  -5  109.52    7.46
   6  -5  -5  112.80    6.03
  -6   5   5  126.24    6.25
   5  -5  -5   41.02    2.46
   5  -5  -5   42.08    3.29
   5  -5  -5   39.05    2.61
  -5   5   5   43.85    2.59
   4  -5  -5   41.48    3.10
   4  -5  -5   41.79    2.52
   4  -5  -5   41.39    2.35
  -4   5   5   36.10    2.86
  -4   5   5   42.41    2.39
  -4   5   5   35.49    2.84
   3  -5  -5   51.80    2.82
   3  -5  -5   55.58    3.22
   3  -5  -5   55.37    3.66
  -3   5   5   52.77    2.85
  -3   5   5   56.62    3.39
  -3   5   5   53.72    3.37
  -3   5   5   51.56    3.63
   2  -5  -5   69.99    4.36
   2  -5  -5   67.58    3.98
   2  -5  -5   61.80    4.29
   2  -5  -5   67.29    3.38
  -2   5   5   71.50    4.29
  -2   5   5   67.11    4.38
  -2   5   5   71.31    3.41
  -2   5   5   66.49    4.13
   1  -5  -5  122.11    5.76
   1  -5  -5  124.08    7.16
   1  -5  -5  115.72    6.97
  -1   5   5  123.48    7.12
  -1   5   5  110.42    7.05
   0  -5  -5  136.52    6.33
   0  -5  -5  139.79    7.76
   0  -5  -5  124.34    7.51
   0  -5  -5  128.15    7.75
   0   5   5  123.38    7.82
   0   5   5  127.49    7.60
  -1  -5  -5   10.80    1.43
  -1  -5  -5   10.35    0.90
  -1  -5  -5    9.16    1.38
   1   5   5    7.86    2.00
   1   5   5   11.92    1.46
   1   5   5   11.55    0.79
  -2  -5  -5  173.23    9.90
  -2  -5  -5  163.48    8.24
   2   5   5  168.51    8.37
   2   5   5  165.53   10.00
  -3  -5  -5   24.40    2.40
  -3  -5  -5   26.81    2.01
   3   5   5   26.67    3.25
  -4  -5  -5   -1.48    1.99
  -4  -5  -5    0.19    1.16
   4   5   5   -0.55    2.66
   5   5   5   29.69    3.86
   6   5   5   14.21    3.42
   8  -6  -5   38.90    3.46
  -8   6   5   45.36    3.35
   7  -6  -5    7.27    1.51
   7  -6  -5    8.39    1.58
   7  -6  -5    6.24    1.70
  -7   6   5    7.43    1.25
   6  -6  -5    2.11    1.14
   6  -6  -5    3.29    1.77
   6  -6  -5    0.98    1.85
  -6   6   5    1.98    1.21
   5  -6  -5  114.13    7.38
   5  -6  -5  118.06    7.06
   5  -6  -5  117.91    6.04
  -5   6   5  113.04    6.96
  -5   6   5  126.69    6.23
   4  -6  -5   12.85    1.22
   4  -6  -5   15.89    1.91
   4  -6  -5   12.41    1.59
  -4   6   5   15.67    1.46
  -4   6   5   12.64    1.93
   3  -6  -5   20.49    2.06
   3  -6  -5   18.77    1.32
   3  -6  -5   20.60    2.17
  -3   6   5   22.63    1.82
  -3   6   5   19.25    1.32
  -3   6   5   20.52    2.13
   2  -6  -5  129.75    7.74
   2  -6  -5  127.79    6.24
   2  -6  -5  135.58    7.61
  -2   6   5  121.55    7.26
  -2   6   5  131.49    7.49
  -2   6   5  129.72    6.31
  -2   6   5  120.69    7.65
   1  -6  -5    5.04    1.61
   1  -6  -5    6.18    1.06
   1  -6  -5    4.66    0.56
  -1   6   5    4.53    1.48
  -1   6   5    4.33    1.58
   0  -6  -5   35.18    2.81
   0  -6  -5   34.76    1.84
   0  -6  -5   31.09    2.86
   0   6   5   35.80    3.19
  -1  -6  -5   21.63    2.51
  -1  -6  -5   22.25    2.08
  -1  -6  -5   19.42    1.36
   1   6   5   23.01    2.88
  -2  -6  -5    0.25    1.30
   2   6   5   -0.13    2.43
  -3  -6  -5   59.20    4.38
   3   6   5   45.75    4.70
   4   6   5    3.83    3.02
   5   6   5   11.76    3.63
   8  -7  -5    4.65    2.11
   7  -7  -5   59.12    4.88
   7  -7  -5   62.49    3.75
   7  -7  -5   62.29    4.52
  -7   7   5   65.15    3.88
   6  -7  -5    4.41    1.86
   6  -7  -5   -0.62    1.39
   6  -7  -5    5.14    1.27
  -6   7   5    2.74    1.28
   5  -7  -5   28.12    2.84
   5  -7  -5   29.53    2.09
   5  -7  -5   30.67    2.64
  -5   7   5   30.82    2.84
  -5   7   5   31.21    2.19
   4  -7  -5   42.85    2.92
   4  -7  -5   35.69    3.18
   4  -7  -5   36.80    2.35
  -4   7   5   35.93    2.21
  -4   7   5   35.39    2.78
   3  -7  -5    3.68    1.32
   3  -7  -5    2.77    1.34
   3  -7  -5    0.12    0.75
  -3   7   5    1.10    1.59
  -3   7   5    0.79    0.76
  -3   7   5    3.00    1.20
   2  -7  -5   54.47    3.75
   2  -7  -5   52.78    2.83
   2  -7  -5   64.31    3.76
  -2   7   5   45.10    3.63
  -2   7   5   54.14    3.63
   1  -7  -5   78.64    4.98
   1  -7  -5   78.62    5.25
  -1   7   5   78.46    5.29
   0  -7  -5   39.75    3.23
   0  -7  -5   43.51    3.12
   0   7   5   45.45    3.91
  -1  -7  -5   60.52    4.71
   1   7   5   72.30    5.28
  -2  -7  -5   12.55    2.00
   2   7   5    8.52    2.33
   3   7   5   12.81    2.68
   4   7   5   24.63    4.14
   5   7   5    7.66    3.59
   7  -8  -5    9.72    2.50
   7  -8  -5   10.89    1.69
  -7   8   5   12.73    1.81
   6  -8  -5   58.65    3.58
   6  -8  -5   59.62    4.25
   6  -8  -5   65.35    4.77
  -6   8   5   59.61    3.67
  -6   8   5   63.45    4.23
   5  -8  -5    9.45    2.23
   5  -8  -5   10.73    1.39
   5  -8  -5   13.10    1.79
  -5   8   5   11.96    1.61
  -5   8   5   12.29    2.29
   4  -8  -5   78.41    5.57
   4  -8  -5   90.17    4.44
   4  -8  -5   88.29    5.68
  -4   8   5   78.48    5.24
   3  -8  -5   26.91    2.23
   3  -8  -5   24.96    2.44
   3  -8  -5   22.61    1.68
  -3   8   5   23.77    2.60
  -3   8   5   28.14    2.33
   2  -8  -5    4.76    2.08
  -2   8   5    3.14    1.80
  -2   8   5    7.35    1.99
   1  -8  -5   25.52    3.11
   1  -8  -5   31.19    3.23
  -1   8   5   34.76    3.21
   0  -8  -5    5.14    1.66
   0  -8  -5    5.20    1.94
   0   8   5    8.10    2.62
   1   8   5    7.41    2.98
   2   8   5   27.91    4.12
   3   8   5    0.73    3.42
   4   8   5   18.05    4.13
   6  -9  -5   36.87    2.56
   6  -9  -5   33.57    3.55
  -6   9   5   31.30    3.02
   5  -9  -5   25.47    2.97
   5  -9  -5   29.65    3.15
   5  -9  -5   23.07    2.00
  -5   9   5   25.90    3.00
   4  -9  -5    9.81    1.20
   4  -9  -5    9.64    2.44
  -4   9   5   11.54    2.39
   3  -9  -5   70.91    4.78
  -3   9   5   52.49    4.30
   2  -9  -5   21.62    2.92
   2  -9  -5   16.27    2.67
  -2   9   5   15.56    2.61
  -2   9   5   17.78    2.53
   1  -9  -5   29.42    3.26
  -1   9   5   26.81    3.29
   0   9   5   57.36    5.04
   1   9   5    2.47    3.11
   2   9   5   15.55    3.02
   3   9   5    9.32    3.98
  -6  10   5    3.67    2.56
  -5  10   5   53.18    4.29
  -4  10   5   23.91    3.11
  -3  10   5   18.42    2.90
  -2  10   5   28.67    3.13
  -2  10   5   24.40    2.75
  -1  10   5    1.31    2.59
   0  10   5   16.97    2.74
   1  10   5   20.96    3.93
  -6  11   5    1.89    2.02
  -5  11   5    9.39    2.17
  -4  11   5   39.08    3.88
  -3  11   5    0.37    1.85
  -2  11   5   32.50    3.77
  -1  11   5   22.25    2.92
  -1  11   5   25.36    3.54
   0  11   5    0.52    3.00
  -6  12   5   37.18    3.44
  -5  12   5   -0.03    2.75
  -4  12   5   14.50    3.13
  -3  12   5   12.86    3.17
  -2  12   5    5.75    3.02
   3 -11   6   19.99    2.83
   3 -11   6   23.61    2.80
   3 -11   6   17.89    2.70
  -4  11  -6    8.91    1.83
   4 -11   6    9.10    1.91
  -5  11  -6    2.63    1.72
   0  10  -6    7.47    1.98
   0  10  -6    4.07    1.96
   0 -10   6    2.49    1.99
   0 -10   6    3.51    1.69
   0 -10   6    3.70    1.44
  -1  10  -6   34.51    2.62
  -1  10  -6   32.34    2.52
   1 -10   6   32.40    3.05
   1 -10   6   32.02    2.66
   1 -10   6   33.35    3.02
  -2  10  -6   22.08    2.46
  -2  10  -6   21.11    2.38
   2 -10   6   20.97    2.94
   2 -10   6   25.97    2.22
   2 -10   6   19.50    2.49
  -3  10  -6   23.35    2.59
  -3  10  -6   28.17    3.45
  -3  10  -6   23.06    2.59
   3 -10   6   21.32    2.25
   3 -10   6   22.11    2.58
  -4  10  -6   45.77    3.76
  -4  10  -6   45.45    3.45
  -4  10  -6   50.48    4.65
   4 -10   6   58.74    3.85
   4 -10   6   53.56    3.91
   4 -10   6   49.60    3.99
  -5  10  -6   -0.74    1.64
  -5  10  -6    2.55    1.58
  -5  10  -6   -2.26    2.04
   5 -10   6    1.75    2.27
   5 -10   6    3.95    2.32
   5 -10   6    1.23    2.23
  -6  10  -6   26.59    3.34
  -6  10  -6   24.20    2.46
   6 -10   6   32.43    3.25
   2   9  -6    1.57    1.87
  -2  -9   6   -0.02    1.96
  -2  -9   6    1.72    2.11
  -2  -9   6    2.95    1.94
  -2  -9   6    3.26    1.46
   1   9  -6   86.77    4.90
   1   9  -6   82.90    4.76
  -1  -9   6   78.22    5.09
  -1  -9   6   84.34    5.34
  -1  -9   6   81.69    4.94
   0   9  -6   52.92    3.56
   0   9  -6   56.37    3.22
   0  -9   6   51.16    3.51
   0  -9   6   48.80    3.96
   0  -9   6   43.07    3.55
  -1   9  -6   48.08    3.23
  -1   9  -6   45.28    3.26
   1  -9   6   39.76    3.29
   1  -9   6   47.20    2.95
   1  -9   6   44.21    3.43
  -2   9  -6   65.62    3.89
  -2   9  -6   65.01    3.98
  -2   9  -6   68.48    5.02
   2  -9   6   72.03    4.30
   2  -9   6   64.63    3.90
   2  -9   6   65.08    4.69
  -3   9  -6    5.89    2.43
  -3   9  -6    4.40    1.82
  -3   9  -6    4.39    1.38
   3  -9   6    2.75    2.13
   3  -9   6    6.75    1.89
   3  -9   6    4.21    1.78
  -4   9  -6   30.27    2.54
  -4   9  -6   32.72    3.06
  -4   9  -6   28.30    2.91
   4  -9   6   35.44    3.23
   4  -9   6   30.53    2.65
   4  -9   6   32.60    2.54
  -5   9  -6   36.72    3.77
  -5   9  -6   35.78    3.14
  -5   9  -6   34.78    3.32
  -5   9  -6   38.29    2.93
   5  -9   6   40.43    3.34
   5  -9   6   37.82    3.08
   5  -9   6   42.55    3.54
  -6   9  -6    2.78    1.96
  -6   9  -6   -0.27    1.51
  -6   9  -6    2.15    2.17
  -6   9  -6    1.86    2.12
   6  -9   6    1.47    2.24
   6  -9   6    3.38    2.38
  -7   9  -6   48.11    4.33
   7  -9   6   49.33    3.60
   3   8  -6   81.25    5.11
   3   8  -6   90.26    4.94
   3   8  -6   81.53    5.90
  -3  -8   6   91.91    4.90
  -3  -8   6   84.28    4.97
  -3  -8   6   74.20    5.69
   2   8  -6    2.20    1.92
   2   8  -6    3.18    1.66
   2   8  -6   -0.02    1.64
  -2  -8   6    0.72    1.23
  -2  -8   6    1.66    1.25
  -2  -8   6    2.01    1.79
  -2  -8   6    5.40    1.99
   1   8  -6   37.04    2.79
   1   8  -6   31.78    3.01
   1   8  -6   36.65    2.47
  -1  -8   6   34.34    2.81
  -1  -8   6   35.83    2.81
  -1  -8   6   35.32    2.90
  -1  -8   6   35.14    2.85
   0   8  -6  111.26    6.43
   0   8  -6  106.85    5.78
   0   8  -6  101.52    5.63
   0  -8   6  113.97    6.41
   0  -8   6  108.31    5.68
   0  -8   6   90.57    6.45
   0  -8   6  112.89    6.00
  -1   8  -6    0.61    1.41
  -1   8  -6    1.35    1.45
  -1   8  -6    2.01    1.53
  -1   8  -6    1.67    1.11
   1  -8   6    1.76    1.44
   1  -8   6    3.62    1.31
   1  -8   6   -0.81    1.49
  -2   8  -6   61.40    3.77
  -2   8  -6   64.43    3.94
  -2   8  -6   68.73    5.03
   2  -8   6   70.33    4.06
   2  -8   6   62.42    4.47
   2  -8   6   63.55    3.88
  -3   8  -6  112.25    7.57
  -3   8  -6  110.21    6.07
  -3   8  -6  114.99    6.15
   3  -8   6  117.73    6.25
   3  -8   6  114.86    6.79
   3  -8   6  113.52    6.15
  -4   8  -6    6.37    1.72
  -4   8  -6    2.07    2.05
  -4   8  -6    4.67    1.83
   4  -8   6    6.25    1.82
   4  -8   6    2.71    1.20
   4  -8   6    1.75    1.82
  -5   8  -6   55.72    3.87
  -5   8  -6   53.68    3.91
  -5   8  -6   57.86    3.66
  -5   8  -6   57.11    4.46
   5  -8   6   58.05    4.01
   5  -8   6   47.90    3.97
   5  -8   6   56.49    3.82
  -6   8  -6   22.09    2.24
  -6   8  -6   24.85    2.40
  -6   8  -6   15.84    2.53
  -6   8  -6   26.71    2.99
   6  -8   6   27.11    2.76
   6  -8   6   25.38    2.57
  -7   8  -6    8.57    1.76
  -7   8  -6    5.55    2.53
  -7   8  -6    5.94    1.69
  -7   8  -6    6.23    2.32
   7  -8   6    6.71    1.73
   4   7  -6    7.02    1.92
   4   7  -6    5.25    1.50
   4   7  -6   12.82    2.84
  -4  -7   6    6.76    2.11
  -4  -7   6   15.89    2.51
  -4  -7   6   16.55    2.24
   3   7  -6   18.26    2.64
   3   7  -6   14.55    1.59
   3   7  -6    9.68    1.92
  -3  -7   6   16.16    2.07
  -3  -7   6   17.64    1.98
  -3  -7   6   14.80    2.12
   2   7  -6  186.90    9.99
   2   7  -6  189.51   11.21
   2   7  -6  192.51    9.77
  -2  -7   6  200.17    9.86
  -2  -7   6  190.82   11.24
  -2  -7   6  198.31   10.91
  -2  -7   6  197.28   10.10
   1   7  -6    0.07    1.06
   1   7  -6    0.39    1.31
   1   7  -6   -2.21    1.28
  -1  -7   6    1.29    1.03
  -1  -7   6    1.01    1.32
  -1  -7   6    2.19    1.58
  -1  -7   6    1.67    1.16
   0   7  -6  100.34    5.50
   0   7  -6  101.50    6.35
   0   7  -6  108.85    5.73
   0   7  -6  110.75    7.03
   0  -7   6  107.41    5.72
   0  -7   6   97.12    6.31
   0  -7   6  114.63    6.24
   0  -7   6  106.64    5.54
  -1   7  -6  115.79    5.80
  -1   7  -6  116.48    6.44
  -1   7  -6  108.98    5.68
  -1   7  -6  114.12    7.22
   1  -7   6  105.14    5.70
   1  -7   6  106.34    5.91
   1  -7   6   94.32    6.43
  -2   7  -6    5.91    1.54
  -2   7  -6    4.39    1.13
  -2   7  -6    4.20    1.32
  -2   7  -6    3.42    1.37
   2  -7   6    5.78    1.10
   2  -7   6    5.39    1.58
   2  -7   6    4.88    1.32
  -3   7  -6   86.75    5.17
  -3   7  -6   87.07    4.77
  -3   7  -6   89.47    4.91
  -3   7  -6   90.28    5.80
   3  -7   6   81.43    4.78
   3  -7   6   91.26    5.03
   3  -7   6   82.77    5.33
  -4   7  -6  112.75    6.13
  -4   7  -6  102.91    6.83
  -4   7  -6  100.97    5.79
  -4   7  -6   95.12    5.79
   4  -7   6  102.26    5.68
   4  -7   6   98.19    5.92
   4  -7   6  113.14    6.17
  -5   7  -6   24.23    2.75
  -5   7  -6   20.39    2.24
  -5   7  -6   19.21    2.36
  -5   7  -6   22.79    2.30
   5  -7   6   21.88    2.27
   5  -7   6   21.06    2.12
   5  -7   6   22.72    2.53
  -6   7  -6   76.39    4.70
  -6   7  -6   70.23    4.52
  -6   7  -6   75.65    4.64
  -6   7  -6   70.56    5.22
   6  -7   6   72.01    4.55
   6  -7   6   69.71    4.82
  -7   7  -6   14.76    2.61
  -7   7  -6   16.06    2.51
  -7   7  -6   19.69    2.07
  -7   7  -6   17.94    2.59
   7  -7   6   18.55    2.75
   5   6  -6   13.78    2.14
   5   6  -6   16.79    3.22
   5   6  -6   13.68    2.22
  -5  -6   6   13.42    2.72
  -5  -6   6   11.64    1.82
  -5  -6   6   17.09    2.37
   4   6  -6   71.28    4.92
   4   6  -6   66.42    4.20
   4   6  -6   62.76    4.08
  -4  -6   6   70.17    4.21
  -4  -6   6   63.50    4.84
  -4  -6   6   69.34    4.08
   3   6  -6    1.33    2.03
   3   6  -6    0.11    1.42
   3   6  -6    1.03    1.02
  -3  -6   6    3.36    1.53
  -3  -6   6    1.00    1.56
  -3  -6   6    1.45    1.48
   2   6  -6   69.76    3.79
   2   6  -6   65.28    3.83
   2   6  -6   76.38    4.81
  -2  -6   6   67.90    4.13
  -2  -6   6   69.80    3.96
  -2  -6   6   69.65    4.33
  -2  -6   6   64.62    4.25
  -2  -6   6   68.67    3.95
   1   6  -6   48.23    3.34
   1   6  -6   45.44    2.82
   1   6  -6   47.87    2.99
   1   6  -6   50.17    3.60
  -1  -6   6   49.64    3.41
  -1  -6   6   53.61    3.24
  -1  -6   6   48.53    3.12
  -1  -6   6   47.88    2.97
   0   6  -6    0.74    0.78
   0   6  -6    0.25    1.18
   0   6  -6    0.99    1.18
   0   6  -6    0.40    1.04
   0  -6   6   -0.24    1.09
   0  -6   6    0.06    1.02
   0  -6   6   -0.59    1.26
   0  -6   6    0.49    0.68
  -1   6  -6  144.84    7.23
  -1   6  -6  143.62    8.15
  -1   6  -6  137.29    8.78
  -1   6  -6  144.60    7.35
   1  -6   6  143.81    7.18
   1  -6   6  150.20    7.95
   1  -6   6  129.79    8.02
   1  -6   6  136.54    7.38
  -2   6  -6   70.49    3.94
  -2   6  -6   71.63    5.07
  -2   6  -6   76.57    4.45
  -2   6  -6   73.78    4.08
   2  -6   6   67.01    4.42
   2  -6   6   72.66    4.16
   2  -6   6   75.46    3.99
  -3   6  -6   28.16    2.19
  -3   6  -6   28.66    2.87
  -3   6  -6   29.36    2.21
  -3   6  -6   28.26    2.29
   3  -6   6   24.22    2.23
   3  -6   6   29.03    1.94
   3  -6   6   30.69    2.11
  -4   6  -6  136.37    6.95
  -4   6  -6  122.09    8.19
  -4   6  -6  131.94    6.96
   4  -6   6  133.69    6.84
   4  -6   6  131.46    7.12
   4  -6   6  132.50    7.46
  -5   6  -6   -2.02    1.56
  -5   6  -6   -1.04    1.02
  -5   6  -6    0.44    1.68
  -5   6  -6    3.01    1.53
   5  -6   6   -0.85    1.67
   5  -6   6   -0.80    1.45
  -6   6  -6   24.42    2.68
  -6   6  -6   28.24    2.75
  -6   6  -6   27.66    2.65
  -6   6  -6   25.87    2.67
   6  -6   6   25.23    2.26
   6  -6   6   34.23    2.95
  -7   6  -6   43.47    3.52
  -7   6  -6   37.98    3.43
  -7   6  -6   37.60    3.70
   7  -6   6   42.70    3.15
   6   5  -6   29.77    2.97
  -6  -5   6   37.60    3.26
   5   5  -6    5.85    1.80
   5   5  -6    7.26    2.05
   5   5  -6    6.57    1.74
  -5  -5   6    1.70    2.14
  -5  -5   6    5.64    1.41
  -5  -5   6    4.97    1.39
   4   5  -6   48.85    3.02
   4   5  -6   52.99    4.26
   4   5  -6   50.47    3.10
  -4  -5   6   48.75    3.36
  -4  -5   6   51.24    3.33
  -4  -5   6   48.73    3.88
   3   5  -6   80.77    5.21
   3   5  -6   68.93    4.24
   3   5  -6   74.77    4.20
  -3  -5   6   77.57    4.91
  -3  -5   6   74.96    4.13
  -3  -5   6   78.27    4.39
   2   5  -6    1.27    0.79
   2   5  -6    2.21    1.12
   2   5  -6    4.29    1.14
  -2  -5   6    3.78    1.15
  -2  -5   6    3.36    0.89
  -2  -5   6    1.95    1.10
  -2  -5   6    1.44    1.19
   1   5  -6  110.03    6.63
   1   5  -6  108.84    5.53
   1   5  -6  109.44    5.44
   1   5  -6  103.70    6.31
  -1  -5   6  105.35    5.53
  -1  -5   6  101.12    5.41
  -1  -5   6  103.39    6.09
  -1  -5   6   99.78    6.05
   0   5  -6   42.25    3.15
   0   5  -6   42.06    2.54
   0   5  -6   42.45    2.98
   0   5  -6   41.83    2.55
   0  -5   6   43.13    2.79
   0  -5   6   42.17    2.53
   0  -5   6   46.04    2.55
   0  -5   6   42.14    2.57
  -1   5  -6   62.08    4.79
  -1   5  -6   72.72    4.35
  -1   5  -6   72.54    3.77
  -1   5  -6   74.71    3.81
   1  -5   6   74.91    3.79
   1  -5   6   61.02    4.23
   1  -5   6   72.63    3.95
   1  -5   6   69.40    3.84
  -2   5  -6  143.21    8.97
  -2   5  -6  157.24    8.36
  -2   5  -6  138.39    7.38
  -2   5  -6  153.36    7.51
   2  -5   6  142.09    7.27
   2  -5   6  150.80    7.58
   2  -5   6  139.96    8.12
  -3   5  -6    3.81    1.20
  -3   5  -6    2.45    1.11
  -3   5  -6    5.65    1.13
   3  -5   6    4.17    1.06
   3  -5   6    5.54    1.06
   3  -5   6    5.56    1.26
  -4   5  -6   81.00    4.60
  -4   5  -6   83.77    4.48
  -4   5  -6   78.42    5.31
   4  -5   6   82.43    4.75
   4  -5   6   81.57    4.45
   4  -5   6   81.12    4.71
  -5   5  -6  117.97    6.60
  -5   5  -6  108.51    7.36
  -5   5  -6  116.08    6.36
  -5   5  -6  119.69    6.35
   5  -5   6  120.86    6.20
   5  -5   6  116.47    6.51
  -6   5  -6    0.68    1.84
  -6   5  -6    5.05    1.70
  -6   5  -6   -1.88    1.72
  -6   5  -6    2.15    1.76
   6  -5   6    2.86    1.33
  -7   5  -6   30.69    2.94
  -7   5  -6   32.05    3.08
  -7   5  -6   26.72    3.26
   7  -5   6   34.14    2.72
  -8   5  -6   34.71    3.22
   6   4  -6   45.92    4.22
   6   4  -6   40.51    2.82
   6   4  -6   39.47    3.01
  -6  -4   6   33.33    2.82
  -6  -4   6   37.09    3.23
  -6  -4   6   40.29    3.93
   5   4  -6   34.38    3.56
   5   4  -6   32.16    2.62
   5   4  -6   32.54    2.71
  -5  -4   6   33.26    2.52
  -5  -4   6   38.87    2.98
  -5  -4   6   31.55    2.78
   4   4  -6    2.63    1.33
   4   4  -6    2.01    1.38
   4   4  -6    4.21    1.02
  -4  -4   6    3.22    1.07
  -4  -4   6    2.78    1.01
  -4  -4   6    5.90    1.73
   3   4  -6   57.23    3.57
   3   4  -6   58.77    4.06
   3   4  -6   53.50    3.14
   3   4  -6   53.36    3.09
  -3  -4   6   52.35    3.25
  -3  -4   6   60.76    3.41
  -3  -4   6   55.49    3.75
  -3  -4   6   53.87    3.33
   2   4  -6   32.38    2.15
   2   4  -6   36.73    2.77
   2   4  -6   34.80    2.67
   2   4  -6   33.86    2.07
  -2  -4   6   34.50    2.43
  -2  -4   6   33.13    2.30
  -2  -4   6   35.41    2.27
  -2  -4   6   33.04    2.05
   1   4  -6   11.27    1.15
   1   4  -6   10.30    1.11
   1   4  -6   10.44    1.55
   1   4  -6   11.24    1.49
  -1  -4   6    8.94    1.07
  -1  -4   6    7.54    1.10
  -1  -4   6    9.94    1.14
   0   4  -6  108.61    6.30
   0   4  -6  103.03    5.53
   0   4  -6  106.21    6.69
   0   4  -6  111.68    5.48
   0  -4   6  104.06    6.15
   0  -4   6  104.11    5.60
   0  -4   6  110.85    5.45
   0  -4   6  112.54    6.06
  -1   4  -6   21.60    1.74
  -1   4  -6   19.95    1.47
  -1   4  -6   17.63    1.44
  -1   4  -6   20.29    2.18
   1  -4   6   19.82    1.37
   1  -4   6   18.95    1.38
   1  -4   6   18.89    1.65
  -2   4  -6  155.28    7.79
  -2   4  -6  150.89    7.71
  -2   4  -6  159.61    8.75
  -2   4  -6  154.19    9.27
   2  -4   6  152.84    8.47
   2  -4   6  146.39    7.85
   2  -4   6  158.12    7.61
  -3   4  -6    8.37    1.04
  -3   4  -6    8.07    1.61
  -3   4  -6    8.91    1.13
   3  -4   6    8.99    0.89
   3  -4   6    9.45    1.05
   3  -4   6    8.41    1.28
  -4   4  -6    1.23    1.10
  -4   4  -6    4.32    1.55
  -4   4  -6    2.44    1.27
  -4   4  -6    1.12    0.88
   4  -4   6    1.32    0.93
   4  -4   6    2.11    1.05
  -5   4  -6   87.43    4.95
  -5   4  -6   85.84    5.06
  -5   4  -6   87.11    5.78
  -5   4  -6   80.51    4.87
   5  -4   6   91.21    5.07
   5  -4   6   88.99    4.76
  -6   4  -6    9.23    1.83
  -6   4  -6    7.90    2.05
  -6   4  -6    9.15    1.90
   6  -4   6   11.45    1.96
  -7   4  -6   15.91    2.12
  -7   4  -6   16.96    2.30
   7  -4   6   13.93    1.89
   7   3  -6   15.38    1.88
  -7  -3   6   13.34    2.33
   6   3  -6   -1.31    1.56
   6   3  -6   -0.93    2.23
   6   3  -6    0.87    1.67
  -6  -3   6    4.45    1.77
  -6  -3   6    2.75    1.73
  -6  -3   6    4.55    2.29
   5   3  -6   77.07    4.49
   5   3  -6   79.60    5.04
   5   3  -6   78.79    4.40
   5   3  -6   76.79    5.39
  -5  -3   6   82.35    5.16
  -5  -3   6   74.71    4.30
  -5  -3   6   75.37    4.57
   4   3  -6   27.31    2.10
   4   3  -6   30.15    2.74
   4   3  -6   23.64    1.76
   4   3  -6   25.46    1.97
  -4  -3   6   24.91    2.19
  -4  -3   6   29.19    2.12
  -4  -3   6   27.61    2.13
   3   3  -6   11.48    1.25
   3   3  -6   11.72    1.77
   3   3  -6   11.28    1.10
   3   3  -6   12.49    1.36
  -3  -3   6   10.84    1.14
  -3  -3   6   12.34    1.29
  -3  -3   6   11.66    1.18
  -3  -3   6   13.01    1.54
   2   3  -6  231.13   11.78
   2   3  -6  242.06   13.56
   2   3  -6  253.44   12.05
   2   3  -6  254.35   13.97
  -2  -3   6  223.76   12.09
  -2  -3   6  244.68   11.81
  -2  -3   6  234.31   13.57
  -2  -3   6  255.57   13.51
   1   3  -6   14.93    1.22
   1   3  -6   17.24    1.59
   1   3  -6   15.28    1.11
   1   3  -6   15.59    1.61
  -1  -3   6   17.21    1.42
  -1  -3   6   17.68    1.27
  -1  -3   6   16.13    1.31
  -1  -3   6   16.41    1.12
   0   3  -6  146.74    8.10
   0   3  -6  127.03    8.47
   0   3  -6  139.25    7.01
   0   3  -6  149.57    7.13
   0  -3   6  135.12    6.97
   0  -3   6  154.53    7.22
  -1   3  -6   97.47    5.11
  -1   3  -6  105.81    5.93
  -1   3  -6   96.10    6.25
  -1   3  -6  101.93    5.19
   1  -3   6  105.58    5.26
   1  -3   6  102.97    5.07
  -2   3  -6   22.39    2.26
  -2   3  -6   24.52    1.60
  -2   3  -6   26.89    1.55
   2  -3   6   25.19    1.72
   2  -3   6   25.71    1.56
  -3   3  -6  151.98    7.75
  -3   3  -6  161.20    7.82
  -3   3  -6  141.70    9.15
   3  -3   6  152.30    7.86
   3  -3   6  160.54    7.61
  -4   3  -6   47.61    3.70
  -4   3  -6   53.30    3.31
  -4   3  -6   47.44    2.95
  -4   3  -6   47.82    3.00
   4  -3   6   54.22    2.92
   4  -3   6   54.82    3.21
  -5   3  -6   12.46    1.69
  -5   3  -6   11.06    1.77
  -5   3  -6   13.01    1.45
   5  -3   6   11.81    1.44
  -6   3  -6  121.29    6.60
  -6   3  -6  111.71    6.19
  -6   3  -6  110.21    7.31
   6  -3   6  106.55    6.29
  -7   3  -6    2.50    1.85
  -7   3  -6    0.19    1.50
   7  -3   6    5.61    1.94
   7   2  -6   68.01    5.32
   7   2  -6   67.40    4.33
  -7  -2   6   67.55    4.56
  -7  -2   6   73.20    4.22
   6   2  -6   27.58    2.68
   6   2  -6   28.80    2.06
   6   2  -6   23.66    2.06
   6   2  -6   24.77    2.50
  -6  -2   6   21.52    2.34
  -6  -2   6   28.43    3.12
  -6  -2   6   25.52    2.06
   5   2  -6   48.76    3.60
   5   2  -6   47.03    3.09
   5   2  -6   51.61    2.89
   5   2  -6   48.31    3.48
  -5  -2   6   52.42    3.21
  -5  -2   6   51.45    3.10
  -5  -2   6   42.60    3.74
   4   2  -6  147.16    9.23
   4   2  -6  160.20    8.04
   4   2  -6  161.81    9.40
   4   2  -6  150.37    7.85
  -4  -2   6  153.34    8.14
  -4  -2   6  159.56    9.27
  -4  -2   6  169.05    7.96
  -4  -2   6  160.75    8.93
   3   2  -6   18.60    1.66
   3   2  -6   18.67    1.63
   3   2  -6   17.62    1.38
   3   2  -6   16.77    1.41
  -3  -2   6   17.59    1.48
  -3  -2   6   17.69    1.47
  -3  -2   6   18.76    1.45
  -3  -2   6   18.09    1.55
   2   2  -6   96.27    5.06
   2   2  -6   98.14    5.90
   2   2  -6  105.99    6.04
   2   2  -6  100.64    5.17
  -2  -2   6  100.31    5.90
  -2  -2   6  104.73    5.09
  -2  -2   6   95.67    5.21
  -2  -2   6  106.90    5.82
   1   2  -6  261.61   12.30
   1   2  -6  275.05   13.77
   1   2  -6  244.12   12.04
   1   2  -6  228.71   14.31
   1   2  -6  245.75   13.81
  -1  -2   6  251.03   12.03
  -1  -2   6  256.24   13.90
  -1  -2   6  228.83   12.32
   0   2  -6    7.27    0.47
   0   2  -6    5.82    1.25
   0   2  -6    6.57    0.73
   0   2  -6    5.71    1.02
   0   2  -6    6.98    0.69
   0   2  -6    6.21    0.65
   0  -2   6    7.48    0.72
   0  -2   6    7.09    0.85
   0  -2   6    5.26    0.62
   0  -2   6    6.29    0.75
  -1   2  -6   43.77    2.40
  -1   2  -6   39.28    3.09
  -1   2  -6   41.94    2.36
  -1   2  -6   51.12    2.37
   1  -2   6   43.17    2.29
   1  -2   6   45.94    2.44
   1  -2   6   42.13    2.42
  -2   2  -6   78.14    4.42
  -2   2  -6   91.75    4.45
  -2   2  -6   72.32    5.30
   2  -2   6   89.40    4.52
   2  -2   6   90.55    4.32
   2  -2   6   96.39    4.56
  -3   2  -6   49.04    2.95
  -3   2  -6   40.77    3.33
  -3   2  -6   49.42    2.77
  -3   2  -6   45.46    2.64
   3  -2   6   47.29    3.25
   3  -2   6   46.92    2.54
   3  -2   6   48.41    2.76
  -4   2  -6   59.11    3.34
  -4   2  -6   62.41    3.66
  -4   2  -6   57.58    3.38
  -4   2  -6   58.62    3.60
  -4   2  -6   57.64    4.21
   4  -2   6   62.33    3.92
   4  -2   6   61.89    3.57
   4  -2   6   63.61    3.28
  -5   2  -6    2.73    1.74
  -5   2  -6    2.14    1.33
  -5   2  -6    5.42    1.15
   5  -2   6    2.53    1.41
   5  -2   6    2.81    1.55
  -6   2  -6   61.79    4.54
  -6   2  -6   51.54    3.70
   6  -2   6   61.18    3.83
   6  -2   6   57.05    3.95
  -7   2  -6   24.69    3.25
  -7   2  -6   28.47    2.80
   7  -2   6   31.35    2.91
   7  -2   6   33.73    2.89
   7   1  -6   31.54    2.70
   7   1  -6   30.83    3.47
   7   1  -6   34.07    2.81
  -7  -1   6   25.03    3.41
  -7  -1   6   33.06    2.87
  -7  -1   6   35.51    2.88
   6   1  -6   65.42    4.85
   6   1  -6   71.89    3.91
   6   1  -6   71.58    4.66
  -6  -1   6   64.34    4.20
  -6  -1   6   75.51    5.09
  -6  -1   6   68.89    3.94
   5   1  -6   15.05    1.77
   5   1  -6   17.93    1.68
   5   1  -6   14.59    1.57
   5   1  -6   17.10    1.89
  -5  -1   6   15.09    1.59
  -5  -1   6   18.46    2.19
  -5  -1   6   17.16    1.52
  -5  -1   6   17.04    1.77
   4   1  -6  232.55   11.18
   4   1  -6  228.78   13.09
   4   1  -6  223.80   10.95
   4   1  -6  211.49   12.56
  -4  -1   6  229.27   12.52
  -4  -1   6  206.72   12.73
  -4  -1   6  244.56   10.99
  -4  -1   6  207.23   11.21
   3   1  -6  102.51    5.50
   3   1  -6  115.68    6.53
   3   1  -6  102.42    5.61
   3   1  -6  119.11    6.67
   3   1  -6  112.85    6.38
  -3  -1   6  110.81    6.32
  -3  -1   6  101.79    5.66
  -3  -1   6  117.66    5.54
   2   1  -6   18.31    1.75
   2   1  -6   22.66    1.32
   2   1  -6   20.42    1.63
   2   1  -6   19.91    1.25
  -2  -1   6   20.56    1.49
  -2  -1   6   21.14    1.28
  -2  -1   6   20.33    1.38
   1   1  -6  457.29   21.81
   1   1  -6  401.65   25.23
   1   1  -6  396.64   24.36
   1   1  -6  440.18   21.33
   1   1  -6  486.65   21.34
   1   1  -6  492.41   24.55
  -1  -1   6  448.05   21.85
  -1  -1   6  458.52   21.32
  -1  -1   6  428.71   24.61
   0   1  -6   52.49    2.62
   0   1  -6   46.69    3.33
   0   1  -6   52.22    2.60
   0   1  -6   57.83    2.96
   0   1  -6   47.63    3.13
   0   1  -6   50.96    2.63
   0  -1   6   48.04    2.67
   0  -1   6   45.74    3.07
   0  -1   6   52.51    2.70
   0  -1   6   52.23    2.55
  -1   1  -6   17.34    1.78
  -1   1  -6   18.37    1.11
  -1   1  -6   19.23    1.15
  -1   1  -6   21.13    1.16
  -1   1  -6   16.29    1.17
   1  -1   6   18.19    1.44
   1  -1   6   18.97    1.05
   1  -1   6   21.19    1.25
   1  -1   6   18.50    1.25
  -2   1  -6  380.64   20.81
  -2   1  -6  369.24   18.23
  -2   1  -6  390.99   18.20
  -2   1  -6  402.46   18.58
  -2   1  -6  387.27   21.68
   2  -1   6  390.47   18.68
   2  -1   6  365.64   18.10
   2  -1   6  367.75   21.03
   2  -1   6  375.04   20.98
   2  -1   6  359.57   18.61
  -3   1  -6   37.72    2.38
  -3   1  -6   41.93    2.58
  -3   1  -6   40.35    2.32
  -3   1  -6   37.82    2.45
  -3   1  -6   36.48    3.05
   3  -1   6   40.79    2.59
   3  -1   6   41.45    2.41
   3  -1   6   40.62    2.99
  -4   1  -6   61.16    3.74
  -4   1  -6   61.89    4.21
  -4   1  -6   59.96    3.52
  -4   1  -6   60.66    3.76
   4  -1   6   63.53    3.60
   4  -1   6   63.32    3.82
   4  -1   6   58.01    4.14
  -5   1  -6   71.75    4.29
  -5   1  -6   72.57    5.20
   5  -1   6   76.11    4.99
   5  -1   6   76.76    4.56
   5  -1   6   75.30    4.36
  -6   1  -6   -0.31    1.95
  -6   1  -6    1.86    1.52
   6  -1   6    2.29    1.32
   6  -1   6    1.76    1.61
  -7   1  -6   29.48    2.92
   7  -1   6   22.40    2.86
   7   0  -6    0.51    1.94
   7   0  -6    0.84    1.57
   7   0  -6    1.99    1.84
   7   0  -6    3.84    1.58
  -7   0   6    4.01    1.66
  -7   0   6   -0.23    1.60
   6   0  -6  118.41    6.24
   6   0  -6  115.21    7.23
   6   0  -6  120.96    6.21
   6   0  -6  118.95    7.44
  -6   0   6  120.24    6.42
  -6   0   6  115.56    6.23
   5   0  -6  148.06    9.14
   5   0  -6  165.54    8.08
   5   0  -6  161.49    9.51
   5   0  -6  156.56    7.86
  -5   0   6  160.09    9.02
  -5   0   6  150.73    7.92
  -5   0   6  160.56    8.15
   4   0  -6    9.16    1.37
   4   0  -6    9.28    1.02
   4   0  -6    7.92    1.48
   4   0  -6    8.78    1.00
  -4   0   6   10.99    1.26
  -4   0   6   11.27    1.08
  -4   0   6    8.57    1.10
   3   0  -6  219.02   11.94
   3   0  -6  203.70   12.31
   3   0  -6  208.07   10.23
   3   0  -6  211.04   10.45
   3   0  -6  201.10   11.77
  -3   0   6  212.01   10.51
  -3   0   6  215.41   11.85
  -3   0   6  215.23   10.25
   2   0  -6  185.65   11.51
   2   0  -6  204.75    9.95
   2   0  -6  216.95    9.76
   2   0  -6  198.07    9.74
   2   0  -6  201.47   11.26
  -2   0   6  192.59    9.98
  -2   0   6  197.56    9.72
  -2   0   6  202.19   11.32
  -2   0   6  215.63    9.97
   1   0  -6    1.99    0.36
   1   0  -6    0.65    0.37
   1   0  -6    2.03    0.63
   1   0  -6    2.07    0.85
   1   0  -6    2.37    0.37
  -1   0   6    1.81    0.58
  -1   0   6    0.53    0.34
  -1   0   6    1.43    0.39
   0   0  -6  332.43   18.38
   0   0  -6  347.62   15.40
   0   0  -6  331.33   15.71
   0   0  -6  316.56   15.39
   0   0   6  308.61   15.74
   0   0   6  322.06   15.76
   0   0   6  311.98   17.86
   0   0   6  319.09   15.30
   0   0   6  307.08   17.89
  -1   0  -6   34.90    1.79
  -1   0  -6   35.27    2.05
  -1   0  -6   30.32    1.72
  -1   0  -6   33.51    1.78
  -1   0  -6   35.14    2.52
   1   0   6   31.90    1.60
   1   0   6   34.40    1.85
   1   0   6   32.32    2.59
   1   0   6   33.52    2.19
   1   0   6   34.82    1.82
  -2   0  -6   36.45    2.20
  -2   0  -6   33.28    2.16
  -2   0  -6   33.48    1.99
  -2   0  -6   37.66    1.91
  -2   0  -6   32.73    2.57
   2   0   6   31.68    2.55
   2   0   6   34.47    2.37
   2   0   6   36.43    1.99
   2   0   6   36.76    2.00
  -3   0  -6  150.30    8.13
  -3   0  -6  145.00    8.69
  -3   0  -6  153.09    7.67
  -3   0  -6  132.14    7.14
   3   0   6  143.94    8.45
   3   0   6  139.18    8.15
   3   0   6  138.13    7.27
  -4   0  -6    8.26    1.25
  -4   0  -6    6.38    1.38
  -4   0  -6    7.08    1.18
   4   0   6    7.81    1.23
   4   0   6    7.39    1.80
   4   0   6    7.49    1.14
  -5   0  -6   37.98    3.08
  -5   0  -6   40.31    2.83
  -5   0  -6   30.33    2.60
   5   0   6   38.75    3.28
   5   0   6   38.40    2.71
  -6   0  -6   27.23    3.26
  -6   0  -6   26.10    2.53
   6   0   6   23.11    2.89
   6   0   6   34.35    2.66
   7   0   6    5.70    2.31
   8  -1  -6   33.23    3.47
   8  -1  -6   35.42    3.19
   7  -1  -6   34.58    3.38
   7  -1  -6   39.45    3.35
   7  -1  -6   40.33    2.58
  -7   1   6   38.66    2.92
   6  -1  -6    5.33    1.27
   6  -1  -6    5.15    1.27
   6  -1  -6    6.34    1.66
   6  -1  -6    8.62    1.76
  -6   1   6    7.02    1.07
  -6   1   6    3.80    1.03
  -6   1   6    5.62    1.31
   5  -1  -6   85.46    4.59
   5  -1  -6   87.70    4.57
   5  -1  -6   77.31    5.56
   5  -1  -6   92.20    5.39
  -5   1   6   79.11    4.72
  -5   1   6   91.88    5.23
  -5   1   6   98.04    4.64
   4  -1  -6   52.60    3.52
   4  -1  -6   57.80    3.61
   4  -1  -6   53.96    2.92
  -4   1   6   51.21    3.46
  -4   1   6   54.36    2.92
  -4   1   6   54.42    3.05
   3  -1  -6  185.00   11.34
   3  -1  -6  206.94    9.41
   3  -1  -6  179.26   10.78
   3  -1  -6  193.87   10.93
   3  -1  -6  183.21    9.36
  -3   1   6  187.42    9.36
  -3   1   6  197.18   10.93
  -3   1   6  191.62    9.62
  -3   1   6  214.27    9.60
   2  -1  -6  132.28    7.64
   2  -1  -6  125.88    6.38
   2  -1  -6  131.60    6.51
   2  -1  -6  141.51    6.41
   2  -1  -6  127.66    7.47
  -2   1   6  125.96    6.55
  -2   1   6  122.46    7.49
  -2   1   6  143.35    6.54
   1  -1  -6   81.02    4.88
   1  -1  -6   84.65    4.06
   1  -1  -6   86.64    5.03
   1  -1  -6   86.01    4.06
  -1   1   6   78.94    5.02
  -1   1   6   81.05    4.91
  -1   1   6   84.12    4.15
  -1   1   6   82.49    4.15
   0  -1  -6  368.74   18.03
   0  -1  -6  400.27   21.55
   0  -1  -6  375.71   18.04
   0   1   6  372.01   21.02
   0   1   6  340.04   20.93
   0   1   6  372.77   18.46
   0   1   6  380.26   18.44
   0   1   6  420.44   19.98
  -1  -1  -6  186.90    9.51
  -1  -1  -6  207.97   11.05
  -1  -1  -6  200.79    9.52
  -1  -1  -6  194.71   10.27
  -1  -1  -6  196.56   11.56
   1   1   6  204.70    9.71
   1   1   6  195.85   11.10
   1   1   6  198.30    9.70
   1   1   6  193.59   11.31
  -2  -1  -6    2.56    0.71
  -2  -1  -6    3.82    0.81
  -2  -1  -6    3.33    0.68
  -2  -1  -6    2.49    1.30
   2   1   6    4.19    1.45
   2   1   6    3.14    0.89
   2   1   6    2.74    0.59
  -3  -1  -6  116.68    6.62
  -3  -1  -6  114.58    7.04
  -3  -1  -6  108.44    5.75
   3   1   6  116.53    6.55
   3   1   6  111.15    6.82
   3   1   6  112.98    5.84
  -4  -1  -6   57.41    3.36
  -4  -1  -6   59.55    3.84
  -4  -1  -6   57.47    4.35
   4   1   6   61.51    3.41
   4   1   6   56.01    4.04
  -5  -1  -6    1.56    1.47
  -5  -1  -6   -0.32    1.39
  -5  -1  -6    3.22    1.30
   5   1   6    2.24    1.32
   5   1   6   -1.13    1.89
  -6  -1  -6   41.00    4.09
  -6  -1  -6   43.34    3.19
   6   1   6   47.52    3.46
   6   1   6   47.26    3.63
   7   1   6    4.24    2.44
   8  -2  -6   -0.73    1.89
   8  -2  -6   -0.16    1.69
   8  -2  -6   -2.11    1.47
  -8   2   6    1.47    1.79
   7  -2  -6  119.21    6.44
   7  -2  -6  122.25    7.74
   7  -2  -6  122.14    7.39
  -7   2   6  124.78    6.71
   6  -2  -6   17.15    1.95
   6  -2  -6   15.78    1.42
   6  -2  -6   19.87    2.14
  -6   2   6   16.04    1.85
  -6   2   6   16.27    1.50
   5  -2  -6    7.73    1.09
   5  -2  -6    9.57    1.10
   5  -2  -6    9.88    1.47
   5  -2  -6    9.21    1.36
  -5   2   6    8.81    1.22
  -5   2   6    8.62    1.51
   4  -2  -6  167.88    8.16
   4  -2  -6  166.03    9.22
   4  -2  -6  156.05    7.97
   4  -2  -6  153.31    9.71
  -4   2   6  172.36    8.23
  -4   2   6  158.03    9.35
  -4   2   6  164.46    7.98
   3  -2  -6   45.58    2.95
   3  -2  -6   46.63    2.47
   3  -2  -6   47.00    2.45
   3  -2  -6   43.22    3.10
  -3   2   6   47.01    2.53
  -3   2   6   51.82    2.51
  -3   2   6   45.24    3.12
   2  -2  -6   82.15    4.94
   2  -2  -6   82.91    4.18
   2  -2  -6   89.94    5.05
   2  -2  -6   87.67    4.14
   2  -2  -6   80.88    4.11
  -2   2   6   81.56    4.22
  -2   2   6   91.92    4.82
  -2   2   6   78.77    5.03
   1  -2  -6  104.51    5.02
   1  -2  -6   99.02    6.00
   1  -2  -6  105.26    6.23
   1  -2  -6  106.34    5.02
  -1   2   6  107.34    5.79
  -1   2   6  106.93    6.24
  -1   2   6  101.81    6.10
   0  -2  -6    2.25    0.33
   0  -2  -6    2.45    0.23
   0  -2  -6    1.83    0.19
   0   2   6    1.69    0.68
   0   2   6    1.35    0.69
   0   2   6    1.16    1.27
  -1  -2  -6  166.84    9.87
  -1  -2  -6  169.26    8.42
   1   2   6  177.57    8.53
   1   2   6  161.82   10.12
   1   2   6  187.33    8.53
   1   2   6  181.49    9.92
  -2  -2  -6   15.02    1.48
  -2  -2  -6   12.55    1.02
  -2  -2  -6   14.26    1.13
   2   2   6   11.50    1.93
   2   2   6   14.55    1.39
   2   2   6   13.25    0.97
  -3  -2  -6    8.58    1.02
  -3  -2  -6    6.66    1.36
   3   2   6    8.30    1.07
   3   2   6   10.79    1.17
   3   2   6    7.68    1.53
  -4  -2  -6  108.77    6.82
  -4  -2  -6  110.88    6.49
  -4  -2  -6  105.95    5.54
   4   2   6   95.83    6.72
  -5  -2  -6    4.45    2.19
  -5  -2  -6    4.70    1.35
  -5  -2  -6    3.68    1.78
   5   2   6    5.08    1.39
   5   2   6    1.24    2.21
   6   2   6    5.18    2.52
   7   2   6   28.15    3.51
   8  -3  -6   10.61    2.12
   8  -3  -6   12.33    1.97
   8  -3  -6   12.44    2.58
  -8   3   6   12.55    1.69
   7  -3  -6    6.09    1.55
   7  -3  -6    4.67    1.26
  -7   3   6    2.77    1.55
   6  -3  -6   51.36    3.45
   6  -3  -6   48.26    2.98
   6  -3  -6   49.00    3.91
  -6   3   6   54.34    3.22
   5  -3  -6    1.56    1.10
   5  -3  -6    1.32    1.45
   5  -3  -6    3.87    0.92
  -5   3   6    2.35    1.41
  -5   3   6    3.14    1.00
   4  -3  -6   46.12    3.09
   4  -3  -6   46.37    2.60
   4  -3  -6   47.34    3.44
  -4   3   6   53.05    2.75
  -4   3   6   48.30    3.21
   3  -3  -6  102.64    5.58
   3  -3  -6  110.99    6.90
   3  -3  -6  129.84    6.63
   3  -3  -6  119.13    6.55
  -3   3   6  111.89    5.75
  -3   3   6  109.22    6.72
   2  -3  -6   74.12    4.57
   2  -3  -6   79.02    3.80
   2  -3  -6   73.52    4.80
   2  -3  -6   86.51    4.77
  -2   3   6   78.24    3.89
  -2   3   6   78.31    3.85
  -2   3   6   77.12    4.55
  -2   3   6   80.01    4.78
  -2   3   6   72.57    4.69
  -1   3   6  172.17    9.79
  -1   3   6  177.53    9.26
  -1   3   6  160.02    9.69
   0   3   6   41.38    2.62
   0   3   6   40.84    3.16
   0   3   6   43.13    2.87
  -1  -3  -6   45.42    2.30
  -1  -3  -6   44.55    3.02
  -1  -3  -6   47.55    2.95
   1   3   6   47.26    3.00
   1   3   6   40.15    3.34
  -2  -3  -6  108.24    5.44
  -2  -3  -6  111.08    6.50
   2   3   6  110.65    6.38
   2   3   6   99.43    6.78
   2   3   6  112.44    5.46
  -3  -3  -6    8.77    1.19
  -3  -3  -6   10.20    1.63
   3   3   6   10.60    2.19
  -4  -3  -6   24.34    1.95
  -4  -3  -6   26.28    2.60
   4   3   6   22.26    3.05
  -5  -3  -6   53.35    3.46
  -5  -3  -6   63.05    4.26
   5   3   6   54.25    3.59
   5   3   6   48.29    4.60
   6   3   6    4.04    2.00
   7   3   6   14.21    3.21
   8  -4  -6   47.48    4.24
   8  -4  -6   42.94    2.95
  -8   4   6   45.99    3.36
   7  -4  -6   14.26    2.40
   7  -4  -6   14.86    1.76
  -7   4   6   11.37    1.77
   6  -4  -6   76.21    4.54
   6  -4  -6   70.78    3.92
   6  -4  -6   71.37    4.95
  -6   4   6   71.77    4.14
   5  -4  -6   73.84    4.17
   5  -4  -6   67.91    3.63
   5  -4  -6   63.29    4.62
  -5   4   6   65.64    3.72
  -5   4   6   64.03    4.32
   4  -4  -6    0.94    0.67
   4  -4  -6    1.60    0.88
   4  -4  -6    0.28    1.30
  -4   4   6    1.41    0.86
  -4   4   6    0.90    1.38
   3  -4  -6  104.71    6.13
   3  -4  -6  104.50    6.39
   3  -4  -6   97.04    5.14
   3  -4  -6  100.99    5.99
  -3   4   6  110.33    6.04
  -3   4   6  108.48    6.11
  -3   4   6  105.46    5.26
   2  -4  -6   25.35    2.11
   2  -4  -6   28.69    1.97
   2  -4  -6   24.95    1.40
  -2   4   6   26.53    2.17
  -2   4   6   27.26    2.33
  -2   4   6   27.35    1.97
   1  -4  -6   30.64    2.37
  -1   4   6   33.60    2.48
  -1   4   6   34.25    2.32
  -1   4   6   31.42    2.51
   0  -4  -6   70.40    4.33
   0  -4  -6   71.42    4.40
   0   4   6   70.52    4.39
   0   4   6   64.59    4.56
  -1  -4  -6    7.78    1.25
  -1  -4  -6    7.43    1.41
  -1  -4  -6    6.37    0.62
   1   4   6    6.02    1.05
   1   4   6    5.55    1.88
  -2  -4  -6   81.67    4.11
  -2  -4  -6   80.00    5.09
   2   4   6   78.37    5.57
  -3  -4  -6   73.11    4.63
  -3  -4  -6   65.55    3.69
   3   4   6   63.02    5.00
  -4  -4  -6    3.06    1.18
  -4  -4  -6    3.30    1.37
   4   4   6    2.42    2.61
   5   4   6   22.21    3.47
   6   4   6   23.96    3.72
   7  -5  -6   34.00    2.59
   7  -5  -6   39.54    3.60
  -7   5   6   33.74    2.64
   6  -5  -6    5.02    1.19
   6  -5  -6    5.78    1.95
  -6   5   6    3.46    1.23
   5  -5  -6   98.11    6.22
   5  -5  -6   93.12    5.00
  -5   5   6   99.68    5.14
   4  -5  -6   16.66    1.52
   4  -5  -6   17.79    1.43
   4  -5  -6   17.84    1.80
  -4   5   6   15.06    2.10
  -4   5   6   18.22    1.82
  -4   5   6   19.05    1.37
   3  -5  -6   41.13    3.19
   3  -5  -6   40.53    2.25
   3  -5  -6   42.04    2.73
  -3   5   6   47.55    2.95
  -3   5   6   38.96    3.02
  -3   5   6   44.73    2.94
  -3   5   6   44.07    2.29
   2  -5  -6  129.67    6.16
   2  -5  -6  125.47    7.23
   2  -5  -6  123.68    7.73
   2  -5  -6  129.66    7.47
  -2   5   6  131.93    7.48
  -2   5   6  124.05    7.18
  -2   5   6  130.25    7.58
   1  -5  -6    3.76    1.44
   1  -5  -6    3.27    1.09
  -1   5   6    4.42    1.01
  -1   5   6    4.41    1.46
  -1   5   6    3.87    1.60
   0  -5  -6   64.32    4.26
   0  -5  -6   66.62    4.35
   0  -5  -6   67.95    4.49
   0   5   6   74.03    4.83
   0   5   6   69.56    4.42
  -1  -5  -6   43.02    3.47
  -1  -5  -6   50.66    3.20
   1   5   6   46.93    3.17
   1   5   6   47.63    3.92
  -2  -5  -6    1.19    1.65
   2   5   6   -0.42    2.23
  -3  -5  -6   53.43    4.09
   3   5   6   51.63    4.66
   4   5   6   12.45    3.20
   5   5   6   14.52    3.47
   6   5   6   22.18    3.87
   7  -6  -6   63.33    4.21
   7  -6  -6   54.78    3.62
   7  -6  -6   59.50    4.84
  -7   6   6   65.48    3.80
   6  -6  -6   75.89    5.37
   6  -6  -6   84.20    5.63
   6  -6  -6   83.42    4.49
  -6   6   6   86.29    4.62
   5  -6  -6   31.45    3.08
   5  -6  -6   35.88    3.25
   5  -6  -6   37.14    2.26
  -5   6   6   36.23    3.11
  -5   6   6   37.35    2.34
   4  -6  -6   69.14    3.79
   4  -6  -6   74.08    4.92
   4  -6  -6   70.68    4.76
  -4   6   6   75.09    3.86
  -4   6   6   70.09    4.46
   3  -6  -6   32.07    2.38
   3  -6  -6   29.54    1.68
   3  -6  -6   27.07    2.68
  -3   6   6   26.55    2.46
  -3   6   6   29.16    2.36
  -3   6   6   27.77    2.47
   2  -6  -6   50.10    3.30
   2  -6  -6   48.48    3.57
  -2   6   6   41.15    3.58
  -2   6   6   53.77    3.57
  -2   6   6   47.35    3.40
   1  -6  -6   67.09    4.59
   1  -6  -6   70.98    4.43
  -1   6   6   62.27    4.58
  -1   6   6   70.49    4.38
  -1   6   6   72.86    4.57
   0  -6  -6    3.80    1.28
   0  -6  -6    3.35    1.54
   0   6   6   -2.95    1.99
   0   6   6    3.64    1.53
  -1  -6  -6  107.14    6.36
   1   6   6   93.28    6.79
  -2  -6  -6   12.05    2.26
   2   6   6    8.08    2.92
   3   6   6   -1.29    2.89
   4   6   6   38.48    4.63
   5   6   6    5.97    3.51
   7  -7  -6   18.53    2.94
   7  -7  -6   20.17    1.99
   7  -7  -6   17.24    2.73
  -7   7   6   22.90    2.07
   6  -7  -6   61.42    4.82
   6  -7  -6   61.29    3.56
  -6   7   6   62.61    3.66
   5  -7  -6   16.43    2.38
   5  -7  -6   14.09    1.40
   5  -7  -6   21.12    2.49
  -5   7   6   11.92    1.35
  -5   7   6   14.05    1.95
   4  -7  -6   64.29    3.47
   4  -7  -6   63.95    4.59
   4  -7  -6   66.29    4.65
  -4   7   6   69.57    4.47
   3  -7  -6   82.50    5.06
   3  -7  -6   72.95    4.94
  -3   7   6   69.94    4.76
  -3   7   6   83.05    4.92
   2  -7  -6    0.45    1.26
   2  -7  -6    4.33    1.88
  -2   7   6    1.36    1.70
  -2   7   6    1.81    1.65
   1  -7  -6   69.16    4.82
   1  -7  -6   68.58    4.70
  -1   7   6   76.50    5.10
  -1   7   6   69.03    4.43
   0  -7  -6   22.31    2.50
   0  -7  -6   19.85    2.58
   0   7   6   21.38    3.06
  -1  -7  -6    2.35    2.02
   1   7   6    6.90    2.78
   2   7   6   26.22    3.93
   3   7   6    0.41    3.37
   4   7   6    7.70    3.73
   6  -8  -6   22.27    3.09
   6  -8  -6   27.36    2.15
  -6   8   6   32.73    2.40
   5  -8  -6   71.70    5.22
   5  -8  -6   71.67    3.98
   5  -8  -6   70.10    5.08
  -5   8   6   73.16    4.93
   4  -8  -6   -0.21    1.67
   4  -8  -6    0.68    2.00
  -4   8   6    0.36    2.02
   3  -8  -6   56.66    4.15
  -3   8   6   44.30    3.74
   2  -8  -6   49.77    3.99
  -2   8   6   50.28    3.78
  -2   8   6   41.94    3.69
   1  -8  -6    4.43    2.24
   1  -8  -6    9.08    2.29
  -1   8   6    7.31    2.44
  -1   8   6    7.99    1.66
   0   8   6   66.40    5.38
   1   8   6    2.94    3.08
   2   8   6    7.62    2.60
   3   8   6   16.66    3.32
  -6   9   6    3.95    1.82
   5  -9  -6   29.68    3.21
  -5   9   6   31.76    2.83
  -4   9   6   34.70    2.99
  -3   9   6   13.50    2.05
  -2   9   6   40.42    3.59
  -2   9   6   31.04    3.34
  -1   9   6    1.68    2.34
  -1   9   6    6.87    2.61
   0   9   6    9.97    2.47
   1   9   6   26.22    3.48
   2   9   6    5.52    3.67
  -6  10   6    9.73    2.93
  -5  10   6   16.79    2.97
  -4  10   6   14.74    2.94
  -3  10   6   11.04    2.75
  -2  10   6   32.35    2.96
  -1  10   6   30.11    3.46
  -1  10   6   30.93    3.80
   0  10   6    3.39    2.69
   0  10   6   -6.66    3.01
   1  10   6   29.30    3.72
  -6  11   6   13.21    3.14
  -5  11   6    7.22    2.96
  -4  11   6   28.93    3.01
  -3  11   6    5.27    2.87
  -2  11   6   -3.05    2.74
  -1  11   6   26.13    3.56
  -1  11   6   28.33    3.22
   1 -11   7   27.55    2.70
  -2  11  -7   35.60    2.82
   2 -11   7   29.82    3.22
  -3  11  -7    3.45    2.26
   3 -11   7    3.56    2.34
  -4  11  -7   41.61    4.05
  -1 -10   7   28.57    2.65
   0  10  -7   40.60    3.34
   0  10  -7   39.37    3.20
   0 -10   7   34.73    3.23
   0 -10   7   34.99    2.88
  -1  10  -7    0.82    1.89
  -1  10  -7    2.86    1.92
   1 -10   7    2.54    1.99
   1 -10   7    1.94    1.43
   1 -10   7    0.81    2.35
  -2  10  -7   50.97    3.94
  -2  10  -7   59.27    4.09
  -2  10  -7   59.29    4.88
   2 -10   7   56.95    4.23
   2 -10   7   54.52    3.96
   2 -10   7   63.11    3.85
  -3  10  -7   15.82    1.96
  -3  10  -7   11.64    2.35
  -3  10  -7   16.25    3.15
   3 -10   7   18.11    2.44
   3 -10   7   15.70    2.57
   3 -10   7   15.69    2.84
  -4  10  -7   17.24    2.10
  -4  10  -7   20.18    3.27
  -4  10  -7   16.12    2.58
   4 -10   7   15.76    2.36
   4 -10   7   15.09    2.72
   4 -10   7   17.36    2.55
  -5  10  -7   22.88    2.87
   5 -10   7   27.46    3.14
   5 -10   7   23.70    3.13
   5 -10   7   22.53    2.47
   2   9  -7   15.91    2.32
  -2  -9   7   17.38    1.99
  -2  -9   7   13.40    2.40
   1   9  -7   14.55    1.82
   1   9  -7   16.64    1.85
  -1  -9   7   16.64    2.15
  -1  -9   7   17.71    2.39
  -1  -9   7   15.63    1.88
   0   9  -7   51.44    3.37
   0   9  -7   48.84    3.54
   0  -9   7   55.30    3.80
   0  -9   7   49.40    3.78
   0  -9   7   53.31    3.32
  -1   9  -7    8.85    1.90
  -1   9  -7    8.84    1.91
  -1   9  -7    4.41    2.71
   1  -9   7   12.48    2.36
   1  -9   7   11.72    1.54
   1  -9   7    7.41    1.53
  -2   9  -7   32.73    2.56
  -2   9  -7   42.55    4.07
  -2   9  -7   34.98    2.88
   2  -9   7   30.20    2.62
   2  -9   7   33.03    3.33
   2  -9   7   34.97    2.84
  -3   9  -7   91.64    5.63
  -3   9  -7  111.62    6.80
  -3   9  -7   97.19    5.60
   3  -9   7   97.10    5.56
   3  -9   7   88.48    6.25
   3  -9   7   94.67    5.53
  -4   9  -7   -0.83    2.31
  -4   9  -7   -0.58    1.34
  -4   9  -7    0.20    2.00
   4  -9   7   -1.86    2.10
   4  -9   7   -1.54    1.89
   4  -9   7    0.95    2.10
  -5   9  -7   51.29    4.59
  -5   9  -7   55.56    4.04
  -5   9  -7   54.33    3.75
   5  -9   7   59.33    3.91
   5  -9   7   55.26    4.24
   5  -9   7   53.35    3.93
  -6   9  -7   20.22    2.92
  -6   9  -7   27.70    2.87
  -6   9  -7   24.68    3.20
  -6   9  -7   27.55    2.94
   6  -9   7   29.53    3.00
   3   8  -7    4.88    1.96
   3   8  -7    1.94    2.38
   3   8  -7    2.10    1.91
  -3  -8   7    4.82    2.11
  -3  -8   7    4.93    2.05
   2   8  -7   22.84    2.94
   2   8  -7   27.48    2.66
   2   8  -7   25.15    2.21
  -2  -8   7   31.59    2.88
  -2  -8   7   25.54    2.56
   1   8  -7   44.06    2.99
   1   8  -7   46.53    3.24
  -1  -8   7   45.65    3.22
  -1  -8   7   46.66    3.76
  -1  -8   7   47.18    3.12
   0   8  -7   42.48    3.21
   0   8  -7   50.70    3.96
   0   8  -7   45.52    3.50
   0   8  -7   43.55    3.17
   0  -8   7   47.61    2.95
   0  -8   7   47.16    3.36
   0  -8   7   50.42    3.73
  -1   8  -7   44.20    2.99
  -1   8  -7   40.13    3.08
  -1   8  -7   41.39    3.03
  -1   8  -7   44.84    4.04
   1  -8   7   38.51    2.80
   1  -8   7   42.23    3.18
   1  -8   7   41.37    2.90
  -2   8  -7    0.44    2.15
  -2   8  -7   -0.23    1.56
  -2   8  -7   -1.12    1.24
  -2   8  -7    1.54    1.11
   2  -8   7    1.28    1.82
   2  -8   7    2.37    1.53
   2  -8   7    0.55    1.62
  -3   8  -7   65.13    4.99
  -3   8  -7   56.54    3.93
  -3   8  -7   62.80    3.99
   3  -8   7   58.54    3.82
   3  -8   7   62.81    3.83
   3  -8   7   66.46    4.42
  -4   8  -7    8.37    2.03
  -4   8  -7   10.87    2.39
  -4   8  -7    8.59    1.48
   4  -8   7    8.62    1.97
   4  -8   7    8.27    1.49
   4  -8   7    8.75    2.12
  -5   8  -7   -0.64    1.72
  -5   8  -7    4.04    2.06
  -5   8  -7   -1.81    1.78
  -5   8  -7   -1.75    2.07
   5  -8   7    0.23    2.13
   5  -8   7   -0.82    1.81
  -6   8  -7   61.70    4.15
  -6   8  -7   51.52    4.28
  -6   8  -7   67.47    4.14
  -6   8  -7   62.91    5.04
   6  -8   7   65.16    4.32
   6  -8   7   70.16    4.69
   4   7  -7   28.84    2.95
   4   7  -7   34.84    2.99
   4   7  -7   29.57    3.78
  -4  -7   7   33.69    2.78
  -4  -7   7   37.33    3.14
  -4  -7   7   33.50    2.68
   3   7  -7   -2.08    2.22
   3   7  -7    2.27    1.67
   3   7  -7    2.63    1.69
  -3  -7   7    2.67    1.80
  -3  -7   7    5.17    1.86
  -3  -7   7    3.72    1.31
   2   7  -7   42.59    3.12
   2   7  -7   47.28    3.85
   2   7  -7   44.40    3.14
  -2  -7   7   46.98    3.28
  -2  -7   7   43.40    3.37
  -2  -7   7   45.27    2.88
   1   7  -7   37.33    2.52
   1   7  -7   39.62    3.31
   1   7  -7   37.76    2.56
  -1  -7   7   41.37    2.67
  -1  -7   7   34.52    2.74
  -1  -7   7   42.47    2.97
   0   7  -7    6.30    1.44
   0   7  -7    7.24    1.29
   0   7  -7    6.70    1.66
   0   7  -7    4.94    1.10
   0  -7   7    5.14    1.33
   0  -7   7    5.87    1.12
   0  -7   7    3.54    1.14
  -1   7  -7   93.81    6.37
  -1   7  -7   94.38    5.14
  -1   7  -7   98.32    5.20
  -1   7  -7  103.11    5.82
   1  -7   7   96.78    5.90
   1  -7   7   90.48    5.36
   1  -7   7   95.87    5.18
  -2   7  -7   25.80    2.23
  -2   7  -7   29.97    3.34
  -2   7  -7   25.56    2.38
  -2   7  -7   28.09    2.38
   2  -7   7   34.99    2.28
   2  -7   7   23.51    2.36
   2  -7   7   27.91    2.32
  -3   7  -7    9.43    1.44
  -3   7  -7    8.81    1.58
  -3   7  -7    6.37    2.18
  -3   7  -7    6.11    1.28
   3  -7   7    8.53    1.72
   3  -7   7    7.32    1.70
   3  -7   7    7.60    1.54
  -4   7  -7  147.78    8.05
  -4   7  -7  148.64    8.00
  -4   7  -7  161.76    8.79
  -4   7  -7  153.42    9.58
   4  -7   7  153.25    8.27
   4  -7   7  149.88    8.71
   4  -7   7  150.61    7.90
  -5   7  -7    1.15    1.73
  -5   7  -7    2.76    1.83
  -5   7  -7   -0.31    1.44
  -5   7  -7    3.01    1.76
   5  -7   7    1.55    2.01
   5  -7   7    0.19    1.66
  -6   7  -7   13.17    1.86
  -6   7  -7   14.44    2.40
  -6   7  -7   16.29    2.28
  -6   7  -7   10.12    2.02
   6  -7   7   15.35    2.53
  -7   7  -7   49.18    4.38
   5   6  -7    1.92    1.39
   5   6  -7    3.48    1.99
  -5  -6   7    5.42    2.09
  -5  -6   7    3.02    2.09
  -5  -6   7    6.43    2.47
   4   6  -7    8.99    2.13
   4   6  -7   11.58    1.94
   4   6  -7    7.20    1.87
  -4  -6   7   11.44    1.85
  -4  -6   7   13.04    1.65
  -4  -6   7   11.04    2.06
   3   6  -7  125.42    7.97
   3   6  -7  130.93    6.72
   3   6  -7  126.98    6.84
  -3  -6   7  122.98    6.95
  -3  -6   7  133.95    7.79
  -3  -6   7  122.06    6.65
   2   6  -7    0.15    1.26
   2   6  -7    0.35    0.92
   2   6  -7    1.33    1.36
  -2  -6   7   -0.70    1.17
  -2  -6   7   -0.55    1.39
  -2  -6   7   -1.87    1.31
  -2  -6   7    1.38    1.07
   1   6  -7   47.09    3.55
   1   6  -7   48.20    2.92
   1   6  -7   48.11    3.75
   1   6  -7   44.05    2.91
  -1  -6   7   42.69    3.18
  -1  -6   7   44.91    2.92
  -1  -6   7   52.03    3.09
  -1  -6   7   43.53    2.84
   0   6  -7   82.57    4.63
   0   6  -7   88.24    4.71
   0   6  -7   88.90    5.81
   0   6  -7   86.85    5.33
   0  -6   7   81.46    4.78
   0  -6   7   83.23    4.60
   0  -6   7   87.20    5.25
  -1   6  -7   51.02    4.00
  -1   6  -7   56.71    3.28
  -1   6  -7   59.41    3.58
  -1   6  -7   56.27    3.17
   1  -6   7   53.43    3.17
   1  -6   7   52.26    3.63
   1  -6   7   50.70    3.33
  -2   6  -7   19.84    2.53
  -2   6  -7   18.53    1.62
  -2   6  -7   18.12    1.96
  -2   6  -7   20.70    1.58
   2  -6   7   17.02    1.83
   2  -6   7   21.26    1.81
   2  -6   7   20.31    1.99
  -3   6  -7   21.48    2.74
  -3   6  -7   24.49    2.12
  -3   6  -7   26.79    2.29
  -3   6  -7   26.69    2.23
   3  -6   7   24.95    2.30
   3  -6   7   28.14    2.04
   3  -6   7   22.35    2.18
  -4   6  -7   39.12    2.97
  -4   6  -7   41.57    2.94
  -4   6  -7   36.81    2.79
  -4   6  -7   33.89    3.48
   4  -6   7   42.05    2.54
   4  -6   7   41.18    2.73
   4  -6   7   37.39    2.77
  -5   6  -7   66.72    5.19
  -5   6  -7   71.64    4.47
  -5   6  -7   75.72    4.32
  -5   6  -7   71.68    4.43
   5  -6   7   75.59    4.43
   5  -6   7   72.46    4.30
  -6   6  -7   -1.65    1.30
  -6   6  -7   -2.69    2.00
  -6   6  -7    4.29    1.89
   6  -6   7    1.77    1.97
  -7   6  -7   52.78    4.02
  -7   6  -7   48.82    4.42
   5   5  -7   57.09    3.65
   5   5  -7   47.93    3.67
   5   5  -7   53.10    4.29
  -5  -5   7   52.09    3.99
  -5  -5   7   50.00    3.65
  -5  -5   7   59.43    3.85
   4   5  -7    3.88    1.49
   4   5  -7   -0.34    2.14
   4   5  -7    2.87    1.57
  -4  -5   7    2.84    1.83
  -4  -5   7    1.91    1.65
  -4  -5   7    1.46    1.60
   3   5  -7  111.87    6.10
   3   5  -7  114.95    5.99
   3   5  -7  118.93    7.15
  -3  -5   7  115.95    6.59
  -3  -5   7  109.12    6.08
  -3  -5   7  107.20    6.90
  -3  -5   7  118.19    6.05
   2   5  -7   27.33    1.90
   2   5  -7   27.82    2.70
   2   5  -7   28.81    2.11
   2   5  -7   27.63    2.66
  -2  -5   7   28.20    1.92
  -2  -5   7   27.01    2.25
  -2  -5   7   31.40    2.16
  -2  -5   7   26.50    2.22
   1   5  -7   43.07    3.18
   1   5  -7   43.04    3.37
   1   5  -7   40.32    2.59
   1   5  -7   44.52    2.65
  -1  -5   7   40.51    2.70
  -1  -5   7   39.64    2.55
  -1  -5   7   43.45    2.61
   0   5  -7   67.54    3.87
   0   5  -7   71.59    3.85
   0   5  -7   65.52    4.88
   0   5  -7   71.69    4.54
   0  -5   7   70.57    4.02
   0  -5   7   77.43    3.86
   0  -5   7   71.14    4.42
   0  -5   7   72.95    4.12
  -1   5  -7  112.27    6.79
  -1   5  -7  121.37    6.03
  -1   5  -7  108.86    7.23
  -1   5  -7  115.07    5.96
   1  -5   7  112.78    6.04
   1  -5   7  119.88    6.67
   1  -5   7  117.48    5.90
  -2   5  -7  121.82    6.81
  -2   5  -7  122.35    6.06
  -2   5  -7  114.93    6.00
  -2   5  -7  106.81    7.33
   2  -5   7  121.20    5.91
   2  -5   7  116.69    6.61
   2  -5   7  103.27    6.08
  -3   5  -7   77.14    4.60
  -3   5  -7   84.25    4.57
  -3   5  -7   80.53    5.70
  -3   5  -7   89.68    5.25
   3  -5   7   86.93    4.76
   3  -5   7   84.91    4.52
   3  -5   7   89.10    4.93
  -4   5  -7    2.68    1.31
  -4   5  -7    4.28    1.12
  -4   5  -7    5.21    1.81
   4  -5   7    5.49    1.54
   4  -5   7    4.57    1.25
  -5   5  -7   93.34    5.52
  -5   5  -7   87.38    5.21
  -5   5  -7   89.88    6.19
   5  -5   7   95.54    5.25
  -6   5  -7    4.54    1.58
  -6   5  -7    6.17    1.91
  -6   5  -7    5.88    1.90
   6  -5   7    1.06    1.93
  -7   5  -7   -1.97    2.16
  -7   5  -7    1.18    2.09
   6   4  -7   -0.23    1.84
   6   4  -7   -1.01    1.78
   6   4  -7   -3.25    2.61
  -6  -4   7    1.09    1.87
  -6  -4   7   -1.96    1.91
  -6  -4   7    1.86    1.70
   5   4  -7   97.18    5.53
   5   4  -7  104.35    6.58
   5   4  -7   95.67    5.62
  -5  -4   7  103.87    5.46
  -5  -4   7   99.80    5.77
  -5  -4   7   99.17    6.58
   4   4  -7   88.91    4.77
   4   4  -7   86.10    4.88
   4   4  -7   85.50    5.43
   4   4  -7   90.03    5.65
  -4  -4   7   84.92    5.58
  -4  -4   7   87.36    4.83
  -4  -4   7   85.56    4.97
   3   4  -7    1.85    1.00
   3   4  -7    1.23    1.16
   3   4  -7    1.18    1.67
   3   4  -7    2.90    1.13
  -3  -4   7   -0.14    1.20
  -3  -4   7   -0.18    1.19
  -3  -4   7    1.87    0.96
  -3  -4   7    1.78    1.16
   2   4  -7  211.53   12.45
   2   4  -7  218.09   10.79
   2   4  -7  234.38   11.03
   2   4  -7  227.11   12.83
  -2  -4   7  209.83   11.08
  -2  -4   7  226.20   12.34
  -2  -4   7  213.76   12.37
  -2  -4   7  212.77   10.76
   1   4  -7   59.28    3.31
   1   4  -7   62.37    3.87
   1   4  -7   58.20    4.13
   1   4  -7   60.27    3.32
  -1  -4   7   58.22    3.68
  -1  -4   7   64.65    3.29
  -1  -4   7   60.40    3.62
  -1  -4   7   57.52    3.42
   0   4  -7   27.64    2.14
   0   4  -7   30.06    2.48
   0   4  -7   28.69    1.86
   0   4  -7   29.89    1.79
   0  -4   7   27.72    1.83
   0  -4   7   26.67    1.92
  -1   4  -7  144.47    9.38
  -1   4  -7  152.99    8.79
  -1   4  -7  154.06    7.72
  -1   4  -7  164.75    7.84
   1  -4   7  149.84    7.88
   1  -4   7  158.12    7.64
  -2   4  -7    6.56    1.37
  -2   4  -7    9.35    1.05
  -2   4  -7    7.54    1.18
  -2   4  -7   10.69    1.46
   2  -4   7    9.39    1.04
   2  -4   7    8.50    1.18
  -3   4  -7   60.53    4.86
  -3   4  -7   66.02    3.87
  -3   4  -7   76.99    3.95
   3  -4   7   75.29    3.83
   3  -4   7   75.75    3.99
  -4   4  -7   63.42    4.59
  -4   4  -7   65.76    3.68
  -4   4  -7   58.99    3.81
  -4   4  -7   61.55    3.80
   4  -4   7   68.33    3.88
   4  -4   7   63.28    3.53
  -5   4  -7   -0.13    1.52
  -5   4  -7    1.04    1.11
  -5   4  -7    2.26    1.32
   5  -4   7   -0.10    1.55
  -6   4  -7   79.06    4.94
  -6   4  -7   83.34    5.19
  -6   4  -7   82.47    5.88
   6  -4   7   85.66    5.10
  -7   4  -7    1.49    2.37
  -7  -3   7   22.70    2.81
   6   3  -7   39.92    2.97
   6   3  -7   38.91    3.03
   6   3  -7   41.41    3.98
  -6  -3   7   36.64    2.79
  -6  -3   7   34.62    3.69
  -6  -3   7   35.53    2.97
   5   3  -7   36.08    2.85
   5   3  -7   39.41    2.70
   5   3  -7   36.15    3.13
   5   3  -7   36.37    2.62
  -5  -3   7   35.26    3.32
  -5  -3   7   34.98    2.67
  -5  -3   7   30.64    2.78
   4   3  -7   94.90    5.94
   4   3  -7   96.84    5.20
   4   3  -7  101.55    6.15
   4   3  -7   97.43    5.11
  -4  -3   7   87.63    5.97
  -4  -3   7   90.16    5.25
  -4  -3   7   97.89    5.05
  -4  -3   7   98.17    5.62
   3   3  -7   15.11    1.46
   3   3  -7   17.71    1.68
   3   3  -7   16.89    2.02
   3   3  -7   15.47    1.48
  -3  -3   7   15.18    1.49
  -3  -3   7   13.80    1.26
  -3  -3   7   13.57    1.49
  -3  -3   7   16.81    1.54
   2   3  -7   52.10    3.85
   2   3  -7   63.97    3.89
   2   3  -7   56.91    3.21
   2   3  -7   56.57    3.13
  -2  -3   7   63.68    3.23
  -2  -3   7   59.65    3.65
  -2  -3   7   56.21    3.33
  -2  -3   7   59.52    3.69
   1   3  -7  176.49   11.43
   1   3  -7  209.95    9.75
   1   3  -7  183.93   11.03
   1   3  -7  198.03    9.59
  -1  -3   7  195.91   11.04
  -1  -3   7  201.92    9.56
  -1  -3   7  198.38    9.83
   0   3  -7   47.26    2.59
   0   3  -7   49.61    2.60
   0   3  -7   46.41    3.33
   0   3  -7   44.80    3.14
   0  -3   7   42.54    2.56
   0  -3   7   48.76    2.49
   0  -3   7   46.51    3.08
  -1   3  -7  172.67    8.52
  -1   3  -7  163.55   10.29
  -1   3  -7  177.39    8.64
  -1   3  -7  174.68    9.81
   1  -3   7  164.50    8.69
   1  -3   7  181.24    8.44
  -2   3  -7  129.66    8.31
  -2   3  -7  138.31    6.91
  -2   3  -7  136.96    6.85
   2  -3   7  140.33    6.73
   2  -3   7  133.99    6.94
  -3   3  -7   12.41    1.20
  -3   3  -7   11.19    1.55
  -3   3  -7   11.72    1.37
   3  -3   7   14.94    1.19
   3  -3   7   11.99    1.36
  -4   3  -7   45.16    3.17
  -4   3  -7   50.88    3.57
  -4   3  -7   45.67    3.01
   4  -3   7   48.37    3.08
  -5   3  -7    9.72    1.72
  -5   3  -7    8.92    1.76
  -5   3  -7    9.74    2.14
   5  -3   7    7.85    1.67
  -6   3  -7   -0.19    2.10
  -6   3  -7    2.74    1.82
  -6   3  -7    3.96    1.72
   6  -3   7    0.86    1.74
   7   2  -7    5.26    2.04
  -7  -2   7   11.32    2.80
   6   2  -7   93.45    5.20
   6   2  -7   89.75    6.03
   6   2  -7   92.96    6.13
   6   2  -7   96.02    5.17
  -6  -2   7   93.17    6.32
  -6  -2   7   92.96    5.26
  -6  -2   7   92.50    5.27
   5   2  -7   24.52    2.05
   5   2  -7   24.36    2.27
   5   2  -7   25.14    2.06
   5   2  -7   19.16    2.28
  -5  -2   7   20.11    2.09
  -5  -2   7   20.90    2.16
  -5  -2   7   27.00    2.64
   4   2  -7   21.94    1.98
   4   2  -7   18.84    1.73
   4   2  -7   19.24    2.27
   4   2  -7   20.74    1.71
  -4  -2   7   22.98    1.62
  -4  -2   7   20.23    1.73
  -4  -2   7   17.23    2.09
  -4  -2   7   19.16    1.73
   3   2  -7  213.37   10.49
   3   2  -7  224.52   12.29
   3   2  -7  213.15   12.12
   3   2  -7  210.23   10.69
  -3  -2   7  206.72   10.48
  -3  -2   7  200.84   10.73
  -3  -2   7  228.24   12.06
   2   2  -7   15.13    1.63
   2   2  -7   14.48    1.23
   2   2  -7   16.66    1.81
   2   2  -7   15.74    1.25
  -2  -2   7   16.10    1.24
  -2  -2   7   16.03    1.34
  -2  -2   7   15.47    1.32
   1   2  -7  213.77   13.51
   1   2  -7  253.75   12.93
   1   2  -7  223.72   13.04
   1   2  -7  229.60   11.32
   1   2  -7  236.83   11.55
  -1  -2   7  227.45   13.10
  -1  -2   7  238.71   11.62
  -1  -2   7  240.63   11.31
   0   2  -7   74.24    3.80
   0   2  -7   71.02    3.76
   0   2  -7   70.57    4.80
   0   2  -7   66.27    4.41
   0   2  -7   77.31    4.08
   0  -2   7   77.90    3.86
   0  -2   7   74.83    4.48
   0  -2   7   76.59    3.71
   0  -2   7   70.43    3.86
  -1   2  -7    7.60    0.90
  -1   2  -7   10.61    1.60
  -1   2  -7    8.94    0.84
   1  -2   7    9.78    0.97
   1  -2   7    9.08    0.77
   1  -2   7    9.98    0.97
   1  -2   7    8.78    1.30
  -2   2  -7  103.21    6.74
  -2   2  -7  109.47    5.49
  -2   2  -7  104.88    5.46
   2  -2   7  116.17    6.40
   2  -2   7  101.60    5.54
   2  -2   7  111.82    5.33
  -3   2  -7   84.45    4.50
  -3   2  -7   85.36    5.45
  -3   2  -7   82.86    4.84
   3  -2   7   86.30    4.55
  -4   2  -7   21.03    1.87
  -4   2  -7   18.02    2.31
  -4   2  -7   17.71    1.72
   4  -2   7   14.11    1.77
   4  -2   7   16.54    1.67
   4  -2   7   14.37    2.13
  -5   2  -7  105.32    6.84
  -5   2  -7  106.65    5.50
  -5   2  -7  103.81    5.84
   5  -2   7   98.14    5.64
   5  -2   7  101.30    6.15
   5  -2   7   96.45    6.26
  -6   2  -7    6.64    1.77
  -6   2  -7    4.81    1.75
   6  -2   7    1.33    1.68
   6  -2   7    4.25    1.99
   7   1  -7   -0.10    1.70
   7   1  -7    2.24    2.26
  -7  -1   7   -0.54    1.74
   6   1  -7   12.10    1.96
   6   1  -7   10.50    2.26
   6   1  -7   11.78    1.72
  -6  -1   7   11.81    1.72
  -6  -1   7    9.08    1.76
   5   1  -7  109.72    6.61
   5   1  -7  102.36    6.50
   5   1  -7  104.68    5.59
   5   1  -7  106.29    5.51
  -5  -1   7  108.08    5.54
  -5  -1   7   93.43    5.55
  -5  -1   7  106.90    6.19
   4   1  -7   29.88    2.21
   4   1  -7   27.90    1.93
   4   1  -7   28.47    2.52
   4   1  -7   27.56    1.95
  -4  -1   7   29.26    1.98
  -4  -1   7   28.53    2.21
  -4  -1   7   28.80    2.04
   3   1  -7   37.06    2.37
   3   1  -7   43.21    2.42
   3   1  -7   37.45    3.00
   3   1  -7   44.91    2.72
  -3  -1   7   39.98    2.82
  -3  -1   7   43.70    2.51
  -3  -1   7   47.72    2.41
   2   1  -7  150.44    7.37
   2   1  -7  148.43    8.78
   2   1  -7  137.06    8.58
   2   1  -7  160.02    7.51
  -2  -1   7  144.83    8.57
  -2  -1   7  162.05    7.37
  -2  -1   7  145.52    7.54
   1   1  -7   49.47    2.63
   1   1  -7   52.40    3.35
   1   1  -7   48.56    3.22
   1   1  -7   50.91    2.63
   1   1  -7   50.76    2.64
  -1  -1   7   51.41    2.71
  -1  -1   7   49.67    2.71
  -1  -1   7   51.94    2.60
  -1  -1   7   48.99    3.23
   0   1  -7  121.52    7.56
   0   1  -7  115.15    6.15
   0   1  -7  141.96    7.03
   0   1  -7  120.80    6.23
   0   1  -7  136.29    6.15
   0   1  -7  116.02    7.19
   0  -1   7  121.50    7.21
   0  -1   7  133.07    6.31
   0  -1   7  119.15    6.29
  -1   1  -7   53.86    2.88
  -1   1  -7   55.38    2.86
  -1   1  -7   50.57    3.79
  -1   1  -7   58.98    3.14
   1  -1   7   54.13    2.97
   1  -1   7   54.67    3.52
   1  -1   7   56.38    2.94
  -2   1  -7   90.01    4.71
  -2   1  -7   96.33    5.22
  -2   1  -7   96.71    5.95
   2  -1   7   91.16    4.77
   2  -1   7   90.77    5.53
   2  -1   7   90.31    5.78
  -3   1  -7   49.38    3.68
  -3   1  -7   50.30    3.06
  -3   1  -7   48.07    2.83
   3  -1   7   48.25    3.41
   3  -1   7   46.91    2.78
   3  -1   7   48.50    3.26
  -4   1  -7    2.81    1.76
  -4   1  -7    4.64    1.29
  -4   1  -7    4.16    1.19
   4  -1   7    3.57    1.24
   4  -1   7    3.36    1.16
   4  -1   7    2.45    1.76
  -5   1  -7   62.96    4.57
  -5   1  -7   59.15    3.59
   5  -1   7   56.53    4.24
   5  -1   7   53.44    3.57
  -6   1  -7   27.25    2.62
  -6   1  -7   30.80    3.42
   6  -1   7   25.66    3.01
   6  -1   7   28.72    2.67
   7  -1   7   -0.69    1.55
   7   0  -7   26.58    3.01
   7   0  -7   27.48    2.54
   7   0  -7   25.42    3.01
  -7   0   7   29.82    2.33
   6   0  -7    3.73    1.83
   6   0  -7    3.35    1.32
   6   0  -7   -0.76    1.62
  -6   0   7    5.00    1.32
  -6   0   7    3.84    1.42
   5   0  -7   48.63    3.43
   5   0  -7   49.49    3.62
   5   0  -7   54.29    2.96
  -5   0   7   45.73    3.05
  -5   0   7   49.39    3.34
  -5   0   7   48.05    2.94
   4   0  -7  123.88    7.25
   4   0  -7  108.49    7.01
   4   0  -7  118.75    6.10
   4   0  -7  116.66    5.98
  -4   0   7  122.71    6.00
  -4   0   7  113.17    6.15
  -4   0   7  126.73    6.99
   3   0  -7  104.25    5.11
   3   0  -7   95.53    5.00
   3   0  -7   99.99    5.96
   3   0  -7   98.03    6.12
   3   0  -7   97.05    5.83
  -3   0   7  100.45    5.91
  -3   0   7   97.68    5.16
  -3   0   7  106.18    5.02
   2   0  -7  115.45    5.53
   2   0  -7  109.83    6.42
   2   0  -7  110.48    5.43
   2   0  -7  101.61    6.51
  -2   0   7  111.90    5.58
  -2   0   7  110.75    6.44
   1   0  -7    8.03    0.70
   1   0  -7   10.41    1.32
   1   0  -7    9.24    1.29
   1   0  -7    9.76    0.70
   1   0  -7   10.03    0.68
  -1   0   7    9.67    0.77
  -1   0   7    6.50    0.97
  -1   0   7    9.53    0.59
  -1   0   7    8.41    0.78
   0   0  -7  157.44    9.18
   0   0  -7  169.16    7.53
   0   0  -7  166.13    7.63
   0   0  -7  140.28    8.81
   0   0  -7  148.17    7.51
   0   0   7  151.12    8.85
   0   0   7  151.55    7.68
  -1   0  -7   87.16    4.58
  -1   0  -7   89.71    5.83
  -1   0  -7   98.77    5.29
   1   0   7   94.71    5.51
   1   0   7   95.11    4.68
   1   0   7   89.99    5.69
  -2   0  -7   39.74    2.40
  -2   0  -7   39.52    2.21
  -2   0  -7   37.95    2.98
  -2   0  -7   41.42    2.48
   2   0   7   38.05    2.92
   2   0   7   41.02    2.64
   2   0   7   39.59    2.23
  -3   0  -7  175.06    9.14
  -3   0  -7  177.64   10.38
  -3   0  -7  168.46    8.50
  -3   0  -7  176.28    9.69
   3   0   7  159.81    9.97
   3   0   7  177.24    8.65
   3   0   7  163.20    9.76
  -4   0  -7   78.48    5.50
  -4   0  -7   78.49    4.35
   4   0   7   81.47    5.38
   4   0   7   75.88    4.37
   4   0   7   82.89    4.85
  -5   0  -7   -0.46    1.30
  -5   0  -7    4.21    2.15
   5   0   7   -1.06    1.55
   5   0   7    2.63    2.06
  -6   0  -7   46.41    3.27
  -6   0  -7   47.26    4.60
   6   0   7   41.18    3.97
   7   0   7    3.19    1.84
   8  -1  -7    6.34    1.80
   7  -1  -7   89.81    5.92
   7  -1  -7   82.10    4.79
   7  -1  -7   85.59    5.65
  -7   1   7   83.18    4.83
   6  -1  -7   14.86    2.07
   6  -1  -7   11.00    1.51
   6  -1  -7   16.92    2.18
  -6   1   7   10.88    1.64
  -6   1   7   12.31    1.77
   5  -1  -7   10.32    1.06
   5  -1  -7   11.35    1.72
   5  -1  -7    9.43    1.44
  -5   1   7   12.13    1.63
  -5   1   7   11.63    1.38
   4  -1  -7  108.82    6.75
   4  -1  -7  118.53    7.11
   4  -1  -7  113.92    5.75
  -4   1   7  120.29    6.82
  -4   1   7  112.90    5.94
   3  -1  -7    3.24    1.19
   3  -1  -7    3.84    0.70
   3  -1  -7    4.25    0.67
   3  -1  -7    4.10    0.95
  -3   1   7    6.65    0.99
  -3   1   7    5.01    0.73
   2  -1  -7   23.33    1.80
   2  -1  -7   23.41    1.80
   2  -1  -7   23.85    1.35
  -2   1   7   20.65    1.34
  -2   1   7   23.52    1.35
  -2   1   7   23.42    1.77
   1  -1  -7  133.49    7.68
   1  -1  -7  128.58    6.25
   1  -1  -7  131.29    6.26
   1  -1  -7  124.91    7.42
  -1   1   7  127.69    7.48
  -1   1   7  129.64    6.39
   0  -1  -7    1.50    1.18
   0  -1  -7    3.23    0.37
   0  -1  -7    1.95    0.34
   0   1   7    1.86    0.77
   0   1   7    1.12    1.42
   0   1   7    1.76    0.29
   0   1   7    2.59    0.61
   0   1   7    4.46    0.41
  -1  -1  -7  163.59    9.52
  -1  -1  -7  163.55    8.18
  -1  -1  -7  164.32    8.87
  -1  -1  -7  177.37   10.13
   1   1   7  172.65    9.98
   1   1   7  175.90    8.33
   1   1   7  173.16    9.65
  -2  -1  -7   22.84    1.57
  -2  -1  -7   23.91    2.12
  -2  -1  -7   21.82    1.42
   2   1   7   22.34    1.39
   2   1   7   24.39    1.79
   2   1   7   24.71    2.25
  -3  -1  -7   22.64    1.68
  -3  -1  -7   23.14    1.96
  -3  -1  -7   24.64    2.39
   3   1   7   23.90    2.76
   3   1   7   27.75    2.03
   3   1   7   24.75    1.59
  -4  -1  -7   73.51    5.05
  -4  -1  -7   63.92    3.76
   4   1   7   68.47    3.76
   4   1   7   62.40    4.80
  -5  -1  -7   14.95    1.79
  -5  -1  -7   15.06    2.61
   5   1   7   14.22    1.89
   5   1   7   13.91    2.14
   6   1   7   16.47    2.44
   7   1   7   42.19    4.16
   8  -2  -7   12.25    2.74
   8  -2  -7   21.05    2.58
   7  -2  -7   -1.35    1.72
   7  -2  -7    3.47    2.01
   7  -2  -7   -0.55    1.38
  -7   2   7    0.29    1.49
   6  -2  -7  104.67    6.80
   6  -2  -7  114.53    5.89
   6  -2  -7  119.24    7.33
  -6   2   7  116.15    6.09
  -6   2   7  110.83    6.78
   5  -2  -7   16.95    2.03
   5  -2  -7   14.37    1.78
   5  -2  -7   13.94    1.38
  -5   2   7   13.22    1.55
  -5   2   7   15.48    1.55
   4  -2  -7   50.77    2.80
   4  -2  -7   55.22    3.75
   4  -2  -7   57.05    3.52
  -4   2   7   51.20    3.56
  -4   2   7   48.54    2.91
   3  -2  -7  179.51   10.48
   3  -2  -7  185.23   10.09
   3  -2  -7  174.97    8.54
   3  -2  -7  179.44    9.93
  -3   2   7  169.99   10.10
  -3   2   7  167.47    8.75
   2  -2  -7   15.75    1.42
   2  -2  -7   13.36    1.52
   2  -2  -7   13.38    0.89
  -2   2   7   13.33    1.57
  -2   2   7   13.53    0.88
   1  -2  -7  118.96    5.43
   1  -2  -7  115.23    6.79
   1  -2  -7  112.18    6.55
   1  -2  -7  110.69    5.41
  -1   2   7  104.16    6.78
  -1   2   7  105.03    6.61
  -1   2   7  119.08    6.26
   0  -2  -7  133.31    6.28
   0  -2  -7  137.25    7.99
   0  -2  -7  134.23    6.30
   0   2   7  125.94    7.81
   0   2   7  120.81    7.61
   0   2   7  136.11    7.21
  -1  -2  -7    6.56    1.03
  -1  -2  -7   10.64    1.68
  -1  -2  -7    4.81    0.49
   1   2   7    6.47    1.25
   1   2   7    3.44    1.30
  -2  -2  -7  161.22    9.82
  -2  -2  -7  167.01    9.26
  -2  -2  -7  158.30    7.89
   2   2   7  150.96    9.54
   2   2   7  168.35    9.28
  -3  -2  -7   26.32    1.95
  -3  -2  -7   29.56    2.36
  -3  -2  -7   30.56    2.68
   3   2   7   26.00    2.20
   3   2   7   29.75    3.03
   3   2   7   30.88    1.82
  -4  -2  -7   18.12    1.75
  -4  -2  -7   15.09    2.15
   4   2   7   14.03    2.18
   4   2   7   19.46    1.53
  -5  -2  -7   41.37    3.02
   5   2   7   38.21    3.76
   6   2   7    1.36    1.90
   7   2   7    2.94    2.84
   7  -3  -7   13.14    2.48
   7  -3  -7   12.43    1.69
   7  -3  -7   14.83    2.03
  -7   3   7    9.47    1.77
   6  -3  -7   40.76    3.05
   6  -3  -7   39.61    3.46
   6  -3  -7   38.20    2.53
  -6   3   7   40.05    3.23
  -6   3   7   41.61    2.73
   5  -3  -7  101.88    6.43
   5  -3  -7  105.09    6.04
   5  -3  -7   97.82    5.16
  -5   3   7   93.32    6.10
  -5   3   7  105.23    5.36
   4  -3  -7   10.00    1.01
   4  -3  -7   10.80    1.45
   4  -3  -7   10.42    1.71
  -4   3   7   10.62    1.45
  -4   3   7   13.01    1.25
   3  -3  -7   25.19    2.05
   3  -3  -7   24.20    2.04
   3  -3  -7   22.16    1.42
   3  -3  -7   27.44    1.79
  -3   3   7   23.29    1.47
  -3   3   7   21.80    2.22
   2  -3  -7  197.90   12.75
   2  -3  -7  207.54   12.09
   2  -3  -7  236.43   12.60
  -2   3   7  213.66   12.38
  -2   3   7  216.05   12.36
  -2   3   7  233.52   11.83
   1  -3  -7   14.62    1.50
   1  -3  -7   12.95    1.50
  -1   3   7   15.06    1.46
  -1   3   7   12.24    1.66
  -1   3   7   15.18    1.93
   0  -3  -7   71.74    4.35
   0   3   7   68.18    4.44
   0   3   7   68.66    4.76
   0   3   7   71.26    4.10
  -1  -3  -7   11.24    1.39
  -1  -3  -7   11.53    1.45
   1   3   7    9.70    1.69
   1   3   7   13.41    1.27
   1   3   7    7.34    1.47
  -2  -3  -7   34.03    1.99
  -2  -3  -7   35.93    2.67
   2   3   7   35.07    2.53
   2   3   7   30.40    3.19
  -3  -3  -7   32.06    3.27
  -3  -3  -7   29.09    2.03
  -3  -3  -7   34.02    2.70
   3   3   7   30.10    3.32
  -4  -3  -7    2.35    2.27
   4   3   7    2.61    2.51
   5   3   7   23.42    3.53
   6   3   7   28.02    3.29
   7  -4  -7   71.67    4.31
   7  -4  -7   87.84    5.65
  -7   4   7   70.16    4.47
   6  -4  -7    2.13    1.31
   6  -4  -7    3.27    1.20
   6  -4  -7    2.56    1.93
  -6   4   7    1.36    1.90
  -6   4   7    5.28    1.23
   5  -4  -7   86.14    5.95
   5  -4  -7   95.06    4.69
   5  -4  -7  100.93    5.43
  -5   4   7   86.91    4.77
  -5   4   7   76.27    5.67
   4  -4  -7  111.83    5.74
   4  -4  -7  112.78    7.13
   4  -4  -7  124.50    6.72
  -4   4   7  105.88    6.98
  -4   4   7  119.36    5.92
   3  -4  -7   36.06    2.64
   3  -4  -7   36.76    2.53
   3  -4  -7   34.97    1.93
  -3   4   7   33.94    1.93
  -3   4   7   30.45    2.86
  -3   4   7   37.03    2.60
  -3   4   7   35.89    2.77
   2  -4  -7   96.03    6.04
   2  -4  -7   96.37    5.75
   2  -4  -7   95.86    4.72
  -2   4   7  101.11    6.03
  -2   4   7   94.25    5.93
  -2   4   7  107.62    5.76
   1  -4  -7   84.90    5.12
   1  -4  -7   87.77    5.44
  -1   4   7   95.20    5.61
  -1   4   7   80.18    5.30
  -1   4   7   88.50    5.10
   0  -4  -7   44.25    3.06
   0  -4  -7   37.01    2.94
   0   4   7   43.45    2.78
   0   4   7   38.52    3.27
   0   4   7   39.18    3.03
  -1  -4  -7   51.78    3.82
  -1  -4  -7   57.73    3.65
   1   4   7   62.04    3.81
   1   4   7   53.67    4.31
  -2  -4  -7   40.40    2.95
   2   4   7   40.23    3.47
  -3  -4  -7   56.02    3.77
   3   4   7   48.87    4.67
   4   4   7    9.86    2.36
   5   4   7   -3.41    1.96
   6   4   7   10.55    3.50
   7  -5  -7   60.52    3.72
   7  -5  -7   58.90    4.87
  -7   5   7   64.90    3.84
   6  -5  -7   43.64    3.96
   6  -5  -7   44.23    2.84
  -6   5   7   51.33    2.99
   5  -5  -7    1.72    1.75
   5  -5  -7    1.93    0.88
  -5   5   7    2.20    1.12
  -5   5   7    2.52    1.88
   4  -5  -7   84.27    5.61
   4  -5  -7   78.75    4.42
   4  -5  -7   88.21    5.31
  -4   5   7   91.49    4.57
  -4   5   7  100.05    5.49
  -4   5   7   85.89    5.70
   3  -5  -7   64.50    4.28
   3  -5  -7   60.37    3.14
   3  -5  -7   64.99    3.85
  -3   5   7   63.17    3.92
  -3   5   7   58.03    4.00
  -3   5   7   59.78    4.12
   2  -5  -7   14.93    1.77
   2  -5  -7   15.01    1.98
   2  -5  -7   12.77    1.46
  -2   5   7   14.82    1.69
  -2   5   7   14.66    1.84
  -2   5   7   10.93    2.00
   1  -5  -7   65.07    4.39
   1  -5  -7   65.56    4.19
   1  -5  -7   74.22    4.54
  -1   5   7   67.32    4.52
  -1   5   7   65.31    4.48
  -1   5   7   70.53    4.13
   0  -5  -7    2.39    1.10
   0  -5  -7    1.86    1.43
   0  -5  -7    0.99    1.46
   0   5   7    1.62    2.07
   0   5   7    1.35    1.09
   0   5   7    1.22    1.34
  -1  -5  -7   33.49    2.88
   1   5   7   30.28    2.65
   1   5   7   29.89    3.46
  -2  -5  -7   15.52    2.18
   2   5   7   13.72    3.06
  -3  -5  -7    1.41    1.92
   3   5   7   -0.13    2.00
   4   5   7   50.24    4.95
   5   5   7    3.12    2.43
   7  -6  -7    2.28    2.11
   7  -6  -7    1.77    1.32
  -7   6   7    1.18    1.34
   6  -6  -7   98.00    6.67
   6  -6  -7   98.53    5.19
   5  -6  -7    2.38    1.13
   5  -6  -7    6.50    1.99
  -5   6   7    3.79    0.95
   4  -6  -7   53.15    3.83
   4  -6  -7   56.50    3.02
   4  -6  -7   59.29    3.97
  -4   6   7   51.11    3.99
  -4   6   7   57.05    4.00
   3  -6  -7   93.24    5.84
   3  -6  -7   92.68    5.84
  -3   6   7   88.52    5.58
  -3   6   7   94.97    5.70
  -3   6   7   88.99    5.84
   2  -6  -7    2.82    1.71
   2  -6  -7   -0.82    0.88
  -2   6   7    0.04    1.62
  -2   6   7   -0.24    1.08
  -2   6   7    0.23    1.77
   1  -6  -7   26.25    2.33
   1  -6  -7   26.78    2.42
   1  -6  -7   28.02    2.79
  -1   6   7   25.54    2.27
  -1   6   7   30.06    2.78
  -1   6   7   27.76    2.58
   0  -6  -7  108.19    6.70
   0  -6  -7  112.24    6.60
   0   6   7  116.32    6.46
   0   6   7   98.69    7.02
   0   6   7  104.79    6.72
  -1  -6  -7    2.47    1.90
   1   6   7    3.19    1.95
  -2  -6  -7   31.92    3.35
   2   6   7   35.68    4.14
   3   6   7   11.22    3.51
   4   6   7    4.28    3.54
  -7   7   7    0.47    1.29
   6  -7  -7    8.04    1.74
   6  -7  -7    5.71    2.38
   6  -7  -7    6.23    1.48
  -6   7   7    3.48    1.17
   5  -7  -7   52.96    4.20
   5  -7  -7   51.43    4.07
   5  -7  -7   51.93    3.02
  -5   7   7   49.02    4.05
   4  -7  -7    5.03    1.98
   4  -7  -7    5.41    1.85
  -4   7   7    4.45    1.55
   3  -7  -7   38.20    3.61
   3  -7  -7   49.34    3.54
  -3   7   7   50.52    3.42
  -3   7   7   40.51    3.18
   2  -7  -7   35.63    2.98
  -2   7   7   34.76    2.79
  -2   7   7   36.73    3.20
   1  -7  -7    8.81    1.70
   1  -7  -7    6.63    1.64
  -1   7   7   10.75    2.48
  -1   7   7    8.70    2.06
   0  -7  -7   42.47    3.77
   0   7   7   42.51    3.51
   0   7   7   45.18    4.32
   1   7   7   15.54    2.69
   2   7   7    9.78    3.59
   3   7   7   24.29    3.58
   5  -8  -7   47.43    3.96
  -5   8   7   43.77    3.76
   4  -8  -7   29.51    3.24
   4  -8  -7   23.03    2.78
  -4   8   7   27.22    2.97
   3  -8  -7   12.30    2.02
  -3   8   7    9.79    2.37
   2  -8  -7   56.52    4.35
   2  -8  -7   64.73    4.72
  -2   8   7   62.98    4.57
  -2   8   7   59.47    4.44
   1  -8  -7   20.96    2.87
  -1   8   7   20.88    3.20
  -1   8   7   26.65    2.85
   0   8   7   19.89    3.41
   0   8   7    9.01    2.43
   1   8   7   42.59    4.81
   2   8   7   -6.34    3.50
  -5   9   7    4.37    2.60
  -4   9   7   26.19    3.16
  -3   9   7   18.79    2.40
  -2   9   7   34.49    3.42
  -2   9   7   34.28    3.60
  -1   9   7   25.14    3.43
  -1   9   7   14.36    2.83
   0   9   7    0.70    3.14
   0   9   7    1.73    2.44
   1   9   7   21.66    3.01
   1   9   7   17.88    4.06
  -5  10   7    4.75    2.08
  -4  10   7    4.65    2.74
  -3  10   7   25.63    3.35
  -2  10   7    1.44    2.59
  -1  10   7   21.64    2.93
  -1  10   7   18.53    3.17
   0  10   7    6.38    3.37
   0  10   7   11.08    2.78
  -6  11   7    1.17    2.89
  -5  11   7   38.22    3.45
  -4  11   7   -0.94    2.66
  -3  11   7    6.42    2.94
   0  10  -8   31.26    3.10
   0 -10   8   32.79    2.79
   0 -10   8   26.46    2.63
  -1  10  -8    9.90    2.28
  -1  10  -8   12.82    1.85
   1 -10   8   15.12    2.41
   1 -10   8   10.71    2.29
  -2  10  -8   18.24    2.53
  -2  10  -8   19.37    2.62
  -2  10  -8   20.49    3.52
   2 -10   8   21.42    3.08
   2 -10   8   19.97    2.70
   2 -10   8   18.10    2.09
  -3  10  -8   38.86    3.51
  -3  10  -8   38.67    3.42
   3 -10   8   41.27    3.23
   3 -10   8   40.25    3.40
   3 -10   8   41.92    3.97
  -4  10  -8   -1.69    2.07
  -4  10  -8    3.55    1.70
   4 -10   8    0.56    1.51
   4 -10   8    1.76    2.42
   5 -10   8   23.88    2.98
   2   9  -8   39.80    2.96
   1   9  -8    1.53    1.94
   1   9  -8    7.76    2.08
  -1  -9   8    3.56    2.00
  -1  -9   8    1.75    2.12
  -1  -9   8    5.07    2.33
   0   9  -8   16.79    2.21
   0   9  -8   15.57    2.22
   0  -9   8   12.80    2.61
   0  -9   8   13.58    1.79
   0  -9   8   11.05    2.27
  -1   9  -8   26.86    2.74
  -1   9  -8   26.81    3.67
  -1   9  -8   31.28    2.76
   1  -9   8   28.47    2.73
   1  -9   8   23.67    2.19
   1  -9   8   22.89    2.61
  -2   9  -8    3.19    2.62
  -2   9  -8    9.53    1.55
  -2   9  -8    8.62    2.05
   2  -9   8    5.86    1.94
   2  -9   8    8.75    1.87
   2  -9   8    5.19    2.05
  -3   9  -8   46.27    3.93
  -3   9  -8   41.95    3.28
  -3   9  -8   39.87    2.94
   3  -9   8   33.93    3.10
   3  -9   8   38.12    3.06
   3  -9   8   39.33    3.68
  -4   9  -8   30.62    3.08
  -4   9  -8   29.91    2.99
  -4   9  -8   22.02    2.95
   4  -9   8   29.57    2.95
   4  -9   8   29.95    2.73
   4  -9   8   31.66    2.81
  -5   9  -8    2.02    1.52
  -5   9  -8    1.28    2.52
  -5   9  -8    2.81    1.70
   5  -9   8    3.13    1.55
   3   8  -8   -1.34    2.42
   3   8  -8    2.09    1.99
  -3  -8   8   -0.94    2.08
   2   8  -8    0.13    1.78
   2   8  -8    0.49    1.82
   2   8  -8    0.74    1.57
  -2  -8   8    2.10    1.35
  -2  -8   8   -0.49    1.93
   1   8  -8  101.81    5.78
   1   8  -8  105.53    5.90
   1   8  -8  110.71    6.71
  -1  -8   8  102.62    5.64
  -1  -8   8  102.36    5.98
  -1  -8   8   96.96    6.57
   0   8  -8    3.20    1.81
   0   8  -8    1.29    1.67
   0   8  -8    5.63    1.85
   0   8  -8    3.61    1.64
   0  -8   8    4.79    1.35
   0  -8   8    4.97    1.51
   0  -8   8    5.93    1.29
  -1   8  -8   35.16    2.80
  -1   8  -8   32.76    2.73
  -1   8  -8   31.45    3.70
  -1   8  -8   40.51    2.95
   1  -8   8   31.40    2.87
   1  -8   8   32.43    2.40
   1  -8   8   28.23    3.16
  -2   8  -8   86.22    5.19
  -2   8  -8   95.06    6.32
  -2   8  -8   94.41    5.67
  -2   8  -8   89.87    5.16
   2  -8   8   95.17    5.70
   2  -8   8   85.01    5.09
   2  -8   8   88.58    5.32
  -3   8  -8    4.50    1.84
  -3   8  -8    3.09    1.73
  -3   8  -8    6.25    2.52
   3  -8   8    5.19    1.27
   3  -8   8    1.94    1.31
   3  -8   8    2.52    1.90
  -4   8  -8   40.66    3.26
  -4   8  -8   41.74    4.03
  -4   8  -8   40.57    3.21
   4  -8   8   46.28    3.50
   4  -8   8   38.37    2.83
   4  -8   8   38.51    3.36
  -5   8  -8   22.77    2.29
  -5   8  -8   21.56    2.28
  -5   8  -8   28.20    2.91
  -5   8  -8   24.01    2.82
   5  -8   8   26.06    2.59
  -6   8  -8    3.89    1.65
   4   7  -8    7.48    1.76
   4   7  -8    8.59    2.31
  -4  -7   8   12.40    2.23
   3   7  -8   82.20    4.81
   3   7  -8   79.39    4.92
   3   7  -8   82.40    5.99
  -3  -7   8   86.56    5.20
  -3  -7   8   87.62    5.02
   2   7  -8    6.79    2.25
   2   7  -8    5.40    1.27
   2   7  -8    5.65    1.74
  -2  -7   8    4.05    1.71
  -2  -7   8    7.75    1.91
  -2  -7   8    4.18    1.39
   1   7  -8   12.47    2.23
   1   7  -8   13.65    2.07
   1   7  -8   11.71    1.83
   1   7  -8   15.25    1.81
  -1  -7   8   11.71    1.77
  -1  -7   8   12.09    1.55
   0   7  -8  112.04    7.40
   0   7  -8  112.74    5.84
   0   7  -8  109.71    6.78
   0   7  -8  108.45    6.01
   0  -7   8  107.34    6.59
   0  -7   8  106.29    6.12
   0  -7   8  115.72    5.92
  -1   7  -8    1.63    1.46
  -1   7  -8    1.85    1.01
  -1   7  -8    0.03    1.51
  -1   7  -8    1.62    2.14
   1  -7   8    2.19    1.09
   1  -7   8    2.65    1.36
   1  -7   8    0.60    1.65
  -2   7  -8   23.82    3.04
  -2   7  -8   24.90    2.00
  -2   7  -8   25.90    1.94
  -2   7  -8   27.41    2.50
   2  -7   8   20.98    1.98
   2  -7   8   22.13    2.15
   2  -7   8   22.01    2.42
  -3   7  -8   40.92    3.64
  -3   7  -8   45.98    3.17
  -3   7  -8   47.35    3.29
  -3   7  -8   41.46    3.01
   3  -7   8   47.57    3.34
   3  -7   8   43.48    2.99
   3  -7   8   39.40    2.92
  -4   7  -8   16.38    2.25
  -4   7  -8   20.77    2.15
  -4   7  -8   18.48    2.32
  -4   7  -8   16.02    1.71
   4  -7   8   19.85    2.09
   4  -7   8   16.86    2.31
   4  -7   8   20.37    2.18
  -5   7  -8   19.94    2.14
  -5   7  -8   22.72    3.07
  -5   7  -8   21.88    2.19
   5  -7   8   23.58    2.37
  -6   7  -8    4.73    1.65
  -6   7  -8    3.15    2.47
  -6   7  -8    5.02    1.61
   4   6  -8    7.35    1.91
   4   6  -8   10.01    1.97
   4   6  -8    8.36    2.73
  -4  -6   8    9.79    2.12
  -4  -6   8    5.83    1.93
   3   6  -8   46.94    4.24
   3   6  -8   52.40    3.39
   3   6  -8   48.99    3.10
  -3  -6   8   46.13    3.52
  -3  -6   8   56.08    3.44
   2   6  -8   83.28    4.59
   2   6  -8   84.11    5.53
   2   6  -8   81.22    4.62
  -2  -6   8   78.55    4.57
  -2  -6   8   81.43    4.59
  -2  -6   8   76.78    4.96
   1   6  -8    2.27    1.82
   1   6  -8   -2.57    1.62
   1   6  -8    0.22    1.24
   1   6  -8    0.94    1.32
  -1  -6   8    0.07    1.27
  -1  -6   8    0.26    1.35
   0   6  -8  153.25    7.84
   0   6  -8  148.26    8.77
   0   6  -8  153.00    7.72
   0   6  -8  151.97    9.32
   0  -6   8  145.67    7.59
   0  -6   8  153.08    7.94
  -1   6  -8   59.72    3.19
  -1   6  -8   53.32    4.10
  -1   6  -8   52.75    3.66
  -1   6  -8   58.17    3.37
   1  -6   8   47.28    3.33
   1  -6   8   54.48    3.75
   1  -6   8   55.11    3.22
  -2   6  -8   11.78    1.36
  -2   6  -8   11.08    1.48
  -2   6  -8   15.86    2.46
  -2   6  -8   10.61    1.76
   2  -6   8   11.19    1.59
   2  -6   8   10.02    1.69
   2  -6   8   10.21    1.45
  -3   6  -8   70.52    4.96
  -3   6  -8   69.02    4.11
  -3   6  -8   69.81    4.05
  -3   6  -8   70.41    4.57
   3  -6   8   68.62    4.03
   3  -6   8   67.24    3.91
  -4   6  -8   37.80    2.91
  -4   6  -8   31.36    3.32
  -4   6  -8   29.84    2.72
  -4   6  -8   31.23    2.57
   4  -6   8   29.37    2.73
  -5   6  -8   16.32    2.21
  -5   6  -8   14.35    2.24
  -5   6  -8   18.58    2.28
   5  -6   8   16.29    1.94
  -6   6  -8   28.51    3.02
  -6   6  -8   34.02    3.60
  -6   6  -8   32.58    3.05
   6  -6   8   30.23    3.08
   5   5  -8   41.20    4.04
   5   5  -8   35.25    2.98
   5   5  -8   30.59    2.49
  -5  -5   8   31.99    2.99
  -5  -5   8   28.89    3.02
  -5  -5   8   37.13    3.55
   4   5  -8   67.69    5.02
   4   5  -8   62.31    3.79
   4   5  -8   69.09    3.88
  -4  -5   8   63.16    3.83
  -4  -5   8   71.01    4.49
  -4  -5   8   59.57    4.17
   3   5  -8    0.20    1.10
   3   5  -8   -0.98    0.93
   3   5  -8    1.45    1.97
   3   5  -8    1.72    1.41
  -3  -5   8   -0.35    1.40
  -3  -5   8    2.18    1.17
  -3  -5   8    2.58    1.11
  -3  -5   8    1.04    1.38
   2   5  -8  102.25    5.72
   2   5  -8  116.25    6.73
   2   5  -8  101.77    5.64
   2   5  -8  105.63    6.55
  -2  -5   8  109.22    5.65
  -2  -5   8  108.50    5.86
  -2  -5   8  102.40    6.34
  -2  -5   8  110.80    6.39
   1   5  -8   26.45    1.80
   1   5  -8   28.84    2.76
   1   5  -8   25.69    1.98
   1   5  -8   26.74    2.58
  -1  -5   8   24.38    2.11
  -1  -5   8   26.66    2.00
  -1  -5   8   23.83    2.19
   0   5  -8    3.47    1.79
   0   5  -8    4.33    1.07
   0   5  -8    2.16    1.11
   0   5  -8    3.84    1.47
   0  -5   8    3.08    1.05
   0  -5   8    3.58    1.17
  -1   5  -8   67.14    3.86
  -1   5  -8   67.51    4.82
  -1   5  -8   79.53    4.47
  -1   5  -8   68.54    3.88
   1  -5   8   67.05    3.95
   1  -5   8   68.08    3.77
  -2   5  -8    9.54    1.36
  -2   5  -8   10.74    1.29
  -2   5  -8    9.29    1.41
  -2   5  -8    6.48    2.04
   2  -5   8    9.94    1.43
   2  -5   8   11.47    1.27
  -3   5  -8   27.45    2.32
  -3   5  -8   29.45    2.65
  -3   5  -8   28.06    2.11
  -3   5  -8   25.94    2.94
   3  -5   8   27.44    2.02
   3  -5   8   27.25    2.24
  -4   5  -8   50.91    3.16
  -4   5  -8   45.81    4.10
   4  -5   8   53.78    3.40
  -5   5  -8    0.31    1.65
  -5   5  -8   -2.68    2.02
  -5   5  -8   -0.27    1.19
   5  -5   8    1.49    1.75
  -6   5  -8   37.21    4.10
  -6   5  -8   49.10    3.60
  -6   5  -8   50.02    3.63
   6  -5   8   46.28    3.65
   6   4  -8   12.11    2.17
  -6  -4   8   13.33    2.72
   5   4  -8    2.55    1.23
   5   4  -8    3.30    2.42
   5   4  -8    2.26    1.67
  -5  -4   8    4.84    2.05
  -5  -4   8    4.29    1.81
  -5  -4   8    4.08    1.76
   4   4  -8   77.88    4.69
   4   4  -8   70.27    4.11
   4   4  -8   68.48    5.03
   4   4  -8   69.76    4.17
  -4  -4   8   66.63    4.26
  -4  -4   8   71.95    4.82
  -4  -4   8   68.63    3.98
   3   4  -8   14.52    1.76
   3   4  -8   13.24    2.20
   3   4  -8   17.67    1.67
   3   4  -8   15.87    1.59
  -3  -4   8   13.96    1.69
  -3  -4   8   13.41    1.76
  -3  -4   8   14.70    1.67
  -3  -4   8   13.39    1.61
   2   4  -8   71.10    4.42
   2   4  -8   62.87    4.21
   2   4  -8   65.44    3.57
   2   4  -8   63.07    3.61
  -2  -4   8   60.86    4.01
  -2  -4   8   68.87    3.60
  -2  -4   8   66.04    3.98
  -2  -4   8   54.91    3.68
   1   4  -8  143.23    8.44
   1   4  -8  143.70    8.83
   1   4  -8  147.53    7.42
   1   4  -8  133.54    7.27
  -1  -4   8  153.21    7.51
  -1  -4   8  143.06    8.40
  -1  -4   8  151.27    7.28
   0   4  -8    3.46    1.38
   0   4  -8    2.50    0.89
   0   4  -8    2.40    0.73
   0   4  -8    3.51    1.23
   0  -4   8    2.97    0.68
   0  -4   8    2.46    0.76
   0  -4   8    2.03    1.26
  -1   4  -8   73.19    4.05
  -1   4  -8   78.07    4.89
  -1   4  -8   77.49    4.13
  -1   4  -8   83.51    5.22
   1  -4   8   73.30    4.20
   1  -4   8   79.16    4.04
  -2   4  -8  165.80    8.33
  -2   4  -8  176.28    9.57
  -2   4  -8  159.19   10.04
  -2   4  -8  163.47    8.27
   2  -4   8  163.12    8.12
   2  -4   8  158.73    8.37
  -3   4  -8    1.31    1.19
  -3   4  -8    0.54    1.65
   3  -4   8   -0.35    1.14
  -4   4  -8   83.05    4.62
  -4   4  -8   71.86    5.39
  -4   4  -8   85.63    4.94
   4  -4   8   83.49    4.57
  -5   4  -8   29.36    2.65
  -5   4  -8   27.59    3.24
  -5   4  -8   24.80    2.50
   5  -4   8   29.72    2.66
  -6   4  -8   -1.45    2.25
  -6   4  -8    1.66    1.78
  -6   4  -8    1.49    1.88
   6  -4   8   -2.93    1.77
   6   3  -8   72.05    5.39
   6   3  -8   71.01    4.12
  -6  -3   8   67.22    4.59
  -6  -3   8   72.87    5.29
   5   3  -8   20.03    2.23
   5   3  -8   21.29    2.03
   5   3  -8   19.62    2.02
   5   3  -8   19.80    2.73
  -5  -3   8   17.82    1.77
  -5  -3   8   16.36    2.11
  -5  -3   8   19.74    2.53
   4   3  -8   18.06    1.74
   4   3  -8   13.38    1.95
   4   3  -8   16.48    1.54
   4   3  -8   17.27    1.80
  -4  -3   8   18.45    1.80
  -4  -3   8   19.86    1.97
  -4  -3   8   18.65    2.12
  -4  -3   8   19.69    1.85
   3   3  -8   93.02    5.04
   3   3  -8   93.02    5.98
   3   3  -8   95.34    5.03
   3   3  -8   96.71    5.87
  -3  -3   8   93.03    5.11
  -3  -3   8   95.18    5.03
  -3  -3   8  102.74    5.73
   2   3  -8    0.07    0.85
   2   3  -8    0.57    1.01
   2   3  -8   -1.28    1.11
   2   3  -8    1.39    0.90
  -2  -3   8    2.43    1.03
  -2  -3   8    2.89    1.16
  -2  -3   8    0.68    0.86
   1   3  -8   30.70    1.96
   1   3  -8   30.29    2.45
   1   3  -8   34.14    1.94
   1   3  -8   29.62    2.52
  -1  -3   8   29.29    2.03
  -1  -3   8   30.36    2.33
  -1  -3   8   29.23    1.89
   0   3  -8   96.67    4.93
   0   3  -8   95.36    4.85
   0   3  -8   95.65    5.81
   0   3  -8   93.91    6.15
   0  -3   8   92.70    5.00
   0  -3   8   98.59    4.82
   0  -3   8   93.77    5.73
  -1   3  -8   13.22    1.00
  -1   3  -8   11.77    1.44
  -1   3  -8   13.22    2.02
  -1   3  -8   13.23    1.26
   1  -3   8   12.13    1.06
   1  -3   8   11.96    1.39
   1  -3   8   12.74    1.29
  -2   3  -8   95.55    4.89
  -2   3  -8   91.95    6.13
   2  -3   8   92.89    4.96
  -3   3  -8   52.24    4.07
  -3   3  -8   51.40    3.12
   3  -3   8   53.11    3.14
  -4   3  -8   38.86    2.83
  -4   3  -8   34.70    2.64
  -4   3  -8   37.58    3.42
   4  -3   8   36.69    2.63
  -5   3  -8   67.93    4.03
  -5   3  -8   60.92    3.74
  -5   3  -8   59.57    4.92
   5  -3   8   63.70    4.16
   5  -3   8   64.29    4.01
  -6   3  -8   13.30    2.76
  -6   3  -8   11.23    2.05
  -6   3  -8   13.45    2.19
   6  -3   8   11.61    2.08
   6  -3   8   10.32    2.07
   6   2  -8   20.16    2.88
   6   2  -8   21.71    2.50
   6   2  -8   21.29    2.20
  -6  -2   8   20.25    2.31
   5   2  -8   52.81    4.11
   5   2  -8   50.13    3.04
   5   2  -8   52.95    3.75
   5   2  -8   51.99    3.03
  -5  -2   8   48.51    3.37
  -5  -2   8   47.49    3.34
   4   2  -8    2.17    0.82
   4   2  -8    2.05    1.35
   4   2  -8    1.35    1.07
   4   2  -8    0.78    1.66
  -4  -2   8    2.29    1.21
  -4  -2   8    1.55    0.80
  -4  -2   8    1.44    1.22
   3   2  -8   93.61    4.95
   3   2  -8   97.89    5.71
   3   2  -8   93.82    4.89
   3   2  -8   86.21    5.84
  -3  -2   8   93.52    5.59
  -3  -2   8  102.27    4.92
  -3  -2   8   90.93    5.04
   2   2  -8  112.65    5.53
   2   2  -8  100.76    5.42
   2   2  -8  109.63    6.49
   2   2  -8  105.63    6.53
  -2  -2   8  100.83    6.27
  -2  -2   8  111.53    5.43
  -2  -2   8  111.94    5.61
   1   2  -8   10.28    1.02
   1   2  -8   10.99    1.00
   1   2  -8    9.80    1.34
   1   2  -8   11.05    1.64
  -1  -2   8   10.61    1.11
  -1  -2   8   11.36    1.24
  -1  -2   8   12.93    1.09
   0   2  -8  220.04   12.52
   0   2  -8  219.89   10.79
   0   2  -8  216.24   13.05
   0   2  -8  233.54   10.99
   0  -2   8  236.18   10.74
   0  -2   8  196.87   12.55
   0  -2   8  227.23   11.06
  -1   2  -8   88.86    5.52
  -1   2  -8   89.85    4.60
  -1   2  -8   93.10    5.78
   1  -2   8   90.81    5.42
   1  -2   8   88.48    4.68
  -2   2  -8   50.04    3.94
  -2   2  -8   55.34    2.97
   2  -2   8   52.36    2.96
   2  -2   8   52.70    3.47
  -3   2  -8  103.03    6.60
  -3   2  -8  100.64    5.78
  -3   2  -8  105.53    5.36
   3  -2   8  104.01    5.42
   3  -2   8   99.73    6.13
  -4   2  -8   13.85    2.34
  -4   2  -8   13.56    1.59
  -4   2  -8   14.47    1.76
   4  -2   8    8.76    1.75
   4  -2   8   13.21    1.54
  -5   2  -8   37.10    3.66
  -5   2  -8   36.28    2.86
  -5   2  -8   34.30    2.45
   5  -2   8   34.55    2.68
   5  -2   8   35.88    2.71
  -6   2  -8   30.83    3.17
  -6   2  -8   29.74    2.31
   6  -2   8   24.91    2.62
   6   1  -8   25.75    2.28
   6   1  -8   25.14    2.59
   6   1  -8   25.28    2.36
  -6  -1   8   21.65    2.29
   5   1  -8   54.74    4.37
   5   1  -8   59.19    4.14
   5   1  -8   60.11    3.58
  -5  -1   8   64.52    3.91
  -5  -1   8   64.82    3.60
   4   1  -8   79.06    4.85
   4   1  -8   76.44    4.98
   4   1  -8   72.25    4.05
  -4  -1   8   74.26    4.24
  -4  -1   8   78.33    4.74
   3   1  -8    9.74    1.11
   3   1  -8    8.30    1.63
   3   1  -8   10.46    1.03
   3   1  -8    7.07    1.03
  -3  -1   8    9.68    1.20
  -3  -1   8    7.40    1.09
   2   1  -8   98.58    6.17
   2   1  -8   99.98    6.08
   2   1  -8  100.26    5.11
   2   1  -8  109.91    5.27
  -2  -1   8   99.64    6.07
  -2  -1   8  102.07    5.27
   1   1  -8   49.04    3.28
   1   1  -8   45.80    2.51
   1   1  -8   50.74    3.31
  -1  -1   8   44.79    3.15
  -1  -1   8   47.51    2.59
   0   1  -8   25.30    2.14
   0   1  -8   22.47    2.01
   0   1  -8   25.82    1.52
   0  -1   8   25.17    2.13
   0  -1   8   27.04    1.56
  -1   1  -8  111.70    5.85
  -1   1  -8  122.38    7.32
   1  -1   8  117.90    7.00
   1  -1   8  122.39    5.98
  -2   1  -8    1.86    0.93
  -2   1  -8    1.74    1.16
  -2   1  -8    0.92    0.72
   2  -1   8    2.48    1.30
   2  -1   8    0.40    0.80
  -3   1  -8   28.25    2.66
  -3   1  -8   28.96    2.01
  -3   1  -8   30.53    2.27
   3  -1   8   32.65    2.29
   3  -1   8   30.02    1.97
   3  -1   8   24.98    2.94
  -4   1  -8  105.37    6.88
  -4   1  -8  101.99    5.43
  -4   1  -8  102.37    5.83
   4  -1   8   97.87    6.44
   4  -1   8  100.39    5.47
   4  -1   8  104.88    6.22
  -5   1  -8    2.17    1.39
  -5   1  -8    1.99    1.60
   5  -1   8    1.75    1.55
   5  -1   8    1.53    1.33
   6  -1   8   32.41    3.53
   6  -1   8   31.08    2.81
   7   0  -8   46.50    3.82
   7   0  -8   45.30    3.21
   7   0  -8   46.72    3.79
  -7   0   8   37.16    2.94
   6   0  -8   30.46    2.30
   6   0  -8   25.24    2.58
   6   0  -8   27.00    2.90
  -6   0   8   31.51    2.45
  -6   0   8   27.62    2.49
   5   0  -8   -0.34    1.06
   5   0  -8   -0.63    1.65
   5   0  -8    0.76    1.56
  -5   0   8   -2.10    1.32
  -5   0   8    0.52    1.19
   4   0  -8  130.98    6.72
   4   0  -8  133.27    8.16
   4   0  -8  140.80    7.89
  -4   0   8  129.86    7.80
  -4   0   8  135.81    6.93
   3   0  -8   79.80    4.51
   3   0  -8   68.53    3.81
   3   0  -8   73.14    4.82
   3   0  -8   74.82    4.72
  -3   0   8   68.69    4.59
  -3   0   8   77.47    3.95
   2   0  -8   35.94    2.72
   2   0  -8   34.41    2.55
   2   0  -8   36.71    1.94
  -2   0   8   32.19    2.58
  -2   0   8   32.97    1.98
   1   0  -8  155.39    7.46
   1   0  -8  151.81    8.80
   1   0  -8  144.90    9.12
  -1   0   8  159.54    7.65
  -1   0   8  153.87    8.84
   0   0  -8   30.82    1.79
   0   0  -8   33.12    2.55
   0   0  -8   37.65    2.82
   0   0   8   33.08    1.82
   0   0   8   33.55    2.36
  -1   0  -8   54.12    2.93
  -1   0  -8   59.18    3.36
  -1   0  -8   58.97    3.95
   1   0   8   56.72    2.95
   1   0   8   57.43    3.63
   1   0   8   52.66    4.08
  -2   0  -8   63.97    3.82
  -2   0  -8   71.94    4.76
  -2   0  -8   69.74    3.49
   2   0   8   65.10    4.28
   2   0   8   65.26    3.50
   2   0   8   67.72    4.53
  -3   0  -8    1.12    1.02
  -3   0  -8   -0.82    0.99
  -3   0  -8    0.97    1.75
   3   0   8   -0.53    0.70
   3   0   8    1.09    1.40
   3   0   8   -1.23    1.26
  -4   0  -8   36.34    2.55
  -4   0  -8   34.43    3.52
   4   0   8   35.05    2.70
   4   0   8   41.64    3.63
   4   0   8   32.23    2.30
  -5   0  -8   20.81    2.13
  -5   0  -8   26.03    2.83
   5   0   8   19.34    3.05
   6   0   8    6.47    2.69
   7   0   8   28.41    3.61
   7  -1  -8    2.82    2.08
   7  -1  -8    4.60    1.56
   7  -1  -8    4.14    2.06
  -7   1   8    1.20    1.19
   6  -1  -8   81.06    4.73
   6  -1  -8   88.50    5.50
   6  -1  -8   87.08    5.75
  -6   1   8   87.75    5.54
  -6   1   8   91.35    4.94
   5  -1  -8   79.50    5.29
   5  -1  -8   80.74    4.93
   5  -1  -8   79.29    4.19
  -5   1   8   74.85    4.32
  -5   1   8   75.26    5.00
   4  -1  -8    1.32    1.41
   4  -1  -8    1.48    0.81
   4  -1  -8   -1.08    1.37
  -4   1   8    0.64    1.01
  -4   1   8    1.35    0.88
   3  -1  -8  133.29    7.68
   3  -1  -8  128.03    6.50
   3  -1  -8  135.50    8.10
  -3   1   8  127.16    7.77
  -3   1   8  137.40    6.70
   2  -1  -8   22.45    1.89
   2  -1  -8   21.52    1.31
   2  -1  -8   23.73    1.97
  -2   1   8   20.77    1.95
  -2   1   8   23.83    1.36
   1  -1  -8   40.40    2.09
   1  -1  -8   43.54    3.07
   1  -1  -8   41.10    2.94
  -1   1   8   40.86    2.12
  -1   1   8   39.70    2.91
   0  -1  -8   45.07    3.34
   0  -1  -8   41.03    2.18
   0   1   8   42.06    2.89
   0   1   8   44.93    3.29
   0   1   8   44.90    2.18
  -1  -1  -8   14.60    0.99
  -1  -1  -8   16.35    1.36
  -1  -1  -8   14.27    2.07
   1   1   8   15.67    0.90
   1   1   8   17.21    2.36
   1   1   8   18.12    1.88
  -2  -1  -8   90.51    5.64
  -2  -1  -8   82.57    4.29
  -2  -1  -8   82.02    5.03
   2   1   8   88.38    5.82
   2   1   8   85.07    5.23
   2   1   8   85.56    4.29
  -3  -1  -8   30.73    2.04
  -3  -1  -8   33.07    2.83
   3   1   8   31.01    2.49
   3   1   8   30.45    1.91
   3   1   8   30.76    3.40
  -4  -1  -8    1.22    2.12
  -4  -1  -8    0.40    1.05
   4   1   8    0.94    1.05
   4   1   8    0.35    2.30
  -5  -1  -8   51.42    3.18
   5   1   8   43.59    3.97
   6   1   8   -0.19    1.82
   7   1   8    1.37    2.83
   7  -2  -8   14.50    1.86
   7  -2  -8   17.17    2.20
   7  -2  -8   18.32    2.38
  -7   2   8   13.20    1.98
   6  -2  -8   18.15    2.44
   6  -2  -8   22.59    2.40
   6  -2  -8   15.03    1.68
  -6   2   8   19.31    2.32
  -6   2   8   17.46    1.82
   5  -2  -8  117.23    7.27
   5  -2  -8  110.81    6.72
   5  -2  -8  111.22    5.79
  -5   2   8  117.32    6.98
  -5   2   8  111.49    5.97
   4  -2  -8    2.85    1.36
   4  -2  -8    2.06    0.91
   4  -2  -8    2.64    1.53
  -4   2   8    0.53    0.79
  -4   2   8    3.01    1.14
   3  -2  -8   34.31    1.91
   3  -2  -8   31.41    2.73
   3  -2  -8   35.23    2.69
  -3   2   8   35.74    2.76
  -3   2   8   32.48    1.92
   2  -2  -8  153.51    8.75
   2  -2  -8  153.74    7.34
   2  -2  -8  162.15    9.01
  -2   2   8  143.22    8.84
  -2   2   8  147.60    7.49
   1  -2  -8   -1.03    1.21
   1  -2  -8   -0.02    0.83
   1  -2  -8    0.47    0.30
  -1   2   8   -0.82    1.28
  -1   2   8   -0.95    1.56
   0  -2  -8   54.74    3.36
   0  -2  -8   56.71    3.75
   0   2   8   50.75    3.62
   0   2   8   48.37    4.03
  -1  -2  -8   56.52    3.64
  -1  -2  -8   61.55    4.13
   1   2   8   56.36    4.32
   1   2   8   59.07    3.88
  -2  -2  -8   16.55    1.65
  -2  -2  -8   15.23    2.33
   2   2   8   15.21    1.54
   2   2   8   13.42    2.51
  -3  -2  -8   34.59    3.27
   3   2   8   38.66    2.92
   3   2   8   40.22    3.37
  -4  -2  -8    0.21    2.25
   4   2   8    0.56    1.76
   5   2   8    5.44    2.82
   6   2   8   38.97    3.76
   7  -3  -8   52.10    3.25
   7  -3  -8   52.00    3.86
   7  -3  -8   47.17    4.24
  -7   3   8   50.26    3.20
   6  -3  -8   19.69    2.17
   6  -3  -8   19.88    2.57
   6  -3  -8   18.35    1.74
  -6   3   8   14.84    2.00
  -6   3   8   16.06    1.75
   5  -3  -8   65.12    4.30
   5  -3  -8   59.81    3.26
   5  -3  -8   61.46    3.99
  -5   3   8   54.53    3.45
  -5   3   8   56.66    3.99
   4  -3  -8   60.27    4.46
   4  -3  -8   62.31    3.32
   4  -3  -8   68.25    4.17
  -4   3   8   56.71    4.24
  -4   3   8   67.80    3.47
   3  -3  -8   -0.11    0.56
   3  -3  -8    0.02    1.21
   3  -3  -8   -0.59    1.38
  -3   3   8   -0.02    0.52
  -3   3   8    1.63    1.12
   2  -3  -8   89.87    5.39
   2  -3  -8   83.21    5.37
   2  -3  -8   90.22    5.24
  -2   3   8   75.77    5.36
  -2   3   8   87.66    5.44
   1  -3  -8   66.61    4.23
   1  -3  -8   63.88    3.97
  -1   3   8   55.98    4.11
  -1   3   8   64.46    4.48
  -1   3   8   65.08    3.86
   0  -3  -8   16.94    1.78
   0  -3  -8   16.97    2.22
   0   3   8   18.52    2.16
   0   3   8   20.46    2.08
  -1  -3  -8   64.47    4.13
  -1  -3  -8   69.67    4.25
  -1  -3  -8   61.94    4.80
   1   3   8   69.09    4.39
   1   3   8   66.73    4.97
  -2  -3  -8   44.71    3.04
  -2  -3  -8   47.73    3.62
   2   3   8   45.26    3.23
   2   3   8   37.63    3.97
   3   3   8   24.77    3.35
   4   3   8   22.40    2.90
   5   3   8    0.65    2.10
   6   3   8    4.51    3.20
   7  -4  -8   46.59    4.30
  -7   4   8   47.20    3.22
   6  -4  -8   26.84    2.92
   6  -4  -8   23.69    1.91
  -6   4   8   24.65    2.12
  -6   4   8   14.36    2.63
   5  -4  -8    1.30    1.30
   5  -4  -8    2.71    0.94
   5  -4  -8    1.22    1.79
  -5   4   8    1.94    1.44
  -5   4   8    2.28    0.92
   4  -4  -8  110.12    6.68
   4  -4  -8   98.73    5.18
   4  -4  -8  107.70    6.16
  -4   4   8  101.62    5.30
  -4   4   8   98.25    6.47
   3  -4  -8   26.41    2.44
   3  -4  -8   24.57    1.46
   3  -4  -8   25.59    1.98
  -3   4   8   23.70    2.29
   2  -4  -8    4.35    1.29
   2  -4  -8    5.54    1.45
   2  -4  -8    6.37    1.42
  -2   4   8    6.01    1.73
  -2   4   8    5.14    1.12
  -2   4   8    4.32    1.75
   1  -4  -8  172.01    9.57
   1  -4  -8  180.34   10.11
   1  -4  -8  160.78    9.94
  -1   4   8  170.08    9.99
  -1   4   8  155.37    9.77
  -1   4   8  165.38    9.25
   0  -4  -8    1.73    1.40
   0  -4  -8    0.59    0.97
   0  -4  -8    2.96    1.79
   0   4   8   -1.49    1.48
   0   4   8    1.62    1.22
   0   4   8    2.96    2.07
  -1  -4  -8   39.04    3.12
   1   4   8   43.65    3.17
   1   4   8   39.32    3.78
  -2  -4  -8   34.75    3.57
  -2  -4  -8   33.09    2.80
   2   4   8   22.86    3.52
   3   4   8   -0.29    2.71
   4   4   8   28.15    4.00
   5   4   8   22.59    3.95
   7  -5  -8    1.51    1.37
  -7   5   8    1.68    1.37
   6  -5  -8   43.51    3.79
   6  -5  -8   38.30    2.58
   5  -5  -8   37.37    2.41
   5  -5  -8   39.86    3.50
  -5   5   8   33.30    3.10
  -5   5   8   41.31    2.43
   4  -5  -8   44.39    2.42
   4  -5  -8   45.46    3.30
  -4   5   8   38.18    3.31
   3  -5  -8   97.83    5.73
   3  -5  -8   92.85    6.19
  -3   5   8   92.60    5.93
  -3   5   8   90.58    6.15
  -3   5   8  103.40    5.72
   2  -5  -8    4.34    1.52
   2  -5  -8    3.89    1.28
   2  -5  -8    5.39    1.77
   2  -5  -8    5.23    1.52
  -2   5   8    3.72    1.80
  -2   5   8    4.82    1.65
  -2   5   8    3.99    1.90
   1  -5  -8   48.86    3.53
   1  -5  -8   52.69    3.51
   1  -5  -8   50.15    3.41
  -1   5   8   45.91    3.38
  -1   5   8   48.10    3.98
  -1   5   8   50.32    3.73
   0  -5  -8   88.25    5.71
   0  -5  -8   85.97    5.54
   0   5   8   86.57    5.69
   0   5   8   89.80    6.16
   0   5   8   93.30    5.39
  -1  -5  -8    0.30    1.61
   1   5   8   -0.95    1.66
   1   5   8    0.92    2.53
   2   5   8   45.33    4.13
   3   5   8   31.23    4.23
   4   5   8    0.18    2.31
   5   5   8   15.09    3.84
  -7   6   8    8.67    1.58
   6  -6  -8   17.84    2.29
   6  -6  -8   14.34    1.55
   5  -6  -8   36.51    3.50
   4  -6  -8   25.43    2.78
   4  -6  -8   26.94    2.81
  -4   6   8   22.78    2.97
  -4   6   8   25.56    2.80
   3  -6  -8   59.11    4.01
   3  -6  -8   56.86    4.18
  -3   6   8   55.59    4.04
  -3   6   8   52.09    4.36
  -3   6   8   66.07    4.15
   2  -6  -8   43.18    3.09
   2  -6  -8   33.87    3.23
  -2   6   8   38.90    3.11
  -2   6   8   37.71    3.32
  -2   6   8   29.47    3.00
   1  -6  -8    0.97    1.30
   1  -6  -8    0.50    1.77
  -1   6   8   -0.34    1.64
  -1   6   8   -1.72    1.33
  -1   6   8   -2.32    2.09
   0  -6  -8   71.70    4.93
   0   6   8   81.40    4.86
   0   6   8   70.88    5.05
   0   6   8   74.36    5.67
  -1  -6  -8    5.45    2.06
   1   6   8    2.54    2.93
   2   6   8   -0.49    3.24
   3   6   8   36.01    4.75
   4   6   8    6.09    2.79
   5  -7  -8   24.63    2.98
   4  -7  -8   52.70    4.32
   4  -7  -8   60.25    4.15
  -4   7   8   58.77    4.00
   3  -7  -8    3.19    2.14
   3  -7  -8    2.28    1.70
  -3   7   8    2.91    1.51
   2  -7  -8   39.82    3.50
  -2   7   8   34.04    3.46
  -2   7   8   37.38    3.19
   1  -7  -8   27.31    3.11
   1  -7  -8   27.25    3.18
  -1   7   8   29.00    2.92
  -1   7   8   33.24    3.55
   0   7   8   -1.64    1.84
   0   7   8   -1.81    1.99
   1   7   8   53.20    5.30
   2   7   8    4.72    3.63
   3   7   8    9.51    3.94
  -4   8   8    6.65    1.90
  -3   8   8   44.47    3.84
  -2   8   8   14.18    2.57
  -2   8   8   12.46    2.62
  -1   8   8   14.94    2.47
  -1   8   8   16.56    2.67
   0   8   8    2.42    2.25
   0   8   8    2.66    2.25
   1   8   8    6.85    3.63
   2   8   8   15.03    3.24
  -5   9   8   16.83    2.48
  -4   9   8    5.20    2.61
  -3   9   8   24.19    3.12
  -2   9   8   17.66    2.43
  -1   9   8    8.14    2.99
  -1   9   8    8.76    2.67
   0   9   8   18.49    3.87
  -5  10   8   14.40    3.11
  -4  10   8    8.13    2.82
  -3  10   8   13.23    2.95
  -2  10   8   10.02    2.79
   1 -10   9   32.00    3.19
  -2  10  -9    6.80    2.23
   2 -10   9   10.30    2.28
  -3  10  -9    0.75    2.14
   3 -10   9    0.75    2.14
   1   9  -9   24.79    2.43
  -1  -9   9   23.28    2.70
  -1  -9   9   27.35    2.69
   0   9  -9   20.00    2.44
   0   9  -9   15.36    2.42
   0  -9   9   21.18    2.63
   0  -9   9   18.82    2.00
  -1   9  -9    8.02    2.10
  -1   9  -9    6.91    3.01
  -1   9  -9    4.99    1.93
   1  -9   9    3.91    1.93
   1  -9   9    4.12    1.52
   1  -9   9    1.38    2.37
  -2   9  -9   40.49    3.00
  -2   9  -9   46.67    4.60
  -2   9  -9   41.41    3.05
   2  -9   9   43.98    3.50
   2  -9   9   42.14    2.94
   2  -9   9   41.66    3.55
  -3   9  -9   -0.64    1.90
  -3   9  -9    0.59    1.94
  -3   9  -9   -1.70    2.07
   3  -9   9    2.84    1.59
   3  -9   9   -0.15    2.17
   3  -9   9   -0.46    1.34
   4  -9   9   18.56    2.74
   2   8  -9    4.11    2.45
   2   8  -9   11.23    2.22
   2   8  -9    6.78    1.54
  -2  -8   9   11.28    2.18
  -2  -8   9    6.30    2.23
   1   8  -9   42.44    3.90
   1   8  -9   45.07    3.04
   1   8  -9   47.65    3.38
  -1  -8   9   43.30    3.00
  -1  -8   9   46.70    3.45
  -1  -8   9   43.92    3.55
   0   8  -9   38.64    3.89
   0   8  -9   24.10    2.65
   0   8  -9   29.71    2.39
   0   8  -9   29.02    3.13
   0  -8   9   30.08    2.71
   0  -8   9   31.40    2.95
  -1   8  -9    5.42    1.39
  -1   8  -9    4.72    1.71
  -1   8  -9    4.50    2.61
  -1   8  -9    3.74    1.87
   1  -8   9    0.66    1.61
   1  -8   9    5.04    1.88
   1  -8   9    2.79    2.09
  -2   8  -9   26.97    2.78
  -2   8  -9   26.40    3.58
  -2   8  -9   27.87    2.62
  -2   8  -9   29.68    2.38
   2  -8   9   26.69    2.60
   2  -8   9   26.32    2.54
   2  -8   9   28.97    2.80
  -3   8  -9   45.45    3.35
  -3   8  -9   44.45    3.92
  -3   8  -9   38.76    3.13
   3  -8   9   40.69    3.34
   3  -8   9   36.90    3.50
  -4   8  -9   -0.50    1.75
  -4   8  -9    1.04    1.99
   4  -8   9    1.56    2.06
  -5   8  -9   51.78    3.98
   3   7  -9   15.02    2.99
   3   7  -9   18.07    2.26
  -3  -7   9   14.44    2.29
  -3  -7   9   19.48    2.50
   2   7  -9   25.32    2.60
   2   7  -9   31.12    2.64
   2   7  -9   27.91    2.87
  -2  -7   9   24.88    2.66
  -2  -7   9   27.09    2.54
  -2  -7   9   30.02    2.61
   1   7  -9    2.79    1.51
   1   7  -9    6.00    1.34
   1   7  -9    8.49    1.69
   1   7  -9    8.46    2.38
  -1  -7   9    2.70    1.74
  -1  -7   9    3.99    1.62
  -1  -7   9    5.71    1.73
   0   7  -9   44.35    3.34
   0   7  -9   55.58    4.52
   0   7  -9   54.67    3.95
   0   7  -9   49.07    3.36
   0  -7   9   54.87    3.54
   0  -7   9   50.09    3.10
  -1   7  -9   75.64    5.28
  -1   7  -9   75.88    4.92
  -1   7  -9   73.61    4.26
  -1   7  -9   67.79    4.25
   1  -7   9   69.02    3.97
   1  -7   9   67.99    4.18
  -2   7  -9   13.78    2.23
  -2   7  -9   14.43    1.64
  -2   7  -9   14.06    1.77
  -2   7  -9   12.77    2.13
   2  -7   9   11.79    1.90
   2  -7   9   12.99    1.74
  -3   7  -9   69.07    4.58
  -3   7  -9   59.70    4.08
  -3   7  -9   70.05    5.19
   3  -7   9   65.07    4.24
  -4   7  -9    5.27    2.44
  -4   7  -9   11.02    2.11
  -4   7  -9   13.32    2.04
   4  -7   9   10.51    2.11
  -5   7  -9    0.77    2.06
  -5   7  -9    0.38    2.38
  -5   7  -9    5.18    2.10
   5  -7   9    3.70    1.55
   4   6  -9   39.97    4.09
   4   6  -9   36.65    2.76
   4   6  -9   38.59    2.80
   3   6  -9    3.96    1.74
   3   6  -9    3.99    1.67
   3   6  -9    2.46    1.71
  -3  -6   9    5.37    1.90
  -3  -6   9    2.90    1.70
   2   6  -9   61.60    4.00
   2   6  -9   67.83    4.00
   2   6  -9   66.19    4.60
  -2  -6   9   68.09    4.34
  -2  -6   9   63.14    3.95
  -2  -6   9   70.59    4.19
   1   6  -9   43.46    2.91
   1   6  -9   51.53    3.93
   1   6  -9   43.06    2.91
   1   6  -9   44.00    3.64
  -1  -6   9   44.69    3.30
  -1  -6   9   42.34    2.92
  -1  -6   9   40.03    2.82
   0   6  -9   28.75    2.21
   0   6  -9   27.50    3.22
   0   6  -9   26.32    2.41
   0   6  -9   26.30    1.93
   0  -6   9   21.91    2.25
   0  -6   9   27.68    2.13
  -1   6  -9   57.72    3.59
  -1   6  -9   59.35    4.25
  -1   6  -9   62.12    3.55
  -1   6  -9   58.61    4.78
   1  -6   9   59.43    3.41
   1  -6   9   53.83    3.45
  -2   6  -9   40.12    2.91
  -2   6  -9   44.62    3.42
  -2   6  -9   42.98    2.82
  -2   6  -9   42.71    3.91
   2  -6   9   39.30    2.95
  -3   6  -9   56.06    4.06
  -3   6  -9   57.38    3.56
  -3   6  -9   56.18    4.31
   3  -6   9   52.84    3.42
  -4   6  -9   50.26    3.73
  -4   6  -9   47.49    3.15
  -4   6  -9   43.06    4.13
   4  -6   9   47.94    3.47
  -5   6  -9    4.15    1.93
  -5   6  -9    2.70    1.75
  -5   6  -9    5.25    1.98
   5  -6   9    2.29    1.98
  -6   6  -9   52.61    3.76
   4   5  -9   27.57    2.56
   4   5  -9   28.60    2.60
   4   5  -9   27.36    3.30
  -4  -5   9   28.44    2.79
   3   5  -9   34.31    2.79
   3   5  -9   35.12    3.02
   3   5  -9   33.47    2.60
   3   5  -9   32.29    2.58
  -3  -5   9   34.70    2.62
  -3  -5   9   34.18    2.75
  -3  -5   9   29.91    2.61
   2   5  -9    1.39    1.67
   2   5  -9   -1.51    1.29
   2   5  -9    0.00    1.30
   2   5  -9   -0.26    1.26
  -2  -5   9    2.43    1.41
  -2  -5   9    0.38    0.98
  -2  -5   9   -0.05    1.28
   1   5  -9  130.99    7.10
   1   5  -9  140.95    8.27
   1   5  -9  133.48    8.51
   1   5  -9  129.56    6.94
  -1  -5   9  140.04    7.26
  -1  -5   9  140.91    6.99
  -1  -5   9  141.92    8.10
   0   5  -9   28.65    2.05
   0   5  -9   29.82    2.74
   0   5  -9   29.60    3.18
   0   5  -9   25.23    1.89
   0  -5   9   24.30    2.16
   0  -5   9   29.42    1.99
   0  -5   9   26.59    2.20
  -1   5  -9   78.60    5.84
  -1   5  -9   79.03    4.54
  -1   5  -9   92.91    5.32
  -1   5  -9   82.14    4.45
   1  -5   9   84.06    4.58
  -2   5  -9   69.89    4.14
  -2   5  -9   67.18    5.35
  -2   5  -9   81.54    4.99
   2  -5   9   75.68    4.27
  -3   5  -9    4.02    2.19
  -3   5  -9    5.00    1.49
  -3   5  -9    4.38    1.37
   3  -5   9    7.06    1.50
  -4   5  -9   40.18    2.80
  -4   5  -9   34.06    3.26
  -4   5  -9   37.68    2.60
   4  -5   9   36.59    2.91
  -5   5  -9   41.98    3.66
  -5   5  -9   41.53    3.39
  -5   5  -9   40.45    3.20
   5  -5   9   41.68    3.32
  -6   5  -9    3.19    2.06
   5   4  -9   39.73    3.56
   5   4  -9   42.41    3.12
  -5  -4   9   40.40    3.29
   4   4  -9    1.01    1.49
   4   4  -9    0.93    1.55
   4   4  -9    4.00    1.54
  -4  -4   9    1.96    1.61
  -4  -4   9    3.17    1.39
   3   4  -9  105.24    5.66
   3   4  -9  103.66    6.78
   3   4  -9  111.12    5.76
  -3  -4   9  106.87    6.43
  -3  -4   9  105.87    5.86
   2   4  -9   11.79    1.68
   2   4  -9    9.23    1.41
   2   4  -9   12.85    1.88
   2   4  -9   11.46    1.37
  -2  -4   9   13.08    1.43
  -2  -4   9    9.46    1.51
  -2  -4   9   13.39    1.73
   1   4  -9   33.27    3.12
   1   4  -9   34.58    2.29
   1   4  -9   33.70    2.97
   1   4  -9   33.76    2.20
  -1  -4   9   32.71    2.21
  -1  -4   9   36.38    2.74
  -1  -4   9   33.74    2.34
   0   4  -9   51.64    3.94
   0   4  -9   51.46    3.65
   0   4  -9   47.68    2.73
   0  -4   9   43.34    2.90
   0  -4   9   49.07    3.40
  -1   4  -9    4.86    1.65
  -1   4  -9    1.51    1.87
  -1   4  -9    0.98    1.06
   1  -4   9    2.22    1.12
   1  -4   9    1.76    1.11
  -2   4  -9   37.56    3.31
  -2   4  -9   39.98    2.58
  -2   4  -9   42.45    3.27
   2  -4   9   39.27    2.63
  -3   4  -9   69.47    4.08
  -3   4  -9   73.95    5.06
   3  -4   9   70.58    4.09
  -4   4  -9   15.56    1.76
  -4   4  -9   20.66    1.74
  -4   4  -9   16.06    2.67
   4  -4   9   14.89    1.90
  -5   4  -9   64.51    4.08
  -5   4  -9   54.67    4.43
  -5   4  -9   62.65    3.85
   5  -4   9   55.48    4.30
   5  -4   9   53.16    3.86
  -6   4  -9    9.40    2.14
   6  -4   9    7.26    1.74
   5   3  -9   49.49    3.93
   5   3  -9   50.77    3.11
  -5  -3   9   48.83    3.45
   4   3  -9   31.85    3.18
   4   3  -9   31.56    2.46
   4   3  -9   23.68    1.99
  -4  -3   9   29.18    2.44
  -4  -3   9   28.31    2.46
   3   3  -9   18.64    1.95
   3   3  -9   18.82    2.11
   3   3  -9   18.87    1.71
  -3  -3   9   17.27    1.71
  -3  -3   9   18.99    1.87
   2   3  -9  108.39    6.44
   2   3  -9  104.47    6.40
   2   3  -9  102.91    5.29
  -2  -3   9   97.63    5.38
  -2  -3   9   99.90    6.15
   1   3  -9    9.76    1.83
   1   3  -9   14.01    1.94
   1   3  -9   12.02    1.23
  -1  -3   9   10.22    1.40
  -1  -3   9   10.80    1.09
   0   3  -9   98.01    5.90
   0   3  -9   92.67    6.21
   0   3  -9   93.08    4.83
   0  -3   9   87.44    5.68
   0  -3   9   97.47    4.98
  -1   3  -9   53.01    3.50
  -1   3  -9   51.17    2.86
  -1   3  -9   47.09    4.02
   1  -3   9   50.64    3.54
   1  -3   9   48.25    2.93
  -2   3  -9    1.24    0.71
  -2   3  -9    1.98    1.16
  -2   3  -9   -0.81    1.23
   2  -3   9   -1.42    0.93
   2  -3   9    1.09    1.49
  -3   3  -9   48.06    3.58
  -3   3  -9   61.88    3.35
  -3   3  -9   63.99    4.50
   3  -3   9   60.92    4.05
   3  -3   9   50.31    3.29
  -4   3  -9   28.02    3.33
  -4   3  -9   28.71    2.56
  -4   3  -9   28.55    2.32
   4  -3   9   30.10    2.36
   4  -3   9   25.95    2.66
  -5   3  -9    4.44    2.49
  -5   3  -9    4.65    1.69
  -5   3  -9    7.84    1.82
   5  -3   9    7.69    1.93
   5  -3   9   10.16    1.74
   6   2  -9   27.93    2.94
   6   2  -9   27.47    3.26
   6   2  -9   29.83    2.55
  -6  -2   9   26.36    2.62
   5   2  -9   11.12    1.91
   5   2  -9   13.26    1.41
   5   2  -9   15.99    2.11
  -5  -2   9    9.91    1.78
  -5  -2   9   10.56    1.78
   4   2  -9  122.85    7.66
   4   2  -9  121.31    6.27
   4   2  -9  122.75    7.58
  -4  -2   9  120.30    7.28
  -4  -2   9  125.17    6.48
   3   2  -9    0.01    0.97
   3   2  -9   -0.01    1.12
  -3  -2   9    0.30    0.76
  -3  -2   9    1.49    1.35
   2   2  -9    7.29    1.07
   2   2  -9    7.32    1.47
   2   2  -9    8.49    1.39
  -2  -2   9    8.94    1.53
  -2  -2   9   10.26    1.17
   1   2  -9   41.01    3.20
   1   2  -9   50.41    3.38
   1   2  -9   46.87    2.57
  -1  -2   9   44.66    2.67
  -1  -2   9   46.99    3.30
   0   2  -9   -0.92    0.71
   0   2  -9    0.29    1.04
   0   2  -9    2.09    1.63
   0  -2   9    1.04    0.77
   0  -2   9    0.87    1.40
  -1   2  -9   55.74    4.02
  -1   2  -9   57.78    3.93
  -1   2  -9   55.14    3.03
   1  -2   9   56.34    3.14
   1  -2   9   54.28    3.68
  -2   2  -9   20.51    2.60
  -2   2  -9   22.74    1.61
   2  -2   9   21.33    2.24
   2  -2   9   21.30    1.75
  -3   2  -9   42.11    2.62
  -3   2  -9   42.72    2.75
  -3   2  -9   40.86    3.76
   3  -2   9   42.80    3.30
   3  -2   9   41.01    2.59
  -4   2  -9   43.58    2.85
  -4   2  -9   40.22    3.87
  -4   2  -9   45.94    3.11
   4  -2   9   45.24    2.84
   4  -2   9   39.41    3.07
  -5   2  -9    2.43    2.46
  -5   2  -9    1.15    1.41
  -5   2  -9    1.65    1.70
   5  -2   9    0.78    1.71
   5  -2   9    0.57    1.74
   6   1  -9   44.83    3.07
   6   1  -9   44.64    3.57
   6   1  -9   43.99    3.82
  -6  -1   9   46.85    3.33
   5   1  -9   -0.82    1.25
   5   1  -9   -1.12    1.13
   5   1  -9    3.77    1.98
  -5  -1   9   -1.00    1.51
  -5  -1   9   -1.21    1.31
   4   1  -9   29.65    2.53
   4   1  -9   27.39    2.64
   4   1  -9   26.92    2.02
  -4  -1   9   29.15    2.13
  -4  -1   9   28.44    2.47
   3   1  -9  129.53    6.47
   3   1  -9  125.40    7.60
  -3  -1   9  128.15    7.64
  -3  -1   9  130.88    6.66
   2   1  -9   16.74    1.85
   2   1  -9   14.56    1.28
   2   1  -9   18.10    2.08
  -2  -1   9   19.06    1.40
  -2  -1   9   17.39    1.97
   1   1  -9   89.33    4.43
   1   1  -9   89.77    5.70
   1   1  -9   90.01    5.56
  -1  -1   9   83.37    5.30
  -1  -1   9   86.20    4.54
   0   1  -9  102.34    6.30
   0   1  -9  103.81    6.64
   0   1  -9  106.83    5.24
   0  -1   9  107.18    6.42
   0  -1   9  105.28    5.37
  -1   1  -9   64.62    4.44
  -1   1  -9   65.25    4.34
  -1   1  -9   64.17    3.38
   1  -1   9   62.83    3.41
   1  -1   9   63.94    4.24
  -2   1  -9   21.38    1.83
  -2   1  -9   19.33    2.61
  -2   1  -9   22.53    1.57
   2  -1   9   24.37    2.38
   2  -1   9   21.94    1.52
  -3   1  -9   31.51    3.26
  -3   1  -9   29.27    2.01
  -3   1  -9   28.18    2.29
   3  -1   9   27.64    1.95
   3  -1   9   34.16    2.47
  -4   1  -9   29.87    2.96
  -4   1  -9   24.82    2.16
   4  -1   9   30.77    2.38
   4  -1   9   28.97    3.27
   4  -1   9   23.77    2.19
   5  -1   9    7.87    2.65
   5  -1   9   11.40    1.60
   7   0  -9    5.20    2.30
   6   0  -9   76.64    5.34
   6   0  -9   72.97    4.31
   6   0  -9   77.25    5.42
  -6   0   9   78.50    5.05
  -6   0   9   75.15    4.54
   5   0  -9   32.09    2.30
   5   0  -9   36.77    3.05
   5   0  -9   33.03    2.80
  -5   0   9   33.97    2.42
  -5   0   9   30.03    2.84
   4   0  -9    0.52    1.56
   4   0  -9    1.32    1.64
   4   0  -9    2.10    0.95
  -4   0   9    1.88    1.01
  -4   0   9    0.51    1.09
   3   0  -9   75.21    4.59
   3   0  -9   72.03    3.71
  -3   0   9   70.13    3.81
  -3   0   9   65.98    4.56
   2   0  -9   19.32    1.96
   2   0  -9   22.92    1.99
   2   0  -9   18.57    1.30
  -2   0   9   18.23    1.81
  -2   0   9   19.20    1.44
   1   0  -9   18.26    2.06
   1   0  -9   16.75    1.80
   1   0  -9   17.34    1.21
  -1   0   9   18.47    1.16
  -1   0   9   15.18    1.64
   0   0  -9   72.13    4.86
   0   0  -9   76.82    3.69
   0   0  -9   67.76    4.58
   0   0   9   72.41    4.73
   0   0   9   73.17    3.73
  -1   0  -9    7.10    0.80
  -1   0  -9    6.11    1.12
  -1   0  -9    5.81    1.89
   1   0   9    7.42    1.67
   1   0   9    6.08    0.67
  -2   0  -9  107.86    6.71
  -2   0  -9   97.98    5.01
   2   0   9   96.64    5.05
   2   0   9   95.22    6.63
   2   0   9  103.33    6.16
  -3   0  -9   14.04    2.10
  -3   0  -9   16.18    1.49
   3   0   9   13.26    1.96
   3   0   9   11.50    2.64
   3   0   9   14.19    1.32
  -4   0  -9    2.21    1.09
  -4   0  -9    1.28    1.64
   4   0   9   -1.84    2.39
   4   0   9    1.44    1.11
   4   0   9   -0.95    1.53
   5   0   9   39.49    4.10
   6   0   9    6.52    2.88
   7  -1  -9    6.87    2.23
   7  -1  -9    4.87    1.75
  -7   1   9    7.52    1.99
   6  -1  -9    4.52    1.36
   6  -1  -9    5.33    1.60
   6  -1  -9    5.16    2.00
  -6   1   9    6.35    1.51
  -6   1   9    7.59    1.53
   5  -1  -9   99.41    5.13
   5  -1  -9   99.12    6.05
   5  -1  -9   97.43    6.30
  -5   1   9   96.96    5.28
  -5   1   9   95.09    6.04
   4  -1  -9   10.22    1.17
   4  -1  -9   15.09    1.71
   4  -1  -9   16.59    1.76
  -4   1   9   11.16    1.26
  -4   1   9    9.92    1.94
   3  -1  -9   44.73    3.40
   3  -1  -9   44.39    2.48
   3  -1  -9   46.52    3.29
  -3   1   9   43.85    3.16
  -3   1   9   47.25    2.57
   2  -1  -9  312.48   17.11
   2  -1  -9  301.27   17.59
   2  -1  -9  313.80   14.68
  -2   1   9  294.31   17.25
   1  -1  -9    4.30    1.49
   1  -1  -9    5.32    0.58
   1  -1  -9    4.24    1.52
  -1   1   9    4.09    1.16
  -1   1   9    5.00    0.51
   0  -1  -9   53.14    2.58
   0  -1  -9   56.25    3.93
   0  -1  -9   49.31    3.58
   0   1   9   44.74    3.39
  -1  -1  -9  109.62    6.71
  -1  -1  -9  100.54    4.95
   1   1   9   93.87    6.69
   1   1   9  100.82    6.22
  -2  -1  -9   -1.13    1.31
   2   1   9    1.54    2.24
   2   1   9   -0.89    1.48
  -3  -1  -9   38.00    3.63
   3   1   9   35.31    2.95
   3   1   9   38.68    3.83
   4   1   9   21.07    3.30
   5   1   9    6.03    2.23
   6   1   9   23.65    3.06
  -7   2   9   55.97    3.99
   6  -2  -9   21.20    2.86
   6  -2  -9   24.67    2.35
   6  -2  -9   26.24    2.06
  -6   2   9   25.68    2.21
  -6   2   9   22.16    2.37
   5  -2  -9   39.94    2.43
   5  -2  -9   38.65    2.91
   5  -2  -9   36.77    3.45
  -5   2   9   37.84    2.55
  -5   2   9   40.35    3.36
   4  -2  -9   63.74    4.23
   4  -2  -9   64.99    3.31
   4  -2  -9   61.71    4.27
  -4   2   9   55.56    4.09
  -4   2   9   61.07    3.45
   3  -2  -9    0.35    0.56
   3  -2  -9    0.04    1.42
   3  -2  -9   -1.91    1.45
  -3   2   9    0.09    1.57
  -3   2   9    0.67    0.54
   2  -2  -9   41.37    2.15
   2  -2  -9   46.17    3.00
   2  -2  -9   38.86    3.08
  -2   2   9   38.71    3.22
   1  -2  -9   84.01    5.08
   1  -2  -9   79.34    4.82
  -1   2   9   69.19    4.93
   0  -2  -9   14.62    1.98
   0  -2  -9   16.44    2.24
   0  -2  -9   17.51    1.62
   0   2   9   13.06    2.51
   0   2   9   16.61    2.07
  -1  -2  -9   72.40    5.17
   1   2   9   68.81    4.70
   1   2   9   75.95    5.40
  -2  -2  -9   47.94    3.68
   2   2   9   41.58    4.20
   2   2   9   43.94    3.38
  -3  -2  -9   34.24    3.18
   3   2   9   30.52    3.31
   4   2   9   32.77    3.97
   5   2   9   12.97    2.63
   6   2   9    9.21    2.56
   6  -3  -9   55.01    4.02
   6  -3  -9   55.95    4.17
   6  -3  -9   52.56    3.24
  -6   3   9   57.09    4.27
  -6   3   9   55.26    3.50
   5  -3  -9    2.70    1.14
   5  -3  -9    2.29    1.88
   5  -3  -9    1.25    1.54
  -5   3   9   -0.49    1.12
  -5   3   9    0.95    1.93
   4  -3  -9   91.96    6.39
   4  -3  -9  101.00    5.97
   4  -3  -9  106.39    5.01
  -4   3   9   96.59    6.16
  -4   3   9   95.42    5.11
   3  -3  -9   91.85    5.61
   3  -3  -9   87.04    5.39
   3  -3  -9   86.03    4.30
  -3   3   9   78.61    5.43
   2  -3  -9    9.91    1.69
   2  -3  -9   10.44    1.68
   2  -3  -9   10.99    1.79
  -2   3   9    9.21    1.96
   1  -3  -9   88.37    5.58
   1  -3  -9   78.94    5.23
  -1   3   9   89.92    5.72
  -1   3   9   78.60    5.40
   0  -3  -9   45.32    3.48
   0  -3  -9   45.73    3.16
   0   3   9   41.97    3.91
   0   3   9   44.73    3.20
  -1  -3  -9   14.64    2.40
   1   3   9   16.04    2.09
   1   3   9   11.35    2.26
  -2  -3  -9   50.15    4.31
   2   3   9   46.55    4.04
   2   3   9   50.94    3.70
   3   3   9   13.37    2.47
   4   3   9   31.25    4.18
   5   3   9    9.34    2.66
   6  -4  -9   18.60    2.79
   6  -4  -9   18.76    1.79
  -6   4   9   15.15    1.63
  -6   4   9   19.26    2.34
   5  -4  -9   44.91    3.71
  -5   4   9   38.99    2.52
  -5   4   9   38.66    3.62
   4  -4  -9    4.42    1.82
   4  -4  -9    1.82    0.72
   4  -4  -9    2.33    1.48
  -4   4   9   -1.39    1.92
   3  -4  -9   15.06    1.82
   3  -4  -9   13.05    1.86
  -3   4   9   16.16    2.36
   2  -4  -9   33.12    2.89
   2  -4  -9   34.05    2.69
  -2   4   9   29.47    3.01
  -2   4   9   35.63    3.11
   1  -4  -9   24.79    2.39
   1  -4  -9   20.52    2.03
   1  -4  -9   25.82    2.77
  -1   4   9   25.10    2.95
  -1   4   9   24.41    2.24
  -1   4   9   21.73    2.16
   0  -4  -9   57.38    3.98
   0  -4  -9   53.41    3.88
   0  -4  -9   57.92    4.47
   0   4   9   56.07    4.26
   0   4   9   58.90    3.95
  -1  -4  -9    6.22    2.25
   1   4   9    3.13    2.68
   1   4   9    3.14    1.80
   2   4   9   40.20    3.78
   3   4   9   10.11    3.42
   4   4   9    0.84    3.29
   5   4   9   12.49    3.81
   6  -5  -9    0.34    1.07
  -6   5   9    0.79    2.37
   5  -5  -9   72.91    4.95
  -5   5   9   58.17    4.78
   4  -5  -9   23.41    2.68
  -4   5   9   16.49    2.72
   3  -5  -9   15.47    2.20
  -3   5   9   16.98    2.60
   2  -5  -9   40.40    3.21
   2  -5  -9   38.28    3.57
   2  -5  -9   45.05    3.45
  -2   5   9   50.47    3.43
  -2   5   9   44.31    3.77
  -2   5   9   44.84    3.42
   1  -5  -9    4.63    1.52
   1  -5  -9    6.02    1.98
   1  -5  -9    1.38    1.24
   1  -5  -9    2.17    1.82
   1  -5  -9    1.96    1.51
  -1   5   9    2.74    2.02
  -1   5   9    1.62    2.27
  -1   5   9    2.85    1.59
   0  -5  -9   18.15    2.82
   0  -5  -9   19.75    2.11
   0   5   9   24.61    2.69
   0   5   9   17.93    3.19
  -1  -5  -9   20.24    3.14
   1   5   9   22.20    3.49
   1   5   9   22.31    2.57
   2   5   9    0.75    3.24
   3   5   9   26.20    4.27
   4   5   9    3.64    3.72
   5  -6  -9    1.54    1.70
  -5   6   9   -1.73    2.34
   4  -6  -9   44.38    3.48
   4  -6  -9   48.04    3.81
  -4   6   9   40.49    3.61
   3  -6  -9    0.43    1.24
   3  -6  -9    1.93    1.99
  -3   6   9   -4.73    1.83
  -3   6   9    2.25    1.65
   2  -6  -9   15.44    2.16
   2  -6  -9   18.31    2.55
  -2   6   9   15.29    2.67
  -2   6   9   16.68    1.96
  -2   6   9   16.83    2.65
   1  -6  -9   36.24    3.49
   1  -6  -9   40.69    3.45
  -1   6   9   42.76    3.30
  -1   6   9   37.23    3.54
  -1   6   9   40.14    3.97
   0  -6  -9    2.42    2.01
   0  -6  -9    3.25    1.75
   0   6   9    4.61    2.16
   0   6   9    6.95    2.11
   1   6   9   15.72    3.59
   2   6   9   16.38    3.89
   3   6   9    6.17    3.80
  -3   7   9   44.61    3.65
  -2   7   9    7.42    2.40
  -2   7   9    0.89    2.02
  -1   7   9   19.20    2.62
  -1   7   9   22.05    3.30
   0   7   9    8.94    3.27
   1   7   9    2.19    3.50
   2   7   9   12.48    4.07
  -4   8   9    1.72    1.76
  -3   8   9   26.23    3.14
  -2   8   9   24.10    3.20
  -2   8   9   19.87    2.89
  -1   8   9    8.97    2.52
  -1   8   9    9.53    3.14
   0   8   9   17.01    3.75
   1   8   9    9.50    3.83
  -4   9   9    3.72    2.74
  -3   9   9   12.91    2.81
  -2   9   9   18.23    2.94
  -1   9   9    4.73    3.09
  -1  -9  10    9.25    2.15
   0   9 -10   56.26    4.04
   2   8 -10   54.65    4.55
   1   8 -10   -1.94    2.25
   1   8 -10   -1.24    1.26
  -1  -8  10   -0.80    1.84
   0   8 -10   10.20    2.12
   0   8 -10   10.47    2.33
   0   8 -10    9.83    2.37
   0  -8  10   11.95    2.22
  -1   8 -10   48.38    3.67
  -1   8 -10   54.60    4.04
  -1   8 -10   55.06    4.97
   1  -8  10   45.73    3.65
  -2   8 -10    5.04    2.76
  -2   8 -10    6.70    1.55
   2  -8  10    5.30    1.52
  -3   8 -10   24.32    3.46
  -3   8 -10   20.36    2.52
   3  -8  10   16.81    2.53
   2   7 -10   39.66    3.80
  -2  -7  10   36.43    3.05
  -2  -7  10   30.20    3.10
   1   7 -10   49.81    3.37
   1   7 -10   46.96    3.87
   1   7 -10   44.79    3.64
  -1  -7  10   42.29    3.41
  -1  -7  10   44.15    3.54
   0   7 -10    0.73    1.64
   0   7 -10   -0.75    1.66
   0   7 -10   -0.03    1.42
   0  -7  10    1.91    1.71
   0  -7  10    0.69    1.34
  -1   7 -10   37.95    3.02
  -1   7 -10   30.62    2.67
  -1   7 -10   37.57    4.05
   1  -7  10   30.71    2.86
  -2   7 -10   60.51    4.18
  -2   7 -10   55.51    4.90
  -2   7 -10   52.25    3.60
   2  -7  10   47.83    3.66
  -3   7 -10   13.07    2.90
  -3   7 -10   13.06    2.31
  -3   7 -10   11.52    2.05
   3  -7  10   11.47    2.04
  -4   7 -10   27.84    3.63
  -4   7 -10   30.56    2.98
   4  -7  10   30.20    3.00
   3   6 -10   18.31    1.90
   3   6 -10   21.66    3.06
  -3  -6  10   18.03    2.39
   2   6 -10    8.08    1.75
   2   6 -10    8.20    2.34
   2   6 -10   10.36    2.25
  -2  -6  10    3.49    1.81
  -2  -6  10    4.10    1.82
   1   6 -10   32.89    3.35
   1   6 -10   34.56    2.59
   1   6 -10   30.66    3.01
  -1  -6  10   30.04    2.86
  -1  -6  10   31.34    2.67
   0   6 -10   11.21    1.37
   0   6 -10   11.13    2.52
   0   6 -10   12.76    2.28
   0  -6  10    9.63    1.68
   0  -6  10    8.21    1.71
  -1   6 -10    0.25    1.68
  -1   6 -10    2.44    2.00
  -1   6 -10    1.61    1.46
   1  -6  10    2.26    1.48
  -2   6 -10   66.03    4.13
  -2   6 -10   67.80    4.89
  -2   6 -10   72.73    5.20
   2  -6  10   71.47    4.27
  -3   6 -10   -1.27    1.64
  -3   6 -10   -0.23    1.14
  -3   6 -10   -0.59    1.38
   3  -6  10    1.14    1.61
  -4   6 -10   14.31    2.97
  -4   6 -10   18.66    2.25
  -4   6 -10   14.84    2.08
   4  -6  10   19.86    2.33
  -5   6 -10   26.78    2.90
  -5   6 -10   22.24    2.92
   7  -6  10    7.04    2.83
   4   5 -10   -0.35    1.89
   4   5 -10   -2.28    1.68
   3   5 -10   48.54    3.68
   3   5 -10   39.10    3.03
   3   5 -10   48.05    3.50
  -3  -5  10   42.84    3.21
  -3  -5  10   43.84    3.35
   2   5 -10   31.65    3.06
   2   5 -10   30.64    2.41
   2   5 -10   33.66    2.91
  -2  -5  10   30.90    2.62
  -2  -5  10   27.82    2.68
   1   5 -10    0.25    1.93
   1   5 -10    2.31    1.33
   1   5 -10    5.22    2.00
  -1  -5  10    3.14    1.78
  -1  -5  10   -0.32    1.39
   0   5 -10   81.39    5.34
   0   5 -10   75.10    4.20
   0   5 -10   71.26    5.65
   0  -5  10   83.38    5.20
   0  -5  10   76.58    4.46
  -1   5 -10    4.38    2.34
  -1   5 -10   10.43    1.49
  -1   5 -10    5.68    2.02
   1  -5  10    6.07    1.97
   1  -5  10    6.50    1.44
  -2   5 -10   12.82    1.69
  -2   5 -10   13.02    2.71
  -2   5 -10   16.04    2.36
   2  -5  10   10.14    2.20
   2  -5  10   13.41    1.69
  -3   5 -10   49.54    3.60
  -3   5 -10   49.61    3.20
  -3   5 -10   46.46    4.33
   3  -5  10   43.53    3.21
  -4   5 -10    2.58    2.15
  -4   5 -10    3.64    2.41
  -4   5 -10    3.26    1.63
  -4   5 -10   -1.90    1.73
   4  -5  10    1.68    1.65
  -5   5 -10   27.07    2.73
   5  -5  10   16.41    2.76
   6  -5  10   13.93    2.77
   4   4 -10   21.39    2.50
   4   4 -10   18.25    2.07
   4   4 -10   22.74    2.44
  -4  -4  10   15.47    2.18
  -4  -4  10   18.21    2.19
   3   4 -10    3.95    2.12
   3   4 -10    0.35    1.32
  -3  -4  10   -0.31    1.43
  -3  -4  10    0.21    1.54
   2   4 -10   55.88    4.29
   2   4 -10   51.58    3.30
   2   4 -10   60.39    4.17
  -2  -4  10   55.78    3.75
  -2  -4  10   56.83    3.47
   1   4 -10   10.50    1.47
   1   4 -10   12.48    1.79
   1   4 -10   10.20    1.77
  -1  -4  10   10.02    1.50
  -1  -4  10   14.73    1.68
   0   4 -10   35.31    2.51
   0   4 -10   38.60    3.38
   0   4 -10   36.59    3.64
   0  -4  10   39.54    2.97
   0  -4  10   41.27    2.46
  -1   4 -10   44.15    2.74
  -1   4 -10   47.09    3.62
  -1   4 -10   47.25    3.67
   1  -4  10   36.34    3.35
   1  -4  10   43.12    2.78
  -2   4 -10    4.08    1.88
  -2   4 -10    0.19    1.17
  -2   4 -10    2.90    2.19
   2  -4  10    1.37    1.82
   2  -4  10    1.25    1.19
  -3   4 -10   27.22    3.24
  -3   4 -10   21.72    2.10
  -3   4 -10   19.98    2.71
   3  -4  10   23.45    2.06
   3  -4  10   23.02    2.27
  -4   4 -10   21.38    2.01
  -4   4 -10   16.25    2.95
  -4   4 -10   21.90    2.15
   4  -4  10   19.76    2.58
   4  -4  10   18.96    2.04
  -5   4 -10    4.07    1.88
   5  -4  10    2.52    1.73
   5  -4  10   -0.35    2.02
   6  -4  10   17.07    2.72
   5   3 -10    7.84    1.73
   5   3 -10    7.44    2.00
   5   3 -10    9.26    1.96
  -5  -3  10    6.87    1.88
   4   3 -10  114.80    6.78
   4   3 -10  100.43    6.77
   4   3 -10   94.34    5.53
  -4  -3  10  103.76    6.28
  -4  -3  10  105.23    5.68
   3   3 -10    1.50    0.90
   3   3 -10    3.78    1.96
  -3  -3  10    2.97    1.38
  -3  -3  10    2.81    1.20
   2   3 -10   43.93    3.14
   2   3 -10   43.54    3.24
   2   3 -10   39.34    2.62
  -2  -3  10   42.24    2.57
  -2  -3  10   40.04    3.21
   1   3 -10  106.75    7.10
   1   3 -10  111.21    5.65
   1   3 -10  109.76    6.87
  -1  -3  10  114.49    5.84
  -1  -3  10  106.56    6.63
   0   3 -10    4.45    1.96
   0   3 -10    2.02    1.31
   0   3 -10    1.76    0.70
   0  -3  10    2.40    1.23
   0  -3  10    0.58    0.99
  -1   3 -10   31.51    2.65
  -1   3 -10   27.85    2.06
  -1   3 -10   32.46    3.33
   1  -3  10   26.85    2.73
   1  -3  10   32.54    2.11
  -2   3 -10   61.80    4.35
  -2   3 -10   59.15    4.42
  -2   3 -10   54.28    3.30
   2  -3  10   53.44    4.15
   2  -3  10   60.84    3.37
  -3   3 -10    8.52    1.63
  -3   3 -10    9.23    2.48
  -3   3 -10    8.60    1.44
   3  -3  10    7.76    2.04
   3  -3  10    5.98    1.33
  -4   3 -10   44.02    4.21
  -4   3 -10   41.98    3.21
  -4   3 -10   43.28    2.94
   4  -3  10   45.59    2.95
   4  -3  10   38.93    3.50
  -5   3 -10    5.19    1.86
   5  -3  10    3.86    1.62
   5  -3  10    2.07    2.07
   5   2 -10   18.94    2.76
   5   2 -10   12.63    2.31
   5   2 -10   18.05    1.65
  -5  -2  10   14.94    1.68
  -5  -2  10   18.16    2.21
   4   2 -10   50.44    3.66
   4   2 -10   49.48    3.59
   4   2 -10   46.16    3.02
  -4  -2  10   48.04    3.38
  -4  -2  10   49.21    3.17
   3   2 -10   63.82    3.62
   3   2 -10   64.91    4.70
  -3  -2  10   69.81    4.49
  -3  -2  10   70.72    3.89
   2   2 -10   -0.56    0.90
   2   2 -10    1.66    1.38
   2   2 -10    0.82    1.72
  -2  -2  10    0.76    1.54
  -2  -2  10   -1.19    0.97
   1   2 -10   90.87    5.88
   1   2 -10   83.96    5.52
   1   2 -10   86.21    4.52
  -1  -2  10   88.27    5.45
  -1  -2  10   88.80    4.72
   0   2 -10   69.10    3.65
   0   2 -10   71.37    4.83
   0   2 -10   70.11    4.57
   0  -2  10   74.02    4.71
   0  -2  10   63.41    3.72
  -1   2 -10   14.27    1.32
  -1   2 -10   14.66    2.44
  -1   2 -10   13.66    1.79
   1  -2  10   13.67    1.80
   1  -2  10   16.00    1.49
  -2   2 -10   53.07    3.06
  -2   2 -10   56.45    4.51
  -2   2 -10   55.82    4.16
   2  -2  10   53.78    3.08
   2  -2  10   52.36    3.98
  -3   2 -10   31.52    2.22
  -3   2 -10   30.15    2.50
  -3   2 -10   32.80    3.59
   3  -2  10   33.60    3.08
   3  -2  10   33.39    2.32
  -4   2 -10    7.60    1.47
  -4   2 -10    9.61    2.03
   4  -2  10   10.43    2.14
   4  -2  10    8.09    1.38
   5  -2  10   30.18    3.11
   5  -2  10   31.85    2.73
   6   1 -10   71.34    5.11
  -6  -1  10   66.35    4.66
   5   1 -10   29.36    3.30
   5   1 -10   29.00    2.35
   5   1 -10   38.97    3.19
  -5  -1  10   30.87    2.28
  -5  -1  10   29.90    2.87
   4   1 -10    0.57    1.18
   4   1 -10    0.83    1.86
   4   1 -10   -1.38    1.12
  -4  -1  10   -0.03    1.16
  -4  -1  10    1.33    1.70
   3   1 -10  162.62    9.15
   3   1 -10  143.75    7.59
  -3  -1  10  141.22    9.00
  -3  -1  10  163.58    7.85
   2   1 -10   17.18    1.99
   2   1 -10   11.65    2.16
   2   1 -10   16.23    1.49
  -2  -1  10   14.60    2.09
  -2  -1  10   19.39    1.47
   1   1 -10    1.23    1.58
   1   1 -10    1.83    1.66
   1   1 -10    0.78    0.71
  -1  -1  10    1.54    1.57
  -1  -1  10    0.93    0.88
   0   1 -10  111.14    6.67
   0   1 -10  110.96    7.10
   0   1 -10  108.23    5.49
   0  -1  10  106.15    6.64
   0  -1  10  110.88    5.58
  -1   1 -10   26.11    3.09
  -1   1 -10   27.63    2.37
  -1   1 -10   26.86    1.65
   1  -1  10   24.68    2.26
   1  -1  10   22.82    1.64
  -2   1 -10   39.00    3.82
  -2   1 -10   37.13    2.29
   2  -1  10   40.92    3.27
   2  -1  10   39.11    2.30
  -3   1 -10   75.59    5.10
  -3   1 -10   67.93    3.76
   3  -1  10   63.25    3.69
   3  -1  10   72.36    4.57
  -4   1 -10    0.44    1.18
  -4   1 -10   -2.05    2.37
   4  -1  10    1.12    1.81
   4  -1  10   -0.15    1.09
   6   0 -10    0.44    1.51
   6   0 -10    1.66    2.12
   6   0 -10    1.59    2.22
  -6   0  10    2.65    1.91
  -6   0  10    0.09    1.54
   5   0 -10   51.28    4.01
   5   0 -10   51.85    4.00
   5   0 -10   49.83    3.05
  -5   0  10   46.42    3.80
  -5   0  10   49.39    3.19
   4   0 -10   20.65    1.74
   4   0 -10   20.39    2.57
   4   0 -10   23.31    2.59
  -4   0  10   23.46    1.84
  -4   0  10   21.27    2.15
   3   0 -10   -0.79    0.80
   3   0 -10    2.24    1.31
  -3   0  10    1.77    1.64
  -3   0  10    2.54    0.91
   2   0 -10  144.87    8.32
   2   0 -10  143.49    8.52
   2   0 -10  141.28    6.93
  -2   0  10  129.66    8.25
  -2   0  10  141.39    7.11
   1   0 -10   13.17    2.02
   1   0 -10   13.35    1.01
   1   0 -10   11.36    2.00
  -1   0  10   13.08    1.09
  -1   0  10   10.95    1.59
   0   0 -10   35.33    1.86
   0   0 -10   31.09    2.97
   0   0 -10   32.53    3.25
   0   0  10   33.89    1.87
   0   0  10   30.63    2.68
  -1   0 -10  111.41    6.50
  -1   0 -10   80.61    5.88
   1   0  10   90.63    5.88
  -2   0 -10   -0.28    1.48
  -2   0 -10    0.43    0.80
   2   0  10    2.95    1.78
  -3   0 -10   18.31    2.98
   3   0  10   25.22    3.32
   3   0  10   20.46    2.46
   4   0  10   33.01    3.90
   5   0  10    1.43    2.90
  -7   1  10   19.10    2.60
   6  -1 -10   28.76    3.24
   6  -1 -10   33.80    3.46
   6  -1 -10   26.50    2.35
  -6   1  10   32.23    3.19
  -6   1  10   35.23    2.56
   5  -1 -10    9.96    2.30
   5  -1 -10   12.73    2.21
   5  -1 -10   14.01    1.44
  -5   1  10   13.32    1.55
  -5   1  10   10.51    1.82
   4  -1 -10   47.99    3.63
   4  -1 -10   42.54    3.35
   4  -1 -10   42.14    2.58
  -4   1  10   48.00    2.71
  -4   1  10   40.83    3.30
   3  -1 -10   10.27    1.95
   3  -1 -10    7.75    1.87
   3  -1 -10    8.81    0.95
  -3   1  10    9.71    1.96
  -3   1  10    8.35    1.07
   2  -1 -10   15.35    1.14
   2  -1 -10   16.12    2.15
  -2   1  10   16.39    2.14
  -2   1  10   12.73    1.08
   1  -1 -10   53.61    3.98
   1  -1 -10   57.66    2.85
   1  -1 -10   56.74    4.20
  -1   1  10   52.91    3.84
   0  -1 -10    2.45    1.64
   0  -1 -10    0.96    1.81
   0   1  10    0.52    1.23
  -1  -1 -10   58.51    4.63
   1   1  10   58.37    4.82
   1   1  10   59.86    4.25
  -2  -1 -10   34.25    3.10
   2   1  10   31.19    2.54
   2   1  10   24.10    3.53
  -3  -1 -10   16.94    2.98
   3   1  10   16.72    1.95
   3   1  10   10.42    3.08
   4   1  10   28.14    3.86
   5   1  10    9.73    2.51
   6   1  10    4.11    2.35
  -7   2  10    1.52    2.21
   6  -2 -10   28.33    2.95
   6  -2 -10   30.12    3.54
   6  -2 -10   27.30    2.15
  -6   2  10   25.57    2.33
  -6   2  10   23.61    3.01
   5  -2 -10   14.26    1.41
   5  -2 -10   17.21    2.32
   5  -2 -10   10.17    2.37
  -5   2  10   12.70    1.47
  -5   2  10   12.76    2.45
   4  -2 -10   17.59    1.43
   4  -2 -10   20.25    2.11
   4  -2 -10   19.94    2.35
  -4   2  10   16.80    1.42
  -4   2  10   16.73    2.09
   3  -2 -10   72.87    3.58
   3  -2 -10   71.47    4.72
   3  -2 -10   64.81    4.80
  -3   2  10   63.66    4.77
   2  -2 -10   -0.76    1.54
  -2   2  10   -0.33    1.28
   1  -2 -10   65.37    4.69
   1  -2 -10   64.77    4.44
  -1   2  10   64.72    4.39
   0  -2 -10   20.66    2.66
   0  -2 -10   27.58    2.56
   0   2  10   18.42    2.47
   0   2  10   16.22    3.04
  -1  -2 -10    0.42    2.15
   1   2  10    1.94    2.63
   1   2  10    4.77    1.87
  -2  -2 -10   16.57    2.33
   2   2  10   13.05    1.84
   2   2  10   16.77    3.26
   3   2  10   15.89    3.33
   4   2  10   20.95    3.70
   5   2  10    9.90    2.69
  -7   3  10   14.84    2.73
   6  -3 -10   21.53    1.85
   6  -3 -10   20.10    2.49
  -6   3  10   16.09    1.76
  -6   3  10   17.14    2.32
   5  -3 -10   29.81    2.60
   5  -3 -10   35.84    2.97
   5  -3 -10   27.60    2.15
  -5   3  10   28.88    2.15
  -5   3  10   31.16    3.23
   4  -3 -10    0.54    1.18
   4  -3 -10    0.68    1.35
  -4   3  10    0.39    1.45
   3  -3 -10   31.23    2.45
   3  -3 -10   26.37    2.74
  -3   3  10   23.82    2.84
   2  -3 -10    9.16    1.84
   2  -3 -10    8.77    1.92
  -2   3  10    9.40    1.74
   1  -3 -10    1.70    1.58
   1  -3 -10    2.58    1.83
  -1   3  10    1.50    1.40
   0  -3 -10   56.18    4.39
   0  -3 -10   53.42    3.76
   0   3  10   50.33    4.74
   0   3  10   52.22    4.03
  -1  -3 -10   -0.68    2.15
   1   3  10    0.39    1.31
   1   3  10    7.59    2.85
   2   3  10   28.96    2.96
   2   3  10   37.84    4.24
   3   3  10   19.01    3.71
   4   3  10   -3.63    3.26
   5   3  10   10.07    3.78
   6  -4 -10   -1.17    1.13
  -6   4  10    1.67    2.49
   5  -4 -10   59.00    4.41
  -5   4  10   48.06    3.96
   4  -4 -10   46.46    3.36
   4  -4 -10   40.26    3.73
  -4   4  10   40.76    3.87
   3  -4 -10    8.19    1.59
   3  -4 -10    7.30    1.76
  -3   4  10    9.91    2.32
   2  -4 -10   76.21    4.91
   2  -4 -10   80.40    5.22
  -2   4  10   77.93    5.40
   1  -4 -10    7.83    1.76
   1  -4 -10    5.78    1.40
  -1   4  10    2.80    1.86
  -1   4  10    4.87    2.21
   0  -4 -10    1.43    1.28
   0  -4 -10    3.86    1.62
   0   4  10    6.42    2.76
   0   4  10    4.93    2.06
   1   4  10   35.08    2.91
   1   4  10   32.59    3.44
   2   4  10    5.05    3.30
   3   4  10    6.54    3.52
   4   4  10   11.81    3.01
  -6   5  10   13.69    2.36
  -5   5  10    7.69    2.02
   4  -5 -10   27.45    3.06
  -4   5  10   21.03    3.09
   3  -5 -10   11.82    2.18
  -3   5  10   10.75    2.62
   2  -5 -10   11.29    1.89
   2  -5 -10   14.42    2.20
  -2   5  10   12.88    2.61
  -2   5  10   12.02    2.58
   1  -5 -10   43.55    3.80
   1  -5 -10   45.21    3.28
  -1   5  10   42.41    4.11
  -1   5  10   37.99    3.82
   0  -5 -10   -1.09    2.26
   0   5  10   -0.49    2.78
   0   5  10    0.73    1.55
   1   5  10   36.64    4.53
   2   5  10    6.22    2.75
   3   5  10    0.17    2.51
  -5   6  10   13.25    3.00
  -4   6  10   28.87    3.09
  -3   6  10   56.75    4.32
  -2   6  10   -0.85    2.40
  -2   6  10    0.18    1.90
  -2   6  10    1.02    2.31
  -1   6  10   22.05    2.50
  -1   6  10   18.44    2.75
   0   6  10   16.95    3.56
   0   6  10   16.02    2.73
   1   6  10    3.15    3.60
   2   6  10   32.17    4.79
  -2   7  10   39.57    3.97
  -1   7  10   10.52    3.11
   0   7  10   29.99    4.25
   1   7  10    3.87    3.71
  -3   8  10    2.64    2.50
  -1   8  10    8.86    3.25
  -3   9  10    7.04    2.75
   0 -10  11   18.73    2.92
  -1  -9  11   14.28    2.56
   0  -9  11    7.35    2.46
  -1  -8  11   10.58    2.37
   0   8 -11    8.59    1.96
   0  -8  11    8.09    2.42
  -1   8 -11   25.69    3.11
   1  -8  11   24.69    3.22
  -2  -7  11    2.96    1.43
   1   7 -11   42.54    4.15
   1   7 -11   41.15    3.92
  -1  -7  11   34.28    3.33
   0   7 -11    8.81    1.53
   0   7 -11   10.82    2.88
   0   7 -11    6.16    2.43
   0  -7  11    9.90    1.84
   0  -7  11    9.56    2.01
  -1   7 -11    3.18    1.75
  -1   7 -11   -1.65    2.56
  -1   7 -11    3.49    2.27
   1  -7  11    4.49    2.26
   1  -7  11    3.56    1.80
  -2   7 -11   14.56    2.73
  -2   7 -11   17.87    2.28
  -2   7 -11   23.67    3.48
   2  -7  11   23.89    2.41
  -3   7 -11   10.40    2.43
   7  -7  11    2.43    3.05
  -3  -6  11   33.50    3.03
   2   6 -11   29.95    2.87
   2   6 -11   36.15    3.66
  -2  -6  11   31.97    2.86
  -2  -6  11   31.08    3.04
   1   6 -11    2.53    1.59
   1   6 -11    0.02    2.22
   1   6 -11    1.91    2.22
  -1  -6  11   -2.75    1.63
  -1  -6  11    3.48    2.01
   0   6 -11   36.56    2.59
   0   6 -11   45.47    3.82
   0   6 -11   42.59    4.21
   0  -6  11   38.40    3.14
   0  -6  11   36.98    2.68
  -1   6 -11   47.74    4.18
  -1   6 -11   51.75    4.21
  -1   6 -11   52.18    3.11
   1  -6  11   47.74    3.14
   1  -6  11   46.36    4.07
  -2   6 -11   11.47    2.95
  -2   6 -11   10.57    1.87
  -2   6 -11   11.19    2.43
   2  -6  11   10.13    1.87
   2  -6  11    8.76    2.41
  -3   6 -11   36.16    3.20
  -3   6 -11   36.24    2.92
  -3   6 -11   29.93    3.92
   3  -6  11   34.62    3.58
   3  -6  11   39.50    2.68
  -4   6 -11    2.05    1.49
  -4   6 -11    0.22    2.24
   4  -6  11    4.17    2.55
   5  -6  11    8.77    2.11
   6  -6  11    4.62    2.77
   7  -6  11    2.42    2.82
   3   5 -11    4.47    2.45
   3   5 -11    2.45    1.84
  -3  -5  11    4.22    1.85
  -3  -5  11    2.22    1.90
   2   5 -11   60.25    3.58
   2   5 -11   67.45    4.89
  -2  -5  11   59.72    3.93
  -2  -5  11   61.73    4.40
   1   5 -11    9.10    1.64
   1   5 -11   14.16    2.46
   1   5 -11   14.89    2.55
  -1  -5  11   11.77    1.79
  -1  -5  11   13.57    2.30
   0   5 -11   16.73    2.64
   0   5 -11   15.65    2.31
   0   5 -11   15.74    1.76
   0  -5  11   13.96    2.39
   0  -5  11   13.60    1.82
  -1   5 -11   41.98    2.64
  -1   5 -11   45.79    3.84
  -1   5 -11   42.16    4.24
   1  -5  11   42.12    2.94
   1  -5  11   37.33    3.50
  -2   5 -11    5.51    2.32
  -2   5 -11    8.26    2.05
  -2   5 -11    7.02    1.23
   2  -5  11    4.56    2.21
   2  -5  11    8.25    1.61
  -3   5 -11   28.79    3.28
  -3   5 -11   28.25    2.55
  -3   5 -11   32.89    3.33
   3  -5  11   27.52    2.57
   3  -5  11   24.19    3.12
  -4   5 -11   32.05    3.19
  -4   5 -11   37.57    3.27
   4  -5  11   30.57    3.45
   5  -5  11   -0.39    2.30
   6  -5  11   14.66    2.96
   4   4 -11   60.27    4.22
  -4  -4  11   55.92    4.16
   3   4 -11   11.90    1.74
   3   4 -11    9.55    2.00
  -3  -4  11   13.72    1.90
  -3  -4  11   12.16    2.14
   2   4 -11    7.04    1.81
   2   4 -11    6.62    1.13
  -2  -4  11    9.89    1.61
  -2  -4  11    5.46    1.97
   1   4 -11  116.04    7.38
   1   4 -11  113.10    7.16
   1   4 -11  119.56    6.01
  -1  -4  11  110.74    7.01
  -1  -4  11  112.52    6.18
   0   4 -11   20.56    2.98
   0   4 -11   22.09    1.92
   0   4 -11   26.80    2.55
   0  -4  11   23.71    2.06
   0  -4  11   22.00    2.35
  -1   4 -11   56.30    4.52
  -1   4 -11   46.20    4.02
  -1   4 -11   49.37    3.01
   1  -4  11   44.33    3.06
  -2   4 -11   54.28    3.19
  -2   4 -11   52.99    4.38
  -2   4 -11   54.90    4.04
   2  -4  11   52.43    4.21
   2  -4  11   58.18    3.40
  -3   4 -11    2.63    1.58
  -3   4 -11    1.80    2.47
  -3   4 -11   -1.18    1.32
   3  -4  11    0.04    1.32
   3  -4  11    0.76    2.14
  -4   4 -11   17.56    1.92
  -4   4 -11   13.46    2.13
  -4   4 -11   13.70    2.80
   4  -4  11   12.30    2.59
   4  -4  11   15.72    1.91
   5  -4  11   11.89    2.66
   6  -4  11   -0.28    2.38
   5   3 -11   21.17    2.47
   4   3 -11    6.95    2.41
   4   3 -11    6.76    1.62
   4   3 -11    8.31    2.12
  -4  -3  11    5.58    1.69
  -4  -3  11    5.29    1.96
   3   3 -11   51.05    3.82
   3   3 -11   52.89    3.11
  -3  -3  11   47.00    3.23
  -3  -3  11   46.49    3.54
   2   3 -11   -0.72    1.13
   2   3 -11    4.98    1.62
  -2  -3  11    3.61    1.38
  -2  -3  11    2.14    1.23
   1   3 -11   44.51    2.62
   1   3 -11   41.58    3.71
   1   3 -11   43.14    3.78
  -1  -3  11   42.35    2.73
  -1  -3  11   37.11    3.40
   0   3 -11   25.31    2.98
   0   3 -11   28.73    1.99
   0   3 -11   29.87    3.29
   0  -3  11   29.77    2.11
   0  -3  11   26.23    2.94
  -1   3 -11    0.43    1.42
  -1   3 -11    1.11    1.07
  -1   3 -11    2.22    1.66
   1  -3  11    1.96    2.00
   1  -3  11    1.86    1.05
  -2   3 -11   47.81    3.55
  -2   3 -11   46.42    3.90
  -2   3 -11   41.95    2.74
   2  -3  11   42.36    2.76
   2  -3  11   43.60    3.41
  -3   3 -11   26.83    3.53
  -3   3 -11   33.29    3.22
  -3   3 -11   29.10    2.25
  -3   3 -11   22.67    2.10
   3  -3  11   24.16    2.07
   3  -3  11   23.81    2.49
  -4   3 -11    5.98    1.56
   4  -3  11    5.97    1.44
   4  -3  11    4.56    2.25
   5  -3  11   29.68    3.29
   5   2 -11   29.60    3.24
  -5  -2  11   31.24    3.01
   4   2 -11   -0.16    1.86
   4   2 -11    0.52    1.32
   4   2 -11    0.81    2.20
  -4  -2  11    0.02    1.46
  -4  -2  11    3.59    1.92
   3   2 -11   27.93    2.75
   3   2 -11   24.39    2.02
  -3  -2  11   26.35    2.72
  -3  -2  11   29.62    2.21
   2   2 -11   77.80    4.89
   2   2 -11   67.43    3.82
  -2  -2  11   74.79    4.00
  -2  -2  11   62.43    4.77
   1   2 -11    1.84    0.94
   1   2 -11    1.50    1.90
   1   2 -11   -0.01    1.89
  -1  -2  11    2.26    0.98
  -1  -2  11    1.98    1.87
   0   2 -11   54.24    3.07
   0   2 -11   58.87    4.36
   0   2 -11   56.14    4.54
   0  -2  11   53.79    3.92
   0  -2  11   55.33    3.14
  -1   2 -11   27.89    1.97
  -1   2 -11   22.84    2.76
  -1   2 -11   21.99    2.74
   1  -2  11   26.07    1.81
   1  -2  11   27.17    2.52
  -2   2 -11   16.21    2.40
  -2   2 -11   16.77    2.53
  -2   2 -11   17.48    1.66
   2  -2  11   10.17    2.38
  -3   2 -11   20.78    1.89
  -3   2 -11   24.00    3.32
   3  -2  11   22.52    2.78
  -4   2 -11    7.38    1.48
   4  -2  11    7.99    2.29
  -6  -1  11   10.40    2.22
   5   1 -11   10.64    1.37
   5   1 -11    8.74    1.81
   5   1 -11    7.87    1.93
  -5  -1  11    6.01    1.66
  -5  -1  11    6.78    2.21
   4   1 -11   35.47    2.96
   4   1 -11   30.05    2.28
   4   1 -11   32.41    2.86
  -4  -1  11   28.86    2.37
  -4  -1  11   33.93    2.80
   3   1 -11    7.63    1.21
   3   1 -11    6.86    2.24
  -3  -1  11    7.73    1.25
  -3  -1  11    5.94    1.54
   2   1 -11   31.05    2.02
   2   1 -11   36.50    2.95
  -2  -1  11   34.59    2.13
  -2  -1  11   22.85    2.91
   1   1 -11    2.61    1.90
   1   1 -11    4.40    0.87
   1   1 -11    3.17    1.42
  -1  -1  11    4.61    0.86
  -1  -1  11    2.23    1.85
   0   1 -11   20.29    1.54
   0   1 -11   21.79    2.79
   0   1 -11   18.95    2.20
   0  -1  11   20.10    1.47
   0  -1  11   16.56    2.51
  -1   1 -11   29.80    3.10
  -1   1 -11   33.94    2.01
  -1   1 -11   30.06    3.09
   1  -1  11   26.61    3.03
  -2   1 -11   11.78    2.77
  -2   1 -11    9.42    1.82
  -2   1 -11    9.70    1.27
   2  -1  11   10.17    2.27
  -3   1 -11   48.44    4.67
   3  -1  11   49.70    3.66
   4  -1  11   13.94    2.48
  -6   0  11   18.80    2.71
   5   0 -11    1.74    1.59
   5   0 -11    3.88    1.33
   5   0 -11    6.22    1.75
  -5   0  11    5.24    1.47
  -5   0  11    5.29    2.22
   4   0 -11   55.07    3.12
   4   0 -11   52.80    4.25
   4   0 -11   55.34    4.31
  -4   0  11   45.81    4.14
  -4   0  11   55.38    3.23
   3   0 -11   16.11    1.48
   3   0 -11   17.28    2.13
   3   0 -11   16.87    2.36
  -3   0  11   18.65    1.70
  -3   0  11   19.47    2.14
   2   0 -11    7.62    2.12
   2   0 -11    5.08    0.84
  -2   0  11    1.57    1.43
  -2   0  11    4.58    0.80
   1   0 -11   83.85    5.39
   1   0 -11   78.31    4.01
   1   0 -11   78.10    5.51
  -1   0  11   73.54    5.31
   0   0 -11    2.98    2.07
   0   0 -11    0.94    1.86
   0   0  11   -2.15    1.91
  -1   0 -11   23.55    2.73
  -1   0 -11   25.48    3.15
   1   0  11   19.62    2.73
  -2   0 -11   35.24    3.39
   2   0  11   34.46    3.27
   3   0  11    5.14    2.13
  -7   1  11   -1.45    2.10
  -6   1  11   33.18    3.41
   5  -1 -11   17.68    2.18
   5  -1 -11   16.27    1.65
   5  -1 -11   15.38    2.69
  -5   1  11   18.07    1.82
  -5   1  11   14.78    2.16
   4  -1 -11   13.42    1.95
   4  -1 -11   15.43    1.48
   4  -1 -11   16.34    2.48
  -4   1  11   13.70    2.47
   3  -1 -11   40.09    2.40
   3  -1 -11   38.38    3.47
   3  -1 -11   44.66    3.25
  -3   1  11   39.39    3.22
   2  -1 -11    2.07    1.89
  -2   1  11    0.83    2.01
   1  -1 -11   19.13    2.49
   1  -1 -11   22.34    2.53
  -1   1  11   14.78    2.10
   0  -1 -11   59.40    4.45
   0  -1 -11   66.96    4.96
   0   1  11   61.81    4.52
  -1  -1 -11    0.44    2.30
  -1  -1 -11    2.11    2.02
   1   1  11    0.03    1.48
  -2  -1 -11   24.28    2.90
   2   1  11   22.94    2.79
   3   1  11   21.68    2.74
   4   1  11    7.22    3.29
  -7   2  11    3.36    2.51
  -6   2  11   19.70    3.02
   5  -2 -11   59.76    3.29
   5  -2 -11   55.94    4.29
  -5   2  11   51.50    4.49
   4  -2 -11    7.47    2.14
   4  -2 -11   11.07    1.78
  -4   2  11    6.96    2.32
   3  -2 -11   36.63    2.91
   3  -2 -11   37.04    3.06
  -3   2  11   30.73    3.31
   2  -2 -11   66.18    4.44
  -2   2  11   54.93    4.49
   1  -2 -11    1.48    1.81
  -1   2  11    3.92    2.12
   0  -2 -11   42.30    3.63
   0  -2 -11   44.17    4.00
   0   2  11   48.01    3.88
  -1  -2 -11   15.79    2.49
  -1  -2 -11   10.37    2.74
   1   2  11   16.84    2.51
   2   2  11    7.82    2.26
   2   2  11    5.11    3.29
   3   2  11   22.25    3.82
   4   2  11    9.59    3.59
  -7   3  11   42.30    4.05
  -6   3  11    2.88    2.56
   5  -3 -11   23.58    2.68
  -5   3  11   20.65    3.09
   4  -3 -11   54.78    3.92
  -4   3  11   45.26    4.17
   3  -3 -11    0.68    1.81
   3  -3 -11    2.82    1.98
  -3   3  11   -1.41    2.20
   2  -3 -11   35.26    3.21
   2  -3 -11   35.89    3.32
  -2   3  11   37.23    3.56
   1  -3 -11   38.99    3.38
  -1   3  11   41.25    3.70
   0  -3 -11    2.52    2.22
   0  -3 -11    6.05    1.55
   0   3  11    2.60    2.24
   1   3  11   33.48    4.18
   1   3  11   32.00    2.90
   2   3  11    4.30    3.45
   3   3  11   10.55    3.73
   4   3  11    9.70    3.76
  -6   4  11   18.62    3.18
  -5   4  11   -1.50    2.48
  -4   4  11   35.93    3.59
  -3   4  11   31.65    3.01
   2  -4 -11   12.62    2.14
   2  -4 -11   17.80    2.44
  -2   4  11   11.93    2.73
   1  -4 -11   24.49    2.74
  -1   4  11   25.47    3.16
   0   4  11    9.10    3.16
   0   4  11   11.71    1.99
   1   4  11   17.04    3.90
   1   4  11   25.86    2.98
   2   4  11   18.44    4.03
   3   4  11    0.41    3.70
  -6   5  11   37.95    3.53
  -5   5  11   -1.49    1.85
  -4   5  11    2.15    2.63
  -3   5  11   50.22    4.41
  -2   5  11   -1.56    1.70
  -1   5  11    7.71    2.00
  -1   5  11    8.18    2.96
   0   5  11   27.04    3.25
   0   5  11   28.61    4.07
   1   5  11    7.64    3.51
   2   5  11   10.92    4.06
  -5   6  11   27.34    3.68
  -4   6  11    0.15    1.91
  -3   6  11    2.67    2.72
  -2   6  11   33.36    3.23
  -1   6  11   14.67    2.86
  -1   6  11    6.75    3.06
   0   6  11   12.67    2.87
   1   6  11   12.51    4.08
  -1   7  11   14.70    2.73
   0   7  11    0.42    3.38
   1 -11  12   -0.71    2.68
   2 -11  12    0.83    2.99
   0 -10  12    1.33    2.49
   1 -10  12   14.95    3.10
   2 -10  12    2.17    2.96
  -1  -9  12   16.40    2.71
   0  -9  12    1.79    2.51
   1  -9  12    2.07    2.69
   2  -9  12   19.98    3.41
  -1  -8  12    4.93    2.35
   0  -8  12   44.52    4.11
   1  -8  12   -1.99    2.48
   2  -8  12   12.04    3.07
   3  -8  12   18.65    3.39
   5  -8  12    3.62    3.10
   6  -8  12   12.55    3.42
  -2  -7  12   21.83    2.79
  -1  -7  12   -0.84    2.24
   0  -7  12   31.82    3.55
  -1   7 -12   23.72    2.84
   2  -7  12   -0.17    2.48
   3  -7  12   22.80    3.38
   4  -7  12    4.91    2.87
   5  -7  12    3.42    2.13
   6  -7  12    4.17    3.05
  -3  -6  12    2.19    2.05
  -2  -6  12   42.40    3.31
   1   6 -12   10.20    2.79
  -1  -6  12   13.40    2.51
   0   6 -12    0.35    2.47
   0   6 -12    2.65    2.62
   0  -6  12    4.54    1.79
  -1   6 -12   39.18    3.41
  -1   6 -12   38.91    4.20
   1  -6  12   27.34    3.45
  -2   6 -12    2.50    1.78
   2  -6  12    1.23    2.38
   3  -6  12    1.63    1.84
   4  -6  12   36.78    3.44
   5  -6  12   -1.74    2.66
   6  -6  12   11.29    3.17
  -3  -5  12    7.21    2.16
  -2  -5  12    2.26    1.57
   1   5 -12   30.11    3.42
   1   5 -12   28.80    3.45
   1   5 -12   29.47    2.43
  -1  -5  12   27.60    2.65
  -1  -5  12   31.61    3.33
   0   5 -12    5.05    1.89
   0   5 -12    7.22    2.65
   0   5 -12    6.66    1.59
   0  -5  12    6.83    2.37
   0  -5  12    4.73    1.61
  -1   5 -12   10.12    2.33
  -1   5 -12   14.76    2.76
  -1   5 -12    8.10    1.63
   1  -5  12    9.77    1.72
   1  -5  12    8.84    1.96
  -2   5 -12   44.31    3.04
  -2   5 -12   45.93    4.62
  -2   5 -12   39.86    4.17
   2  -5  12   43.89    3.65
   2  -5  12   45.08    3.13
   3  -5  12   -0.21    2.38
   4  -5  12   10.19    2.13
   5  -5  12    6.05    2.71
   6  -5  12   -1.48    2.58
  -4  -4  12    4.34    2.05
   3   4 -12   37.60    3.49
  -3  -4  12   33.18    2.94
   2   4 -12    0.64    0.98
   2   4 -12    0.12    1.64
  -2  -4  12    0.18    1.49
  -2  -4  12    4.40    1.53
   1   4 -12   15.68    2.69
   1   4 -12   18.45    2.86
   1   4 -12   15.53    1.70
  -1  -4  12   12.01    1.75
  -1  -4  12   13.44    2.54
   0   4 -12   31.07    3.65
   0   4 -12   30.12    2.34
   0   4 -12   39.61    3.69
   0  -4  12   26.23    2.34
   0  -4  12   34.30    2.93
  -1   4 -12    1.89    1.91
  -1   4 -12    0.81    1.26
  -1   4 -12    1.19    2.32
   1  -4  12    2.92    1.32
   1  -4  12    0.97    2.24
  -2   4 -12   24.10    2.15
  -2   4 -12   22.67    3.50
  -2   4 -12   24.80    3.17
   2  -4  12   24.07    2.14
   2  -4  12   20.94    2.58
  -3   4 -12   27.67    2.72
   3  -4  12   24.80    2.25
   3  -4  12   22.46    3.10
   4  -4  12   -0.08    2.38
   5  -4  12   25.23    3.38
  -4  -3  12    2.10    2.11
   3   3 -12   12.29    1.62
  -3  -3  12   13.81    1.94
  -3  -3  12    6.44    1.66
   2   3 -12   36.60    3.26
   2   3 -12   33.55    2.40
  -2  -3  12   34.77    2.53
  -2  -3  12   30.41    3.38
   1   3 -12    2.95    2.15
   1   3 -12    1.83    1.18
   1   3 -12    1.21    1.66
  -1  -3  12    1.10    2.12
  -1  -3  12    1.47    1.23
   0   3 -12   30.55    2.06
   0   3 -12   21.44    2.81
   0   3 -12   32.42    3.38
   0  -3  12   22.33    3.02
   0  -3  12   27.54    2.08
  -1   3 -12   46.50    2.88
  -1   3 -12   49.38    4.08
  -1   3 -12   49.10    4.14
   1  -3  12   42.87    3.98
   1  -3  12   47.29    3.03
  -2   3 -12   15.19    2.60
  -2   3 -12   19.20    2.87
  -2   3 -12   15.83    1.64
   2  -3  12   14.84    2.70
   2  -3  12   14.44    1.76
  -3   3 -12   13.66    1.76
   3  -3  12    9.75    1.47
   3  -3  12   13.16    2.64
   4  -3  12    6.63    2.54
   5  -3  12    1.14    2.44
  -5  -2  12   18.40    2.27
  -4  -2  12   25.79    2.97
   3   2 -12   10.29    2.51
   3   2 -12    7.87    1.36
  -3  -2  12    6.68    1.47
  -3  -2  12    5.75    2.29
   2   2 -12   59.90    3.52
   2   2 -12   68.45    4.79
  -2  -2  12   56.92    4.27
  -2  -2  12   59.48    3.54
   1   2 -12    9.33    2.41
   1   2 -12    8.05    1.18
   1   2 -12    5.31    2.29
  -1  -2  12    9.68    1.24
  -1  -2  12    8.65    1.84
   0   2 -12    0.15    2.17
   0   2 -12    6.37    2.46
   0   2 -12    4.49    1.04
   0  -2  12    1.61    2.26
   0  -2  12    5.03    1.01
  -1   2 -12   39.53    2.55
  -1   2 -12   38.61    3.72
  -1   2 -12   38.72    3.83
   1  -2  12   42.30    3.38
  -2   2 -12    9.56    1.28
  -2   2 -12    8.94    2.90
   2  -2  12   11.22    2.53
   3  -2  12   12.97    2.14
   4  -2  12   31.22    3.47
  -6  -1  12   25.10    3.03
  -5  -1  12    1.54    2.24
   4   1 -12   53.88    3.15
  -4  -1  12   41.33    3.97
  -4  -1  12   54.63    3.29
   3   1 -12   28.31    2.08
   3   1 -12   29.84    3.38
   3   1 -12   27.14    3.12
  -3  -1  12   26.82    2.72
  -3  -1  12   28.18    2.12
   2   1 -12    4.23    1.04
   2   1 -12    5.79    2.35
  -2  -1  12    6.52    1.74
  -2  -1  12    5.01    1.24
   1   1 -12  102.75    5.39
   1   1 -12  112.34    6.82
   0   1 -12    7.85    2.47
   0   1 -12    4.64    2.27
   0  -1  12    7.87    1.84
  -1   1 -12    2.15    2.10
  -1   1 -12    2.83    2.46
   1  -1  12    1.04    2.22
   2  -1  12   31.48    3.32
   3  -1  12    1.99    1.62
   4  -1  12    1.92    2.31
  -6   0  12   16.32    2.83
  -5   0  12   40.81    3.44
   4   0 -12    2.63    1.17
  -4   0  12    2.34    1.71
  -4   0  12    3.54    1.22
   3   0 -12   49.64    2.87
   3   0 -12   52.67    4.27
   3   0 -12   52.20    4.09
  -3   0  12   43.23    4.02
   2   0 -12    4.44    2.22
  -2   0  12    3.42    1.71
   1   0 -12    8.08    2.30
  -1   0  12    6.68    2.42
   0   0 -12   29.86    3.13
   0   0 -12   29.98    3.23
   0   0  12   31.70    3.41
  -1   0 -12    3.90    1.90
   1   0  12    5.18    2.42
   2   0  12   10.66    2.59
   3   0  12   36.81    3.64
  -7   1  12   16.66    2.92
  -6   1  12    6.57    2.65
  -5   1  12   39.23    3.78
  -4   1  12   19.19    2.94
   3  -1 -12   13.44    2.52
  -3   1  12   13.61    2.63
   2  -1 -12   57.11    4.17
  -2   1  12   42.75    3.66
   1  -1 -12    9.68    2.40
  -1   1  12   13.36    2.14
   0  -1 -12   32.28    3.69
   0   1  12   27.44    3.38
  -1  -1 -12   17.87    3.38
   1   1  12   16.05    2.77
   2   1  12   -1.92    2.21
  -7   2  12   13.61    3.01
  -6   2  12    1.39    2.62
  -5   2  12   14.04    2.31
  -4   2  12   20.71    3.07
   3  -2 -12    2.44    2.07
  -3   2  12    3.11    1.78
   2  -2 -12   21.68    2.70
  -2   2  12   14.54    2.95
   1  -2 -12   15.86    2.24
  -1   2  12   21.39    3.02
   0   2  12    2.39    2.42
   1   2  12   41.32    3.88
   2   2  12    9.16    2.56
  -7   3  12   33.47    3.91
  -6   3  12    7.02    2.13
  -5   3  12    3.26    2.75
  -4   3  12   26.10    3.40
  -3   3  12   25.33    3.33
  -2   3  12    0.20    1.80
  -1   3  12   41.28    3.96
   0   3  12    3.04    2.53
   1   3  12    9.21    2.04
   3   3  12    8.30    3.80
  -6   4  12   24.55    3.62
  -5   4  12    2.40    2.79
  -4   4  12    0.43    2.73
  -3   4  12   32.57    3.72
  -2   4  12   -1.44    2.60
  -1   4  12    5.56    2.72
   0   4  12   36.34    3.78
   1   4  12    0.61    2.47
   1   4  12   -3.04    3.32
   2   4  12   17.49    3.32
  -6   5  12    5.89    2.19
  -5   5  12   24.19    3.63
  -4   5  12   12.64    2.51
  -3   5  12    5.17    2.14
  -2   5  12   30.97    3.81
  -1   5  12   -3.65    2.57
   0   5  12   12.46    2.81
   1   5  12    2.34    2.62
  -5   6  12   14.03    3.35
  -4   6  12    3.03    3.04
  -3   6  12   -0.35    2.89
  -2   6  12    7.99    2.92
  -1   6  12   17.66    3.19
   0 -10  13    6.40    2.75
   1 -10  13    1.81    2.85
   2 -10  13    9.92    3.28
   3 -10  13   -6.23    3.35
  -1  -9  13    8.63    2.02
   0  -9  13   13.15    2.95
   1  -9  13    5.85    3.02
   2  -9  13    3.23    2.23
   3  -9  13   14.10    3.58
   4  -9  13    0.43    2.41
  -1  -8  13    5.34    1.92
   0  -8  13   26.32    3.49
   1  -8  13    5.11    2.13
   2  -8  13    1.41    2.96
   3  -8  13   18.78    2.90
   4  -8  13    3.39    3.24
   5  -8  13    0.18    2.24
  -2  -7  13   10.82    2.55
  -1  -7  13   14.75    2.88
   0  -7  13   -2.16    2.54
   1  -7  13   20.26    3.32
   2  -7  13    8.68    3.02
   3  -7  13    5.86    2.25
   4  -7  13   17.21    2.85
   5  -7  13   -0.87    3.00
  -3  -6  13   17.84    2.30
  -2  -6  13    1.52    2.36
  -1  -6  13   24.43    2.74
   0  -6  13    9.41    2.84
   1  -6  13   14.84    3.06
   2  -6  13   15.35    3.14
   3  -6  13    3.79    2.83
   4  -6  13   10.35    3.00
   5  -6  13   12.30    3.22
  -3  -5  13   39.40    3.70
  -2  -5  13   13.93    2.78
  -1  -5  13    1.41    1.81
   0  -5  13   28.00    3.46
   1  -5  13    1.31    1.83
   2  -5  13   10.54    2.93
   3  -5  13   15.61    2.48
   4  -5  13    4.56    2.80
   5  -5  13    9.91    3.07
  -4  -4  13   16.44    2.71
  -3  -4  13    4.53    2.38
  -2  -4  13   23.47    3.16
  -1  -4  13    3.38    2.52
   0   4 -13   13.36    3.05
   0  -4  13    9.81    2.72
   1  -4  13   21.95    3.25
   2  -4  13   -0.41    1.81
   3  -4  13    9.27    2.21
   4  -4  13    7.82    2.78
   5  -4  13   -1.82    2.67
  -5  -3  13   11.82    2.59
  -4  -3  13   27.10    3.19
  -3  -3  13   14.38    2.68
  -2  -3  13   17.02    2.92
   1   3 -13   17.65    1.83
  -1  -3  13   13.51    1.68
  -1  -3  13   19.65    2.42
   0   3 -13    6.54    2.69
   0   3 -13    6.71    1.30
   0  -3  13    0.90    2.49
   0  -3  13    6.58    1.52
   1  -3  13   18.36    3.13
   2  -3  13   12.32    2.92
   3  -3  13    2.98    2.61
   4  -3  13   10.22    2.18
  -5  -2  13   -2.48    2.26
  -4  -2  13    3.47    2.42
  -3  -2  13   22.70    3.08
   2   2 -13    1.55    1.20
  -2  -2  13    1.02    2.39
  -2  -2  13    1.54    1.19
   1   2 -13   30.07    2.12
  -1  -2  13   27.71    3.44
   0   2 -13   17.83    2.66
   0  -2  13   20.52    3.10
   1  -2  13    0.34    2.51
   2  -2  13   15.42    3.00
   3  -2  13    4.74    1.96
   4  -2  13    3.43    1.90
  -6  -1  13   15.29    2.30
  -5  -1  13   22.37    3.17
  -4  -1  13    3.43    2.50
  -3  -1  13   15.80    2.31
  -2  -1  13   19.10    2.55
  -1  -1  13    6.72    2.70
   0  -1  13   25.70    3.42
   1  -1  13   -1.14    2.50
   2  -1  13   14.27    2.98
   3  -1  13   21.05    3.15
  -6   0  13    2.19    2.58
  -5   0  13   18.27    3.07
  -4   0  13    8.11    2.04
  -3   0  13   12.42    2.90
  -2   0  13   44.78    3.78
  -1   0  13    2.88    1.95
   0   0  13   17.52    2.58
   1   0  13   25.10    2.84
   2   0  13   -0.22    2.57
   3   0  13   20.04    3.05
  -7   1  13   23.45    2.83
  -6   1  13    1.59    2.71
  -5   1  13    3.62    1.98
  -4   1  13   23.91    3.35
  -3   1  13    2.83    2.66
  -2   1  13   16.50    3.06
  -1   1  13   23.48    3.39
   0   1  13    1.56    2.65
   1   1  13   25.03    3.41
   2   1  13   22.39    3.20
  -7   2  13    3.50    2.84
  -6   2  13   23.85    3.48
  -5   2  13    4.61    2.84
  -4   2  13   19.32    3.31
  -3   2  13   17.83    3.24
  -2   2  13   -1.51    2.66
  -1   2  13   17.31    3.21
   0   2  13   10.77    2.98
   1   2  13   -2.53    2.63
   2   2  13   13.22    2.88
  -6   3  13   10.46    3.19
  -5   3  13   10.21    2.46
  -4   3  13    4.51    2.90
  -3   3  13   15.59    2.62
  -2   3  13    8.74    2.36
  -1   3  13    0.36    2.72
   0   3  13   17.40    3.24
   1   3  13    5.06    2.68
  -6   4  13    0.77    3.13
  -5   4  13   18.11    3.40
  -4   4  13    9.85    3.28
  -3   4  13    0.46    2.98
  -2   4  13   11.85    3.25
  -1   4  13    3.43    2.84
   0   4  13    3.43    2.80
  -5   5  13    6.32    3.21
  -4   5  13   13.84    3.41
  -3   5  13   -0.87    3.03
  -2   5  13   -2.37    2.85
  -1   5  13   25.12    3.56
   1  -9  14   16.45    3.49
   2  -9  14    2.08    3.24
  -1  -8  14   12.30    2.30
   0  -8  14    1.45    2.88
   1  -8  14    0.63    2.19
   2  -8  14   11.18    2.62
   3  -8  14   -0.66    3.21
  -2  -7  14    0.99    1.77
  -1  -7  14    9.11    2.87
   0  -7  14   11.07    3.15
   1  -7  14   -1.22    2.95
   2  -7  14   14.75    2.71
   3  -7  14   -3.92    3.02
   4  -7  14   -2.18    3.09
  -3  -6  14   19.61    2.99
  -2  -6  14   10.45    2.86
  -1  -6  14    3.77    1.98
   0  -6  14   16.27    2.63
   1  -6  14    1.05    2.15
   2  -6  14   -1.13    2.06
   3  -6  14   19.56    3.54
   4  -6  14    2.87    2.19
  -3  -5  14   -1.76    2.47
  -2  -5  14   18.95    2.59
  -1  -5  14    8.25    2.19
   0  -5  14    7.69    2.96
   1  -5  14   23.60    3.54
   2  -5  14    2.00    2.88
   3  -5  14    6.28    2.96
   4  -5  14    8.79    3.11
  -4  -4  14   18.94    2.98
  -3  -4  14    7.71    2.68
  -2  -4  14   10.22    2.24
  -1  -4  14   17.85    2.64
   0  -4  14   -0.73    2.74
   1  -4  14    9.40    3.03
   2  -4  14   18.85    3.37
   3  -4  14    2.56    2.82
   4  -4  14    3.12    2.89
  -5  -3  14   -0.94    2.46
  -4  -3  14    9.04    2.72
  -3  -3  14   16.20    3.03
  -2  -3  14   -3.36    2.64
  -1  -3  14   34.20    3.91
   0  -3  14    7.66    3.06
   1  -3  14   -1.32    2.76
   2  -3  14   19.70    3.38
   4  -3  14   -2.41    2.65
  -5  -2  14   25.16    3.34
  -4  -2  14   -2.24    2.52
  -3  -2  14   23.27    3.35
  -2  -2  14    0.44    2.73
  -1  -2  14    0.59    2.75
   0  -2  14   28.43    3.76
   1  -2  14    9.48    3.05
   2  -2  14    4.02    2.84
   3  -2  14   17.35    2.63
  -6  -1  14   -1.26    2.46
  -5  -1  14   14.18    2.94
  -4  -1  14    4.09    2.79
  -3  -1  14    1.08    2.70
  -2  -1  14   43.97    4.34
  -1  -1  14    2.06    2.18
   0  -1  14    2.09    2.90
   1  -1  14   23.15    2.94
   2  -1  14    1.18    1.98
   3  -1  14    2.69    2.71
  -6   0  14   20.30    3.29
  -5   0  14    1.55    2.71
  -4   0  14   12.94    3.11
  -3   0  14   10.64    3.01
  -2   0  14    0.68    2.76
  -1   0  14   15.36    3.39
   0   0  14    5.25    2.90
   1   0  14   11.06    3.10
   2   0  14    7.30    2.17
  -6   1  14    5.69    2.94
  -5   1  14    7.90    3.08
  -4   1  14    1.72    2.97
  -3   1  14   19.83    3.49
  -2   1  14   -3.82    2.77
  -1   1  14   13.34    3.25
   0   1  14    6.03    3.00
   1   1  14    3.10    2.86
   2   1  14    7.93    2.19
  -5   2  14    9.59    2.46
  -4   2  14    3.44    2.24
  -3   2  14    8.15    3.29
  -2   2  14   12.48    3.34
  -1   2  14    0.69    2.11
   0   2  14    9.89    2.50
   1   2  14    1.68    2.83
  -5   3  14   22.75    3.81
  -4   3  14    9.10    2.55
  -3   3  14   -0.03    3.12
  -2   3  14   22.38    3.08
  -1   3  14   -1.78    2.99
   0   3  14    2.91    2.92
  -4   4  14   11.47    2.67
  -3   4  14    9.16    2.57
  -2   4  14    4.07    3.17
   0  -7  15   10.79    3.33
   1  -7  15    5.77    2.40
  -2  -6  15    8.57    2.25
  -1  -6  15    8.10    3.17
   0  -6  15    3.76    2.23
   1  -6  15   13.76    2.68
   2  -6  15    1.27    3.18
  -3  -5  15    4.69    2.72
  -2  -5  15    3.50    2.90
  -1  -5  15   13.64    3.29
   0  -5  15    6.02    3.09
   1  -5  15    6.77    3.19
  -3  -4  15    6.96    2.15
  -2  -4  15    2.93    2.97
  -1  -4  15   14.65    2.66
   0  -4  15    3.52    3.06
   1  -4  15    5.51    3.11
   2  -4  15   15.20    3.32
  -4  -3  15    1.55    2.77
  -3  -3  15    4.87    2.20
  -2  -3  15    9.24    3.12
  -1  -3  15    0.85    2.94
   0  -3  15   14.97    2.79
   1  -3  15    0.90    3.05
   2  -3  15   -1.18    2.82
  -4  -2  15   17.54    3.24
  -3  -2  15   -1.43    2.03
  -2  -2  15    7.27    3.17
  -1  -2  15    7.27    2.43
   0  -2  15    0.87    2.13
   1  -2  15   -0.54    2.98
   2  -2  15    3.25    2.95
  -4  -1  15    5.83    2.98
  -3  -1  15   10.91    3.23
  -2  -1  15    1.42    3.02
  -1  -1  15    2.84    3.16
   0  -1  15    4.63    2.39
   1  -1  15    8.07    3.10
  -4   0  15    5.12    3.07
  -3   0  15   19.19    2.92
  -2   0  15    1.31    3.20
  -1   0  15    6.24    3.40
   0   0  15   15.23    3.49
   1   0  15    3.46    2.96
  -4   1  15    4.34    3.14
  -3   1  15    7.68    3.37
  -2   1  15   11.05    3.56
  -1   1  15    0.30    2.26
   0   1  15   10.57    3.41
  -2   2  15   27.65    4.10
   0   0   0    0.00    0.00
;
_shelx_hkl_checksum              68471
_shelx_res_file
;
    SRSANEW30-4.res created by SHELXL-2014/7
TITL SRSA_a.res in P-1
CELL  0.71073   6.0313   7.7677   8.6375  101.270   94.952  111.578
ZERR     2.00   0.0002   0.0003   0.0003    0.002    0.002    0.002
LATT   1
SFAC  C    H    O    SR
UNIT  8    12   14   2
MERG   2
DFIX 0.85 0.02 O5 H5A O5 H5B O7 H7A O7 H7B
DFIX 0.82 0.02 O6 H6A O6 H6B
DFIX 1.35 0.02 H5A H5B H7A H7B
DFIX 1.38 0.02 H6A H6B
EQIV $1 x+1, y, z
HTAB O6 O7_$1
EQIV $2 x-1, y, z
HTAB O5 O3_$2
HTAB O5 O7
EQIV $3 x, y+1, z
HTAB O7 O1_$3
HTAB O7 O4_$3
FMAP   2
PLAN   20
OMIT -3 65
SIZE     0.05   0.10   0.15
ACTA
BOND   $H
CONF
L.S.  10
TEMP    23.00
WGHT    0.017900    0.087100
EXTI    0.068138
FVAR       0.39049
C1    1    0.157809    0.547589    0.952756    11.00000    0.01396    0.01097 =
         0.01561    0.00404    0.00425    0.00447
C2    1    0.007652    0.366798    0.987122    11.00000    0.01294    0.01016 =
         0.01396    0.00362    0.00328    0.00403
C3    1    0.967104    0.597543    0.584847    11.00000    0.01316    0.01807 =
         0.01227    0.00091    0.00146    0.00808
C4    1    0.816928    0.415579    0.472112    11.00000    0.01334    0.01692 =
         0.01215    0.00217    0.00211    0.00671
O1    3    0.346768    0.602515    0.894264    11.00000    0.01744    0.01609 =
         0.02914    0.00744    0.01246    0.00505
O2    3    0.019961    0.206514    0.971236    11.00000    0.01871    0.01000 =
         0.01976    0.00335    0.00345    0.00653
O3    3    0.931509    0.718172    0.687078    11.00000    0.01936    0.02515 =
         0.02054   -0.00661    0.00171    0.01246
O4    3    0.595492    0.310632    0.436990    11.00000    0.01202    0.02551 =
         0.01939   -0.00162    0.00235    0.00206
O5    3    0.360361    1.015211    0.850784    11.00000    0.01692    0.01647 =
         0.02091    0.00412    0.00211    0.00836
O7    3    0.335343    1.275449    0.685870    11.00000    0.03765    0.02195 =
         0.02784    0.00902    0.01694    0.01353
SR1   4    0.685234    0.873276    0.836448    11.00000    0.00949    0.01009 =
         0.01363    0.00206    0.00293    0.00395
O6    3    0.820248    1.073869    0.628868    11.00000    0.03912    0.03490 =
         0.03142    0.01751    0.00441    0.00105
H6A   2    0.965712    1.135177    0.632313    11.00000    0.06321
H5B   2    0.232071    0.919883    0.803720    11.00000    0.03486
H5A   2    0.364159    1.098357    0.800394    11.00000    0.03830
H7B   2    0.359580    1.376870    0.754221    11.00000    0.05499
H7A   2    0.406200    1.303002    0.610887    11.00000    0.04618
H6B   2    0.732571    1.073739    0.555974    11.00000    0.14644
HKLF 4
REM  SRSA_a.res in P-1
REM R1 =  0.0181 for    2440 Fo > 4sig(Fo)  and  0.0215 for all    2604 data
REM    134 parameters refined using      9 restraints
END
WGHT      0.0155      0.1040
REM Highest difference peak  0.494,  deepest hole -0.399,  1-sigma level  0.083
Q1    1   0.7829  0.9429  0.8075  11.00000  0.05    0.49
Q2    1   0.0888  0.4505  0.9609  11.00000  0.05    0.48
Q3    1   0.6162  0.8107  0.8872  11.00000  0.05    0.47
Q4    1   0.5911  0.9120  0.8166  11.00000  0.05    0.46
Q5    1   1.0847  0.6083  0.5737  11.00000  0.05    0.45
Q6    1   0.7901  0.8456  0.8725  11.00000  0.05    0.39
Q7    1   0.8777  0.5134  0.5383  11.00000  0.05    0.39
Q8    1   0.7668  0.8865  0.7222  11.00000  0.05    0.32
Q9    1   0.6210  0.2383  0.3862  11.00000  0.05    0.32
Q10   1  -0.0878  0.1450  0.9381  11.00000  0.05    0.30
Q11   1  -0.0840  0.3919  1.0161  11.00000  0.05    0.30
Q12   1   0.8620  1.0341  0.5250  11.00000  0.05    0.28
Q13   1   0.6875  0.3416  0.4720  11.00000  0.05    0.28
Q14   1   0.0271  0.2804  0.9991  11.00000  0.05    0.28
Q15   1   0.7130  0.7508  0.8463  11.00000  0.05    0.28
Q16   1   0.5335  1.5447  0.7189  11.00000  0.05    0.27
Q17   1   0.7635  1.1206  0.6962  11.00000  0.05    0.26
Q18   1   0.5356  0.2905  0.3425  11.00000  0.05    0.25
Q19   1   0.9659  0.6546  0.6405  11.00000  0.05    0.25
Q20   1   0.8242  0.6839  0.7274  11.00000  0.05    0.25
;
_shelx_res_checksum              57820
loop_
_space_group_symop_operation_xyz
'x, y, z'
'-x, -y, -z'
loop_
_atom_site_type_symbol
_atom_site_label
_atom_site_fract_x
_atom_site_fract_y
_atom_site_fract_z
_atom_site_U_iso_or_equiv
_atom_site_adp_type
_atom_site_calc_flag
_atom_site_occupancy
C C1 0.1578(2) 0.54759(18) 0.95276(16) 0.0134(2) Uani d 1
C C2 0.0077(2) 0.36680(18) 0.98712(16) 0.0123(2) Uani d 1
C C3 0.9671(2) 0.5975(2) 0.58485(16) 0.0144(2) Uani d 1
C C4 0.8169(2) 0.41558(19) 0.47211(16) 0.0141(2) Uani d 1
O O1 0.34677(19) 0.60251(15) 0.89426(14) 0.0205(2) Uani d 1
O O2 0.01996(18) 0.20651(13) 0.97124(12) 0.01593(19) Uani d 1
O O3 0.9315(2) 0.71817(16) 0.68708(13) 0.0225(2) Uani d 1
O O4 0.59549(19) 0.31063(16) 0.43699(13) 0.0216(2) Uani d 1
O O5 0.36036(19) 1.01521(15) 0.85078(13) 0.01772(19) Uani d 1
O O7 0.3353(2) 1.27545(17) 0.68587(16) 0.0274(3) Uani d 1
Sr Sr1 0.68523(2) 0.87328(2) 0.83645(2) 0.01111(5) Uani d 1
O O6 0.8202(3) 1.0739(2) 0.62887(18) 0.0379(3) Uani d 1
H H6A 0.966(3) 1.135(4) 0.632(4) 0.063(9) Uiso d 1
H H5B 0.232(3) 0.920(2) 0.804(3) 0.035(6) Uiso d 1
H H5A 0.364(4) 1.098(3) 0.800(3) 0.038(6) Uiso d 1
H H7B 0.360(5) 1.377(3) 0.754(3) 0.055(8) Uiso d 1
H H7A 0.406(4) 1.303(3) 0.611(2) 0.046(7) Uiso d 1
H H6B 0.733(6) 1.074(7) 0.556(4) 0.15(2) Uiso d 1
loop_
_atom_site_aniso_label
_atom_site_aniso_U_11
_atom_site_aniso_U_22
_atom_site_aniso_U_33
_atom_site_aniso_U_12
_atom_site_aniso_U_13
_atom_site_aniso_U_23
C1 0.0140(6) 0.0110(5) 0.0156(6) 0.0045(4) 0.0043(5) 0.0040(4)
C2 0.0129(5) 0.0102(5) 0.0140(6) 0.0040(4) 0.0033(4) 0.0036(4)
C3 0.0132(6) 0.0181(6) 0.0123(6) 0.0081(5) 0.0015(4) 0.0009(5)
C4 0.0133(6) 0.0169(6) 0.0122(6) 0.0067(5) 0.0021(4) 0.0022(5)
O1 0.0174(5) 0.0161(5) 0.0291(6) 0.0050(4) 0.0125(4) 0.0074(4)
O2 0.0187(5) 0.0100(4) 0.0198(5) 0.0065(4) 0.0034(4) 0.0033(4)
O3 0.0194(5) 0.0252(5) 0.0205(5) 0.0125(4) 0.0017(4) -0.0066(4)
O4 0.0120(5) 0.0255(5) 0.0194(5) 0.0021(4) 0.0024(4) -0.0016(4)
O5 0.0169(5) 0.0165(5) 0.0209(5) 0.0084(4) 0.0021(4) 0.0041(4)
O7 0.0377(7) 0.0219(5) 0.0278(6) 0.0135(5) 0.0169(5) 0.0090(5)
Sr1 0.00949(6) 0.01009(6) 0.01363(7) 0.00395(4) 0.00293(4) 0.00206(4)
O6 0.0391(8) 0.0349(7) 0.0314(7) 0.0011(6) 0.0044(6) 0.0175(6)
loop_
_atom_type_symbol
_atom_type_description
_atom_type_scat_dispersion_real
_atom_type_scat_dispersion_imag
_atom_type_scat_source
C C 0.0033 0.0016 'International Tables Vol C Tables 4.2.6.8 and 6.1.1.4'
H H 0.0000 0.0000 'International Tables Vol C Tables 4.2.6.8 and 6.1.1.4'
O O 0.0106 0.0060 'International Tables Vol C Tables 4.2.6.8 and 6.1.1.4'
Sr Sr -1.5307 3.2498 'International Tables Vol C Tables 4.2.6.8 and 6.1.1.4'
loop_
_geom_angle_atom_site_label_1
_geom_angle_atom_site_label_2
_geom_angle_atom_site_label_3
_geom_angle_site_symmetry_1
_geom_angle_site_symmetry_3
_geom_angle
O1 C1 C2 . 2_567 135.64(12)
O1 C1 C2 . . 134.36(12)
C2 C1 C2 2_567 . 89.99(10)
O2 C2 C1 . 2_567 135.75(12)
O2 C2 C1 . . 134.24(12)
C1 C2 C1 2_567 . 90.01(10)
O3 C3 C4 . . 136.13(13)
O3 C3 C4 . 2_766 133.92(13)
C4 C3 C4 . 2_766 89.94(10)
O4 C4 C3 . . 135.94(13)
O4 C4 C3 . 2_766 134.00(13)
C3 C4 C3 . 2_766 90.06(10)
C1 O1 Sr1 . . 148.28(9)
C2 O2 Sr1 . 1_445 128.17(9)
C2 O2 Sr1 . 2_667 124.95(9)
Sr1 O2 Sr1 1_445 2_667 102.81(3)
C3 O3 Sr1 . . 156.36(10)
C4 O4 Sr1 . 2_666 131.61(9)
Sr1 O5 Sr1 . 2_677 110.03(4)
Sr1 O5 H5B . . 102.5(15)
Sr1 O5 H5B 2_677 . 108.2(16)
Sr1 O5 H5A . . 119.7(16)
Sr1 O5 H5A 2_677 . 111.6(16)
H5B O5 H5A . . 103.7(18)
H7B O7 H7A . . 109(2)
O1 Sr1 O3 . . 104.70(4)
O1 Sr1 O5 . . 80.15(4)
O3 Sr1 O5 . . 153.03(4)
O1 Sr1 O4 . 2_666 74.56(4)
O3 Sr1 O4 . 2_666 76.88(3)
O5 Sr1 O4 . 2_666 79.03(4)
O1 Sr1 O2 . 1_665 142.38(4)
O3 Sr1 O2 . 1_665 100.05(3)
O5 Sr1 O2 . 1_665 90.42(3)
O4 Sr1 O2 2_666 1_665 139.45(4)
O1 Sr1 O6 . . 144.39(5)
O3 Sr1 O6 . . 77.22(5)
O5 Sr1 O6 . . 83.73(5)
O4 Sr1 O6 2_666 . 71.30(4)
O2 Sr1 O6 1_665 . 68.67(4)
O1 Sr1 O2 . 2_667 86.78(3)
O3 Sr1 O2 . 2_667 67.17(3)
O5 Sr1 O2 . 2_667 139.76(3)
O4 Sr1 O2 2_666 2_667 133.52(3)
O2 Sr1 O2 1_665 2_667 77.19(3)
O6 Sr1 O2 . 2_667 124.58(4)
O1 Sr1 O5 . 2_677 72.71(4)
O3 Sr1 O5 . 2_677 136.99(3)
O5 Sr1 O5 . 2_677 69.97(4)
O4 Sr1 O5 2_666 2_677 137.92(3)
O2 Sr1 O5 1_665 2_677 69.86(3)
O6 Sr1 O5 . 2_677 130.06(5)
O2 Sr1 O5 2_667 2_677 69.82(3)
O1 Sr1 Sr1 . 2_777 117.69(3)
O3 Sr1 Sr1 . 2_777 81.92(3)
O5 Sr1 Sr1 . 2_777 119.89(3)
O4 Sr1 Sr1 2_666 2_777 157.83(2)
O2 Sr1 Sr1 1_665 2_777 39.10(2)
O6 Sr1 Sr1 . 2_777 97.87(4)
O2 Sr1 Sr1 2_667 2_777 38.09(2)
O5 Sr1 Sr1 2_677 2_777 63.83(2)
O1 Sr1 Sr1 . 2_677 73.25(2)
O3 Sr1 Sr1 . 2_677 170.71(3)
O5 Sr1 Sr1 . 2_677 36.21(2)
O4 Sr1 Sr1 2_666 2_677 110.74(2)
O2 Sr1 Sr1 1_665 2_677 77.75(2)
O6 Sr1 Sr1 . 2_677 109.88(4)
O2 Sr1 Sr1 2_667 2_677 103.56(2)
O5 Sr1 Sr1 2_677 2_677 33.76(2)
Sr1 Sr1 Sr1 2_777 2_677 91.001(5)
O1 Sr1 H5B . . 67.6(4)
O3 Sr1 H5B . . 142.7(4)
O5 Sr1 H5B . . 16.7(3)
O4 Sr1 H5B 2_666 . 65.8(4)
O2 Sr1 H5B 1_665 . 107.1(3)
O6 Sr1 H5B . . 89.1(4)
O2 Sr1 H5B 2_667 . 143.4(5)
O5 Sr1 H5B 2_677 . 77.6(5)
Sr1 Sr1 H5B 2_777 . 134.8(4)
Sr1 Sr1 H5B 2_677 . 45.5(4)
Sr1 O6 H6A . . 119(2)
Sr1 O6 H6B . . 124(3)
H6A O6 H6B . . 116(3)
loop_
_geom_bond_atom_site_label_1
_geom_bond_atom_site_label_2
_geom_bond_site_symmetry_2
_geom_bond_distance
C1 O1 . 1.2499(16)
C1 C2 2_567 1.4664(18)
C1 C2 . 1.4678(17)
C2 O2 . 1.2560(15)
C2 C1 2_567 1.4664(18)
C3 O3 . 1.2494(16)
C3 C4 . 1.4610(19)
C3 C4 2_766 1.4621(18)
C4 O4 . 1.2541(17)
C4 C3 2_766 1.4621(18)
O1 Sr1 . 2.5037(10)
O2 Sr1 1_445 2.5892(10)
O2 Sr1 2_667 2.6473(10)
O3 Sr1 . 2.5223(10)
O4 Sr1 2_666 2.5879(11)
O5 Sr1 . 2.5783(10)
O5 Sr1 2_677 2.7410(11)
O5 H5B . 0.848(15)
O5 H5A . 0.841(15)
O7 H7B . 0.842(16)
O7 H7A . 0.826(16)
Sr1 O4 2_666 2.5879(11)
Sr1 O2 1_665 2.5892(10)
Sr1 O6 . 2.5916(13)
Sr1 O2 2_667 2.6473(10)
Sr1 O5 2_677 2.7410(11)
Sr1 Sr1 2_777 4.0928(3)
Sr1 Sr1 2_677 4.3592(3)
Sr1 H5B . 2.88(2)
O6 H6A . 0.825(17)
O6 H6B . 0.786(18)
loop_
_geom_hbond_atom_site_label_D
_geom_hbond_atom_site_label_H
_geom_hbond_atom_site_label_A
_geom_hbond_site_symmetry_A
_geom_hbond_distance_DH
_geom_hbond_distance_HA
_geom_hbond_distance_DA
_geom_hbond_angle_DHA
O6 H6A O7 1_655 0.825(17) 2.052(17) 2.864(2) 168(3)
O5 H5B O3 1_455 0.848(15) 1.933(15) 2.7779(16) 175(2)
O5 H5A O7 . 0.841(15) 1.892(16) 2.7296(16) 174(2)
O7 H7B O1 1_565 0.842(16) 1.957(16) 2.7860(16) 168(3)
O7 H7A O4 1_565 0.826(16) 1.961(16) 2.7666(16) 165(2)
loop_
_geom_torsion_atom_site_label_1
_geom_torsion_atom_site_label_2
_geom_torsion_atom_site_label_3
_geom_torsion_atom_site_label_4
_geom_torsion_site_symmetry_1
_geom_torsion_site_symmetry_4
_geom_torsion
O1 C1 C2 O2 . . 1.1(3)
C2 C1 C2 O2 2_567 . -179.7(2)
O1 C1 C2 C1 . 2_567 -179.2(2)
C2 C1 C2 C1 2_567 2_567 0.000000
O3 C3 C4 O4 . . -1.1(3)
C4 C3 C4 O4 2_766 . 179.6(2)
O3 C3 C4 C3 . 2_766 179.3(2)
C4 C3 C4 C3 2_766 2_766 0.000000
C2 C1 O1 Sr1 2_567 . 11.1(3)
C2 C1 O1 Sr1 . . -170.03(12)
C1 C2 O2 Sr1 2_567 1_445 50.8(2)
C1 C2 O2 Sr1 . 1_445 -129.65(14)
C1 C2 O2 Sr1 2_567 2_667 -102.56(17)
C1 C2 O2 Sr1 . 2_667 77.04(18)
C4 C3 O3 Sr1 . . -9.2(4)
C4 C3 O3 Sr1 2_766 . 169.77(16)
C3 C4 O4 Sr1 . 2_666 137.14(14)
C3 C4 O4 Sr1 2_766 2_666 -43.4(2)

_cod_database_fobs_code 2021714
