#------------------------------------------------------------------------------
#$Date: 2018-02-22 09:11:00 +0200 (Thu, 22 Feb 2018) $
#$Revision: 206576 $
#$URL: file:///home/coder/svn-repositories/cod/cif/2/02/10/2021027.cif $
#------------------------------------------------------------------------------
#
# This file is available in the Crystallography Open Database (COD),
# http://www.crystallography.net/. The original data for this entry
# were provided by IUCr Journals, http://journals.iucr.org/.
#
# The file may be used within the scientific community so long as
# proper attribution is given to the journal article from which the
# data were obtained.
#
data_2021027
loop_
_publ_author_name
'Borjas Nevarez, Rosendo'
'Balasekaran, Samundeeswari Mariappan'
'Kim, Eunja'
'Weck, Philippe'
'Poineau, Frederic'
_publ_section_title
;
 Zirconium tetrachloride revisited
;
_journal_coeditor_code           YO3045
_journal_issue                   3
_journal_name_full               'Acta Crystallographica Section C'
_journal_page_first
;
;
_journal_paper_doi               10.1107/S205322961800219X
_journal_volume                  74
_journal_year                    2018
_chemical_formula_iupac          'Zr Cl4'
_chemical_formula_moiety         ZrCl4
_chemical_formula_sum            'Cl4 Zr'
_chemical_formula_weight         233.02
_chemical_name_common            'Zirconium tetrachloride'
_chemical_name_systematic
;
Zirconium tetrachloride
;
_space_group_crystal_system      orthorhombic
_space_group_IT_number           29
_space_group_name_Hall           'P 2c -2ac'
_space_group_name_H-M_alt        'P c a 21'
_symmetry_space_group_name_Hall  'P 2c -2ac'
_symmetry_space_group_name_H-M   'P c a 21'
_atom_sites_solution_hydrogens   notdet
_atom_sites_solution_primary     heavy
_atom_sites_solution_secondary   difmap
_cell_angle_alpha                90
_cell_angle_beta                 90
_cell_angle_gamma                90
_cell_formula_units_Z            4
_cell_length_a                   6.2199(9)
_cell_length_b                   7.3301(10)
_cell_length_c                   11.9153(16)
_cell_measurement_reflns_used    2790
_cell_measurement_temperature    100.(2)
_cell_measurement_theta_max      27.9442
_cell_measurement_theta_min      2.7788
_cell_volume                     543.25(13)
_computing_cell_refinement
;
APEX3 (Bruker, 2016)
;
_computing_data_collection
;
BIS (Bruker, 2016)
;
_computing_data_reduction
;
SAINT (Bruker, 2015)
;
_computing_molecular_graphics
;
shelXle (H\"ubschle <i>et al.</i>,  2011)
;
_computing_publication_material
;
APEX3 (Bruker, 2016)
;
_computing_structure_refinement  'SHELXL2014 (Sheldrick, 2015b)'
_computing_structure_solution
;
SHELXT2014 (Sheldrick, 2015a)
;
_diffrn_ambient_temperature      100.(2)
_diffrn_detector_area_resol_mean 8.3333
_diffrn_measured_fraction_theta_full 0.998
_diffrn_measured_fraction_theta_max 0.998
_diffrn_measurement_device_type  'Bruker D8 QUEST'
_diffrn_measurement_method       '\f and \w scans'
_diffrn_radiation_monochromator  'curved graphite'
_diffrn_radiation_type           'Mo K\a'
_diffrn_radiation_wavelength     0.71073
_diffrn_reflns_av_R_equivalents  0.0496
_diffrn_reflns_av_unetI/netI     0.0343
_diffrn_reflns_limit_h_max       7
_diffrn_reflns_limit_h_min       -7
_diffrn_reflns_limit_k_max       8
_diffrn_reflns_limit_k_min       -8
_diffrn_reflns_limit_l_max       14
_diffrn_reflns_limit_l_min       -14
_diffrn_reflns_number            5240
_diffrn_reflns_theta_full        24.71
_diffrn_reflns_theta_max         24.71
_diffrn_reflns_theta_min         3.42
_diffrn_source                   'sealed tube'
_diffrn_source_type              'Siemens KFFMo2K-90'
_exptl_absorpt_coefficient_mu    3.816
_exptl_absorpt_correction_T_max  0.81
_exptl_absorpt_correction_T_min  0.63
_exptl_absorpt_correction_type   numerical
_exptl_absorpt_process_details
;
(SADABS; Krause <i>et al.</i>,  2015)
;
_exptl_crystal_colour            'translucent colourless'
_exptl_crystal_density_diffrn    2.849
_exptl_crystal_density_method    'not measured'
_exptl_crystal_description       'rectangular box'
_exptl_crystal_F_000             432
_exptl_crystal_size_max          0.09
_exptl_crystal_size_mid          0.08
_exptl_crystal_size_min          0.06
_refine_diff_density_max         2.075
_refine_diff_density_min         -0.533
_refine_ls_abs_structure_details
;
Flack <i>x</i> determined using 394 quotients [(I+)-(I-)]/[(I+)+(I-)]
(Parsons <i>et al.</i>,  2013)
;
_refine_ls_abs_structure_Flack   -0.05(15)
_refine_ls_extinction_method     none
_refine_ls_goodness_of_fit_ref   1.065
_refine_ls_hydrogen_treatment    undef
_refine_ls_matrix_type           full
_refine_ls_number_parameters     46
_refine_ls_number_reflns         924
_refine_ls_number_restraints     1
_refine_ls_restrained_S_all      1.065
_refine_ls_R_factor_all          0.0369
_refine_ls_R_factor_gt           0.0345
_refine_ls_shift/su_max          0.000
_refine_ls_shift/su_mean         0.000
_refine_ls_structure_factor_coef Fsqd
_refine_ls_weighting_details
'w=1/[\s^2^(Fo^2^)+(0.0547P)^2^] where P=(Fo^2^+2Fc^2^)/3'
_refine_ls_weighting_scheme      calc
_refine_ls_wR_factor_gt          0.0820
_refine_ls_wR_factor_ref         0.0839
_reflns_number_gt                877
_reflns_number_total             924
_reflns_threshold_expression     'I > 2\s(I)'
_cod_data_source_file            yo3045sup1.cif
_cod_data_source_block           SMB_ZrCl4_b_100K
_cod_database_code               2021027
_publcif_datablock.id            {3b5a1147-89c4-45b1-94e8-6d0946171556}
_shelx_res_file
;


    SMB_ZrCl4_b_0m_a.res created by SHELXL-2014/7


TITL SMB_ZrCl4_b_0m_a.res in Pca2(1)
REM Old TITL SMB_ZrCl4_b_0m in Pca2(1)
REM SHELXT solution in Pca2(1)
REM R1 0.049,  Rweak 0.002,  Alpha 0.004,  Orientation as input
REM Flack x =  0.030 ( 0.141 ) from Parsons' quotients
REM Formula found by SHELXT:  Cl4 Zr
CELL  0.71073   6.2199   7.3301  11.9153   90.000   90.000   90.000
ZERR    4.000   0.0009   0.0010   0.0016    0.000    0.000    0.000
LATT -1
SYMM -X, -Y, 1/2+Z
SYMM 1/2+X, -Y, Z
SYMM 1/2-X, Y, 1/2+Z
SFAC CL ZR
UNIT 16 4
TEMP -173.490
SIZE 0.056 0.069 0.082
OMIT -4 50
SHEL 6.5 0.85
L.S. 10
BOND $H
LIST 4
ACTA
FMAP 2
PLAN 20
WGHT    0.054700
FVAR       0.42866
ZR1   2    0.422648    0.333887    0.499941    11.00000    0.01317    0.01843 =
         0.01932    0.00032    0.00032    0.00014
CL1   1    0.572685    0.134997    0.628791    11.00000    0.02110    0.02360 =
         0.02174    0.00430   -0.00245    0.00264
CL2   1    0.091976    0.389252    0.613823    11.00000    0.01502    0.02174 =
         0.01996    0.00217    0.00120    0.00144
CL3   1    0.278133    0.130305    0.372303    11.00000    0.02084    0.02380 =
         0.02313   -0.00216   -0.00197   -0.00173
CL4   1    0.750613    0.392413    0.384239    11.00000    0.01527    0.02190 =
         0.02106   -0.00094    0.00169   -0.00187
HKLF 4

REM  SMB_ZrCl4_b_0m_a.res in Pca2(1)
REM R1 =  0.0345 for     877 Fo > 4sig(Fo)  and  0.0369 for all     924 data
REM     46 parameters refined using      1 restraints

END

WGHT      0.0547      0.0000

REM Highest difference peak  2.075,  deepest hole -0.533,  1-sigma level  0.166
Q1    1   0.7327  0.3366  0.5005  11.00000  0.05    2.08
Q2    1   0.1163  0.3469  0.5019  11.00000  0.05    1.27
Q3    1   0.4171  0.3541  0.6024  11.00000  0.05    1.00
Q4    1   0.4279  0.3658  0.4005  11.00000  0.05    0.98
Q5    1   0.5797  0.1249  0.3661  11.00000  0.05    0.91
Q6    1   0.5753  0.5946  0.3874  11.00000  0.05    0.85
Q7    1   0.2603  0.5970  0.6137  11.00000  0.05    0.79
Q8    1   0.2595  0.1355  0.6331  11.00000  0.05    0.78
Q9    1   0.8835  0.1380  0.6313  11.00000  0.05    0.56
Q10   1   0.4031 -0.1305  0.3746  11.00000  0.05    0.41
Q11   1   0.2884  0.3965  0.5770  11.00000  0.05    0.36
Q12   1   0.4210 -0.0952  0.5072  11.00000  0.05    0.31
Q13   1   0.2887  0.1235  0.2991  11.00000  0.05    0.31
Q14   1   0.3000  0.1463  0.4663  11.00000  0.05    0.31
Q15   1   0.5441  0.1346  0.5473  11.00000  0.05    0.31
Q16   1   0.6180  0.4138  0.4291  11.00000  0.05    0.30
Q17   1   0.7080  0.3837  0.3090  11.00000  0.05    0.29
Q18   1   0.5527  0.1250  0.6934  11.00000  0.05    0.28
Q19   1   0.5616  0.0802  0.5146  11.00000  0.05    0.27
Q20   1   0.5523  0.2602  0.6418  11.00000  0.05    0.25
;
_shelx_res_checksum              97529
_shelx_hkl_file
;
  -1   0   0    0.80    2.20
   1   0   0    3.00    2.10
   1   0   0    1.10    2.20
  -1   0   0    2.50    1.70
  -2   0   0   46.10    5.80
  -2   0   0   55.99    7.70
   2   0   0   69.99    7.50
   2   0   0   68.79    7.50
   3   0   0    2.50    4.30
   3   0   0    4.30    4.50
  -3   0   0    0.50    3.20
  -3   0   0   -1.60    4.50
  -4   0   0    2.60    4.50
   4   0   0    3.80    5.40
  -4   0   0   -7.50    4.70
   4   0   0   -2.90    4.80
   5   0   0   -2.10    5.90
  -5   0   0   -3.30    5.80
   5   0   0    2.40    5.40
  -6   0   0 2925.41  143.69
   6   0   0 3412.06  143.39
   6   0   0 3313.87  139.29
  -7   0   0    4.50   12.60
   7   0   0   -9.70    7.40
  -8   0   0   80.99   23.30
   8   0   0  133.79   23.90
   0  -1   0 1531.85   62.09
   0   1   0 1645.54   62.69
   0  -1   0 1455.15   62.79
   0   1   0 1676.23   61.89
  -1  -1   0  590.04   28.50
   1  -1   0  655.33   27.60
   1  -1   0  557.14   28.70
   1   1   0  639.04   27.80
   1   1   0  672.13   28.60
  -1   1   0  632.24   27.80
  -2   1   0   77.69    8.90
   2   1   0   54.39    5.80
   2  -1   0   50.89    8.60
  -2  -1   0   61.69    7.60
  -2  -1   0   60.49    8.20
   2   1   0   75.39    8.50
   2  -1   0   73.19    8.30
  -3  -1   0 1330.87   59.59
   3  -1   0 1423.06   62.49
   3   1   0 1356.06   61.49
  -3   1   0 1323.37   61.79
   3   1   0 1375.46   57.59
   3  -1   0 1323.07   60.59
  -3  -1   0 1300.87   60.89
   4  -1   0   63.69   12.40
  -4  -1   0   63.09   10.40
   4   1   0   58.69   11.30
  -4   1   0   44.30   10.70
  -4  -1   0   47.20   10.40
   4   1   0   57.09    9.00
   4  -1   0   64.79   11.20
  -5  -1   0   77.79   14.40
  -5  -1   0   94.39   13.00
   5  -1   0  135.69   15.80
  -5   1   0  120.29   16.40
   5   1   0   94.19   14.30
   5  -1   0   83.09   15.30
   5   1   0  106.99   13.00
   6   1   0  362.36   29.90
   6  -1   0  389.06   30.00
  -6  -1   0  359.76   30.80
  -6   1   0  327.07   30.70
   6  -1   0  353.66   28.60
   7   1   0   34.60   14.50
  -7   1   0   22.70   12.80
  -7  -1   0   46.80   16.50
   7  -1   0   13.00   12.60
   7  -1   0   31.60   12.70
  -8  -1   0   12.40   16.50
  -8   1   0  -10.70   10.50
   8  -1   0    4.80   12.10
   8   1   0   -4.30   11.90
   0  -2   0  469.95   25.20
   0   2   0  514.85   23.40
   0  -2   0  488.55   24.00
   0   2   0  540.35   25.20
  -1  -2   0    7.50    4.90
   1  -2   0    2.10    4.60
   1  -2   0    2.70    3.50
  -1   2   0    3.70    4.60
   1   2   0    3.50    3.90
  -1  -2   0    7.60    2.60
  -1   2   0    1.20    3.90
  -2   2   0  248.28   16.40
   2  -2   0  225.08   15.50
   2  -2   0  219.18   18.00
  -2  -2   0  220.88   17.20
   2   2   0  259.17   17.40
   2   2   0  218.88   15.40
  -3   2   0 9837.52  379.46
   3  -2   0 9355.26  378.26
   3   2   0 9645.33  371.36
  -3  -2   0 9644.94  379.26
  -3  -2   0 9843.02  378.66
   3  -2   0 9999.00  382.06
   4  -2   0   40.90   11.20
  -4  -2   0   58.19   11.00
  -4   2   0   47.10   11.30
   4   2   0   48.20   10.90
   4   2   0   29.30    5.90
  -4  -2   0   53.79   11.30
   4  -2   0   41.10   10.30
   5  -2   0  102.59   15.00
   5  -2   0  112.39   16.10
  -5  -2   0   73.79   14.80
  -5  -2   0   95.49   15.70
   5   2   0   93.99   15.90
  -5   2   0   62.49   14.40
  -6  -2   0   96.29   18.60
  -6   2   0   60.89   15.20
   6  -2   0   70.49   15.20
   6   2   0  117.79   19.90
   6  -2   0   82.39   16.60
  -7  -2   0   -6.90    9.80
  -7   2   0    1.90   11.30
   7  -2   0   -9.40    7.80
   7  -2   0    0.70   11.20
   7   2   0    7.60    9.50
   8   2   0   46.30   17.00
   8  -2   0   26.90   13.80
  -8  -2   0   71.19   22.70
  -8   2   0   40.20   18.20
   8  -2   0   86.89   22.00
   0  -3   0 1127.59   53.19
   0   3   0 1157.08   50.19
   0   3   0 1125.19   52.09
   0  -3   0 1172.98   50.89
  -1  -3   0   12.70    7.50
  -1   3   0    1.80    4.20
   1   3   0    4.80    4.70
  -1   3   0   -5.50    5.40
   1   3   0   -2.30    4.50
   1  -3   0    6.10    6.00
   1  -3   0    7.50    5.60
  -1  -3   0   -3.10    3.60
  -2   3   0  501.25   28.00
   2  -3   0  446.16   23.80
  -2   3   0  508.25   27.80
   2   3   0  473.15   27.90
   2  -3   0  468.05   30.00
  -2  -3   0  471.35   30.50
   2   3   0  490.45   26.70
   3   3   0  123.69   14.20
   3  -3   0  130.69   15.80
   3   3   0  105.49   12.70
   3  -3   0   85.79   11.90
  -3  -3   0  129.59   16.10
  -3   3   0  141.89   15.10
   4   3   0  226.68   20.30
   4  -3   0  191.28   18.70
  -4  -3   0  217.28   19.60
  -4  -3   0  176.18   20.80
   4  -3   0  200.18   21.60
  -4   3   0  200.28   19.80
   5  -3   0   28.40   11.60
  -5   3   0   59.89   13.70
   5   3   0   42.00   12.10
  -5  -3   0   73.99   15.30
  -5  -3   0   61.19   15.00
   5  -3   0   69.39   14.80
   6  -3   0  417.36   33.40
  -6  -3   0  459.45   35.30
  -6   3   0  415.76   34.70
  -6  -3   0  459.35   35.00
   6   3   0  397.16   34.10
   6  -3   0  469.65   37.70
   7  -3   0   -5.10    9.70
   7  -3   0    8.30   12.40
  -7   3   0   -1.30   11.70
   7   3   0    6.20   10.70
  -7  -3   0   -2.20   11.50
   0   4   0 7206.78  281.97
   0  -4   0 7385.26  286.77
   0  -4   0 7144.39  282.57
   0   4   0 7112.99  285.17
   1  -4   0  293.27   22.00
  -1   4   0  316.17   22.40
  -1  -4   0  327.77   19.30
   1   4   0  326.17   21.00
   1  -4   0  348.67   24.30
  -1   4   0  349.07   22.00
   1   4   0  316.77   22.60
  -1  -4   0  337.27   25.90
   2   4   0    7.20    6.30
  -2   4   0    6.80    6.30
  -2   4   0    6.90    6.30
   2   4   0    0.80    6.00
   2  -4   0    9.50    7.50
  -2  -4   0   -0.50    7.00
  -2  -4   0    5.00    3.30
   2  -4   0    4.70    5.30
   3   4   0  453.45   31.40
   3   4   0  510.15   30.00
  -3  -4   0  463.35   34.30
   3  -4   0  450.75   34.00
  -3   4   0  517.05   31.70
  -3   4   0  498.15   31.80
   3  -4   0  473.55   24.70
   4   4   0    2.30    6.30
   4  -4   0    6.40    7.80
   4   4   0   14.00    9.80
  -4   4   0    7.30    9.20
   4  -4   0   -5.90    7.80
  -4  -4   0   27.30   12.40
  -5  -4   0  310.87   30.10
   5  -4   0  271.07   29.60
  -5   4   0  296.07   27.30
  -5  -4   0  303.77   27.00
   5   4   0  227.38   24.50
   5  -4   0  270.07   25.40
  -6  -4   0 1403.76   73.99
  -6  -4   0 1331.77   71.09
  -6   4   0 1259.07   71.99
   6  -4   0 1300.27   75.49
   6   4   0 1177.78   70.89
   6  -4   0 1234.78   70.49
   7  -4   0   22.70   15.80
   7   4   0   10.30   11.90
   7  -4   0    0.50   11.80
  -7  -4   0   19.50   14.00
  -7   4   0   40.80   16.40
   0  -5   0   17.40    9.40
   0  -5   0   27.00    8.30
   0   5   0   13.90    7.00
   0   5   0   12.80    7.70
  -1   5   0  295.37   21.90
   1  -5   0  287.67   23.80
   1   5   0  324.67   24.30
   1  -5   0  283.87   23.60
  -1   5   0  300.17   23.60
  -1  -5   0  296.37   20.10
   1   5   0  307.57   22.00
  -1  -5   0  302.47   27.10
  -2   5   0  163.78   17.00
   2  -5   0  134.29   18.00
  -2  -5   0  118.59   14.70
   2   5   0  189.38   18.50
  -2  -5   0  154.68   20.40
  -2   5   0  135.59   16.70
   2  -5   0  142.59   15.40
   2   5   0  158.08   16.10
   3   5   0  183.28   18.40
   3   5   0  198.48   20.90
  -3   5   0  228.08   21.60
   3  -5   0  176.18   23.10
  -3  -5   0  222.58   24.90
  -3   5   0  211.18   21.10
  -4   5   0   12.60    9.40
  -4  -5   0   39.10   14.50
   4   5   0   12.20    8.00
   4   5   0   18.40   10.80
   4  -5   0   28.10   12.10
  -4   5   0   21.60   11.20
  -5   5   0  124.49   21.40
   5   5   0   81.99   17.40
  -5  -5   0   95.99   17.60
   5  -5   0  112.49   23.40
  -5  -5   0  108.49   22.40
  -5   5   0   95.59   18.70
   6   5   0   -8.10   10.20
  -6   5   0   -5.00   11.80
  -6  -5   0    0.10   12.10
  -6   5   0    6.40   10.50
   6  -5   0    6.70   13.90
  -6  -5   0    1.20   10.90
   7   5   0   12.10   12.20
  -7   5   0   14.60   14.00
  -7  -5   0   20.00   20.60
  -7   5   0    3.00   15.30
   7  -5   0   12.40   17.20
  -7  -5   0   17.70   15.10
   0  -6   0  506.45   32.30
   0   6   0  476.35   30.60
   0  -6   0  478.85   35.80
   0   6   0  479.25   33.50
   1   6   0   79.39   13.70
  -1   6   0   76.09   15.40
   1   6   0   58.89   13.90
  -1  -6   0   67.59   17.00
  -1   6   0   81.79   14.50
   1  -6   0   68.39   14.50
  -1  -6   0   67.59   11.60
   1  -6   0   85.19   16.30
  -2   6   0  307.47   26.30
   2  -6   0  274.47   27.50
   2  -6   0  297.47   25.70
   2   6   0  350.16   25.40
  -2  -6   0  395.46   34.70
  -2   6   0  340.17   27.50
   2   6   0  318.87   27.50
  -3   6   0 1058.89   58.19
   3  -6   0  919.01   59.69
   3   6   0 1075.49   54.89
   3   6   0  983.30   57.29
  -3   6   0 1053.49   57.59
  -3  -6   0 1020.00   64.09
  -4   6   0  139.69   20.70
   4  -6   0   94.89   19.90
   4   6   0   78.49   17.60
  -4  -6   0   48.20   18.80
  -4   6   0   87.49   18.60
   4   6   0   58.19   14.60
  -5   6   0    0.30   11.50
  -5  -6   0    8.20   14.20
   5  -6   0   -2.00   11.00
   5   6   0   12.40   11.80
  -5  -6   0    3.70   10.30
  -5   6   0   29.80   13.30
   6   6   0  149.88   26.40
  -6   6   0  166.68   24.40
  -6   6   0  147.19   25.80
   6  -6   0   94.79   24.60
  -6  -6   0  125.59   23.10
  -6  -6   0   94.09   24.50
   0   7   0    9.30   10.40
   0  -7   0   -8.30   10.50
   0  -7   0   11.10   10.40
   0   7   0    4.90    9.20
  -1   7   0  106.69   18.30
  -1  -7   0   65.79   19.80
   1  -7   0   84.19   18.90
   1   7   0   93.89   17.90
  -1   7   0  114.39   20.70
   1   7   0   92.49   16.00
   1  -7   0   98.39   18.50
  -2   7   0  107.79   20.30
   2   7   0   84.39   16.20
   2  -7   0   71.29   17.40
   2   7   0   84.59   17.40
  -2   7   0   84.69   16.50
  -2  -7   0   66.69   19.40
   2  -7   0   72.69   17.10
  -3   7   0   34.50   14.00
   3   7   0   75.79   15.40
   3   7   0   63.49   15.70
  -3   7   0   38.60   14.10
   3  -7   0   40.50   15.10
  -3  -7   0   34.50   18.50
   4   7   0   34.40   13.40
  -4   7   0   30.00   14.00
  -4   7   0   16.30   13.70
  -4  -7   0   13.30   16.80
   4  -7   0   39.60   16.50
   4   7   0   49.10   16.30
  -5   7   0  227.18   29.20
  -5   7   0  150.48   26.90
  -5  -7   0  162.58   32.50
   5  -7   0  191.48   30.20
   5   7   0  188.88   28.30
   0  -8   0  233.68   30.60
   0   8   0  225.38   27.10
   1  -8   0  118.39   21.50
  -1   8   0  132.89   22.70
   1   8   0  126.19   23.50
  -1  -8   0   86.59   23.60
   1  -8   0   50.59   19.10
  -2  -8   0   52.79   23.10
   2   8   0   81.19   19.90
  -2   8   0  106.79   21.60
   2  -8   0   90.89   20.50
  -3  -8   0   69.29   24.50
   3  -8   0  103.49   23.20
  -3   8   0   84.29   20.70
   3   8   0   85.89   20.60
  -4  -8   0   33.10   21.00
   4   8   0   55.19   20.20
   4  -8   0   14.80   16.50
  -4   8   0   45.20   17.60
   0  -9   0   64.59   21.80
   0   9   0   68.59   20.30
   1   9   0   20.10   15.10
  -1  -9   0   11.30   20.20
  -1   9   0    3.20   13.50
   1  -9   0    6.90   16.30
   2   9   0   83.39   22.60
  -2  -9   0   72.49   30.50
   2  -9   0   56.59   19.10
  -2   9   0   66.69   21.20
   3   9   0   88.29   22.60
  -3  -9   0   78.49   28.90
  -3   9   0   78.39   24.40
   3  -9   0  104.99   24.90
   0   0  -1    5.40    1.60
   0   0  -1    5.50    1.60
   1   0   1    2.40    2.00
   1   0  -1    4.60    2.40
   1   0   1   -1.10    2.40
  -1   0   1    0.40    1.80
   1   0  -1    6.00    2.90
   1   0  -1    1.90    2.50
  -1   0  -1    1.40    2.10
  -1   0  -1    7.10    3.00
  -2   0  -1 1302.97   56.39
   2   0   1 1274.27   55.49
  -2   0  -1 1412.66   54.19
  -2   0   1 1290.97   53.29
  -2   0   1 1350.76   56.79
   2   0  -1 1311.57   55.09
   2   0  -1 1231.28   55.69
   2   0   1 1271.07   54.99
   3   0  -1   -3.90    3.70
   3   0  -1   -0.10    4.10
  -3   0  -1    1.50    4.60
   3   0   1   -6.40    3.60
  -3   0   1    0.70    2.60
  -3   0  -1    1.80    3.30
  -3   0   1    6.90    5.10
   3   0   1    1.40    4.00
  -4   0   1  208.18   18.30
  -4   0   1  167.38   13.50
  -4   0  -1  178.68   18.00
   4   0   1  205.08   16.70
   4   0   1  174.98   15.80
   4   0  -1  179.08   16.80
  -4   0  -1  226.48   14.70
   4   0  -1  223.18   16.80
   5   0   1   -1.70    5.60
   5   0   1    6.50    6.80
   5   0  -1    3.70    5.90
  -5   0   1    1.70    6.30
   5   0  -1    2.60    6.10
  -5   0  -1   -2.70    7.10
   6   0  -1  231.98   22.30
   6   0   1  153.58   19.30
   6   0  -1  178.58   21.10
   6   0   1  164.38   19.60
  -6   0  -1  134.99   20.50
  -6   0   1  204.38   22.90
   7   0   1   -1.40    8.60
  -7   0   1  -10.60   11.10
  -7   0  -1   -8.10   11.60
   7   0  -1   -0.60    8.70
   8   0   1  160.38   23.70
   8   0  -1  187.48   26.70
  -8   0   1  115.09   25.40
  -8   0  -1  145.99   28.40
   0   1  -1    0.90    1.80
   0   1   1    4.90    2.50
   0  -1   1   -2.40    1.80
   0  -1  -1   -1.80    2.40
   0   1  -1    2.40    2.50
   0  -1   1   -3.30    2.00
   0  -1  -1   -1.30    2.40
  -1  -1  -1 1987.40   83.59
   1  -1   1 1966.40   83.49
  -1   1   1 2069.89   82.09
   1   1  -1 2197.18   83.69
   1   1  -1 2033.40   82.69
  -1  -1  -1 2068.99   81.49
   1  -1   1 2121.79   81.29
   1  -1  -1 2011.10   79.99
   1  -1  -1 2006.60   83.89
  -1  -1   1 2019.40   83.59
  -1   1  -1 2072.89   81.09
  -1   1  -1 2143.39   83.29
   1   1   1 2106.89   83.19
   1   1   1 2106.29   81.19
   1  -1  -1 2136.79   83.19
  -2   1   1  151.08   12.20
  -2  -1  -1  171.48   13.00
   2   1  -1  166.48   12.90
  -2  -1  -1  159.28   12.20
   2   1  -1  151.28    9.20
   2  -1   1  168.78   13.30
   2  -1   1  163.68   11.50
   2   1  -1  163.88   12.50
   2  -1  -1  168.08   12.80
   2   1   1  146.49   10.50
  -2  -1   1  174.88   12.60
   2  -1  -1  149.99   13.30
   2   1   1  168.88   12.50
  -2   1  -1  169.38   13.20
  -2   1  -1  151.58    8.90
   3  -1   1   89.29   11.60
  -3   1   1   66.69    9.90
   3   1  -1   67.39   10.10
   3  -1   1   80.29    9.70
  -3  -1  -1   79.29   10.00
   3   1  -1   78.19    8.00
  -3  -1  -1   73.29    9.80
  -3   1  -1   79.59   11.50
  -3   1  -1   69.29    5.80
  -3  -1   1   66.79   10.80
   3   1   1   56.89    9.70
   3  -1  -1   52.49    9.80
  -3  -1   1   73.99    9.20
   3   1   1   73.09    8.70
   3  -1  -1   70.49   10.00
   4   1  -1  437.46   28.50
  -4  -1  -1  458.25   26.60
   4  -1   1  441.46   28.50
  -4  -1  -1  417.56   27.80
   4  -1   1  399.16   26.50
  -4   1   1  411.66   28.50
   4   1  -1  423.36   24.20
  -4  -1   1  454.85   26.20
   4  -1  -1  468.25   29.10
  -4   1  -1  412.16   28.80
   4  -1  -1  411.56   27.60
   4   1   1  437.66   25.30
  -4  -1   1  451.75   29.40
   4   1   1  460.35   28.40
   5   1  -1  198.28   17.30
   5  -1   1  240.98   21.30
  -5  -1  -1  199.38   17.30
  -5  -1  -1  164.48   18.70
  -5   1   1  162.68   19.30
   5  -1   1  207.08   19.20
   5   1  -1  209.98   20.10
   5   1   1  192.08   17.60
  -5  -1   1  210.28   18.20
   5   1   1  188.38   19.40
   5  -1  -1  169.38   19.20
   5  -1  -1  199.88   19.90
  -5  -1   1  213.48   21.00
  -5   1  -1  190.48   20.90
   6  -1   1   59.59   14.00
  -6   1   1   47.70   13.90
   6   1  -1   47.90   13.40
  -6  -1  -1   35.00   13.90
   6  -1   1   75.99   15.40
  -6  -1   1   74.79   17.30
   6  -1  -1   60.29   14.50
   6   1   1   65.69   20.20
   6   1   1   77.09   15.30
   6  -1  -1   54.29   14.30
  -6   1  -1   81.79   18.20
   7   1  -1  460.45   38.20
   7  -1   1  426.36   35.10
  -7   1   1  441.16   38.30
  -7  -1  -1  470.35   39.30
   7  -1   1  515.15   37.30
   7   1   1  494.25   37.70
   7  -1  -1  491.45   37.60
  -7   1  -1  391.16   37.40
  -7  -1   1  472.35   39.70
   7  -1  -1  415.06   35.70
  -8  -1  -1    2.20   15.60
  -8   1   1   -7.10   11.40
   8  -1   1    3.80   10.30
   8   1  -1    6.40   11.60
   8  -1  -1    4.30   11.30
   8   1   1   -7.40   10.10
  -8   1  -1   -2.50   15.10
  -8  -1   1    0.10   15.00
   0  -2   1   -0.10    3.00
   0   2   1   -0.40    3.60
   0  -2  -1   -0.40    3.90
   0   2   1    2.70    2.60
   0  -2   1   -0.20    4.10
   0  -2  -1    0.60    3.40
   0   2  -1    3.00    3.60
   0   2  -1    3.80    3.60
   1  -2   1  523.55   29.60
  -1  -2  -1  554.94   30.40
  -1   2   1  583.94   29.40
   1   2  -1  617.44   28.90
   1  -2   1  573.74   27.60
   1   2  -1  626.24   29.50
  -1   2   1  569.34   27.10
  -1  -2  -1  613.54   26.80
  -1   2  -1  639.84   27.90
  -1   2  -1  647.84   29.50
   1   2   1  621.74   29.70
  -1  -2   1  607.44   31.20
   1   2   1  551.04   26.50
   1  -2  -1  568.04   30.20
   1  -2  -1  594.14   27.50
   2   2  -1  396.06   23.20
  -2  -2  -1  353.16   23.50
  -2   2   1  352.66   21.40
   2   2  -1  411.86   23.10
   2  -2   1  348.47   20.30
   2  -2   1  381.76   18.40
   2  -2   1  389.96   24.70
   2  -2  -1  374.96   22.40
   2   2   1  425.56   22.00
  -2   2  -1  385.96   23.30
   2   2   1  389.66   18.70
   2   2   1  346.97   22.00
  -2  -2   1  394.56   24.30
   2  -2  -1  404.56   25.20
   3  -2   1  136.99   12.90
  -3  -2  -1  102.19   11.90
   3   2  -1  121.09   13.30
   3   2  -1  145.59   14.20
  -3   2   1  113.09   12.90
  -3  -2  -1  113.09   13.50
   3  -2   1  108.49   13.90
   3   2   1  137.39   13.50
   3   2   1  111.09    9.50
   3  -2  -1  134.79   13.80
  -3   2  -1  133.69   14.00
   3  -2  -1  122.69   15.00
  -3  -2   1  125.59   14.10
   4   2  -1  206.68   20.40
  -4   2   1  233.48   20.60
   4  -2   1  266.97   22.50
  -4  -2  -1  260.67   20.90
   4   2  -1  239.48   14.90
  -4  -2  -1  243.08   20.20
   4  -2   1  228.88   19.50
   4   2   1  242.58   20.90
   4   2   1  227.38   15.80
   4  -2  -1  235.48   20.90
  -4  -2   1  245.28   20.10
  -4  -2   1  279.97   22.10
  -4   2  -1  242.38   21.60
   4  -2  -1  276.97   23.40
  -5   2   1  424.36   31.50
   5  -2   1  405.56   29.20
   5  -2   1  436.96   32.20
  -5  -2  -1  420.46   30.30
   5   2  -1  429.56   31.40
  -5  -2  -1  431.16   29.50
   5  -2  -1  384.26   30.20
   5   2   1  417.46   30.90
  -5  -2   1  431.06   31.60
  -5  -2   1  459.85   31.40
   5  -2  -1  430.56   32.70
  -5   2  -1  407.86   31.70
   5   2   1  438.06   29.70
   6  -2   1   -3.60    6.60
   6  -2   1   -4.40    7.40
  -6  -2  -1   13.60    9.30
   6   2  -1   13.20    9.70
  -6   2   1    3.50    9.00
   6  -2  -1    2.00    9.10
  -6  -2   1   20.00   11.40
   6   2   1   -1.80    7.60
   6  -2  -1    6.90    8.90
  -6   2  -1    5.30    9.40
  -7  -2  -1    4.00   11.80
   7   2  -1   26.60   13.70
  -7   2   1    0.50   11.40
   7  -2   1   32.20   13.00
   7  -2   1   19.10   12.20
   7   2   1   38.30   14.20
  -7   2  -1    2.60   10.80
   7  -2  -1   20.50   11.80
   7  -2  -1   13.50   11.70
  -7  -2   1    7.90   12.80
  -8  -2  -1    4.10   15.70
   8   2  -1   20.10   14.80
   8  -2   1   42.40   16.00
   8  -2   1   24.90   15.10
  -8   2   1   26.60   15.70
   8  -2  -1   46.10   16.60
   8   2   1   52.79   17.80
  -8   2  -1   21.60   15.00
  -8  -2   1   17.60   17.40
   0   3  -1    6.70    4.60
   0  -3  -1    3.00    4.70
   0   3   1    2.40    5.10
   0  -3   1    5.50    5.50
   0   3  -1    3.50    4.50
   0  -3   1   -4.20    3.80
   0   3   1   -0.40    3.60
   0  -3  -1   -6.00    4.70
  -1  -3  -1   19.20    5.10
   1  -3   1   15.80    6.40
  -1   3   1   14.80    6.40
   1  -3   1   15.40    6.20
  -1   3   1   17.70    5.80
  -1  -3  -1   18.10    7.50
   1   3  -1   14.50    5.80
   1   3  -1   11.00    5.70
   1   3   1   24.30    5.60
  -1  -3   1   12.30    7.20
   1  -3  -1   12.90    6.00
  -1  -3   1   17.30    4.40
   1  -3  -1   14.10    6.60
   1   3   1   20.30    6.80
  -1   3  -1   18.90    6.80
  -1   3  -1   18.00    6.10
  -2  -3  -1 1096.39   53.09
   2   3  -1  992.40   48.80
  -2   3   1  902.81   48.80
  -2   3   1 1055.69   48.10
   2   3  -1 1083.29   49.80
   2  -3   1 1033.10   45.70
   2  -3   1  979.80   51.49
   2   3   1  986.40   49.99
   2  -3  -1 1013.20   52.19
   2   3   1 1026.80   43.40
   2   3   1 1134.69   47.40
  -2   3  -1 1031.30   49.40
   2  -3  -1 1019.10   44.90
  -2  -3   1 1090.89   52.89
  -2   3  -1  951.60   47.50
   3   3  -1   42.20    9.20
   3   3  -1   64.29   11.60
  -3  -3  -1   31.30    7.90
   3  -3   1   40.00   11.00
   3  -3   1   33.30    8.20
  -3  -3  -1   36.90   10.70
  -3   3   1   29.00    8.20
  -3  -3   1   39.30   10.50
   3  -3  -1   35.30    8.90
   3   3   1   37.60    5.70
   3  -3  -1   32.50   10.50
   3   3   1   37.80    9.70
  -3   3  -1   27.90    9.10
   4  -3   1 1251.47   67.29
  -4   3   1 1210.88   63.29
   4   3  -1 1264.27   64.49
  -4  -3  -1 1321.37   66.49
  -4  -3  -1 1363.86   63.49
   4   3  -1 1261.67   63.79
   4  -3   1 1342.97   63.39
   4  -3  -1 1338.57   65.49
  -4   3  -1 1312.37   65.69
  -4  -3   1 1383.06   66.69
   4   3   1 1200.28   64.09
   4  -3  -1 1337.47   69.09
  -5  -3  -1   63.59   14.20
   5  -3   1   44.50   14.00
   5  -3   1   41.00   11.20
   5   3  -1   51.49   14.50
  -5  -3  -1   44.30   11.60
  -5   3   1   45.70   12.80
  -5   3  -1   77.69   16.40
   5  -3  -1   47.60   12.80
   5   3   1   46.30   12.30
  -5  -3   1   73.69   15.30
  -5  -3   1   50.39   13.60
   5  -3  -1   80.59   17.80
   6  -3   1   62.99   16.20
  -6   3   1   47.60   15.00
  -6  -3  -1   61.09   15.20
  -6  -3  -1   39.40   13.50
   6   3  -1   37.60   13.60
   6  -3   1   52.39   13.30
   6  -3  -1   57.99   15.20
   6   3   1   81.19   16.70
   6  -3  -1   57.49   16.10
  -6  -3   1   75.99   17.20
  -6   3  -1   68.19   16.50
  -6  -3   1   33.20   13.80
   7  -3   1    7.50    9.70
   7  -3   1    0.00   11.50
  -7   3   1   -5.40   10.00
   7   3  -1   12.10   12.50
  -7  -3  -1   -3.80   10.90
   7   3   1    5.90   11.50
  -7   3  -1   32.30   13.90
   7  -3  -1    5.80   13.00
   7  -3  -1    6.70   11.00
  -7  -3   1   12.10   12.50
   0   4   1    8.60    4.80
   0   4   1   -1.60    5.10
   0   4  -1    1.90    5.20
   0  -4   1   -6.50    5.30
   0  -4  -1   -7.50    7.10
   0  -4   1   -7.30    4.20
   0   4  -1   -4.50    4.90
   0  -4  -1   -7.50    4.80
   1   4  -1  912.71   44.80
  -1  -4  -1  867.51   48.40
   1  -4   1  884.31   45.40
   1  -4   1  850.11   45.20
  -1  -4  -1  889.41   42.10
   1   4  -1  875.51   44.90
  -1   4   1  965.40   43.30
  -1   4   1  872.01   46.00
   1   4   1  914.11   42.20
   1   4   1  891.41   46.80
  -1   4  -1  956.30   45.70
  -1   4  -1  897.01   44.40
  -1  -4   1  921.91   49.30
  -1  -4   1  884.61   40.30
   1  -4  -1  887.11   46.60
   1  -4  -1  866.21   45.10
   2   4  -1  318.67   23.10
  -2   4   1  331.77   22.20
   2  -4   1  321.07   21.50
   2   4  -1  319.67   23.10
   2  -4   1  324.27   25.70
  -2  -4  -1  307.97   26.30
  -2  -4  -1  338.77   18.50
  -2   4   1  303.77   23.70
  -2   4  -1  320.77   23.60
  -2  -4   1  341.57   27.20
   2  -4  -1  338.57   26.40
   2  -4  -1  329.17   21.30
   2   4   1  314.77   23.90
  -2   4  -1  363.16   23.10
   2   4   1  337.77   21.40
   3   4  -1   27.90    9.20
  -3   4   1   13.40    7.90
  -3   4   1    8.90    7.00
   3  -4   1    9.20    5.50
   3  -4   1   15.00    9.10
   3   4  -1   11.80    7.60
  -3  -4  -1    8.00    8.90
  -3   4  -1   12.10    7.00
   3   4   1   22.70    8.40
   3  -4  -1    6.90    8.00
   3   4   1   12.90    5.50
   3   4   1   16.30    7.20
  -3  -4   1   -0.10    6.40
  -3   4  -1   11.80    7.70
  -4   4   1   47.10   12.40
   4   4  -1   70.39   13.50
  -4  -4  -1   87.19   17.00
   4  -4   1   46.10   13.20
   4  -4   1   65.29   13.10
   4   4  -1   75.59   14.10
  -4  -4  -1   62.09   12.10
   4  -4  -1   51.09   12.70
  -4  -4   1   53.29   14.50
  -4   4  -1   65.49   14.80
   4  -4  -1   64.79   16.30
   4   4   1   67.59   13.40
   5  -4   1  314.47   29.90
   5  -4   1  329.07   26.90
  -5   4   1  267.77   26.70
  -5  -4  -1  297.07   29.30
   5   4  -1  265.07   26.40
  -5  -4  -1  310.27   26.50
   5   4   1  266.77   25.90
  -5  -4   1  302.97   27.50
  -5   4  -1  284.27   28.70
  -5  -4   1  299.87   29.70
   5  -4  -1  366.26   29.10
   5  -4  -1  297.37   31.40
   6  -4   1   56.89   16.70
  -6  -4  -1   57.99   16.80
  -6   4   1   85.29   17.70
   6  -4   1  107.39   20.00
   6   4  -1   64.09   17.50
  -6  -4  -1  105.09   19.20
   6  -4  -1   65.19   17.30
   6   4   1   78.49   17.30
  -6  -4   1   52.69   16.70
  -6   4  -1   53.59   16.10
  -6  -4   1   44.70   15.40
   6  -4  -1   72.49   19.60
   7  -4   1  157.98   27.70
  -7   4   1  198.98   27.30
   7   4  -1  148.59   25.40
   7  -4   1  197.08   25.10
  -7  -4  -1  234.28   27.80
   7  -4  -1  186.68   26.10
   7   4   1  127.39   23.90
  -7  -4   1  104.89   23.30
  -7   4  -1  124.19   24.70
   7  -4  -1  236.58   30.90
   0  -5  -1    1.00    6.00
   0   5   1   13.30    7.90
   0  -5   1   -2.70    5.90
   0   5  -1   -3.40    5.80
   0   5   1   -0.70    5.10
   0  -5  -1    9.40    7.90
   0  -5   1   -1.50    6.50
   0   5  -1    2.00    6.00
  -1   5   1  888.11   50.89
   1   5  -1  942.21   49.00
  -1   5   1  981.30   47.60
   1   5  -1  939.41   49.90
   1  -5   1  962.40   51.29
  -1  -5  -1  991.20   47.10
   1  -5   1  977.60   51.29
  -1  -5  -1 1073.79   56.69
  -1  -5   1  981.30   55.09
   1  -5  -1  963.90   51.69
   1  -5  -1  971.60   51.39
   1   5   1  945.11   51.79
  -1  -5   1  977.20   45.50
   1   5   1  976.90   46.70
  -1   5  -1  951.40   49.99
  -1   5  -1  917.11   49.20
   2   5  -1  302.07   25.00
   2  -5   1  381.66   25.40
  -2   5   1  334.47   26.80
  -2  -5  -1  348.27   20.60
   2  -5   1  358.06   27.90
  -2  -5  -1  382.86   31.60
  -2   5   1  362.36   25.10
   2   5  -1  328.17   25.10
   2   5   1  355.86   27.30
  -2  -5   1  332.27   29.30
   2  -5  -1  356.06   28.60
  -2   5  -1  355.26   25.70
  -2   5  -1  319.27   25.60
   2   5   1  345.87   23.10
   2  -5  -1  329.07   24.20
   3   5  -1   24.30    9.30
  -3   5   1   12.90    9.20
  -3  -5  -1   28.60   13.20
   3  -5   1    9.40    8.90
   3   5  -1   10.80    8.50
  -3   5   1   23.80   10.00
   3   5   1   21.50    8.10
  -3   5  -1    8.40    7.70
   3  -5  -1    5.50    8.80
  -3   5  -1   21.00   10.20
  -3  -5   1    4.70   10.00
   3   5   1   26.00    9.90
  -4  -5  -1  174.68   18.90
  -4   5   1  138.49   20.40
  -4   5   1  126.09   18.00
   4   5  -1  113.89   17.40
   4   5  -1  113.09   18.30
  -4  -5  -1  133.09   23.10
   4  -5   1   81.29   17.40
  -4   5  -1  173.08   19.60
   4   5   1  117.49   18.30
  -4   5  -1  160.38   19.90
   4  -5  -1  147.19   21.70
  -4  -5   1  117.29   21.30
   5   5  -1  139.19   19.70
  -5   5   1  161.78   22.60
  -5  -5  -1  189.78   21.80
   5  -5   1  128.79   23.60
  -5  -5  -1  141.49   23.00
  -5   5   1  140.39   21.40
  -5   5  -1  137.59   20.70
   5   5   1  123.19   21.10
  -5  -5   1  219.68   27.50
   5  -5  -1  122.69   24.20
  -5  -5   1  168.18   22.20
  -5   5  -1  182.28   24.10
   6   5  -1   17.60   13.20
  -6  -5  -1   50.39   15.50
   6  -5   1   19.10   15.40
  -6   5   1   20.50   13.80
  -6   5   1    7.30   12.90
  -6  -5  -1   47.70   16.00
  -6   5  -1   41.40   15.20
   6  -5  -1   38.70   18.10
  -6  -5   1   30.10   13.80
  -6  -5   1   26.50   15.80
   6   5   1   12.30   11.10
  -6   5  -1   16.40   12.50
  -7  -5  -1  347.67   33.30
  -7   5   1  280.07   32.90
   7   5  -1  302.17   34.10
   7  -5   1  228.58   35.00
  -7   5   1  318.57   33.10
  -7  -5  -1  313.37   36.00
  -7   5  -1  281.97   34.00
  -7  -5   1  299.17   33.80
   7   5   1  254.97   30.40
  -7   5  -1  300.77   31.70
   7  -5  -1  330.37   37.90
   0  -6  -1   -8.80    6.90
   0  -6  -1  -18.00    8.30
   0   6   1   -4.60    6.50
   0  -6   1    5.70    7.30
   0   6  -1    5.40    7.70
   0  -6   1    6.30    9.40
   0   6  -1   -3.00    7.80
   0   6   1    3.80    6.50
  -1  -6  -1  247.18   20.80
  -1  -6  -1  236.78   26.60
  -1   6   1  234.58   24.00
   1   6  -1  255.07   23.50
  -1   6   1  238.68   20.20
   1  -6   1  258.77   23.50
   1  -6   1  244.48   24.80
   1   6  -1  277.27   22.70
   1   6   1  247.68   20.60
   1  -6  -1  265.67   24.90
  -1  -6   1  230.08   19.40
   1  -6  -1  254.87   23.90
   1   6   1  251.97   24.20
  -1   6  -1  270.07   23.60
  -1  -6   1  244.68   27.30
  -1   6  -1  261.87   23.00
   2   6  -1  560.54   37.30
  -2   6   1  555.54   34.90
  -2  -6  -1  460.25   41.70
   2   6  -1  491.65   34.80
  -2   6   1  607.14   38.90
   2  -6   1  580.04   39.70
   2  -6   1  511.75   34.50
   2  -6  -1  478.45   34.10
   2   6   1  535.65   37.60
  -2   6  -1  512.55   35.90
   2   6   1  544.25   32.30
   2  -6  -1  504.45   37.60
  -2   6  -1  539.25   36.10
  -2  -6   1  565.34   42.30
  -3   6   1   29.00   12.90
   3  -6   1   16.00   11.30
   3   6  -1   19.90   10.10
   3   6  -1   39.90   13.20
  -3   6   1   35.40   11.40
  -3  -6  -1    0.20   13.10
   3   6   1   36.60   12.70
  -3  -6   1   10.90   11.70
  -3   6  -1   19.20   11.40
  -3   6  -1   16.10   11.10
   3   6   1   38.50   10.20
   3  -6  -1   33.90   14.20
  -4  -6  -1  430.26   39.30
  -4   6   1  427.66   33.50
   4   6  -1  380.76   32.20
  -4   6   1  369.26   33.90
   4  -6   1  364.86   36.00
   4   6  -1  418.06   32.30
   4   6   1  433.66   30.90
   4  -6  -1  391.56   36.80
   4   6   1  375.66   33.70
  -4  -6   1  513.55   41.60
  -4   6  -1  324.87   32.80
  -4   6  -1  472.25   35.00
  -5   6   1  129.39   23.20
   5  -6   1  126.69   23.80
  -5  -6  -1  121.39   24.90
   5   6  -1  105.09   19.70
  -5   6   1  146.09   21.70
   5   6  -1   95.39   20.30
  -5  -6  -1  112.09   19.50
   5   6   1  108.59   21.80
  -5   6  -1   73.39   20.10
   5  -6  -1  106.59   23.60
  -5  -6   1   96.49   23.50
  -5   6  -1   77.09   19.40
  -6   6   1    9.30   13.30
  -6  -6  -1   26.00   13.60
   6  -6   1   -4.70   15.70
  -6  -6  -1   -5.00   13.90
  -6   6   1   -5.70   12.90
   6   6  -1   13.60   14.10
   6  -6  -1   23.20   17.90
   6   6   1   17.30   14.60
  -6  -6   1   12.10   13.80
  -6  -6   1   10.50   15.10
  -6   6  -1   17.20   14.50
  -6   6  -1   11.40   12.90
   0   7  -1   -1.00    9.20
   0  -7  -1    5.80    9.10
   0  -7   1   -6.20    9.60
   0   7   1    1.20   10.10
   0  -7   1    6.10    9.00
   0   7  -1    3.00    9.50
   0  -7  -1   -2.70   11.00
   1   7  -1  395.76   31.40
  -1  -7  -1  495.75   41.30
   1   7  -1  469.25   35.00
  -1   7   1  465.85   36.70
   1  -7   1  357.66   31.20
   1  -7   1  414.66   34.30
  -1   7   1  390.66   32.50
   1  -7  -1  420.76   34.70
  -1  -7   1  445.06   38.10
  -1   7  -1  455.85   33.80
   1   7   1  461.95   36.00
   1  -7  -1  383.86   32.60
  -1   7  -1  418.66   33.00
   2   7  -1  162.88   21.60
  -2  -7  -1  152.38   27.00
  -2   7   1  184.58   21.10
   2  -7   1  113.89   20.30
   2  -7   1  164.88   20.90
   2   7  -1  166.98   20.90
  -2   7   1  160.08   22.70
   2  -7  -1  168.38   22.70
  -2   7  -1  169.68   21.50
  -2   7  -1  186.88   21.90
   2   7   1  136.29   23.00
   2  -7  -1   93.69   18.30
  -2  -7   1  164.98   25.60
   3   7  -1    2.70    9.70
  -3  -7  -1   27.20   16.80
  -3   7   1    1.70   11.70
   3  -7   1   28.60   12.80
   3   7  -1    5.10    9.90
  -3   7   1   19.60   11.90
  -3   7  -1   -7.60    9.20
   3  -7  -1   23.70   13.70
  -3  -7   1   -4.10   11.40
   3   7   1    8.60   11.10
  -3   7  -1   -1.50   10.50
  -4   7   1  189.58   25.10
  -4  -7  -1  235.58   33.10
   4  -7   1  241.28   30.50
  -4   7   1  164.98   27.30
   4   7  -1  227.28   27.20
   4   7  -1  204.88   23.80
  -4   7  -1  162.08   24.80
  -4  -7   1  223.48   30.80
   4   7   1  232.48   28.80
  -4   7  -1  243.98   28.00
   4  -7  -1  204.48   29.40
  -5  -7  -1  165.58   32.10
   5   7  -1  257.77   29.80
  -5   7   1  210.18   29.00
   5   7  -1  235.38   27.70
   5  -7   1  214.48   31.80
  -5   7   1  207.98   29.40
   5   7   1  205.58   28.70
  -5  -7   1  211.88   34.10
  -5   7  -1  236.98   28.50
   5  -7  -1  295.67   35.60
  -5   7  -1  292.17   33.40
   0   8  -1    3.80   11.30
   0  -8   1   -7.10   12.50
   0  -8  -1  -14.70   12.50
   0   8   1    4.70   11.50
   0   8  -1   -5.10    9.20
   0  -8  -1   -1.60   14.00
  -1   8   1  245.98   29.10
   1  -8   1  208.68   27.00
   1   8  -1  231.98   26.50
  -1  -8  -1  236.88   33.10
   1  -8   1  228.98   26.40
   1   8  -1  258.57   26.60
   1  -8  -1  252.17   29.20
   1   8   1  237.88   28.70
   1  -8  -1  238.18   27.60
  -1  -8   1  184.88   28.40
  -1   8  -1  275.67   28.90
  -1   8  -1  262.67   27.20
  -2   8   1  289.17   31.60
   2   8  -1  193.88   25.90
  -2  -8  -1  201.38   34.30
   2  -8   1  199.58   26.00
   2   8  -1  215.28   38.80
   2   8   1  205.88   28.10
   2  -8  -1  194.48   26.20
  -2  -8   1  250.97   34.10
  -2   8  -1  198.78   24.70
  -2   8  -1  184.38   26.40
  -3  -8  -1  -23.10   15.80
   3   8  -1    0.10   12.40
  -3   8   1   -4.70   11.40
   3  -8   1    6.40   12.60
   3  -8  -1  -10.50   10.80
  -3   8  -1    7.30   12.80
  -3   8  -1   -3.60   11.80
   3   8   1   24.90   14.60
  -3  -8   1   -9.60   16.10
   4  -8   1  188.58   30.30
  -4  -8  -1  214.38   34.30
  -4   8   1  246.48   31.40
   4   8  -1  306.27   33.30
  -4  -8   1  199.98   36.30
   4  -8  -1  289.17   34.90
  -4   8  -1  304.97   33.80
  -4   8  -1  223.88   39.30
   4   8   1  290.77   34.90
   0  -9   1    1.50   16.40
   0   9  -1  -11.40   12.80
   0   9   1   -5.40   13.80
   0  -9  -1   -3.00   15.50
  -1  -9  -1   16.10   20.00
   1  -9   1   -1.40   16.50
   1   9  -1    5.40   12.70
  -1   9   1   10.30   15.50
   1  -9  -1   24.20   17.70
  -1  -9   1   44.90   21.20
   1   9   1   39.80   19.00
  -1   9  -1   47.00   18.70
   1  -9  -1   14.20   15.30
   2  -9   1  318.87   34.60
   2   9  -1  251.37   31.40
  -2  -9  -1  272.27   41.30
  -2   9   1  174.08   30.70
  -2   9  -1  197.48   29.00
  -2  -9   1  217.28   38.10
   2  -9  -1  274.07   32.60
   2   9   1  352.56   36.50
  -3   9   1   12.60   17.30
   3   9  -1   11.60   14.70
  -3  -9  -1    2.50   20.90
   3  -9   1    7.10   15.10
   3   9   1   -7.70   15.60
   3  -9  -1   32.80   18.70
  -3  -9   1  -29.90   18.60
   0   0  -2 4701.73  185.18
   0   0  -2 4648.04  184.88
   0   0  -2 4783.92  183.68
   0   0   2 5028.00  182.98
  -1   0  -2   -2.60    2.50
   1   0   2    2.10    2.30
   1   0  -2    2.70    3.10
   1   0  -2    2.20    3.10
  -1   0  -2    4.80    3.20
   1   0   2   -1.80    2.70
   1   0  -2    0.40    2.80
   1   0  -2   -0.90    2.70
  -2   0  -2 4518.45  173.68
  -2   0   2 4442.96  170.68
   2   0  -2 4382.46  173.68
   2   0  -2 4411.66  173.58
   2   0   2 4232.08  171.38
   2   0  -2 4228.48  171.68
   2   0   2 4497.05  173.58
  -2   0  -2 4423.56  171.68
   3   0  -2    2.20    4.30
  -3   0   2   -1.50    3.20
   3   0   2   -2.50    3.70
  -3   0  -2    3.80    5.50
  -3   0   2    3.50    5.30
  -3   0  -2   -3.30    3.70
   3   0   2   -4.90    3.80
   3   0  -2   -2.80    4.50
   4   0   2 1433.06   65.89
   4   0  -2 1319.27   66.99
  -4   0   2 1505.85   61.59
  -4   0  -2 1481.05   62.69
  -4   0  -2 1387.56   67.79
   4   0  -2 1450.05   65.39
  -4   0   2 1450.95   68.59
   4   0   2 1405.26   65.59
   5   0   2    6.30    7.30
  -5   0  -2    5.30    7.50
   5   0  -2   -4.90    5.30
   5   0  -2   -7.20    5.00
  -5   0   2   -1.00    6.60
  -5   0  -2    4.50    5.50
   5   0   2   -0.50    5.70
   6   0  -2  680.33   45.10
   6   0   2  721.33   44.10
   6   0   2  753.32   43.80
   6   0  -2  800.72   44.20
  -6   0   2  701.03   46.50
  -6   0  -2  681.43   46.30
   7   0   2    6.80    9.80
   7   0   2   -9.50    9.30
  -7   0  -2   -3.60   11.00
  -7   0   2   -1.30   10.40
   7   0  -2  -10.70    8.70
   8   0   2  262.37   28.60
  -8   0   2  266.87   32.60
  -8   0  -2  224.98   31.60
   8   0  -2  246.28   30.70
   0  -1  -2 1363.36   55.89
   0  -1  -2 1302.27   55.39
   0  -1   2 1292.87   54.09
   0   1  -2 1321.37   55.59
   0   1  -2 1230.58   51.99
   0   1  -2 1420.86   55.49
   0   1   2 1425.76   55.19
  -1  -1  -2  408.56   18.20
  -1  -1  -2  393.66   21.10
   1  -1   2  384.36   16.90
   1  -1   2  371.86   20.60
  -1   1   2  362.56   18.30
   1   1  -2  385.16   17.20
   1   1  -2  419.66   21.50
   1   1  -2  372.36   19.00
  -1   1  -2  387.96   20.30
   1   1   2  419.56   20.00
  -1  -1   2  388.66   20.30
   1  -1  -2  394.66   20.30
   1  -1  -2  362.96   20.60
   1  -1  -2  376.46   18.20
  -1   1  -2  373.86   19.10
   1   1   2  409.16   19.50
  -2   1   2  135.09   11.30
   2   1  -2  139.39   12.90
   2   1  -2  122.39   11.50
  -2  -1  -2  137.19   12.00
   2  -1   2  149.79   12.80
  -2  -1  -2  134.09   11.00
   2   1  -2  139.89    9.20
   2  -1   2  163.78   10.60
   2  -1  -2  145.39   12.80
   2   1   2  152.78   12.20
  -2   1  -2  128.49   12.50
  -2  -1   2  132.59   11.80
   2  -1  -2  136.99    8.40
   2  -1  -2  123.79   11.90
   2   1   2  127.89   10.70
  -2   1  -2  130.19    9.60
  -3  -1  -2 1688.03   71.29
   3  -1   2 1630.74   69.49
   3   1  -2 1612.54   71.59
  -3   1   2 1620.84   71.39
   3   1  -2 1595.54   66.69
   3   1  -2 1580.54   72.39
  -3  -1  -2 1658.03   70.59
   3  -1   2 1490.75   71.49
   3  -1  -2 1550.74   72.39
   3  -1  -2 1641.24   72.39
  -3  -1   2 1702.73   70.49
  -3   1  -2 1580.94   72.39
   3   1   2 1654.23   71.09
  -3   1  -2 1566.94   65.99
   3   1   2 1604.14   69.29
   4  -1   2  109.39   12.90
  -4   1   2  102.09   13.70
   4   1  -2  115.99   14.10
  -4  -1  -2   98.79   12.40
  -4  -1  -2  116.99   14.20
   4   1  -2  121.19   11.10
   4  -1   2  103.29   14.20
   4   1   2  112.99   12.30
  -4   1  -2  125.69   15.60
   4  -1  -2  118.99   14.70
  -4  -1   2  104.19   14.40
  -4   1  -2  103.99    8.90
  -4  -1   2  136.69   13.30
   4  -1  -2   81.49   12.40
   4   1   2  106.59   13.40
   5  -1   2  259.97   21.20
  -5   1   2  213.48   21.80
  -5  -1  -2  243.78   20.00
   5   1  -2  286.97   19.80
   5   1  -2  221.88   22.30
   5  -1   2  252.37   22.60
  -5  -1  -2  274.47   23.40
  -5  -1   2  245.28   23.50
   5  -1  -2  229.58   22.40
   5   1   2  231.08   21.20
   5   1   2  263.27   20.20
  -5   1  -2  220.48   22.90
  -5  -1   2  236.08   19.50
   5  -1  -2  285.07   23.60
  -6  -1  -2  172.68   22.40
  -6   1   2  192.88   23.30
   6   1  -2  209.88   24.20
   6  -1   2  229.58   21.50
   6  -1   2  171.38   21.40
   6   1   2  249.38   21.60
  -6   1  -2  167.58   22.70
   6  -1  -2  200.18   22.60
  -6  -1   2  204.28   23.70
   6   1   2  236.68   23.30
   6  -1  -2  253.97   24.00
  -7   1   2   52.59   15.50
  -7  -1  -2   47.10   16.50
   7  -1   2   43.60   14.00
   7  -1   2   52.59   14.60
   7   1  -2   52.99   15.90
  -7  -1   2   55.59   16.60
   7  -1  -2   62.09   16.80
   7  -1  -2   91.99   18.30
  -7   1  -2   77.39   19.40
   7   1   2   62.39   15.60
  -8  -1  -2    8.10   16.00
   8   1  -2   38.40   16.10
  -8   1   2    0.80   13.90
   8  -1   2   65.09   17.60
   8  -1  -2   21.90   14.00
  -8  -1   2   51.69   20.70
   8   1   2   38.40   14.20
  -8   1  -2   17.10   16.70
   0  -2  -2  563.54   29.40
   0  -2   2  588.94   27.70
   0   2   2  622.54   30.00
   0   2  -2  599.04   29.50
   0   2  -2  578.14   26.50
   0  -2   2  572.14   29.20
   0  -2  -2  612.54   29.40
  -1   2   2 4273.37  165.58
   1  -2   2 4211.88  164.78
   1   2  -2 4186.28  162.98
  -1  -2  -2 4134.39  162.38
   1   2  -2 4366.96  165.18
   1  -2   2 3998.70  162.28
  -1  -2  -2 3874.61  165.38
  -1   2   2 4058.69  160.38
  -1  -2   2 4036.90  158.78
   1  -2  -2 4123.89  162.08
   1  -2  -2 4064.09  165.18
  -1   2  -2 4368.06  165.18
   1   2   2 4086.39  164.48
  -1   2  -2 4134.59  160.78
  -1  -2   2 4225.18  165.68
   2   2  -2  160.58   13.10
  -2  -2  -2  155.58   14.80
   2   2  -2  158.98   14.40
   2  -2   2  148.19   10.80
  -2  -2  -2  147.19   11.30
  -2   2   2  145.89   12.50
   2  -2   2  137.69   13.90
   2  -2  -2  154.78   14.70
   2  -2  -2  148.49   13.50
   2  -2  -2  131.29    8.80
   2   2   2  162.38   13.70
   2   2   2  138.39   10.40
  -2  -2   2  156.68   14.30
  -2   2  -2  142.99   13.70
  -2   2  -2  140.19   10.80
  -3  -2  -2 1380.36   63.69
   3   2  -2 1410.46   66.79
  -3   2   2 1424.66   65.29
  -3  -2  -2 1475.65   66.79
   3   2  -2 1492.75   66.89
   3  -2   2 1492.25   64.09
   3  -2   2 1354.76   67.49
   3  -2  -2 1365.36   66.79
  -3   2  -2 1441.36   67.19
  -3   2  -2 1407.46   59.49
   3  -2  -2 1461.95   68.69
  -3  -2   2 1489.85   66.99
   3   2   2 1507.75   62.09
   3   2   2 1441.56   66.09
  -4   2   2   35.90   10.20
  -4  -2  -2   52.39   11.50
   4  -2   2   42.20   11.20
   4   2  -2   31.90    9.70
   4  -2   2   58.59   10.40
  -4  -2  -2   63.79   11.40
  -4  -2   2   45.80   10.40
   4   2   2   55.59    9.10
  -4   2  -2   40.30   11.30
  -4  -2   2   38.30   10.80
   4   2   2   58.49   11.20
   4  -2  -2   46.70   11.20
   4  -2  -2   44.90   11.70
  -5  -2  -2  963.40   49.50
  -5  -2  -2  874.01   49.50
   5  -2   2  924.91   48.80
   5  -2   2  862.01   51.09
  -5   2   2  917.01   50.99
   5   2  -2  814.62   50.39
   5   2   2  880.61   50.39
   5   2   2  954.80   45.30
   5  -2  -2  922.71   52.19
  -5  -2   2  896.31   48.70
   5  -2  -2  946.61   53.19
  -5  -2   2  862.61   51.29
  -5   2  -2  878.11   51.59
   6  -2   2   79.49   15.20
  -6   2   2   96.09   18.80
  -6  -2  -2  113.49   17.60
   6   2  -2  133.99   18.90
   6  -2   2  137.99   20.50
  -6  -2  -2  113.89   19.30
   6  -2  -2  111.29   20.50
  -6  -2   2  112.49   20.20
   6  -2  -2  122.59   20.10
   6   2   2  124.69   17.80
  -6   2  -2  134.09   19.90
   7  -2   2  283.17   29.10
  -7   2   2  244.18   28.60
   7   2  -2  279.27   29.80
  -7  -2  -2  235.88   28.50
   7  -2   2  306.47   27.80
   7  -2  -2  265.57   29.30
  -7   2  -2  255.97   29.10
  -7  -2   2  272.17   30.00
   7   2   2  226.98   26.50
   7  -2  -2  214.98   26.90
  -8   2   2   17.50   14.80
   8  -2   2   11.30   12.40
  -8  -2  -2   16.00   17.10
   8   2  -2   17.40   13.60
   8  -2   2   34.30   16.00
   8  -2  -2   34.10   15.40
  -8  -2   2   64.99   21.80
   8   2   2   50.19   17.00
  -8   2  -2   29.50   18.00
   0  -3   2 2322.37  103.19
   0   3  -2 2482.55   99.69
   0  -3  -2 2363.46  101.69
   0  -3  -2 2482.15  103.19
   0   3   2 2464.55  103.89
   0  -3   2 2461.85  100.09
   0   3  -2 2461.35  102.39
   0   3   2 2529.65   96.59
   1  -3   2   67.29    9.60
   1  -3   2   82.09   10.70
   1   3  -2   89.59   11.20
  -1   3   2   80.79    8.30
   1   3  -2   82.49    9.90
  -1  -3  -2   85.69   12.00
  -1  -3  -2   76.69    9.10
  -1   3   2   76.49   10.70
  -1  -3   2   89.39   11.90
   1   3   2   77.89   10.70
   1  -3  -2   76.39   10.90
  -1  -3   2   72.69    7.00
   1   3   2   82.29    7.30
  -1   3  -2   86.79   11.00
  -1   3  -2   92.69    9.20
   1  -3  -2   89.19   10.50
  -2   3   2  530.35   31.30
  -2   3   2  552.54   28.00
  -2  -3  -2  528.35   32.30
   2   3  -2  498.95   30.30
   2  -3   2  496.25   31.60
   2   3  -2  540.05   29.70
   2  -3   2  526.85   27.10
   2   3   2  522.65   30.40
  -2   3  -2  513.45   30.30
   2   3   2  521.35   25.80
   2   3   2  500.75   26.40
   2  -3  -2  546.95   33.00
  -2   3  -2  509.05   27.30
   2  -3  -2  507.55   25.60
  -2  -3   2  504.55   31.90
  -3  -3  -2   21.40    6.40
   3  -3   2    5.30    5.10
  -3   3   2   14.60    6.50
  -3  -3  -2    7.60    7.50
   3  -3   2    8.40    7.50
   3   3  -2    7.40    5.80
   3  -3   2   19.60    5.60
   3   3  -2   31.10    9.30
   3  -3  -2   16.60    7.00
   3  -3  -2   14.20    8.10
   3   3   2    8.00    5.40
   3   3   2    5.70    4.10
  -3  -3   2    8.40    7.30
  -3   3  -2   10.30    7.50
  -4  -3  -2  140.59   17.30
   4  -3   2  116.79   13.90
   4   3  -2  119.89   16.30
   4  -3   2  125.79   17.00
  -4   3   2  121.99   15.50
   4   3  -2  108.49   15.00
  -4  -3  -2  147.69   15.50
   4  -3  -2  117.19   15.90
   4   3   2  113.69   11.40
   4   3   2  127.49   16.00
  -4  -3   2   99.59   15.90
   4  -3  -2  129.79   18.70
  -4   3  -2  143.09   18.80
  -5   3   2   25.60   10.70
   5  -3   2   19.70   11.20
  -5  -3  -2    2.10    8.10
   5   3  -2   14.50    9.50
   5  -3   2   12.40    8.40
  -5  -3  -2   11.30    8.50
  -5  -3   2   -0.10    8.70
  -5   3  -2    3.50    8.40
   5  -3  -2   14.60    9.10
   5   3   2    6.70    7.50
   5  -3  -2  -14.60    8.30
  -5  -3   2    3.90    7.80
   6  -3   2  499.65   40.80
   6  -3   2  569.24   38.50
   6   3  -2  615.04   42.70
  -6  -3  -2  561.74   38.90
  -6   3   2  554.24   40.30
  -6  -3  -2  581.84   39.80
   6   3   2  539.95   40.00
  -6   3  -2  531.25   41.90
  -6  -3   2  548.85   41.30
   6  -3  -2  584.44   43.10
   6  -3  -2  550.24   40.80
  -6  -3   2  611.44   41.60
  -7  -3  -2   73.19   19.10
  -7   3   2  105.29   20.20
   7  -3   2   89.59   18.00
   7   3  -2  141.99   25.40
   7  -3   2   86.19   18.90
   7   3   2  120.99   21.80
  -7   3  -2   82.49   20.80
   7  -3  -2   92.59   21.10
   7  -3  -2  124.79   22.10
  -7  -3   2  100.69   22.60
   0   4  -2  576.54   32.00
   0   4   2  541.55   26.10
   0  -4   2  518.95   32.30
   0   4   2  524.15   32.50
   0   4  -2  507.25   29.00
   0  -4  -2  506.65   32.20
   0  -4   2  574.24   29.70
   0  -4  -2  496.45   30.40
  -1   4   2  219.28   19.70
   1   4  -2  224.98   17.60
  -1   4   2  240.08   16.20
   1  -4   2  249.18   20.00
  -1  -4  -2  247.68   17.50
   1  -4   2  217.98   18.40
  -1  -4  -2  253.57   22.30
   1   4  -2  257.87   19.70
   1   4   2  212.08   19.70
  -1   4  -2  267.47   18.00
  -1   4  -2  230.38   19.50
   1   4   2  248.58   15.00
  -1  -4   2  254.87   21.70
   1  -4  -2  245.28   20.20
   1  -4  -2  235.38   18.90
  -1  -4   2  235.38   15.20
   2  -4   2 1485.75   64.09
   2   4  -2 1345.47   66.69
  -2  -4  -2 1453.75   70.89
  -2   4   2 1446.86   63.29
   2   4  -2 1344.07   64.79
  -2  -4  -2 1345.97   60.59
   2  -4   2 1497.65   69.39
  -2   4   2 1379.06   68.09
  -2   4  -2 1441.76   63.89
   2   4   2 1364.36   67.19
  -2   4  -2 1382.56   67.49
   2  -4  -2 1385.66   69.89
   2   4   2 1401.96   61.19
   2  -4  -2 1382.16   62.49
  -2  -4   2 1426.56   70.99
  -3   4   2  653.53   40.10
  -3   4   2  626.44   36.30
   3   4  -2  606.84   37.00
   3  -4   2  618.04   40.30
   3  -4   2  643.94   33.10
  -3  -4  -2  676.43   35.00
   3   4  -2  609.74   38.20
  -3  -4  -2  720.93   42.90
   3   4   2  653.63   31.40
  -3   4  -2  653.33   36.20
  -3   4  -2  660.43   39.60
   3   4   2  612.34   38.00
   3  -4  -2  574.74   40.20
  -3  -4   2  678.43   42.10
   4  -4   2  592.44   44.60
  -4  -4  -2  733.03   39.80
  -4  -4  -2  705.63   45.20
   4   4  -2  720.83   42.80
  -4   4   2  729.83   41.50
   4   4  -2  680.63   41.40
  -4   4  -2  710.43   40.20
   4   4   2  694.43   42.70
  -4  -4   2  680.03   45.00
  -4   4  -2  695.03   44.00
   4  -4  -2  662.13   45.70
   4  -4  -2  659.13   42.50
  -5  -4  -2  186.08   22.70
  -5   4   2  156.58   20.40
   5  -4   2  175.88   23.60
  -5  -4  -2  153.78   18.60
   5  -4   2  157.18   18.70
   5   4  -2  176.18   21.60
  -5   4  -2  167.18   22.70
  -5  -4   2  192.28   23.30
  -5  -4   2  198.88   22.80
   5  -4  -2  153.58   23.20
   5   4   2  163.28   19.90
   5  -4  -2  182.68   22.00
   6   4  -2  143.69   23.60
   6  -4   2  123.49   21.30
  -6  -4  -2  173.18   21.60
   6  -4   2  130.59   24.10
  -6   4   2  160.08   22.00
  -6  -4  -2  170.08   23.90
  -6  -4   2  128.29   22.60
   6  -4  -2  151.88   23.60
   6  -4  -2  118.89   21.30
   6   4   2  145.29   20.80
  -6   4  -2   82.99   20.40
  -6  -4   2  134.79   23.60
  -7   4   2   14.10   13.10
  -7  -4  -2   13.80   13.60
   7  -4   2   21.70   15.30
   7  -4   2   33.80   16.00
   7   4  -2   17.70   15.30
   7  -4  -2    7.70   14.80
   7   4   2   19.20   13.20
  -7   4  -2   24.60   16.20
   7  -4  -2   23.10   13.90
  -7  -4   2   14.40   14.50
   0  -5  -2  171.88   17.60
   0   5  -2  175.68   17.90
   0   5   2  150.68   18.50
   0  -5   2  172.78   16.20
   0  -5   2  165.68   18.50
   0  -5  -2  185.98   19.80
   0   5   2  179.08   14.00
   0   5  -2  211.58   17.70
  -1  -5  -2  273.17   19.70
  -1   5   2  216.98   21.00
   1  -5   2  250.67   21.20
   1   5  -2  233.58   20.70
   1   5  -2  235.88   19.90
   1  -5   2  238.68   21.40
  -1   5   2  259.37   18.20
  -1  -5  -2  278.87   25.20
  -1  -5   2  235.48   16.90
   1   5   2  241.98   16.80
  -1  -5   2  214.78   22.90
   1   5   2  246.68   22.40
   1  -5  -2  189.38   20.60
  -1   5  -2  210.98   20.30
   1  -5  -2  203.88   21.00
  -1   5  -2  261.07   20.40
  -2   5   2   96.89   16.70
  -2  -5  -2  113.69   11.70
   2   5  -2   91.49   15.90
   2   5  -2  106.19   13.80
   2  -5   2  117.19   14.50
   2  -5   2  112.69   16.40
  -2   5   2  112.49   13.60
  -2  -5  -2  112.59   19.40
   2   5   2  107.39   15.80
  -2   5  -2   80.39   14.50
  -2   5  -2  104.99   13.80
  -2  -5   2   86.09   16.80
   2  -5  -2  135.99   18.10
   2   5   2   99.59   12.00
   2  -5  -2  134.89   15.00
  -3   5   2  735.53   40.20
  -3  -5  -2  666.53   46.00
  -3   5   2  698.73   44.20
   3   5  -2  619.04   40.00
   3  -5   2  635.24   43.10
   3  -5   2  618.04   43.40
   3   5  -2  670.63   41.70
   3   5   2  663.33   42.60
  -3  -5   2  737.53   46.90
  -3   5  -2  695.13   39.50
   3   5   2  706.53   37.20
   3  -5  -2  639.14   45.00
  -3   5  -2  672.43   42.90
  -4   5   2  135.09   19.30
  -4  -5  -2  151.38   17.70
  -4   5   2  123.29   20.80
   4  -5   2  104.19   19.20
  -4  -5  -2  159.28   22.90
   4   5  -2  151.68   19.20
   4   5  -2  171.18   19.80
   4   5   2  107.39   18.40
  -4  -5   2  135.89   20.70
  -4   5  -2  152.58   18.10
  -4   5  -2  159.28   20.90
   4  -5  -2  104.89   21.60
  -5   5   2  207.18   25.20
  -5   5   2  119.49   21.30
  -5  -5  -2  204.78   21.80
   5  -5   2  153.08   23.60
  -5  -5  -2  213.98   26.90
   5   5  -2  163.88   21.60
   5   5  -2  149.09   20.70
   5   5   2  164.28   22.30
  -5   5  -2  119.79   21.90
  -5   5  -2  151.68   21.00
   5  -5  -2  192.58   27.00
  -5  -5   2  186.58   25.90
   6  -5   2   24.10   15.50
   6   5  -2   35.50   16.30
  -6   5   2   14.00   13.40
  -6  -5  -2   63.89   16.00
  -6  -5  -2   72.59   18.90
  -6   5   2   53.09   17.40
   6   5   2   32.20   13.10
   6  -5  -2   64.49   20.90
  -6  -5   2   26.10   16.80
  -6   5  -2   29.70   14.40
  -6   5  -2   48.10   17.40
  -6  -5   2   17.10   13.70
  -7   5   2   37.60   17.40
  -7   5   2   24.40   15.20
  -7  -5  -2    5.60   11.70
   7   5  -2    9.90   15.80
   7  -5   2    9.60   17.40
  -7  -5  -2   -0.60   11.80
   7  -5  -2   -3.80   15.90
   7   5   2  -10.40   10.80
  -7   5  -2   17.50   15.80
  -7  -5   2   -1.70   13.60
   0  -6  -2  604.94   42.60
   0  -6  -2  663.43   40.60
   0   6   2  648.24   35.30
   0   6   2  628.14   42.70
   0  -6   2  685.93   38.90
   0   6  -2  688.13   40.30
   0   6  -2  694.33   41.40
   0  -6   2  713.43   44.70
  -1   6   2  736.23   38.40
  -1  -6  -2  701.13   39.80
   1  -6   2  740.33   43.50
   1  -6   2  775.22   45.20
   1   6  -2  719.73   42.00
  -1   6   2  674.53   45.10
  -1  -6  -2  752.42   49.00
   1   6  -2  713.43   42.90
   1  -6  -2  736.73   45.00
  -1   6  -2  672.33   42.40
  -1  -6   2  727.83   47.50
   1   6   2  649.64   44.30
   1  -6  -2  651.13   42.50
  -1   6  -2  697.63   41.50
   1   6   2  688.23   37.50
   2   6  -2  215.78   22.60
   2  -6   2  221.28   22.50
   2  -6   2  231.58   24.10
  -2   6   2  207.58   23.60
  -2  -6  -2  253.87   29.60
  -2   6   2  241.98   21.40
   2   6  -2  254.87   22.90
  -2   6  -2  224.18   23.60
   2  -6  -2  196.48   20.70
  -2   6  -2  241.98   22.20
   2   6   2  203.68   20.10
   2  -6  -2  199.38   23.50
  -2  -6   2  226.68   26.40
   2   6   2  160.48   21.80
   3   6  -2    5.50    8.60
   3  -6   2   12.80   10.50
   3   6  -2    0.90    9.20
  -3   6   2    5.80   10.10
  -3  -6  -2   -6.10   10.50
  -3   6   2   -1.30    9.50
  -3  -6   2    1.40    9.80
   3   6   2   16.00   11.90
   3  -6  -2   16.30   11.10
  -3   6  -2    2.00   10.00
   3   6   2   -1.80    9.50
  -3   6  -2   16.90    9.80
   4   6  -2   78.39   17.80
  -4   6   2   75.29   18.20
  -4   6   2   77.59   16.60
   4   6  -2   86.79   18.00
   4  -6   2   96.09   19.00
  -4  -6  -2  116.69   23.30
   4   6   2   75.09   18.60
   4  -6  -2   63.89   19.00
  -4  -6   2   74.99   18.80
  -4   6  -2   48.50   15.20
  -4   6  -2   86.69   19.50
   5   6  -2  262.97   28.10
   5   6  -2  255.47   28.00
  -5   6   2  261.27   30.00
   5  -6   2  260.77   30.80
  -5   6   2  270.97   27.20
  -5  -6  -2  294.67   33.20
   5   6   2  221.98   26.30
  -5   6  -2  222.58   26.20
  -5   6  -2  232.68   29.20
  -5  -6   2  240.08   30.70
   5  -6  -2  223.28   31.80
  -6   6   2  195.98   28.90
  -6  -6  -2  214.08   30.10
  -6   6   2  205.78   28.90
   6  -6   2  164.78   31.40
   6   6  -2  191.58   28.30
  -6   6  -2  187.58   28.10
  -6  -6   2  217.78   28.10
   6  -6  -2  180.78   33.30
   6   6   2  190.58   25.20
  -6  -6   2  218.98   32.10
   0  -7   2  176.18   19.90
   0  -7  -2  196.68   25.40
   0   7   2  128.49   20.30
   0  -7   2  178.08   23.80
   0   7  -2  174.18   20.50
   0   7  -2  191.28   22.00
   0  -7  -2  195.48   21.40
   1   7  -2  135.79   19.50
   1  -7   2  172.38   20.90
  -1   7   2  100.79   20.50
  -1  -7  -2  132.99   18.10
   1  -7   2  157.58   21.90
  -1  -7  -2  165.88   25.30
   1   7  -2  132.49   19.50
   1  -7  -2  131.19   20.70
   1   7   2  137.09   22.70
  -1   7  -2  155.98   19.40
   1  -7  -2  158.78   21.00
  -1   7  -2  147.59   22.60
  -1  -7   2  124.99   22.80
  -2  -7  -2  141.59   27.40
   2  -7   2  142.19   20.40
   2   7  -2  126.59   19.00
   2   7  -2  140.79   20.10
  -2   7   2   76.79   18.90
   2  -7   2  146.19   21.50
   2   7   2  128.29   22.00
   2  -7  -2  145.49   21.60
  -2   7  -2  115.79   20.10
   2  -7  -2  141.99   25.00
  -2   7  -2  144.59   20.70
  -2  -7   2  112.59   23.80
   3  -7   2  202.98   27.00
   3   7  -2  185.28   23.70
   3   7  -2  211.68   24.10
  -3   7   2  231.48   28.40
  -3  -7  -2  234.18   31.60
  -3   7  -2  189.78   23.70
   3   7   2  218.48   28.00
   3  -7  -2  227.38   27.80
  -3  -7   2  255.87   30.70
  -3   7  -2  198.88   26.20
   4  -7   2   30.00   15.90
   4   7  -2   27.40   14.10
  -4  -7  -2   30.90   17.10
   4   7  -2   50.49   15.60
  -4   7   2   30.10   16.60
   4   7   2   37.90   15.60
   4  -7  -2   22.90   15.00
  -4  -7   2   22.20   16.00
  -4   7  -2    5.40   12.10
  -5   7   2   55.49   20.90
   5  -7   2   86.69   23.40
   5   7  -2  101.79   22.20
  -5  -7  -2   89.39   24.10
   5   7  -2  115.49   21.40
  -5  -7   2  110.89   25.80
   5   7   2   64.09   19.20
   5  -7  -2   86.79   23.10
  -5   7  -2  127.99   25.60
   0   8   2   41.30   16.80
   0  -8   2   67.59   19.80
   0  -8  -2   85.49   22.50
   0   8  -2   62.49   16.90
   0  -8  -2   70.49   17.70
   0   8  -2   66.29   17.60
   1   8  -2   66.99   18.10
   1   8  -2   94.99   18.80
   1  -8   2   77.89   18.20
   1  -8   2   93.09   19.80
  -1   8   2   33.90   16.10
  -1  -8  -2   90.79   23.30
  -1  -8   2   95.39   22.30
   1  -8  -2  101.19   20.40
   1   8   2   83.09   20.50
  -1   8  -2   93.09   18.90
   1  -8  -2   65.39   18.80
  -1   8  -2   78.29   17.90
   2   8  -2  345.47   31.70
   2   8  -2  261.07   28.00
   2  -8   2  209.08   26.90
  -2  -8  -2  321.47   38.90
  -2   8   2  280.47   32.90
  -2   8  -2  309.07   30.40
  -2  -8   2  254.37   33.90
  -2   8  -2  290.97   29.60
   2   8   2  251.27   30.90
   2  -8  -2  325.07   32.60
  -3  -8  -2  164.78   33.10
   3   8  -2  164.88   25.10
   3  -8   2  148.59   26.90
   3   8  -2  138.99   23.20
  -3   8   2  193.38   29.00
   3   8   2  140.49   26.40
  -3  -8   2  163.08   30.80
   3  -8  -2  148.49   27.30
  -3   8  -2  178.68   25.70
   4  -8   2  150.18   28.50
   4   8  -2  137.09   25.10
  -4  -8  -2  122.49   28.60
   4   8  -2   71.69   19.00
  -4   8   2  135.79   27.30
  -4   8  -2  145.99   26.40
   4  -8  -2  179.18   31.10
   4   8   2  119.19   26.10
  -4  -8   2  140.89   28.90
   0   9  -2  211.68   27.70
   0   9   2  256.47   33.80
   0  -9  -2  203.58   30.00
   0  -9   2  181.28   30.80
  -1   9   2   43.00   17.90
   1  -9   2   77.19   22.30
  -1  -9  -2   44.90   22.40
   1   9  -2   87.29   20.00
  -1   9  -2   97.69   22.30
   1  -9  -2   23.90   16.70
   1  -9  -2   79.09   20.70
  -1  -9   2   51.29   21.50
   1   9   2   95.59   23.00
   2   9  -2   98.49   21.80
  -2   9   2   61.19   21.50
   2  -9   2  100.29   23.70
  -2  -9  -2   77.89   28.90
  -2  -9   2   66.49   25.20
   2   9   2   65.69   21.00
   2  -9  -2   50.69   20.10
  -3  -9  -2    2.90   20.20
   3  -9   2    2.10   14.70
  -3   9   2   -7.90   14.30
   3   9  -2   13.80   16.60
   3   9   2    5.50   15.40
   3  -9  -2   -9.20   13.30
  -3  -9   2   -3.70   18.90
   0   0  -3    3.90    3.30
   0   0  -3    3.40    3.70
   0   0   3    0.30    2.10
   0   0  -3    2.00    2.80
   1   0  -3   -1.30    3.70
   1   0   3    1.80    2.30
   1   0   3    0.50    3.20
   1   0  -3    4.40    3.50
   1   0  -3   -4.40    3.60
   1   0  -3    3.60    4.00
  -1   0  -3    1.80    3.50
  -1   0  -3    0.10    3.70
  -2   0  -3 3785.22  148.79
   2   0  -3 3755.92  149.88
   2   0  -3 3631.74  149.49
  -2   0  -3 3847.22  149.29
   2   0   3 3728.13  150.38
   2   0  -3 3827.82  147.69
   2   0  -3 3788.62  148.79
   2   0   3 3566.54  146.49
   3   0   3    1.00    3.90
   3   0  -3   -1.00    4.20
  -3   0   3    4.80    5.50
  -3   0   3    0.30    3.40
  -3   0  -3   -0.10    4.00
   3   0   3   -4.90    4.20
  -3   0  -3    1.00    5.00
   3   0  -3    1.80    4.50
   4   0  -3 2794.62  124.09
   4   0  -3 2993.00  121.79
  -4   0   3 2843.02  124.89
   4   0   3 3003.70  124.19
  -4   0   3 2812.02  117.89
   4   0   3 3004.20  121.79
  -4   0  -3 2939.41  119.69
  -4   0  -3 2919.71  124.99
  -5   0  -3  -21.40    4.90
   5   0  -3   -1.60    5.10
  -5   0  -3   -0.70    5.00
  -5   0   3    3.00    6.40
   5   0   3    8.10    7.50
   5   0   3    0.70    5.80
   5   0  -3   14.60    7.40
   6   0  -3   34.60   12.10
   6   0   3   16.90    8.90
  -6   0  -3   24.40   11.70
   6   0  -3   25.50   11.20
  -6   0   3   31.90   11.70
   6   0   3   21.00    9.50
   7   0   3    0.10    8.50
  -7   0   3   -0.50    9.90
   7   0  -3   -4.20   10.20
  -7   0  -3    3.60   11.00
   7   0   3    6.30    9.70
   8   0   3  301.07   29.50
  -8   0  -3  251.47   33.20
  -8   0   3  269.37   33.00
   8   0  -3  213.38   30.10
   0  -1  -3    4.60    3.90
   0  -1   3    2.40    3.10
   0   1  -3    4.10    3.90
   0  -1  -3    6.40    4.40
   0   1  -3    0.90    3.40
   0   1   3    4.30    3.20
   1   1  -3  890.81   41.60
  -1  -1  -3  910.51   42.20
   1   1  -3  906.71   41.70
  -1  -1  -3  925.41   37.90
   1  -1   3  924.21   42.00
   1   1  -3  885.51   39.00
  -1   1  -3  932.31   41.10
   1  -1  -3  877.81   38.40
  -1   1  -3 1002.90   42.30
   1   1   3  849.61   40.50
   1   1   3  944.21   40.30
   1  -1  -3  894.01   39.80
   1  -1  -3  895.11   42.00
   1  -1  -3  918.21   41.40
   2   1  -3  421.56   24.60
   2  -1   3  467.25   27.00
   2   1  -3  450.35   27.10
  -2  -1  -3  441.46   26.40
   2   1  -3  487.45   23.00
   2  -1   3  475.55   22.60
  -2  -1  -3  507.65   25.10
  -2   1   3  480.85   24.90
   2   1   3  477.85   25.40
   2  -1  -3  499.55   23.30
  -2   1  -3  464.75   24.40
   2  -1  -3  481.15   26.90
  -2  -1   3  472.55   25.90
   2  -1  -3  428.26   26.00
   2   1   3  482.25   25.10
  -2   1  -3  465.15   26.80
  -3   1   3   68.39   10.80
   3   1  -3   72.69    8.40
   3  -1   3   80.59   11.30
  -3  -1  -3   79.99   10.40
  -3   1   3   59.59    6.50
   3   1  -3   80.19   11.80
  -3  -1  -3   78.79   10.50
   3  -1   3   59.19    8.50
   3   1  -3   64.09    9.70
   3  -1  -3   65.19   11.10
   3   1   3   77.59   10.40
  -3   1  -3   90.09    9.00
   3  -1  -3   66.79   10.60
   3   1   3   73.69   10.00
  -3  -1   3   64.09    9.30
  -3   1  -3   56.59   10.80
  -4  -1  -3  123.39   13.60
   4  -1   3  118.49   14.60
  -4  -1  -3  119.59   14.10
   4  -1   3  130.49   13.00
   4   1  -3  103.89   13.70
  -4   1   3  128.39   14.50
   4   1  -3   88.89   10.70
   4   1   3   98.99   12.80
   4   1   3  105.49   12.80
  -4  -1   3   97.29   14.10
   4  -1  -3   84.59   13.00
   4  -1  -3  137.29   15.30
  -4  -1   3  110.09   12.40
  -4   1  -3  105.19   10.30
  -4   1  -3  122.59   15.30
   5  -1   3  471.15   33.30
  -5  -1  -3  506.95   30.80
  -5  -1  -3  468.05   33.00
   5  -1   3  485.75   30.50
   5   1  -3  519.85   29.70
  -5   1   3  454.05   33.00
   5   1  -3  534.45   35.10
  -5  -1   3  460.35   29.60
   5  -1  -3  495.95   34.30
   5   1   3  529.05   33.10
  -5   1  -3  475.85   34.60
   5   1   3  514.05   31.60
   5  -1  -3  492.75   33.50
  -5  -1   3  423.66   33.60
   6   1  -3   58.19   15.70
   6  -1   3   48.40   11.60
  -6  -1  -3   49.80   14.00
  -6   1   3   58.49   14.50
   6  -1   3   53.19   13.40
  -6  -1   3   56.09   15.10
   6  -1  -3   51.69   14.20
   6  -1  -3   76.29   16.50
   6   1   3   62.19   13.50
   6   1   3   61.69   13.30
  -6   1  -3   47.90   15.30
   7   1  -3  100.69   20.80
   7  -1   3   83.59   17.00
   7  -1   3  115.19   20.00
  -7   1   3  123.59   23.10
  -7  -1  -3  141.09   23.40
   7   1   3   93.69   18.60
  -7   1  -3  107.19   22.60
  -7  -1   3  119.69   21.90
   7  -1  -3  118.69   22.30
  -8  -1  -3   43.90   18.60
  -8   1   3   42.10   17.10
   8  -1   3   47.60   15.80
   8   1  -3   96.19   22.50
   8  -1  -3  104.39   22.60
  -8  -1   3   32.00   16.20
  -8   1  -3   65.09   21.70
   8   1   3  109.79   21.90
   0   2   3   -2.40    3.60
   0   2  -3    4.50    3.00
   0  -2  -3    1.80    4.70
   0  -2   3    5.40    4.70
   0  -2  -3    0.00    4.00
   0   2  -3    3.60    4.30
   0  -2   3   -4.80    3.00
  -1  -2  -3 3961.90  156.38
   1   2  -3 3880.11  158.18
   1   2  -3 3925.81  154.68
   1  -2   3 3770.82  157.48
  -1   2   3 3909.81  158.38
  -1  -2  -3 3999.90  151.58
  -1   2   3 4003.90  152.58
  -1  -2  -3 3911.61  159.08
  -1  -2   3 3854.51  152.48
   1   2   3 4224.78  157.98
  -1   2  -3 3992.70  151.88
  -1  -2   3 3786.72  158.28
   1  -2  -3 3877.41  158.78
   1  -2  -3 3934.81  155.58
  -1   2  -3 3858.71  156.88
  -1   2  -3 4047.00  158.68
   2  -2   3  261.87   19.70
   2   2  -3  250.77   17.30
  -2   2   3  240.48   15.80
   2  -2   3  272.57   14.60
  -2  -2  -3  237.38   18.50
   2   2  -3  256.77   19.40
  -2  -2  -3  253.47   15.30
   2   2   3  234.98   15.60
  -2   2  -3  224.58   18.00
   2  -2  -3  230.08   19.00
  -2  -2   3  255.37   18.90
  -2   2  -3  230.28   15.70
   2  -2  -3  229.98   18.40
   2   2   3  259.37   17.90
   2  -2  -3  245.28   14.40
  -3   2   3   15.80    6.50
   3  -2   3   22.00    8.40
  -3  -2  -3   31.80    8.70
   3   2  -3   17.40    7.00
   3  -2   3   24.90    6.20
  -3  -2  -3   17.50    5.90
   3   2  -3   15.90    7.10
   3  -2  -3   27.60    8.50
  -3  -2   3   21.70    7.40
   3   2   3   34.40    8.70
   3  -2  -3   30.80    8.90
   3   2   3   12.30    6.10
  -3   2  -3   14.10    7.30
  -3   2  -3   28.50    6.20
   4  -2   3  240.18   22.40
  -4  -2  -3  243.48   19.60
   4  -2   3  236.58   18.50
  -4   2   3  238.38   20.30
   4   2  -3  220.18   21.10
  -4  -2  -3  259.47   21.10
   4   2  -3  258.47   21.70
   4   2   3  249.88   20.40
  -4  -2   3  241.98   21.00
   4  -2  -3  252.17   22.90
   4  -2  -3  228.98   21.70
  -4   2  -3  233.38   22.40
  -4   2  -3  195.78   14.70
   4   2   3  284.07   19.20
  -5  -2  -3  872.71   46.70
   5  -2   3  782.92   43.60
   5  -2   3  736.83   47.30
  -5   2   3  760.42   46.10
   5   2  -3  803.82   47.60
  -5  -2  -3  805.12   45.20
  -5  -2   3  820.82   45.80
  -5  -2   3  776.12   47.80
  -5   2  -3  764.62   48.10
   5  -2  -3  774.62   47.50
   5   2   3  786.72   41.90
   5  -2  -3  782.72   48.20
   5   2   3  790.22   46.00
   6   2  -3    0.90   10.60
  -6  -2  -3   10.10    9.30
  -6   2   3   -5.10    8.60
   6  -2   3    7.70    8.80
   6  -2   3   21.20    9.40
  -6  -2  -3   14.10   10.50
   6  -2  -3    1.40    8.20
  -6  -2   3   26.60   13.20
   6  -2  -3   -4.60    9.10
   6   2   3    5.60    8.80
  -6   2  -3   10.40   10.70
  -7  -2  -3  801.22   53.39
   7  -2   3  837.52   54.99
   7   2  -3  974.30   59.69
   7  -2   3  806.52   50.19
  -7   2   3  772.52   53.39
  -7   2  -3  740.53   54.49
   7   2   3  878.41   54.09
   7  -2  -3  876.71   56.09
   7  -2  -3  883.11   55.59
  -7  -2   3  693.43   53.29
   0   3   3   -0.10    4.60
   0  -3  -3    7.00    5.50
   0  -3  -3    4.50    5.80
   0  -3   3    1.00    4.40
   0   3  -3    0.50    3.70
   0  -3   3    2.60    4.50
   0   3  -3   -2.60    4.80
  -1   3   3   28.90    8.00
   1   3  -3   22.60    7.50
  -1   3   3   39.90    6.00
   1  -3   3   34.50    8.50
   1   3  -3   34.40    7.00
   1  -3   3   34.50    7.70
  -1  -3  -3   38.80    4.70
  -1  -3  -3   12.70    7.40
  -1  -3  -3   27.80    7.30
  -1   3  -3   37.60    9.30
   1  -3  -3   32.80    7.80
  -1  -3   3   28.80    8.20
  -1  -3   3   35.90    5.80
  -1   3  -3   48.20    6.60
   1   3   3   28.30    7.70
   1  -3  -3   37.30    8.90
  -2   3   3  876.21   40.10
   2  -3   3  813.52   44.60
   2   3  -3  835.52   41.80
   2  -3   3  848.12   40.30
  -2  -3  -3  837.32   45.40
   2   3  -3  873.71   45.30
  -2  -3  -3  879.11   38.50
  -2   3   3  814.72   45.10
   2   3   3  862.11   44.00
  -2   3  -3  790.82   44.40
   2  -3  -3  849.12   39.00
   2  -3  -3  834.32   46.20
   2   3   3  887.41   40.60
  -2  -3   3  865.31   45.80
  -2   3  -3  842.12   39.00
  -3   3   3   38.50    9.70
   3  -3   3   12.90    8.20
   3  -3   3   36.70    7.50
  -3  -3  -3   24.20    8.90
   3   3  -3   30.20    8.90
   3  -3   3   28.20    6.60
   3   3  -3   28.30    9.30
  -3  -3  -3   23.30    6.80
   3   3   3   29.90    8.80
   3  -3  -3   29.50    9.60
  -3   3  -3   19.60    8.50
  -3  -3   3   29.20    9.50
   3   3   3   27.70    6.90
   3  -3  -3   22.20    7.70
   4   3  -3  324.67   27.40
  -4  -3  -3  309.77   27.00
   4   3  -3  347.77   27.20
  -4  -3  -3  363.06   24.80
   4  -3   3  361.46   29.80
   4  -3   3  352.56   24.30
  -4   3   3  363.86   26.10
   4   3   3  375.96   23.00
  -4   3  -3  321.47   28.90
   4   3   3  390.96   27.50
   4  -3  -3  346.77   28.50
  -4  -3   3  376.86   28.80
   4  -3  -3  417.66   31.90
   5  -3   3   24.80   11.90
   5   3  -3   49.30   13.50
  -5  -3  -3   33.60   10.70
   5  -3   3   36.60   11.30
  -5   3   3   30.70   11.40
  -5  -3  -3   16.80    9.20
   5  -3  -3   44.90   14.30
   5   3   3   47.30   11.70
   5  -3  -3   24.10   11.50
  -5  -3   3   37.10   12.60
  -5   3  -3   31.00   13.40
  -5  -3   3   28.80   11.50
   6  -3   3   73.39   15.30
  -6   3   3   57.89   15.80
   6  -3   3   81.09   18.40
  -6  -3  -3   91.89   17.20
  -6  -3  -3   93.99   18.60
   6   3  -3   69.79   17.50
   6   3   3   67.09   15.60
  -6  -3   3   42.20   14.60
   6  -3  -3   46.20   16.40
  -6   3  -3   60.39   17.30
  -6  -3   3   51.39   16.30
   6  -3  -3   82.99   17.70
   7  -3   3   21.20   11.90
   7   3  -3    0.70   12.30
   7  -3   3   -3.40   11.90
  -7  -3  -3   13.90   12.80
  -7   3   3   25.60   13.90
   7  -3  -3   31.20   15.00
   7  -3  -3   18.80   14.30
  -7   3  -3   18.90   13.40
   7   3   3   13.80   12.40
  -7  -3   3   27.40   15.00
   0  -4  -3    2.30    6.00
   0  -4  -3    5.80    6.40
   0   4   3    0.10    3.10
   0  -4   3   -2.70    4.70
   0   4   3   -3.70    5.20
   0  -4   3   -2.80    6.00
   0   4  -3    1.60    4.70
   0   4  -3    2.00    6.50
   1   4  -3  717.03   37.10
   1  -4   3  757.62   40.10
  -1  -4  -3  718.53   42.10
   1  -4   3  773.12   40.40
  -1   4   3  769.52   34.30
   1   4  -3  704.83   40.00
  -1  -4  -3  744.13   38.10
  -1   4   3  660.23   40.80
  -1   4  -3  703.93   40.50
   1   4   3  685.53   40.40
  -1  -4   3  737.63   34.50
  -1   4  -3  732.43   36.20
  -1  -4   3  714.53   42.00
   1   4   3  720.23   32.30
   1  -4  -3  738.63   41.30
   1  -4  -3  720.93   39.10
   2  -4   3  880.41   44.30
  -2   4   3  915.81   42.60
  -2   4   3  877.41   49.00
   2  -4   3  921.51   49.00
  -2  -4  -3  866.41   42.60
  -2  -4  -3  777.62   48.30
   2   4  -3  894.11   44.90
   2   4  -3  935.71   48.90
  -2  -4  -3  850.21   40.00
   2   4   3  829.62   47.40
   2  -4  -3  895.91   42.90
  -2   4  -3  899.61   42.70
   2  -4  -3  879.31   49.60
  -2   4  -3  851.61   47.60
  -2  -4   3  894.81   50.09
   3   4  -3    5.90    7.00
  -3  -4  -3   17.00    9.90
  -3  -4  -3   16.50    6.30
   3   4  -3    8.70    7.30
   3  -4   3    3.80    6.00
  -3   4   3   29.40    8.70
   3  -4   3    0.30    7.40
  -3   4   3    7.00    7.70
   3   4   3   18.30    8.00
  -3  -4   3   -3.00    6.60
  -3   4  -3   16.40    9.50
   3   4   3   12.70    5.90
  -3   4  -3   14.70    6.60
   3  -4  -3   19.60   10.00
  -4  -4  -3  949.60   52.99
  -4   4   3  848.22   46.90
  -4   4   3  815.62   50.49
  -4  -4  -3  955.80   46.20
   4  -4   3  812.52   51.39
   4   4  -3  823.02   48.30
   4   4  -3  833.32   50.29
   4   4   3  821.02   49.40
  -4   4  -3  855.21   45.90
  -4  -4   3  882.81   52.59
  -4   4  -3  796.32   50.59
   4  -4  -3  937.41   55.49
   5  -4   3  182.48   19.50
   5  -4   3  144.69   22.90
  -5   4   3  153.68   19.40
  -5  -4  -3  201.18   20.20
  -5  -4  -3  208.88   23.70
   5   4  -3  145.39   20.80
   5   4  -3  185.88   21.60
  -5   4  -3  191.78   24.80
   5  -4  -3  205.18   23.40
   5   4   3  155.48   20.50
   5  -4  -3  170.68   24.50
  -5  -4   3  212.18   24.50
  -6  -4  -3   31.00   12.80
   6  -4   3   31.90   14.30
   6  -4   3   25.00   11.90
  -6  -4  -3   21.90   12.40
  -6   4   3   26.10   12.40
   6   4  -3    5.40   11.70
   6   4   3   18.40   11.30
  -6   4  -3    4.20   11.30
   6  -4  -3   19.80   12.80
  -6  -4   3    5.10   11.80
   6  -4  -3   23.30   15.80
  -6  -4   3    7.90   12.30
  -7   4   3  190.88   25.90
  -7  -4  -3  218.48   27.70
   7   4  -3  245.18   31.30
   7  -4   3  208.28   29.80
   7  -4  -3  144.29   26.80
   7  -4  -3  244.78   29.70
  -7   4  -3  175.18   30.90
   7   4   3  213.28   26.50
  -7  -4   3  232.18   30.10
   0  -5   3   15.40    8.70
   0  -5  -3  -11.40    5.60
   0  -5   3   -4.50    4.70
   0   5  -3   -1.10    6.10
   0   5  -3    7.90    6.50
   0  -5  -3   -2.90    7.10
   0   5   3   -3.20    3.90
   0   5   3  -11.90    5.10
   1   5  -3  259.67   23.10
  -1  -5  -3  304.57   22.60
   1   5  -3  326.07   22.40
   1  -5   3  291.57   23.50
  -1   5   3  264.27   24.20
  -1   5   3  314.97   18.80
   1  -5   3  289.77   23.70
  -1  -5  -3  273.87   25.50
   1  -5  -3  295.77   23.70
   1   5   3  268.27   24.30
  -1  -5   3  314.77   26.40
  -1   5  -3  296.77   21.30
  -1  -5   3  269.17   18.80
   1   5   3  250.57   16.50
   1  -5  -3  243.28   23.20
  -1   5  -3  293.97   24.20
  -2   5   3   67.69   14.10
   2  -5   3   64.69   14.40
   2  -5   3   71.19   12.60
   2   5  -3   68.79   12.50
  -2   5   3   79.39   12.30
  -2  -5  -3   66.49   10.10
  -2  -5  -3   66.99   16.10
   2   5  -3   62.19   14.10
  -2  -5   3   50.79   14.10
   2  -5  -3   76.79   15.60
   2   5   3   71.59   10.00
  -2   5  -3   56.09   13.90
   2  -5  -3   46.60   10.70
   2   5   3   32.30   11.50
  -2   5  -3   74.79   12.20
  -3  -5  -3   18.60   11.20
  -3  -5  -3   28.60    8.50
   3  -5   3   44.50   11.20
  -3   5   3   23.00   12.10
   3  -5   3   30.50   12.10
  -3   5   3   16.30    8.70
   3   5  -3   31.20    9.70
   3   5  -3   12.40    9.50
   3   5   3   19.20   10.20
  -3   5  -3   11.80    8.60
  -3   5  -3   22.00   10.80
  -3  -5   3   12.70   10.90
   3  -5  -3   36.90   12.70
  -4  -5  -3  238.98   20.10
   4   5  -3  216.88   22.20
  -4   5   3  199.48   21.90
  -4  -5  -3  209.68   24.70
  -4   5   3  192.68   23.40
   4  -5   3  134.49   23.50
   4   5  -3  204.28   23.30
   4   5   3  199.48   22.80
  -4   5  -3  168.38   19.00
  -4  -5   3  165.38   23.40
   4  -5  -3  166.08   25.20
  -4   5  -3  202.48   24.90
  -5   5   3  192.68   23.90
  -5   5   3  230.38   27.00
   5  -5   3  202.18   27.60
  -5  -5  -3  250.77   28.70
  -5  -5  -3  200.68   21.50
   5   5  -3  215.98   25.30
   5   5  -3  225.88   25.30
  -5   5  -3  205.08   26.80
   5  -5  -3  218.48   30.50
  -5   5  -3  243.88   34.80
  -5  -5   3  233.88   28.00
   5   5   3  240.28   25.30
  -6  -5  -3   16.30   12.70
   6  -5   3    1.80   15.40
  -6   5   3   37.90   14.70
  -6  -5  -3   44.60   14.60
  -6   5   3    7.30   12.60
   6   5  -3   15.60   13.30
  -6   5  -3   30.60   15.60
   6   5   3   24.20   12.40
   6  -5  -3   34.00   19.00
  -6  -5   3   20.60   14.50
  -6  -5   3   41.90   17.10
   0   6  -3   -2.50    8.00
   0  -6   3    1.80    8.70
   0  -6  -3    6.90    7.50
   0   6   3   -1.60    8.20
   0  -6  -3   -3.50    8.80
   0   6  -3   -5.70    6.40
  -1  -6  -3  232.98   21.60
   1  -6   3  282.17   25.20
   1   6  -3  210.18   22.70
   1  -6   3  216.28   22.10
  -1   6   3  213.58   24.20
  -1  -6  -3  272.37   28.10
   1   6  -3  301.77   23.40
  -1  -6   3  216.38   25.10
  -1   6  -3  242.18   21.50
  -1   6  -3  246.18   23.90
   1   6   3  225.88   24.40
   1  -6  -3  274.77   25.50
   1  -6  -3  246.78   23.70
   2  -6   3  435.16   30.50
  -2  -6  -3  348.97   25.10
   2   6  -3  356.06   27.50
  -2  -6  -3  388.66   35.10
   2   6  -3  318.07   29.30
  -2   6   3  354.46   31.80
   2  -6   3  356.86   29.90
   2   6   3  382.96   32.60
   2  -6  -3  386.06   33.40
  -2   6  -3  414.16   32.20
  -2   6  -3  354.06   26.60
   2  -6  -3  349.96   26.70
  -2  -6   3  300.77   31.30
   3  -6   3   22.60   12.20
  -3  -6  -3   18.00   12.20
  -3   6   3   20.50   12.40
   3   6  -3   -5.00    9.40
  -3   6   3    9.30   12.20
   3   6  -3   12.50   10.60
  -3  -6   3    7.80   10.10
  -3   6  -3   24.90   12.00
  -3   6  -3   29.10   10.40
   3  -6  -3   25.80   12.60
   3   6   3   25.60   12.10
  -4   6   3  446.66   32.70
  -4  -6  -3  434.46   39.30
   4   6  -3  497.05   36.80
   4   6  -3  416.46   32.70
   4  -6   3  344.57   33.90
  -4   6   3  394.76   36.10
  -4  -6   3  403.46   38.30
   4   6   3  329.17   32.50
   4  -6  -3  434.86   39.20
  -4   6  -3  369.46   34.90
  -5  -6  -3  136.09   24.80
  -5   6   3  138.09   24.90
   5   6  -3  101.99   20.10
  -5   6   3  112.59   21.10
   5  -6   3   86.39   21.50
   5   6  -3  132.99   23.00
   5  -6  -3  115.49   25.60
  -5  -6   3  143.39   25.60
  -5   6  -3  117.19   24.20
   5   6   3  130.89   22.70
  -6   6   3   42.10   19.00
  -6   6   3    8.90   12.70
   6   6  -3   30.70   17.80
   6  -6   3    7.10   15.70
  -6  -6  -3   27.20   16.30
   6  -6  -3   27.50   20.60
  -6  -6   3   12.50   16.10
   6   6   3   16.00   12.80
  -6   6  -3   -0.40   13.60
  -6  -6   3    6.00   14.20
   0  -7  -3    8.00   11.90
   0  -7   3   -7.40    9.00
   0   7  -3   18.50   10.30
   0  -7   3   -7.00    9.60
   0   7   3   -2.90    8.20
   0  -7  -3    3.70    9.80
   0   7  -3   21.30   10.90
  -1  -7  -3  214.98   23.60
  -1   7   3  225.48   27.30
   1  -7   3  278.77   27.80
   1   7  -3  299.77   25.80
   1   7  -3  293.87   27.30
  -1  -7  -3  277.77   30.70
   1  -7   3  283.97   27.10
  -1   7  -3  272.77   28.10
   1  -7  -3  256.47   25.70
  -1  -7   3  230.88   27.80
   1  -7  -3  236.18   26.30
   1   7   3  227.98   27.30
  -1   7  -3  257.57   24.50
  -2  -7  -3   70.29   20.70
   2   7  -3   33.40   13.50
  -2   7   3   63.49   18.90
   2  -7   3   71.09   16.00
   2   7  -3   41.40   13.00
   2  -7   3   59.29   15.50
   2  -7  -3    9.40   11.60
   2   7   3   39.50   15.00
  -2   7  -3   64.89   17.20
  -2   7  -3   61.09   16.30
  -2  -7   3   45.70   16.60
  -3  -7  -3   17.70   15.70
  -3   7   3    4.80   12.40
   3   7  -3    5.60   11.30
   3   7  -3    2.40   10.70
   3  -7   3    4.40   11.60
   3  -7  -3   13.50   12.90
  -3   7  -3   18.10   13.00
  -3  -7   3   -5.80   11.50
   3   7   3   -0.70   12.20
   4   7  -3   10.30   12.10
   4   7  -3   14.10   13.00
  -4   7   3    1.80   12.80
   4  -7   3    8.40   12.60
  -4  -7  -3    2.40   14.00
  -4  -7   3    3.50   12.30
  -4   7  -3   11.60   13.60
   4   7   3    3.50   12.70
   4  -7  -3    0.60   11.70
   5   7  -3   24.50   15.30
   5   7  -3   36.70   16.50
   5  -7   3   12.40   15.40
  -5  -7  -3   43.20   19.50
  -5   7   3   22.40   18.10
  -5   7  -3   51.49   19.70
  -5  -7   3   67.99   22.70
   5  -7  -3   27.00   17.10
   5   7   3   28.40   14.40
   0  -8  -3   -1.90   11.30
   0   8  -3   -4.80   10.20
   0  -8   3    5.90   12.50
   0   8  -3    0.30   11.20
   0  -8  -3    2.90    9.90
   0   8   3    5.50   13.60
   1  -8   3  223.18   27.90
   1   8  -3  202.98   25.50
   1  -8   3  203.58   24.80
   1   8  -3  223.78   26.10
  -1  -8  -3  213.08   30.80
  -1   8   3  152.28   27.50
   1  -8  -3  163.48   24.80
  -1   8  -3  147.39   24.50
  -1   8  -3  241.78   32.30
   1  -8  -3  248.58   27.60
  -1  -8   3  194.98   28.90
   1   8   3  161.78   27.80
   2   8  -3   55.59   15.60
   2  -8   3  108.69   21.80
  -2  -8  -3   62.89   22.90
  -2   8   3   80.89   22.70
   2   8  -3   85.19   19.70
   2   8   3   76.69   22.00
   2  -8  -3  101.59   21.70
  -2  -8   3   55.49   22.30
  -2   8  -3  100.49   21.00
  -3   8   3   10.40   14.90
   3   8  -3   -9.80   11.20
  -3  -8  -3    6.10   16.90
   3   8  -3    1.80   12.50
   3  -8   3   -3.30   12.10
   3  -8  -3  -10.20   12.20
  -3  -8   3   11.70   18.30
  -3   8  -3    7.80   12.10
   3   8   3  -14.60   12.70
  -4   8   3   -2.30   14.70
   4   8  -3    1.30   13.90
   4   8  -3    6.40   14.00
  -4  -8  -3   13.40   17.50
   4  -8   3    5.60   14.90
   4  -8  -3   -5.00   14.30
  -4  -8   3   17.60   16.20
  -4   8  -3   18.80   16.30
   4   8   3   14.90   16.60
   0   9   3   -0.30   16.70
   0   9  -3   15.70   14.90
   0  -9  -3   -1.30   14.10
   0  -9   3   29.90   17.60
  -1  -9  -3   33.80   18.90
   1  -9   3   22.80   16.60
   1   9  -3   12.60   14.40
   1   9  -3   16.50   15.90
  -1   9   3   12.30   17.00
  -1   9  -3   31.20   17.40
   1   9   3   14.60   16.10
  -1  -9   3   15.70   17.10
   1  -9  -3   31.30   18.70
   1  -9  -3   16.30   16.10
  -2   9   3   93.79   24.70
   2  -9   3   98.69   21.70
  -2  -9  -3   85.19   27.30
   2   9  -3   89.09   23.30
   2   9  -3   80.89   20.20
  -2  -9   3   77.89   25.20
   2  -9  -3  116.39   25.80
  -2   9  -3  117.09   26.20
   2   9   3   73.09   22.90
   0   0   4 1442.46   64.79
   0   0   4 1585.24   61.59
   0   0  -4 1481.65   66.09
   0   0  -4 1581.44   63.29
  -1   0  -4   -2.60    3.90
  -1   0  -4    1.00    3.90
   1   0  -4    5.20    4.20
   1   0   4    0.70    2.20
   1   0   4   -3.20    3.30
   1   0  -4    1.80    3.70
   1   0  -4   -0.10    4.20
   1   0  -4   -3.50    3.70
   2   0  -4 1588.64   69.09
  -2   0  -4 1533.05   68.19
   2   0  -4 1533.15   67.89
   2   0   4 1607.04   65.09
   2   0  -4 1561.84   67.79
  -2   0  -4 1572.74   68.09
   2   0  -4 1646.04   68.99
   2   0   4 1532.15   69.69
   3   0  -4   -0.20    4.30
  -3   0  -4    2.70    6.20
  -3   0  -4    0.20    4.70
   3   0  -4    1.20    4.10
  -3   0   4   -2.50    3.50
   3   0   4   -4.40    5.10
   3   0   4   -2.20    3.60
   3   0  -4   -2.60    4.60
  -4   0  -4  457.45   30.70
  -4   0   4  449.36   30.90
   4   0  -4  436.06   30.20
   4   0  -4  491.65   29.10
   4   0   4  522.45   28.50
  -4   0   4  479.25   27.00
  -4   0  -4  464.15   27.90
   4   0   4  508.45   31.50
  -5   0  -4   -9.90    6.90
  -5   0  -4   -6.00    5.10
   5   0   4    6.90    7.40
  -5   0   4   -5.90    6.00
   5   0   4    6.80    6.50
   5   0  -4    0.70    6.30
   5   0  -4    3.00    6.50
   6   0   4   32.60   11.90
  -6   0  -4   45.40   14.40
  -6   0   4   50.89   13.70
   6   0   4   59.39   12.80
   6   0  -4   48.30   14.70
   7   0   4    5.90    8.50
   7   0   4    5.00    9.50
  -7   0   4   17.10   11.50
  -7   0  -4    3.00   12.00
   7   0  -4    8.60   10.60
   8   0  -4  252.77   31.40
  -8   0   4  139.09   26.80
  -8   0  -4  124.69   26.80
   8   0   4  180.38   23.80
   0  -1   4  405.76   22.80
   0   1  -4  453.15   24.20
   0   1  -4  433.76   24.90
   0  -1  -4  447.56   24.30
   0   1   4  441.86   22.80
   0  -1  -4  451.55   19.80
   0  -1  -4  443.06   24.60
  -1  -1  -4  299.37   19.40
   1   1  -4  254.97   15.50
   1   1  -4  325.17   20.20
   1   1  -4  288.27   18.80
   1  -1   4  291.97   18.90
  -1  -1  -4  251.77   14.80
   1  -1  -4  298.77   18.00
   1  -1  -4  256.77   15.60
   1  -1  -4  265.37   18.70
   1   1   4  288.17   18.30
   1  -1  -4  283.47   17.90
  -1   1  -4  284.77   18.40
  -1   1  -4  289.37   18.80
   1   1   4  290.17   16.60
  -1  -1   4  289.47   16.20
  -2  -1  -4  271.87   17.00
   2   1  -4  279.97   19.80
   2  -1   4  224.38   19.20
  -2   1   4  272.67   17.40
   2  -1   4  262.67   14.30
   2   1  -4  264.47   17.70
  -2  -1  -4  275.97   19.90
   2   1  -4  289.57   16.70
  -2   1  -4  272.87   18.10
  -2   1  -4  283.87   19.70
   2  -1  -4  274.37   19.50
   2  -1  -4  277.77   19.80
   2   1   4  270.97   18.60
  -2  -1   4  276.47   19.10
   2  -1  -4  281.07   17.30
   2   1   4  275.67   17.20
   3   1  -4 1197.18   52.49
   3  -1   4 1207.88   58.59
   3  -1   4 1192.28   51.99
  -3  -1  -4 1267.77   55.79
  -3  -1  -4 1178.88   56.69
   3   1  -4 1127.79   55.69
   3   1  -4 1180.28   58.29
  -3   1   4 1200.78   55.59
  -3  -1   4 1223.68   55.89
   3  -1  -4 1133.19   56.29
   3  -1  -4 1154.18   57.59
   3   1   4 1205.68   55.99
  -3   1  -4 1176.68   57.79
  -3   1  -4 1087.49   53.39
   3  -1  -4 1164.58   51.29
   3   1   4 1284.57   55.19
   4   1  -4   43.70   10.90
   4   1  -4   25.90    9.80
   4   1  -4   50.59    9.10
  -4   1   4   46.10   10.60
   4  -1   4   38.40    8.50
  -4   1   4   51.49    7.60
  -4  -1  -4   39.20    9.80
  -4  -1  -4   40.20   10.10
   4  -1   4   52.29   11.30
   4  -1  -4   36.90   10.40
   4  -1  -4   24.70    9.20
   4   1   4   43.50   10.10
   4   1   4   39.20    8.90
  -4   1  -4   38.00    8.00
  -4   1  -4   51.29   11.80
  -4  -1   4   59.69   10.90
  -5   1   4  424.36   30.50
  -5  -1  -4  408.86   28.20
   5  -1   4  448.96   31.80
   5  -1   4  412.96   27.20
   5   1  -4  409.86   31.20
  -5  -1  -4  382.56   29.70
  -5  -1   4  394.56   27.20
  -5  -1   4  380.16   31.10
   5   1   4  380.26   28.00
  -5   1  -4  393.46   31.70
   5  -1  -4  454.55   31.20
   5  -1  -4  411.26   31.20
   5   1   4  424.76   29.20
  -6  -1  -4   14.40   11.20
   6   1  -4   48.30   14.60
  -6   1   4   22.70   12.10
   6  -1   4   17.00   11.40
   6  -1   4   42.90   11.30
   6  -1  -4   25.00   12.50
   6   1   4   30.00   10.80
  -6  -1   4   20.00   11.50
   6  -1  -4   25.20   11.20
   6   1   4   37.50   12.30
  -6   1  -4   21.30   13.30
   7  -1   4   34.10   13.20
   7   1  -4   33.40   16.00
   7  -1   4   24.10   10.80
  -7   1   4   42.60   17.10
  -7  -1  -4   14.90   12.90
   7   1   4   12.10   10.10
  -7   1  -4   13.20   14.00
  -7  -1   4    4.20    9.90
   7  -1  -4   16.40   12.50
  -8   1   4  111.79   24.30
  -8  -1  -4  130.69   25.00
  -8   1  -4  117.19   26.10
  -8  -1   4  127.09   25.60
   0  -2  -4  696.23   35.30
   0   2  -4  665.13   35.20
   0  -2   4  649.34   32.50
   0  -2  -4  701.33   35.30
   0   2  -4  621.94   28.20
   0   2   4  668.93   34.10
   0   2  -4  695.63   35.70
  -1   2   4 1119.79   47.20
  -1  -2  -4 1160.28   54.99
  -1  -2  -4 1172.98   52.79
   1   2  -4 1145.39   54.09
  -1   2   4 1177.88   53.69
   1   2  -4 1140.79   49.50
   1  -2   4 1180.18   53.89
  -1   2  -4 1154.68   53.09
  -1   2  -4 1109.99   54.09
   1   2   4 1170.88   52.89
  -1  -2   4 1130.79   54.09
   1  -2  -4 1105.19   54.29
   1  -2  -4 1144.39   51.69
  -1  -2   4 1166.28   49.20
   2  -2   4   57.39    6.30
  -2  -2  -4   80.09    8.30
   2  -2   4   57.79   11.30
   2   2  -4   78.29   11.70
  -2  -2  -4   55.39   11.00
   2   2  -4   66.39    8.80
  -2   2   4   62.29    7.90
   2  -2  -4   65.89    8.10
  -2  -2   4   62.99    6.30
   2   2   4   79.29    9.30
  -2  -2   4   64.19   10.40
   2   2   4   53.79    9.20
  -2   2  -4   69.39   11.40
   2  -2  -4   52.09    9.70
   2  -2  -4   74.59   11.60
  -2   2  -4   55.19    9.00
  -3  -2  -4  422.76   28.70
   3  -2   4  455.65   30.40
   3   2  -4  384.06   26.60
   3   2  -4  405.46   29.40
  -3  -2  -4  437.06   25.70
  -3   2   4  421.26   25.90
   3  -2   4  464.15   24.10
   3  -2  -4  434.36   29.40
   3  -2  -4  403.06   22.20
  -3  -2   4  450.65   29.40
  -3   2  -4  409.36   29.20
   3   2   4  479.75   27.10
  -3   2  -4  440.16   24.80
   3  -2  -4  510.75   31.30
   3   2   4  471.45   28.10
  -4   2   4   11.00    6.80
   4  -2   4   15.50    6.60
   4  -2   4   30.80   10.00
   4   2  -4   25.10    9.50
   4   2  -4   22.50    9.70
  -4  -2  -4   26.30    9.60
  -4  -2  -4   32.20    8.80
   4  -2  -4   15.70    9.60
  -4  -2   4   25.40    9.60
   4   2   4   15.40    7.80
   4  -2  -4    4.10    6.90
  -4   2  -4   24.50   10.60
  -4   2  -4   13.30    5.60
   4   2   4   15.50    8.00
   5  -2   4  410.56   28.40
   5   2  -4  417.06   32.00
  -5   2   4  434.96   31.60
  -5  -2  -4  439.06   31.00
  -5  -2  -4  472.25   31.50
   5  -2   4  386.56   32.60
   5   2   4  452.75   31.20
   5   2   4  456.05   29.80
  -5   2  -4  396.26   33.60
   5  -2  -4  465.25   34.20
   5  -2  -4  397.16   32.50
  -5  -2   4  447.36   33.60
  -5  -2   4  402.46   30.30
   6  -2   4  143.69   21.50
  -6  -2  -4  182.68   20.80
  -6   2   4  146.99   20.60
   6  -2   4  155.48   18.10
  -6  -2  -4  144.89   21.40
   6   2  -4  159.08   22.10
  -6  -2   4  146.19   23.90
  -6   2  -4  153.08   24.50
   6  -2  -4  137.49   21.50
   6  -2  -4  133.99   20.60
   6   2   4  161.68   19.70
   7  -2   4   53.69   17.30
  -7  -2  -4   49.50   16.40
   7  -2   4   59.39   17.30
   7   2  -4   42.30   16.80
  -7   2   4   59.39   17.90
   7   2   4  100.19   19.50
   7  -2  -4   38.20   14.80
  -7   2  -4   51.69   18.20
  -7  -2   4   50.79   18.60
   7  -2  -4   92.89   21.70
   0  -3   4 2585.64  108.79
   0   3  -4 2503.75  112.69
   0  -3   4 2779.02  112.69
   0   3   4 2644.44  112.79
   0  -3  -4 2733.53  112.49
   0   3  -4 2605.04  105.19
   0  -3  -4 2661.13  112.19
  -1  -3  -4   30.30    9.10
  -1   3   4   32.10    5.20
   1   3  -4   29.80    6.40
  -1  -3  -4   55.09    9.80
  -1   3   4   33.40    8.70
   1   3  -4   43.10    9.60
   1  -3   4   41.50    9.10
   1  -3   4   46.90    9.60
   1  -3  -4   32.30    8.80
   1  -3  -4   26.20    7.30
  -1   3  -4   40.50    9.60
   1   3   4   56.39   10.20
  -1  -3   4   48.40    6.80
  -1   3  -4   42.70    5.70
  -1  -3   4   36.40    9.20
   2   3  -4  352.66   27.00
  -2  -3  -4  399.86   27.80
  -2   3   4  393.26   27.40
   2  -3   4  398.56   27.50
  -2  -3  -4  403.96   20.80
  -2   3   4  393.96   22.30
   2   3  -4  431.96   24.70
   2  -3  -4  384.66   22.30
   2   3   4  410.26   24.40
  -2   3  -4  364.46   27.00
  -2   3  -4  405.96   25.20
   2  -3  -4  338.07   26.90
  -2  -3   4  394.86   28.00
   2   3   4  384.56   26.10
  -2   3  -4  423.76   21.00
   3   3  -4   86.99   12.30
  -3  -3  -4   76.59    9.70
  -3  -3  -4   46.10   11.00
  -3   3   4   50.69   10.20
   3  -3   4   33.90   10.50
   3  -3   4   56.29    9.10
   3   3  -4   63.19   13.30
  -3   3  -4   55.79   12.50
   3  -3  -4   73.09   12.90
  -3   3  -4   74.59   10.20
   3  -3  -4   64.39   13.70
   3   3   4   63.29    9.80
   3   3   4   70.09   12.30
  -3  -3   4   83.99   13.10
   3  -3  -4   54.49    8.60
   4  -3   4   56.69   14.00
   4  -3   4   66.29   11.10
   4   3  -4   69.39   13.40
  -4  -3  -4   88.79   13.40
  -4  -3  -4   74.59   14.20
   4   3  -4   49.60   12.40
  -4   3   4   64.99   12.00
   4  -3  -4   68.09   15.30
   4  -3  -4   48.10   12.80
   4   3   4   55.79   12.60
  -4   3  -4   31.40   11.50
   4   3   4   74.79   11.30
  -4  -3   4   76.49   14.50
  -5  -3  -4   53.59   13.60
   5   3  -4   37.50   12.80
   5  -3   4   69.19   17.00
  -5   3   4   28.00   11.30
  -5  -3  -4   52.09   13.30
   5   3  -4   74.09   15.70
   5  -3   4   52.39   12.10
   5   3   4   69.69   13.80
  -5  -3   4   44.70   14.00
   5  -3  -4   31.30   13.60
   5  -3  -4   53.89   15.30
  -5   3  -4   40.20   15.00
  -6  -3  -4  447.66   34.30
  -6   3   4  433.46   34.30
  -6  -3  -4  461.85   35.40
   6  -3   4  439.16   38.00
   6   3  -4  482.45   37.50
  -6   3  -4  465.85   40.00
  -6  -3   4  418.76   37.60
  -6  -3   4  410.76   35.60
   6  -3  -4  486.95   39.20
   6  -3  -4  389.76   36.00
   6   3   4  480.95   36.00
  -7   3   4    1.70   12.60
   7   3  -4   -0.50   13.30
   7  -3   4    7.40   12.90
  -7  -3  -4   14.50   13.70
  -7   3  -4   -3.50   15.20
  -7  -3   4   -1.20   13.20
   7  -3  -4   20.00   14.60
   7   3   4   -1.20    9.60
   7  -3  -4   -8.80   10.10
   0   4  -4 1051.19   48.60
   0   4  -4 1070.89   55.59
   0  -4  -4 1123.19   55.09
   0  -4   4 1180.38   51.99
   0  -4  -4 1112.99   55.19
   0   4   4 1013.40   56.09
   0  -4   4 1033.70   55.09
  -1  -4  -4  109.19   15.70
   1  -4   4  101.09   13.70
  -1   4   4  115.49    9.70
   1   4  -4  114.19   11.80
  -1   4   4  104.49   14.70
  -1  -4  -4  121.29   14.30
   1  -4   4  106.99   13.70
   1   4  -4   97.39   14.30
  -1  -4   4  110.79   10.80
   1  -4  -4  103.49   15.00
  -1   4  -4  120.09   10.80
  -1   4  -4  116.49   15.20
  -1  -4   4  121.19   15.90
   1  -4  -4   99.49   13.00
   1   4   4  131.09   15.40
   2  -4   4  361.86   27.40
  -2  -4  -4  295.47   27.00
  -2   4   4  341.47   27.80
  -2  -4  -4  359.66   19.30
   2   4  -4  350.76   23.40
   2  -4   4  375.16   24.70
  -2  -4  -4  377.96   24.30
  -2   4   4  392.36   22.30
   2   4  -4  337.97   27.30
  -2   4  -4  368.86   21.40
   2  -4  -4  351.76   28.00
   2  -4  -4  355.26   23.10
  -2   4  -4  344.37   26.80
  -2  -4   4  356.06   28.20
   2   4   4  348.57   26.70
  -3   4   4  900.01   52.29
  -3   4   4  923.61   45.30
   3   4  -4  816.02   49.80
  -3  -4  -4  921.81   42.90
   3  -4   4  898.21   51.99
  -3  -4  -4  851.51   50.99
   3   4  -4  955.60   47.90
   3  -4   4  891.91   44.80
  -3   4  -4  873.61   43.90
  -3  -4   4  851.21   51.69
   3   4   4  867.51   49.70
  -3   4  -4  905.41   51.89
   3  -4  -4  911.71   53.79
   3   4   4  915.31   44.30
  -4  -4  -4  159.38   16.00
   4  -4   4  179.98   22.20
  -4  -4  -4  151.88   20.00
  -4   4   4  177.98   17.80
  -4   4   4  156.58   20.50
   4   4  -4  149.99   18.60
   4   4  -4  138.49   19.60
  -4  -4   4  151.38   20.70
  -4   4  -4  163.58   16.90
  -4   4  -4  118.09   19.80
   4  -4  -4  115.09   21.00
   4   4   4  120.79   18.00
  -5   4   4   78.69   15.30
   5   4  -4   71.39   16.40
   5  -4   4   81.49   18.80
  -5  -4  -4   79.19   14.90
  -5  -4  -4   82.79   17.00
   5   4  -4   59.79   15.70
   5   4   4   50.99   14.00
   5  -4  -4   90.19   18.50
  -5   4  -4   64.89   17.60
   5  -4  -4  117.29   22.30
  -5  -4   4   91.79   18.60
  -6  -4  -4  243.88   25.00
  -6   4   4  196.28   24.00
   6   4  -4  174.28   25.10
  -6  -4  -4  195.18   24.50
   6  -4   4  121.19   24.20
   6  -4  -4  120.89   23.00
   6   4   4  157.38   22.00
  -6  -4   4  189.38   24.60
   6  -4  -4  228.18   29.80
  -6  -4   4  171.98   25.20
  -6   4  -4  170.58   28.70
   7   4  -4   13.70   14.80
  -7  -4  -4    0.70   13.30
   7  -4   4    2.20   15.20
  -7   4   4    1.90   11.80
   7   4   4  -10.40   10.00
   7  -4  -4    9.00   13.60
  -7  -4   4   19.50   16.00
  -7   4  -4   21.30   17.40
   7  -4  -4   15.50   16.90
   0   5  -4  603.74   39.10
   0  -5  -4  642.54   40.00
   0  -5  -4  666.13   39.20
   0   5   4  584.64   40.00
   0   5  -4  666.73   34.30
   0  -5   4  639.94   35.70
   0  -5   4  587.54   39.40
   1  -5   4   47.10   12.00
  -1  -5  -4   58.99   14.10
   1  -5   4   42.70   11.50
   1   5  -4   75.69   11.20
  -1  -5  -4   82.89   13.70
  -1   5   4   56.59   13.60
   1   5  -4   68.99   13.80
  -1   5  -4   53.79   12.90
   1   5   4   63.69   13.60
  -1   5  -4   90.29   11.40
   1  -5  -4   70.89   13.30
  -1  -5   4   68.59    9.90
   1  -5  -4   62.99   14.10
  -1  -5   4   55.79   12.60
   2   5  -4   21.20    9.10
   2  -5   4   28.10   10.50
   2   5  -4   21.70   10.80
  -2   5   4   18.00    8.30
  -2  -5  -4   21.50    8.40
  -2   5   4   22.00   10.80
   2  -5   4   18.60    9.30
  -2  -5  -4   16.80    9.60
   2   5   4   15.60    9.00
  -2   5  -4   23.40   11.00
   2  -5  -4   30.50    9.30
  -2  -5   4   31.60   11.40
  -2   5  -4   24.70    7.90
   2  -5  -4   46.30   13.80
   3   5  -4 1059.09   55.19
  -3   5   4 1017.00   60.69
   3  -5   4 1107.79   60.79
   3  -5   4 1197.18   55.39
   3   5  -4 1027.70   58.79
  -3   5   4 1030.10   52.59
  -3  -5  -4  967.10   60.09
  -3   5  -4 1018.20   59.69
   3  -5  -4  919.61   61.39
   3   5   4 1088.69   51.69
  -3  -5   4 1058.09   61.49
   3   5   4  987.90   58.49
  -3   5  -4 1116.89   53.39
   4   5  -4   15.40    9.70
  -4   5   4   44.90   15.20
  -4  -5  -4   32.10   13.40
  -4   5   4   27.40   11.80
   4   5  -4   12.20   10.50
   4  -5   4   27.70   12.40
   4  -5  -4   32.40   15.40
   4   5   4   24.30   10.70
  -4   5  -4   14.80   12.90
  -4  -5   4   22.30   11.60
  -5   5   4  237.08   23.60
   5  -5   4  135.99   24.60
  -5  -5  -4  162.78   22.60
  -5   5   4  170.18   25.30
   5   5  -4  119.69   22.80
   5   5  -4  141.99   22.90
   5  -5  -4  112.39   24.50
  -5   5  -4  170.78   25.60
   5   5   4  146.19   20.60
  -5  -5   4  158.28   24.50
  -6   5   4  238.08   27.50
   6  -5   4  278.97   34.20
   6   5  -4  262.37   30.30
  -6  -5  -4  304.27   32.60
  -6   5   4  280.77   32.40
  -6   5  -4  280.67   33.60
  -6  -5   4  268.37   32.50
   6   5   4  275.37   29.50
   6  -5  -4  309.67   37.00
  -6  -5   4  291.87   32.20
   0   6   4 1029.00   60.19
   0  -6  -4 1001.50   58.09
   0  -6   4 1087.39   53.29
   0  -6  -4 1041.30   56.69
   0   6  -4  961.60   56.89
   0   6  -4 1049.59   51.99
   0  -6   4  954.10   57.69
   1  -6   4   81.99   15.40
   1   6  -4   91.39   14.30
  -1   6   4   91.29   18.60
  -1  -6  -4   99.89   16.10
   1  -6   4   76.59   15.80
  -1  -6  -4   52.69   14.30
   1   6  -4   89.69   16.40
   1   6   4   67.19   15.70
  -1   6  -4   59.89   12.70
   1  -6  -4   63.19   15.00
  -1  -6   4   73.59   16.80
  -1   6  -4   66.89   15.20
   1  -6  -4   78.69   14.20
   2   6  -4  107.89   18.90
   2  -6   4  100.69   17.80
   2   6  -4  111.69   15.30
  -2   6   4   90.69   18.40
  -2  -6  -4   60.19   17.20
  -2  -6  -4   85.59   13.40
   2  -6   4   62.39   15.30
  -2   6  -4   89.49   17.90
   2   6   4   84.79   16.80
   2  -6  -4   87.89   18.30
   2  -6  -4   90.49   14.30
  -2  -6   4   62.99   16.60
   3  -6   4  731.83   49.60
   3   6  -4  771.62   45.60
  -3   6   4  840.42   53.69
   3   6  -4  703.73   48.20
  -3  -6  -4  753.02   53.09
   3   6   4  722.13   49.40
  -3   6  -4  791.52   50.99
  -3  -6   4  805.62   53.89
   3  -6  -4  766.62   53.29
   4  -6   4   20.90   12.00
   4   6  -4   49.60   12.70
  -4  -6  -4   32.70   15.80
   4   6  -4   29.50   13.40
  -4   6   4   30.50   15.40
  -4   6  -4   19.80   14.10
  -4  -6   4   23.40   13.30
   4   6   4   26.30   12.40
   4  -6  -4   31.50   14.60
   5   6  -4   30.80   14.50
  -5  -6  -4   14.30   13.00
   5   6  -4    1.70   10.10
   5  -6   4   27.10   13.80
  -5   6   4  -11.10   13.10
   5   6   4    9.30   11.30
  -5  -6   4   13.00   14.10
   5  -6  -4    7.70   16.40
  -5   6  -4    0.00   12.90
   6  -6   4  272.57   37.20
   6   6  -4  310.87   33.50
  -6  -6  -4  340.87   37.00
   6   6  -4  344.37   36.50
  -6   6   4  384.26   39.00
   6  -6  -4  330.47   41.80
  -6   6  -4  265.27   35.80
   6   6   4  332.77   33.80
  -6  -6   4  281.97   35.60
   0   7  -4  671.93   40.20
   0   7   4  560.04   44.50
   0   7  -4  618.74   44.00
   0  -7   4  709.83   47.30
   0  -7  -4  622.64   43.10
   0  -7  -4  628.74   45.50
  -1  -7  -4   53.39   13.80
  -1   7   4   64.39   17.10
   1   7  -4   47.50   14.10
  -1  -7  -4   51.39   16.90
   1  -7   4   50.09   15.70
   1   7  -4   92.49   16.60
   1  -7   4   78.29   15.90
   1  -7  -4   88.19   18.20
  -1  -7   4   56.49   17.70
  -1   7  -4   71.79   18.60
   1  -7  -4   72.79   17.00
   1   7   4   53.69   17.20
   2   7  -4   18.80   13.00
  -2  -7  -4   21.00   15.30
   2  -7   4   21.20   12.70
  -2   7   4    4.60   12.20
   2   7  -4   21.30   10.80
   2  -7   4   27.40   12.30
   2  -7  -4   -6.80   10.40
   2   7   4   10.30   11.20
  -2  -7   4    9.80   14.30
  -2   7  -4   15.90   12.10
   3   7  -4  554.14   43.00
   3   7  -4  561.14   39.50
  -3  -7  -4  640.34   51.09
   3  -7   4  613.14   44.50
  -3   7   4  627.94   48.20
  -3   7  -4  611.54   45.50
  -3  -7   4  493.75   45.20
   3  -7  -4  657.53   49.40
   3   7   4  562.04   45.30
   4  -7   4   -1.10   10.10
  -4   7   4  -10.30   12.70
   4   7  -4    2.10   10.70
  -4  -7  -4   -0.80   13.00
   4   7  -4    2.00   11.60
  -4   7  -4    7.20   14.20
   4  -7  -4  -12.00   11.60
   4   7   4    6.50   10.80
  -4  -7   4    4.00   14.00
  -5   7   4   -6.40   15.90
  -5  -7  -4   13.30   15.60
   5  -7   4   21.20   15.60
   5   7  -4   14.70   13.30
   5   7  -4   12.00   13.30
   5   7   4   15.40   13.20
  -5   7  -4   -3.90   15.40
  -5  -7   4   26.60   17.00
   5  -7  -4   11.90   15.90
   0  -8  -4  948.71   58.39
   0   8   4  882.61   61.89
   0  -8  -4 1063.49   63.49
   0  -8   4  895.71   60.89
   0   8  -4  944.21   59.89
   1   8  -4   41.10   16.10
  -1   8   4   18.90   15.40
  -1  -8  -4   29.80   17.90
   1  -8   4   15.40   13.70
   1   8  -4   25.70   12.80
   1  -8  -4   32.40   14.30
  -1  -8   4   25.50   16.30
   1  -8  -4   25.50   14.30
  -1   8  -4   23.20   13.70
   1   8   4   10.20   14.10
   2  -8   4    5.30   12.00
  -2  -8  -4   -7.30   16.00
   2   8  -4   -3.30    9.70
   2   8  -4   -6.40   11.70
  -2   8   4    8.00   15.60
   2   8   4  -16.00   11.70
  -2   8  -4   -5.30   12.10
   2  -8  -4    1.30   12.70
  -2  -8   4    0.10   15.00
   3  -8   4  353.26   36.20
   3   8  -4  351.26   35.00
  -3   8   4  370.76   39.80
  -3  -8  -4  373.56   43.30
   3   8  -4  366.36   32.20
   3  -8  -4  292.87   36.10
   3   8   4  322.77   37.40
  -3   8  -4  271.67   33.70
  -3  -8   4  324.67   39.30
   4   8  -4    1.70   12.50
   4  -8   4  -12.60   10.60
   4   8  -4   -2.00   14.30
  -4  -8  -4    8.10   16.80
  -4   8   4    5.60   17.30
  -4   8  -4  -12.00   13.00
  -4  -8   4    7.50   15.90
   4  -8  -4    1.80   15.20
   4   8   4    5.00   12.80
   0   9   4  436.06   44.70
   0  -9  -4  415.36   41.00
   0  -9   4  446.36   44.10
   0   9  -4  458.35   41.50
  -1  -9  -4   26.20   20.20
   1   9  -4    6.00   14.70
  -1   9   4   22.90   17.20
   1  -9   4    6.90   17.70
   1  -9  -4   -0.50   13.20
  -1   9  -4    1.60   13.60
   1   9   4   -5.10   16.20
  -1  -9   4   -8.40   16.20
   2   9  -4   33.20   18.40
  -2   9   4   21.50   20.10
  -2  -9  -4    1.20   20.40
   2  -9  -4   38.90   17.80
  -2   9  -4   19.10   16.70
   2   9   4   34.50   19.90
  -2  -9   4   45.40   23.10
   0   0  -5   -1.60    3.30
   0   0   5    2.70    4.10
   0   0  -5    0.60    4.70
   0   0   5    1.60    2.50
   1   0  -5    3.80    5.00
   1   0   5   -1.50    3.50
   1   0  -5    3.40    4.60
   1   0  -5    1.30    4.20
   1   0  -5   -5.30    4.40
  -1   0  -5   -5.70    3.40
  -1   0  -5   -2.00    4.10
   1   0   5    2.20    2.70
   2   0  -5 2855.41  120.49
   2   0  -5 2940.21  120.29
   2   0  -5 3030.90  120.89
   2   0   5 2917.41  115.49
   2   0  -5 2933.11  120.89
  -2   0  -5 2938.91  121.19
  -2   0  -5 2808.32  119.09
   2   0   5 2863.01  122.09
   3   0   5    1.70    6.00
   3   0  -5   11.00    7.10
   3   0   5    0.10    3.50
  -3   0  -5    6.00    6.10
   3   0  -5   -3.00    5.00
  -3   0  -5   -3.40    6.50
   3   0  -5    1.50    5.50
  -4   0  -5 2342.17  107.29
  -4   0   5 2418.26  103.39
   4   0  -5 2428.06  108.39
  -4   0  -5 2557.74  105.09
   4   0   5 2429.86  108.79
  -4   0   5 2484.85  108.59
   4   0  -5 2425.46  105.09
   4   0   5 2407.86  102.59
   5   0   5   -7.10    6.80
   5   0  -5    2.10    7.70
  -5   0  -5    2.00    6.50
   5   0   5    2.00    7.00
  -5   0   5    0.60    7.40
   5   0  -5    2.10    7.50
  -5   0  -5   -4.30    7.90
   6   0   5   48.90   12.20
  -6   0  -5   30.40   13.40
   6   0  -5   25.90   13.60
  -6   0   5   32.70   12.40
   6   0   5   44.50   14.40
   7   0   5   -1.20   10.00
   7   0   5    4.30    9.20
  -7   0   5   -0.20   10.30
   7   0  -5    5.90   12.40
  -7   0  -5   -3.20   11.80
   0  -1   5    4.20    4.30
   0  -1  -5   -2.80    2.80
   0   1  -5    4.70    5.30
   0   1  -5    0.80    5.00
   0  -1  -5    2.60    4.70
   0  -1  -5   -5.10    4.50
   0   1   5    1.50    3.50
  -1  -1  -5 1042.90   43.90
   1   1  -5  995.50   44.40
   1  -1   5  987.10   48.50
   1   1  -5 1011.70   49.40
  -1   1   5 1089.69   47.60
  -1  -1  -5 1015.90   49.30
   1   1  -5  966.20   47.50
   1   1   5  941.21   47.90
  -1   1  -5 1095.19   49.30
   1   1   5  985.60   45.20
   1  -1  -5 1027.40   48.10
  -1   1  -5 1036.80   48.10
   1  -1  -5 1059.49   49.80
  -1  -1   5  966.60   45.60
   1  -1  -5 1034.80   44.60
  -2  -1  -5  554.94   28.20
   2  -1   5  552.74   24.20
   2  -1   5  540.15   32.20
   2   1  -5  537.65   27.90
   2   1  -5  571.24   31.80
  -2  -1  -5  524.45   31.60
   2   1  -5  547.55   28.90
   2   1  -5  506.15   30.70
   2  -1  -5  526.85   28.40
   2  -1  -5  517.85   31.20
   2  -1  -5  535.55   29.10
  -2   1  -5  531.65   30.30
  -2   1  -5  542.55   30.80
   2  -1  -5  588.54   31.70
   2   1   5  565.64   31.00
   2   1   5  522.65   28.00
   3  -1   5   52.59    7.30
   3   1  -5   52.69    9.70
  -3  -1  -5   43.90    9.80
   3   1  -5   57.69   12.00
   3   1  -5   67.29    9.60
  -3  -1  -5   49.80   10.80
  -3   1   5   36.30    9.10
   3  -1   5   40.90   10.30
  -3   1  -5   68.39   10.90
  -3  -1   5   60.09   11.00
   3  -1  -5   65.39    9.70
   3  -1  -5   59.39   11.10
   3   1   5   75.39   10.00
   3   1   5   55.09   10.70
  -3   1  -5   32.70    9.40
   3  -1  -5   85.39   11.90
   4  -1   5  182.98   15.00
   4   1  -5  159.58   18.90
   4   1  -5  180.38   15.70
  -4  -1  -5  151.28   16.90
  -4  -1  -5  174.38   18.20
  -4   1   5  176.18   14.20
  -4   1   5  162.28   17.30
   4  -1   5  207.38   20.60
   4   1  -5  147.29   17.20
   4  -1  -5  157.18   18.50
  -4  -1   5  186.18   18.30
  -4   1  -5  197.48   21.30
   4   1   5  216.08   20.00
   4   1   5  168.58   16.20
   4  -1  -5  172.48   18.10
  -4   1  -5  186.48   16.40
  -5   1   5  488.95   34.70
  -5  -1  -5  559.34   35.80
  -5  -1  -5  544.25   34.10
   5  -1   5  473.95   30.30
   5   1  -5  529.05   36.30
   5  -1   5  478.65   36.10
   5   1   5  522.35   34.80
   5  -1  -5  477.75   36.00
   5   1   5  553.84   33.40
  -5  -1   5  498.45   36.60
   5  -1  -5  561.14   36.00
  -5  -1   5  482.15   32.20
  -5   1  -5  495.75   37.00
   6  -1   5   36.70    9.40
  -6   1   5   18.00   11.20
   6   1  -5   56.09   16.80
   6  -1   5   51.69   14.80
  -6  -1  -5   25.10   12.80
   6  -1  -5   30.70   12.30
   6   1   5   32.40   11.00
   6   1   5   48.00   13.50
  -6  -1   5   49.90   14.40
  -6   1  -5   34.90   15.80
   6  -1  -5   19.70   11.30
   7   1  -5  180.18   26.20
   7  -1   5  156.28   25.30
  -7  -1  -5  180.28   25.20
  -7   1   5  141.79   24.70
   7  -1  -5  144.49   24.70
  -7  -1   5  182.48   25.00
   7   1   5  161.88   20.90
  -7   1  -5  138.79   27.10
   0   2  -5   -3.30    4.80
   0  -2  -5   -4.30    4.60
   0   2  -5   -0.50    5.20
   0   2   5    0.50    4.10
   0  -2   5   -3.50    3.70
   0  -2  -5   -6.40    4.90
  -1  -2  -5 2884.91  122.59
   1  -2   5 3056.69  123.19
  -1  -2  -5 2922.21  124.89
  -1   2   5 2874.71  114.99
  -1   2   5 2939.01  122.29
   1   2  -5 2949.70  117.09
   1   2  -5 2861.31  122.89
   1   2  -5 2861.61  124.59
  -1   2  -5 2971.60  123.69
  -1   2  -5 2980.50  122.99
   1  -2  -5 2918.61  120.99
  -1  -2   5 2933.71  118.19
   1  -2  -5 2947.91  124.39
   1   2   5 2995.00  121.49
   2   2  -5  175.48   14.50
   2  -2   5  177.78   17.30
  -2  -2  -5  195.58   17.90
   2   2  -5  162.48   16.90
  -2  -2  -5  172.88   12.40
  -2   2   5  170.48   12.90
   2  -2  -5  175.68   14.70
  -2  -2   5  182.08   17.00
   2  -2  -5  162.58   16.20
   2   2   5  158.58   14.90
  -2  -2   5  152.88   11.40
   2   2   5  193.48   15.40
  -2   2  -5  175.08   16.80
   2  -2  -5  194.48   18.00
  -2   2  -5  189.48   15.90
  -3   2   5   28.10    7.20
  -3  -2  -5   38.20   10.50
  -3  -2  -5   45.80    8.90
   3   2  -5   50.09    9.90
   3  -2   5   33.50    9.90
   3   2  -5   50.69   11.50
   3   2  -5   36.30    6.20
   3  -2   5   51.29    7.40
  -3   2  -5   18.30    7.00
  -3   2  -5   49.60   11.30
   3   2   5   50.49   10.00
   3   2   5   28.50    7.90
  -3  -2   5   41.90   10.30
   3  -2  -5   24.50    6.90
   3  -2  -5   61.69   12.80
   3  -2  -5   36.30   10.30
   4  -2   5  159.18   19.50
   4   2  -5  157.28   19.40
  -4  -2  -5  180.98   18.80
  -4  -2  -5  173.68   17.50
   4   2  -5  184.48   18.30
   4  -2   5  169.48   14.70
  -4   2   5  158.98   16.80
   4   2   5  136.39   15.80
  -4   2  -5  139.19   14.00
  -4  -2   5  171.38   18.60
   4  -2  -5  159.98   18.90
  -4   2  -5  138.09   18.80
   4   2   5  140.29   15.70
   4  -2  -5  174.78   19.60
  -5   2   5  674.33   42.40
   5  -2   5  717.23   39.40
  -5  -2  -5  704.53   43.90
  -5  -2  -5  752.22   43.20
   5   2  -5  694.83   46.60
   5  -2   5  674.23   45.50
   5   2  -5  715.73   45.10
   5   2   5  707.43   42.30
   5   2   5  861.51   44.80
   5  -2  -5  727.83   46.40
  -5  -2   5  727.93   43.50
  -5  -2   5  663.13   45.20
   5  -2  -5  747.33   46.50
  -5   2  -5  725.73   47.90
  -6  -2  -5    6.30    9.60
   6  -2   5    8.60   11.10
  -6  -2  -5    8.00   10.70
  -6   2   5    0.70   10.00
   6   2  -5    5.60   11.70
   6  -2  -5    3.40   10.50
  -6  -2   5    7.80   10.00
  -6   2  -5    1.70   12.20
   6  -2  -5   -2.00    7.50
   6   2   5   11.30    8.70
   7  -2   5  657.03   50.09
  -7   2   5  717.83   49.40
  -7  -2  -5  677.13   47.70
   7   2  -5  766.32   53.49
  -7  -2   5  628.64   49.40
   7   2   5  733.73   47.70
  -7   2  -5  589.54   50.89
   7  -2  -5  823.82   53.09
   7  -2  -5  746.13   51.99
   0  -3  -5   -5.10    4.60
   0  -3   5   -5.70    4.30
   0   3  -5    4.00    3.50
   0   3   5   -1.30    4.80
   0  -3   5    9.30    6.00
   0   3  -5    2.80    6.60
   0  -3  -5    8.00    6.30
   1   3  -5   29.40    6.50
  -1  -3  -5   15.40    6.40
   1  -3   5    9.50    6.20
   1   3  -5   19.60    7.80
  -1  -3  -5    2.50    6.10
  -1   3   5   13.90    7.30
  -1   3  -5   16.90    8.00
   1  -3  -5   21.00    7.20
  -1  -3   5   15.00    5.90
  -1   3  -5    9.20    6.30
   1   3   5   15.40    6.20
   1  -3  -5   10.90    6.50
  -1  -3   5   11.10    6.20
  -2   3   5  912.91   41.30
  -2  -3  -5  904.01   49.30
   2   3  -5  877.31   43.80
   2   3  -5  837.42   48.10
  -2   3   5  888.41   48.70
  -2  -3  -5  873.81   39.20
   2  -3   5  895.11   48.50
   2  -3  -5  869.81   43.00
   2  -3  -5  903.51   49.20
  -2   3  -5  866.31   38.10
  -2  -3   5  882.61   49.10
   2   3   5  878.41   45.20
  -2   3  -5  939.91   46.10
  -2  -3   5  927.71   39.30
  -2   3  -5  838.12   47.80
   2   3   5  900.61   46.80
  -3   3   5   17.00    7.20
  -3  -3  -5   20.40    9.30
   3  -3   5   14.20    8.20
   3   3  -5   30.40    8.80
  -3  -3  -5   23.60    7.10
   3   3  -5   14.20    8.60
  -3   3   5   14.10    8.00
  -3   3  -5   22.20    6.40
   3   3   5   27.80    9.40
  -3   3  -5   20.30    7.50
  -3   3  -5   46.70   11.80
   3   3   5   24.40    7.80
  -3  -3   5   10.20    8.40
   3  -3  -5   28.00   10.20
   3  -3  -5    8.00    7.10
   3  -3  -5   24.10    7.10
   4  -3   5  416.76   35.90
  -4  -3  -5  433.06   32.40
   4   3  -5  451.45   31.40
  -4   3   5  444.46   29.10
   4   3  -5  359.76   32.10
  -4  -3  -5  444.46   28.50
   4  -3   5  443.16   33.90
   4   3   5  492.05   29.90
   4   3   5  411.46   30.10
  -4  -3   5  397.06   32.20
  -4   3  -5  427.06   34.20
  -4   3  -5  464.15   27.60
   4  -3  -5  443.06   33.60
   4  -3  -5  433.36   34.30
  -5  -3  -5   70.19   15.10
   5  -3   5   83.59   19.00
  -5   3   5   22.10   10.10
   5   3  -5   51.89   14.90
  -5  -3  -5   55.89   13.30
   5   3  -5   29.20   12.30
  -5   3  -5   58.79   17.60
   5  -3  -5   73.29   17.60
   5   3   5   52.49   12.80
   5  -3  -5   52.29   14.50
  -5  -3   5   65.99   15.40
   5   3   5   50.89   13.10
  -6  -3  -5   73.39   16.90
  -6   3   5   76.29   17.60
   6   3  -5   44.20   14.80
   6  -3   5   47.50   16.40
  -6  -3  -5   70.09   15.80
  -6   3  -5   42.20   17.50
   6   3   5   54.09   14.40
  -6  -3   5   53.49   17.40
   6  -3  -5   55.09   16.60
   6  -3  -5   56.39   16.60
   7  -3   5   -6.80   12.30
  -7   3   5  -13.60   10.40
   7   3  -5   -2.10   15.20
  -7  -3  -5   -4.50   13.10
  -7  -3   5   10.50   13.60
   7  -3  -5    0.10   12.40
  -7   3  -5    9.40   16.00
   7  -3  -5   -1.10   13.70
   7   3   5    9.40   11.10
   0  -4  -5   -0.30    7.00
   0   4  -5    1.40    4.00
   0   4  -5    2.10    6.10
   0  -4   5   -1.30    5.60
   0  -4   5    0.10    5.50
   0   4   5    3.90    6.20
   0  -4  -5    8.60    7.00
   1  -4   5  464.45   30.30
  -1  -4  -5  448.76   32.10
   1  -4   5  478.15   31.20
  -1  -4  -5  471.35   30.40
  -1   4   5  482.15   33.20
   1   4  -5  482.55   26.60
   1   4  -5  479.35   32.60
  -1  -4   5  483.95   26.50
   1   4   5  481.25   32.40
   1  -4  -5  484.85   33.40
   1  -4  -5  519.25   31.30
  -1  -4   5  485.65   33.80
  -1   4  -5  482.15   24.10
  -1   4  -5  438.56   31.30
  -2   4   5  724.73   45.30
   2   4  -5  844.32   40.70
   2  -4   5  769.02   44.40
   2   4  -5  724.93   45.10
  -2   4   5  780.12   37.00
   2  -4   5  796.22   42.00
  -2  -4  -5  770.12   41.50
  -2  -4  -5  730.93   45.90
  -2  -4   5  723.33   46.30
   2   4   5  717.63   44.00
  -2   4  -5  756.12   35.80
   2  -4  -5  770.32   40.00
  -2   4  -5  748.13   44.80
   2  -4  -5  739.33   46.30
  -3   4   5    6.30    8.00
  -3   4   5    2.10    6.50
   3  -4   5    8.70    7.20
   3  -4   5   18.00    9.50
  -3  -4  -5    7.50    9.10
   3   4  -5    6.70    7.20
   3   4  -5   12.50    9.50
   3   4   5   16.90    7.00
   3   4   5    9.40    7.60
  -3  -4   5   16.90   10.00
  -3   4  -5   -4.70    7.80
   3  -4  -5   11.20    9.80
  -4  -4  -5  797.82   43.60
  -4   4   5  691.03   48.00
   4  -4   5  685.63   48.40
   4   4  -5  683.53   46.80
   4   4  -5  786.12   45.00
  -4  -4  -5  702.63   46.50
  -4   4   5  804.52   42.60
  -4  -4   5  734.53   48.50
   4   4   5  795.22   42.20
  -4   4  -5  714.33   49.80
   4  -4  -5  800.82   51.39
   4   4   5  701.63   44.90
   5   4  -5  148.29   21.60
   5   4  -5  150.68   20.50
   5  -4   5  105.59   21.20
  -5   4   5  100.29   17.90
  -5  -4  -5  153.38   21.70
   5  -4  -5  142.99   25.20
  -5   4  -5  134.19   23.30
  -5  -4   5  144.29   21.80
   5   4   5  144.99   19.00
   5  -4  -5  142.89   24.40
  -6   4   5   41.00   13.90
   6  -4   5   26.00   16.00
  -6  -4  -5   30.70   13.60
   6   4  -5   18.70   14.50
   6  -4  -5   33.70   16.60
   6  -4  -5   20.70   13.10
  -6  -4   5   12.40   12.90
  -6   4  -5   32.50   15.70
  -6  -4   5   11.00   13.30
   6   4   5   47.70   13.50
  -7   4   5  162.98   25.70
   7  -4   5  129.39   27.90
   7   4  -5  168.38   28.80
   7   4   5  173.08   24.60
   7  -4  -5  160.68   28.50
  -7   4  -5  136.39   27.20
  -7  -4   5  100.09   24.10
   7  -4  -5  160.28   31.00
   0  -5   5   -2.30    8.00
   0   5  -5   -0.10    6.90
   0  -5  -5   -4.70    6.50
   0  -5   5    7.60    7.00
   0   5   5   13.50    9.20
   0  -5  -5   -2.40    7.30
   0   5  -5  -10.70    4.60
  -1   5   5  309.77   28.70
  -1  -5  -5  338.17   26.30
   1  -5   5  353.46   26.70
   1   5  -5  368.16   29.20
   1  -5   5  387.16   28.60
  -1  -5  -5  338.37   28.50
   1   5  -5  364.36   23.80
   1   5   5  374.66   29.90
   1  -5  -5  335.27   28.60
   1  -5  -5  361.26   27.40
  -1  -5   5  338.07   22.20
  -1   5  -5  365.86   21.70
  -1  -5   5  322.27   29.40
  -1   5  -5  293.87   26.90
   2  -5   5    8.50    7.70
  -2   5   5   12.60   10.10
  -2  -5  -5   15.90    8.30
  -2  -5  -5   10.30    9.30
   2  -5   5   11.70    9.00
   2   5  -5    1.30    8.20
   2   5  -5   -1.10    6.50
  -2   5  -5   23.40   10.60
   2  -5  -5   14.30    8.60
   2  -5  -5   10.40    9.60
  -2  -5   5    2.60    7.70
   2   5   5   20.80    9.70
   3   5  -5   -2.50    8.30
  -3   5   5   25.70   12.50
   3  -5   5   30.20   12.00
   3   5  -5   29.10   10.60
  -3  -5  -5   30.40   13.30
   3  -5   5   32.90   11.10
   3   5   5   25.80    9.50
  -3   5  -5   22.80   11.60
   3  -5  -5   37.40   13.60
  -3  -5   5    5.30   10.60
   3   5   5   13.30    8.90
  -4  -5  -5   78.09   18.00
  -4   5   5   67.69   17.60
   4   5  -5   67.99   16.60
   4  -5   5   78.69   18.30
   4   5  -5   66.49   15.30
   4  -5  -5   68.79   18.80
   4   5   5   84.09   17.20
  -4   5  -5   76.29   18.50
  -4  -5   5   62.19   17.10
   5  -5   5  224.48   28.70
  -5   5   5  226.98   29.00
   5   5  -5  212.78   24.80
  -5  -5  -5  222.58   27.00
   5   5  -5  228.58   27.50
   5   5   5  194.38   23.70
  -5   5  -5  197.78   28.00
   5  -5  -5  222.58   30.90
  -5  -5   5  208.88   28.30
   6   5  -5    5.20   11.90
   6  -5   5   15.20   17.30
   6   5  -5   32.50   15.60
  -6  -5  -5   10.10   12.60
  -6   5   5   18.80   16.10
   6   5   5   25.10   12.80
  -6  -5   5   47.30   18.20
   6  -5  -5    4.30   16.60
  -6   5  -5   20.30   16.40
   0  -6  -5   16.10   11.00
   0   6   5   11.60    9.70
   0   6  -5   -1.30    9.00
   0  -6   5    2.80    7.80
   0   6  -5   -6.30    7.00
   0  -6   5    6.40    9.40
   0  -6  -5    9.20    9.00
  -1  -6  -5  176.38   22.10
  -1  -6  -5  192.98   21.20
   1   6  -5  210.58   23.50
   1   6  -5  194.88   18.50
   1  -6   5  191.68   22.80
  -1   6   5  178.28   23.30
   1  -6   5  199.98   21.20
   1  -6  -5  169.48   20.20
   1   6   5  169.18   22.30
  -1   6  -5  201.18   23.70
  -1  -6   5  206.78   24.90
   1  -6  -5  196.58   23.60
  -2  -6  -5  194.88   20.50
   2  -6   5  265.67   25.70
   2  -6   5  214.08   23.10
   2   6  -5  239.98   26.50
  -2   6   5  197.88   26.30
   2   6  -5  245.18   21.50
  -2  -6  -5  226.38   26.70
   2  -6  -5  223.68   26.70
  -2  -6   5  204.78   26.70
   2  -6  -5  252.77   22.60
  -2   6  -5  219.28   25.30
   2   6   5  212.68   25.40
   3   6  -5   23.80   12.40
  -3   6   5   18.60   15.10
   3  -6   5   22.50   11.60
   3   6  -5   15.50    9.90
  -3  -6  -5   15.80   10.90
   3  -6  -5   14.70   13.00
  -3   6  -5   16.70   12.80
  -3  -6   5   15.00   12.20
   3   6   5   28.00   12.80
  -4  -6  -5  267.47   31.00
   4   6  -5  310.37   27.70
   4  -6   5  316.17   33.00
   4   6  -5  238.58   28.70
  -4   6   5  300.87   33.80
   4  -6  -5  249.88   31.80
  -4   6  -5  270.97   30.80
  -4  -6   5  257.07   30.90
   4   6   5  236.48   27.20
   5   6  -5  104.99   19.90
  -5  -6  -5   58.69   19.30
  -5   6   5   72.19   21.40
   5   6  -5   47.50   17.20
   5  -6   5   57.09   19.50
   5  -6  -5   93.59   26.00
   5   6   5   64.99   17.80
  -5   6  -5   94.29   23.20
  -5  -6   5   92.49   22.10
  -6   6   5   10.80   16.20
   6   6  -5    7.50   13.50
   6  -6   5   26.50   16.30
  -6  -6  -5  -12.70   11.60
   6   6  -5    0.70   13.90
   6  -6  -5   29.80   20.50
  -6   6  -5   60.79   21.40
   6   6   5    5.50   11.30
  -6  -6   5   -1.40   14.60
   0   7   5   -2.70   10.40
   0  -7  -5   -1.90    9.10
   0  -7  -5   -3.50   10.20
   0  -7   5  -13.30    9.50
   0   7  -5    3.90   11.30
   1   7  -5  128.39   23.20
  -1  -7  -5  145.59   20.20
   1   7  -5  129.39   17.70
  -1   7   5  138.39   25.00
   1  -7   5  122.69   18.90
   1  -7   5  117.79   21.40
  -1  -7  -5   95.59   20.40
   1   7   5  105.09   21.70
   1  -7  -5  143.09   21.90
   1  -7  -5  116.39   18.90
  -1  -7   5  144.99   22.70
  -1   7  -5  127.49   22.80
   2   7  -5   72.89   15.60
   2   7  -5   58.79   18.40
   2  -7   5   84.49   18.20
   2  -7   5   75.39   17.60
  -2  -7  -5   72.79   19.90
  -2   7   5   57.49   19.10
   2   7   5   58.99   17.10
   2  -7  -5   90.59   20.20
  -2   7  -5   49.90   16.50
  -2  -7   5   76.79   20.60
   3   7  -5    7.80   12.60
  -3  -7  -5    9.60   14.20
   3   7  -5   12.00   11.10
  -3   7   5   -0.30   12.80
   3  -7   5   21.20   12.80
  -3  -7   5   28.90   15.20
  -3   7  -5   -8.10   11.20
   3  -7  -5   16.40   13.60
   3   7   5    1.80    9.80
   4   7  -5   13.00   13.90
  -4   7   5  -16.50   13.30
  -4  -7  -5   20.90   14.30
   4  -7   5    8.20   11.80
   4   7  -5    5.20   11.70
   4  -7  -5    5.80   14.20
   4   7   5   19.10   13.10
  -4   7  -5   11.90   14.60
  -4  -7   5   11.20   13.60
  -5  -7  -5    6.20   15.50
  -5   7   5   18.20   19.40
   5  -7   5    2.40   14.80
   5   7  -5   26.40   15.80
   5   7  -5  -20.90   11.50
   5  -7  -5   -7.70   16.60
  -5  -7   5   16.70   17.80
   5   7   5    0.80   12.30
  -5   7  -5   11.80   17.30
   0   8  -5    6.70   12.40
   0  -8  -5  -11.50   13.30
   0  -8   5   -5.40   13.10
   0   8   5   -7.90   13.00
   0  -8  -5    3.00   11.00
  -1  -8  -5  118.59   23.70
   1  -8   5   66.59   18.70
   1   8  -5  104.49   22.00
  -1   8   5  111.99   25.80
   1   8   5  109.09   23.50
   1  -8  -5   87.29   19.50
  -1   8  -5  112.39   23.10
   1  -8  -5  113.59   22.90
  -1  -8   5   96.89   23.60
   2  -8   5    5.30   12.40
  -2   8   5   40.10   20.40
  -2  -8  -5   32.20   18.50
   2   8  -5   37.80   17.60
   2  -8   5   33.90   20.90
  -2  -8   5   14.80   17.50
  -2   8  -5   54.19   19.90
   2  -8  -5   42.20   17.70
   2   8   5   22.60   17.50
   3  -8   5   14.20   14.30
  -3  -8  -5    0.80   16.60
   3   8  -5   13.60   12.90
  -3   8   5    8.40   18.00
   3   8  -5    0.20   12.20
  -3  -8   5    0.70   15.80
   3   8   5    8.90   12.90
  -3   8  -5   -8.90   12.10
   3  -8  -5   16.00   16.20
   4  -8   5    9.60   13.80
  -4  -8  -5  -12.30   13.40
   4   8  -5  -15.40   11.10
   4   8  -5   -9.10   13.90
  -4   8   5    7.90   19.00
  -4   8  -5   14.00   16.80
   4   8   5   -0.80   12.90
  -4  -8   5    1.90   15.10
   4  -8  -5    3.70   16.60
   0   9  -5   -0.40   14.20
   0   9   5    1.60   17.20
   0  -9  -5  -13.70   14.10
   0  -9   5   -1.50   14.60
   1  -9   5    4.00   14.20
   1   9  -5   18.10   17.20
  -1  -9  -5    4.60   15.40
  -1   9   5   29.70   19.20
  -1  -9   5    4.20   16.90
   1  -9  -5   14.30   15.40
   1   9   5  -13.00   14.30
  -1   9  -5    3.80   16.50
   0   0   6 1028.40   47.10
   0   0  -6 1127.59   53.99
   0   0  -6 1146.09   49.90
   0   0   6 1159.28   53.29
   1   0  -6   -1.00    5.00
  -1   0  -6    0.60    5.30
   1   0  -6    1.50    5.00
   1   0   6    0.90    4.50
  -1   0  -6   -1.20    4.30
   1   0   6   -4.00    2.40
   1   0  -6    4.10    4.90
   1   0  -6    3.00    5.60
   2   0  -6 2233.18   91.89
  -2   0  -6 2102.99   90.49
   2   0  -6 2138.69   92.79
   2   0   6 2078.19   85.69
  -2   0  -6 1984.00   92.29
   2   0  -6 2116.39   92.09
   2   0  -6 2283.87   92.29
   2   0   6 2017.20   93.19
   3   0  -6   -2.30    5.50
  -3   0  -6    5.50    6.80
   3   0  -6   -1.50    5.10
   3   0   6    8.30    4.20
   3   0  -6    1.30    5.20
   3   0   6    2.80    5.70
   3   0  -6   -1.80    5.90
  -3   0  -6    0.40    5.30
  -4   0  -6  987.60   49.20
  -4   0  -6  919.21   50.69
   4   0   6  851.91   44.20
  -4   0   6  903.11   47.40
   4   0  -6  955.50   48.90
  -4   0   6  922.31   50.29
   4   0  -6  945.21   50.79
   4   0   6  921.41   51.79
  -5   0  -6    1.30    7.10
   5   0  -6   -1.50    7.00
   5   0   6   -5.60    5.30
  -5   0   6    4.70    8.40
   5   0  -6   -0.60    7.30
  -5   0  -6   -0.80    9.00
   5   0   6   -2.70    8.50
  -6   0  -6  237.58   27.10
   6   0   6  248.08   22.10
  -6   0   6  214.08   25.60
   6   0  -6  257.57   27.20
   6   0   6  205.08   24.90
  -7   0  -6    5.70   12.90
   7   0   6    0.30   12.10
  -7   0   6   13.10   11.70
   7   0  -6   15.10   12.80
   0   1  -6   74.09   10.40
   0   1   6   60.69    8.20
   0  -1  -6   69.39    7.30
   0  -1  -6   57.79   10.80
   0  -1   6   56.39    9.00
   0  -1  -6   68.19   10.60
   0   1  -6   44.80    9.60
  -1  -1  -6  280.27   16.70
  -1  -1  -6  253.67   20.70
   1   1  -6  274.67   19.70
   1   1  -6  295.27   22.10
   1   1  -6  281.87   17.20
  -1   1   6  285.07   19.30
   1  -1   6  294.97   21.10
   1  -1  -6  256.77   20.70
  -1   1  -6  299.07   20.30
   1  -1  -6  296.17   21.10
   1  -1  -6  278.57   17.30
   1   1   6  281.67   20.80
  -1  -1   6  282.77   18.80
  -1   1  -6  291.57   21.20
   1   1   6  274.27   17.50
  -2  -1  -6  141.79   12.20
   2   1  -6  139.89   15.10
   2   1  -6  141.89   12.90
   2   1  -6  131.89   12.20
   2  -1   6  145.99   15.20
  -2  -1  -6  165.88   16.30
   2   1  -6  101.09   13.30
   2   1   6  135.79   14.50
   2  -1  -6  138.19   13.80
   2  -1  -6  118.99   14.30
   2  -1  -6  130.19   12.60
  -2   1  -6  143.89   14.70
   2  -1  -6  141.79   15.60
   2   1   6  129.99   11.70
  -2   1  -6  100.69   13.10
   3   1  -6  441.56   29.50
  -3   1   6  401.16   25.80
  -3  -1  -6  387.36   27.90
   3  -1   6  390.66   29.40
  -3  -1  -6  421.96   26.50
   3  -1   6  384.46   21.10
   3   1  -6  408.56   26.60
   3   1  -6  438.66   25.30
   3   1   6  432.16   25.20
   3  -1  -6  403.46   28.10
   3   1   6  367.26   27.10
   3  -1  -6  398.86   25.10
  -3   1  -6  461.65   29.30
  -3   1  -6  411.26   26.90
  -3  -1   6  405.36   27.60
   3  -1  -6  417.86   28.50
  -4   1   6   88.39   14.50
  -4   1   6   85.49   11.40
   4   1  -6   76.79   11.90
  -4  -1  -6  104.19   15.30
   4  -1   6  101.89   17.80
  -4  -1  -6   75.39   13.90
   4   1  -6   78.39   15.70
   4   1  -6   76.69   13.70
   4  -1   6   71.59   10.00
  -4   1  -6  106.59   13.60
  -4   1  -6   93.69   16.30
  -4  -1   6   74.39   13.90
   4   1   6   73.79   11.40
   4   1   6   99.59   14.90
   4  -1  -6   70.99   14.30
   4  -1  -6   76.49   14.00
   5  -1   6  181.68   17.10
   5  -1   6  203.58   24.20
  -5   1   6  249.08   23.30
  -5  -1  -6  215.88   21.50
   5   1  -6  210.28   22.40
  -5  -1  -6  188.48   21.20
  -5  -1   6  210.38   19.90
   5   1   6  194.58   21.70
   5  -1  -6  198.18   22.30
   5   1   6  235.68   20.50
  -5   1  -6  164.38   19.80
   5  -1  -6  212.58   21.30
  -5   1  -6  200.78   25.00
  -5  -1   6  205.28   23.40
   6   1  -6   28.90   13.70
   6  -1   6   17.90   11.80
  -6  -1  -6   22.50   13.40
  -6   1   6    2.10    9.50
   6  -1  -6   39.50   14.20
   6   1   6   45.60   12.90
  -6   1  -6   14.70   13.80
   6  -1  -6   21.40   11.30
  -6  -1   6   28.40   13.20
   6   1   6   18.60   11.00
   7  -1   6   44.50   16.50
   7   1  -6   32.90   18.50
  -7   1   6   47.40   15.90
  -7  -1  -6   50.19   15.60
  -7   1  -6   12.40   15.60
   7   1   6   62.99   15.20
   7  -1  -6   43.40   17.90
  -7  -1   6   40.50   16.50
   0  -2  -6  536.25   30.80
   0  -2  -6  464.05   30.20
   0  -2   6  493.75   28.40
   0   2   6  476.25   28.40
   0   2  -6  473.85   30.00
   0   2  -6  469.65   30.60
   1   2  -6 1763.12   80.99
  -1   2   6 1809.32   80.39
   1   2  -6 1786.42   82.79
  -1  -2  -6 1762.42   71.69
   1  -2   6 1768.42   80.69
  -1  -2  -6 1874.81   81.69
   1   2  -6 1802.72   74.39
  -1  -2  -6 1718.23   82.49
  -1  -2   6 1733.53   76.49
  -1   2  -6 1779.92   81.29
   1   2   6 1850.21   79.19
   1  -2  -6 1832.22   82.79
   1  -2  -6 1769.52   79.59
  -1   2  -6 1949.20   82.79
   2   2  -6   87.29   10.50
  -2   2   6   58.79   11.80
  -2  -2  -6   96.49   14.20
  -2  -2  -6   86.59    9.00
   2  -2   6   63.49   13.00
  -2   2   6   61.09    8.70
   2   2  -6   78.69   13.50
  -2   2  -6   83.69   14.20
  -2  -2   6   76.59   13.30
  -2   2  -6   83.49   12.10
  -2  -2   6   72.29    8.40
   2  -2  -6   75.49   13.20
   2   2   6   97.39   12.40
   2  -2  -6   70.19   11.70
   2   2   6   69.79   10.20
   3   2  -6  491.35   29.30
   3   2  -6  444.36   31.70
  -3  -2  -6  471.95   32.10
  -3  -2  -6  483.35   27.30
   3  -2   6  423.56   26.70
  -3   2   6  455.45   27.00
   3  -2   6  453.65   32.30
  -3  -2   6  468.15   24.30
  -3   2  -6  406.76   27.50
   3   2   6  484.45   29.90
  -3  -2   6  426.86   31.00
   3  -2  -6  459.25   26.90
   3   2   6  467.95   28.40
   3  -2  -6  402.06   30.40
   3  -2  -6  457.35   32.20
  -3   2  -6  437.16   31.60
  -4   2   6   18.90    8.40
  -4  -2  -6   20.40    8.70
   4   2  -6   19.40    9.20
   4  -2   6   20.10   10.80
  -4  -2  -6   35.80   11.30
   4   2  -6   32.90   11.20
   4  -2  -6   32.90   12.00
   4   2   6   35.00   10.30
  -4  -2   6   38.40   12.50
  -4   2  -6    4.20    9.50
  -4   2  -6   10.90    6.80
   4   2   6   12.60    7.30
   4  -2  -6   21.00    9.90
   5  -2   6  774.72   49.50
  -5  -2  -6  702.03   44.40
   5   2  -6  733.03   45.70
  -5   2   6  713.13   43.10
   5   2  -6  709.63   47.60
  -5  -2  -6  733.13   42.30
   5  -2  -6  684.53   46.00
  -5   2  -6  653.03   47.10
  -5  -2   6  709.93   44.60
   5   2   6  662.53   42.80
   5  -2  -6  790.82   47.70
   5   2   6  666.73   41.50
   6   2  -6   89.19   19.10
  -6   2   6  124.79   20.80
  -6  -2  -6  145.39   20.80
   6  -2   6  112.29   22.00
  -6  -2  -6  161.28   21.60
   6  -2  -6  176.28   23.60
   6   2   6  147.39   20.90
  -6  -2   6  107.89   21.80
  -6   2  -6  112.49   23.10
   6   2   6  138.29   18.40
   6  -2  -6  108.29   21.50
   7  -2   6  132.89   25.10
  -7   2   6  170.18   27.20
  -7  -2  -6  160.48   24.30
   7   2  -6  180.08   27.00
   7  -2  -6  161.28   29.00
   7   2   6  186.58   23.80
  -7   2  -6  181.38   30.80
   7  -2  -6  168.48   32.60
  -7  -2   6  162.68   27.40
   0  -3  -6  697.63   40.60
   0   3  -6  664.23   40.30
   0  -3   6  731.33   37.90
   0  -3  -6  697.23   40.10
   0   3  -6  688.83   41.40
   0   3   6  685.83   39.40
  -1  -3  -6   47.20   12.20
   1   3  -6   40.00   10.30
  -1   3   6   16.30    7.60
   1   3  -6   36.60    7.30
   1  -3   6   25.20    8.70
  -1  -3  -6   30.80    9.20
  -1  -3   6   30.10    7.00
   1  -3  -6   41.90    9.90
  -1   3  -6   29.40    9.30
   1  -3  -6   41.60   10.90
  -1  -3   6   49.80   11.60
   1   3   6   35.40    9.00
  -1   3  -6   28.40    9.30
   2   3  -6  315.07   26.90
   2   3  -6  363.56   23.00
  -2  -3  -6  328.87   18.40
  -2   3   6  352.86   20.40
  -2   3   6  306.07   25.90
   2  -3   6  370.06   27.70
  -2  -3  -6  345.77   27.30
  -2  -3   6  361.06   20.30
  -2   3  -6  362.06   25.40
   2  -3  -6  346.67   23.40
   2   3   6  310.07   24.30
   2   3   6  381.66   26.00
  -2  -3   6  376.66   28.80
   2  -3  -6  350.66   28.00
  -2   3  -6  332.47   26.60
  -3   3   6   53.89   12.50
   3   3  -6   53.19   12.90
   3  -3   6   60.49   13.50
   3   3  -6   72.99   13.30
  -3   3   6   73.79   10.60
  -3  -3  -6   38.00   11.20
  -3  -3  -6   74.09   10.50
   3   3   6   63.59   12.40
   3  -3  -6   62.39   10.90
  -3   3  -6   75.29   12.10
  -3  -3   6   66.79   14.30
   3  -3  -6   57.69   13.70
  -3   3  -6   74.29   15.40
   3   3   6   69.19   12.70
  -4  -3  -6   85.09   13.50
   4   3  -6   78.59   16.80
  -4  -3  -6   81.89   15.40
  -4   3   6  114.89   14.40
   4  -3   6   94.99   18.20
   4   3  -6  103.39   16.80
   4   3   6  116.09   15.80
  -4  -3   6   77.29   16.50
   4  -3  -6   75.99   16.80
   4  -3  -6   81.59   16.50
  -4   3  -6  101.69   13.80
  -4   3  -6  106.29   19.60
   4   3   6   89.99   15.80
  -5   3   6   -0.70    8.80
  -5  -3  -6    4.80    8.80
   5   3  -6   14.90   11.80
  -5  -3  -6   14.30    9.90
   5   3  -6   18.90   10.00
   5  -3   6    3.80   11.50
  -5  -3   6    5.90    9.60
   5   3   6    0.90    8.80
  -5   3  -6    5.60   10.60
   5  -3  -6    1.90   11.00
   5   3   6   -0.80    7.70
   5  -3  -6   20.50   12.30
   6   3  -6  204.68   26.40
  -6   3   6  229.88   24.80
   6  -3   6  179.18   27.70
  -6  -3  -6  236.88   26.50
  -6  -3  -6  242.98   24.70
   6   3   6  232.58   24.60
   6  -3  -6  157.08   27.00
  -6  -3   6  205.28   26.20
  -6   3  -6  220.18   30.60
   6  -3  -6  255.17   29.80
   7  -3   6   78.39   22.20
   7   3  -6   91.69   24.00
  -7   3   6   36.70   15.90
  -7   3  -6   69.89   22.50
  -7  -3   6   61.29   20.30
   7  -3  -6   82.29   21.70
   7   3   6   40.80   14.70
   7  -3  -6   56.39   21.10
   0  -4  -6   95.69   14.60
   0   4   6  113.29   15.90
   0  -4   6   91.59   14.70
   0  -4  -6  129.59   16.20
   0   4  -6  116.79    9.80
   0   4  -6   83.89   15.10
   0  -4   6  116.39   13.50
   1  -4   6  166.38   17.50
  -1  -4  -6  109.69   16.60
  -1  -4  -6  140.59   16.10
   1  -4   6  141.69   16.50
  -1   4   6  113.79   16.20
   1   4  -6  119.59   12.00
   1   4  -6  118.09   16.20
   1  -4  -6  134.29   17.50
  -1  -4   6  124.49   16.80
   1  -4  -6  136.39   15.80
  -1  -4   6  123.49   13.10
  -1   4  -6   80.49   14.90
   1   4   6  139.39   16.60
  -2   4   6  827.22   50.49
   2   4  -6  962.50   45.10
   2  -4   6  946.61   50.99
   2  -4   6  915.51   47.90
   2   4  -6  861.81   50.49
  -2  -4  -6  783.22   49.40
  -2  -4   6  811.82   51.79
  -2   4  -6  781.62   50.29
   2  -4  -6  838.22   50.99
   2   4   6  850.01   48.90
   2   4   6  890.51   48.00
   2  -4  -6  818.42   44.30
   3  -4   6  759.52   40.10
   3  -4   6  683.53   44.20
  -3   4   6  563.04   42.60
  -3   4   6  749.92   39.60
   3   4  -6  761.52   40.10
   3   4  -6  527.45   41.10
  -3  -4  -6  624.14   42.70
   3  -4  -6  652.43   44.90
  -3  -4   6  649.24   45.40
  -3   4  -6  589.74   42.60
   3   4   6  684.63   38.70
   3   4   6  627.64   40.80
   4   4  -6  469.75   37.00
  -4  -4  -6  444.96   35.30
  -4   4   6  417.26   29.50
   4  -4   6  454.45   37.20
  -4   4   6  469.25   37.00
   4   4  -6  430.06   32.30
  -4   4  -6  461.75   38.90
  -4  -4   6  442.46   37.40
   4   4   6  461.75   31.30
   4   4   6  472.75   33.80
   4  -4  -6  449.46   38.40
  -5   4   6   95.79   20.90
   5   4  -6  116.99   19.90
   5  -4   6  123.39   24.50
  -5  -4  -6   98.79   18.50
   5   4  -6   97.39   20.30
  -5   4   6   96.79   16.80
   5   4   6   85.99   17.10
  -5   4  -6   96.59   23.40
  -5  -4   6  121.89   22.10
   5  -4  -6  128.49   25.10
   6   4  -6   37.30   15.60
  -6   4   6   23.90   12.80
   6   4  -6   18.80   14.00
   6  -4   6   27.20   16.80
  -6  -4  -6   29.60   13.70
   6  -4  -6   14.90   15.70
  -6   4  -6   22.80   17.00
   6   4   6   45.20   14.10
  -6  -4   6   24.80   13.90
   6  -4  -6   20.60   13.70
   0  -5  -6  468.65   33.70
   0  -5  -6  421.76   32.30
   0  -5   6  435.66   33.70
   0   5  -6  388.66   32.30
   0   5   6  441.86   34.20
   0  -5   6  429.16   28.90
   1  -5   6  224.38   21.10
   1  -5   6  176.48   20.20
   1   5  -6  201.88   16.50
   1   5  -6  182.18   22.00
  -1   5   6  169.08   21.20
  -1  -5  -6  168.58   21.70
  -1  -5  -6  184.78   20.00
  -1  -5   6  146.09   21.40
   1   5   6  181.88   21.30
  -1   5  -6  156.78   20.20
   1  -5  -6  128.79   18.90
   1  -5  -6  175.58   19.70
  -1  -5   6  191.58   23.00
  -2  -5  -6   31.40   11.10
   2   5  -6   54.49   14.00
   2  -5   6   26.60   10.40
   2  -5   6   22.70   11.70
  -2  -5  -6   42.50   13.30
   2   5  -6   62.69   11.90
  -2   5   6   30.00   12.10
  -2  -5   6   32.00   12.90
  -2   5  -6   27.90   11.60
   2  -5  -6   45.10   13.80
   2  -5  -6   43.20   11.40
   2   5   6   20.80   10.40
   3   5  -6  242.68   26.20
  -3   5   6  219.78   27.40
   3  -5   6  254.57   26.90
  -3  -5  -6  215.48   25.10
   3  -5   6  275.47   23.00
   3   5  -6  229.98   21.70
  -3   5  -6  189.58   24.90
   3   5   6  238.78   24.60
  -3  -5   6  228.98   27.10
   3  -5  -6  246.98   28.00
   3   5   6  244.68   22.60
   4   5  -6   76.79   18.00
   4  -5   6   80.39   19.20
  -4  -5  -6   54.09   16.60
  -4   5   6   61.69   16.90
   4   5  -6   59.49   14.90
  -4   5  -6   88.39   20.40
   4  -5  -6   78.69   20.50
  -4  -5   6   64.19   17.40
   4   5   6   86.59   17.60
   5  -5   6  125.39   25.10
  -5  -5  -6  115.69   21.90
   5   5  -6  136.19   20.70
  -5   5   6  102.69   23.50
   5   5  -6   89.79   19.80
  -5   5  -6   67.29   20.30
  -5  -5   6  112.79   23.00
   5   5   6  103.49   20.30
   5  -5  -6  121.79   25.40
  -6   5   6  137.99   28.20
   6   5  -6  153.68   25.40
  -6  -5  -6  148.99   25.50
   6  -5   6   92.59   25.30
   6   5  -6  150.78   26.60
  -6   5  -6  121.59   26.60
   6   5   6   91.49   19.90
   6  -5  -6  154.38   30.80
  -6  -5   6  131.99   27.10
   0  -6  -6  732.23   48.30
   0   6   6  727.23   50.29
   0  -6   6  788.72   50.89
   0   6  -6  734.63   49.70
   0  -6  -6  775.82   49.10
   0  -6   6  821.12   44.60
  -1   6   6  406.76   36.20
   1  -6   6  440.66   36.10
   1  -6   6  464.15   33.80
  -1  -6  -6  468.65   34.20
  -1  -6  -6  344.17   33.10
   1   6  -6  522.85   38.70
  -1   6  -6  475.75   37.80
   1  -6  -6  503.35   35.30
  -1  -6   6  430.16   37.20
   1   6   6  435.96   35.90
   1  -6  -6  461.85   36.20
   2   6  -6   70.69   18.00
   2   6  -6  130.89   16.10
  -2  -6  -6   99.79   20.60
   2  -6   6   94.19   18.90
  -2   6   6  135.79   23.80
  -2  -6  -6  125.19   17.60
   2  -6   6   98.29   19.10
  -2  -6   6  117.09   22.80
   2  -6  -6  136.79   24.00
  -2   6  -6  108.89   20.90
   2   6   6  116.19   20.30
   2  -6  -6  116.09   17.30
   3  -6   6    4.50    9.90
   3   6  -6    5.90    8.80
  -3  -6  -6    7.20   11.00
  -3   6   6   -3.20   10.60
   3   6  -6   32.80   13.50
   3   6   6    5.00    9.70
   3  -6  -6   22.10   13.60
  -3  -6   6   -1.00   11.20
  -3   6  -6   20.50   12.90
  -4   6   6   63.89   20.70
  -4  -6  -6   68.39   18.80
   4  -6   6   58.19   18.50
   4   6  -6   46.60   15.40
   4   6  -6   38.80   14.20
   4  -6  -6   28.60   17.40
   4   6   6   33.20   13.70
  -4   6  -6   48.30   18.40
  -4  -6   6   68.69   19.00
  -5  -6  -6  186.18   27.70
   5   6  -6  169.48   28.30
   5  -6   6  156.08   28.90
   5   6  -6  186.78   24.50
  -5   6   6  178.98   30.90
   5   6   6  168.98   25.40
  -5   6  -6  161.28   29.20
   5  -6  -6  135.49   30.50
  -5  -6   6  182.98   32.20
   0   7   6   41.00   15.70
   0  -7   6   61.69   17.20
   0   7  -6   41.00   15.50
   0  -7  -6   57.59   17.50
   0  -7  -6   51.49   16.10
   1  -7   6   81.59   18.10
  -1  -7  -6   47.10   14.70
   1  -7   6   62.99   16.50
  -1   7   6   64.09   20.30
   1   7  -6   85.79   20.50
  -1  -7  -6   86.59   20.40
  -1  -7   6   63.79   19.00
   1  -7  -6   92.99   19.10
  -1   7  -6   62.59   18.20
   1  -7  -6   81.39   18.70
   1   7   6   75.69   19.20
   2  -7   6   62.79   17.20
   2  -7   6  118.69   21.30
   2   7  -6   65.99   19.30
  -2   7   6  149.69   27.00
  -2  -7  -6   67.89   20.50
  -2   7  -6   88.89   20.20
  -2  -7   6  114.99   23.60
   2   7   6   97.89   21.20
   2  -7  -6  115.79   23.70
   3   7  -6  408.76   37.20
   3  -7   6  434.16   37.60
   3   7  -6  318.97   29.10
  -3   7   6  361.06   39.40
  -3  -7  -6  328.07   38.20
   3   7   6  366.36   35.70
  -3   7  -6  375.06   36.60
   3  -7  -6  416.96   40.50
  -3  -7   6  347.97   38.40
  -4   7   6   26.50   20.00
   4   7  -6   31.80   15.10
   4  -7   6   13.20   14.40
   4   7  -6   29.50   17.00
  -4  -7  -6    9.70   14.80
  -4  -7   6   36.10   18.20
   4  -7  -6   36.80   20.00
   4   7   6   61.29   18.80
  -4   7  -6   49.80   19.90
   0   8  -6   75.59   21.00
   0  -8  -6  112.59   22.20
   0  -8  -6  159.48   23.60
   0  -8   6   58.59   18.80
   0   8   6   82.99   22.10
  -1  -8  -6   32.60   17.20
   1   8  -6   49.60   18.10
  -1   8   6   17.90   16.60
   1  -8   6   42.40   16.80
  -1   8  -6   40.40   18.00
   1   8   6   32.20   17.40
   1  -8  -6   35.80   16.90
  -1  -8   6   44.30   18.20
   1  -8  -6   19.70   13.80
   2  -8   6  140.09   24.80
  -2  -8  -6  178.78   32.10
   2   8  -6  252.07   31.20
   2  -8   6  177.08   26.70
  -2   8   6  124.29   29.90
  -2   8  -6  208.28   28.70
  -2  -8   6  123.09   28.30
   2   8   6  181.08   27.90
   2  -8  -6  169.48   28.70
   3  -8   6  290.97   32.20
   3   8  -6  217.08   30.30
  -3  -8  -6  241.28   37.00
  -3   8   6  264.67   38.00
   3   8   6  290.97   33.90
  -3  -8   6  303.77   37.80
   3  -8  -6  317.67   37.70
  -3   8  -6  189.38   32.00
   0   9  -6  252.17   33.60
   0   9   6  283.67   38.50
   0  -9  -6  237.58   31.90
   0  -9   6  238.88   33.50
   0   0   7    1.20    3.00
   0   0   7   -0.90    5.00
   0   0  -7   -5.60    4.60
   0   0  -7   -2.10    3.80
  -1   0  -7   -1.80    4.00
   1   0  -7    4.60    4.40
   1   0  -7   -2.40    5.00
   1   0  -7    3.00    6.00
   1   0   7    2.50    5.50
   1   0   7    0.70    2.90
   1   0  -7    3.10    5.00
  -1   0  -7   -5.60    5.20
  -2   0  -7  788.32   40.10
   2   0  -7  753.22   41.00
   2   0  -7  761.62   40.00
   2   0   7  676.63   41.50
   2   0  -7  786.12   43.00
  -2   0  -7  763.42   42.50
   2   0   7  740.23   34.40
   2   0  -7  788.12   40.60
  -3   0  -7   -0.40    5.90
   3   0   7    3.30    4.20
   3   0  -7    2.80    5.90
   3   0  -7   -4.40    5.60
   3   0   7   -0.10    5.90
  -3   0  -7   -3.50    5.00
   3   0  -7    0.20    5.70
   3   0  -7   -0.90    5.90
   4   0  -7  182.08   20.30
   4   0  -7  171.48   18.70
  -4   0   7  186.38   18.40
  -4   0  -7  176.88   18.80
   4   0  -7  192.98   20.60
   4   0   7  167.98   15.00
  -4   0  -7  192.38   20.50
   4   0   7  155.88   20.60
   5   0   7    6.40    8.40
  -5   0   7    0.20    9.30
  -5   0  -7   -7.90    9.40
   5   0  -7    3.10    8.60
  -5   0  -7    7.90    6.80
   5   0  -7   -0.60    8.50
   6   0  -7   59.89   17.90
   6   0   7   43.60   15.60
  -6   0  -7   75.29   19.30
  -6   0   7   42.90   14.80
  -7   0   7    8.50   11.90
  -7   0  -7   19.00   16.10
   7   0   7   -4.10   10.60
   7   0  -7    8.80   15.60
   0   1  -7    5.90    5.00
   0  -1  -7    3.50    6.10
   0  -1  -7   -0.10    3.20
   0   1   7   -1.20    3.40
   0  -1  -7    6.40    5.50
   0  -1   7   -0.20    4.60
   0   1  -7    1.50    5.40
  -1   1   7 1096.89   51.89
  -1  -1  -7 1094.19   48.60
   1   1  -7 1121.19   49.30
   1   1  -7 1113.19   56.39
   1   1  -7 1004.00   52.19
  -1  -1  -7 1005.70   55.19
   1  -1   7 1101.09   54.59
  -1   1  -7 1038.00   54.79
   1  -1  -7 1089.69   54.69
   1   1   7 1064.59   54.79
  -1   1  -7 1121.59   53.09
   1  -1  -7 1195.78   49.90
   1  -1  -7 1105.59   55.29
  -1  -1   7 1062.19   51.99
   1   1   7 1132.49   49.90
   2   1  -7  187.38   19.10
   2   1  -7  191.18   17.80
   2   1  -7  206.08   16.20
  -2  -1  -7  207.78   19.20
   2   1  -7  198.58   16.70
   2  -1   7  198.58   18.50
  -2  -1  -7  164.58   14.60
   2  -1  -7  176.08   15.10
   2  -1  -7  185.98   17.60
   2  -1  -7  197.38   18.70
   2   1   7  186.28   14.40
  -2   1  -7  164.08   17.20
   2   1   7  157.28   17.10
  -2   1  -7  191.68   17.50
   2  -1  -7  203.58   18.30
   3  -1   7   19.10    9.60
   3   1  -7    6.10    7.00
  -3  -1  -7   20.20    7.80
   3   1  -7   19.00    7.50
  -3  -1  -7   18.70    8.40
   3   1  -7   17.30    8.90
  -3   1  -7   17.20    8.50
  -3  -1   7   15.80    8.20
   3  -1  -7   14.30    8.40
   3  -1  -7   33.30    9.90
  -3   1  -7   14.20    8.40
   3   1   7   14.40    7.70
   3  -1  -7   29.30    8.70
   3   1   7   30.90    7.70
   4   1  -7  418.56   30.20
  -4   1   7  435.26   29.70
  -4  -1  -7  447.36   31.60
  -4  -1  -7  416.76   29.80
   4   1  -7  419.26   32.20
   4   1  -7  405.46   27.20
   4  -1   7  415.76   32.80
   4   1   7  408.76   26.40
   4  -1  -7  404.86   27.50
   4  -1  -7  411.96   30.50
  -4   1  -7  386.76   31.30
  -4   1  -7  402.46   28.60
   4  -1  -7  418.06   31.60
  -4  -1   7  400.96   30.10
   4   1   7  406.86   30.80
  -5  -1  -7  199.38   21.20
  -5   1   7  135.19   18.70
   5   1  -7  146.19   20.20
  -5  -1  -7  122.39   20.00
   5  -1   7  174.28   23.10
   5  -1  -7  178.58   21.40
  -5  -1   7  146.99   23.00
  -5   1  -7  123.39   21.40
  -5  -1   7  176.88   28.80
   5   1   7  147.39   17.00
   5  -1  -7  126.79   19.40
  -5   1  -7  153.08   17.80
   5   1   7  144.09   20.00
   6   1  -7   19.80   13.20
  -6  -1  -7   53.29   15.60
  -6   1   7   24.00   12.20
   6  -1   7   13.00   12.40
  -6   1  -7    3.50   12.50
   6   1   7   22.40   12.90
   6   1   7   22.90   11.00
  -6  -1   7   18.60   12.80
   6  -1  -7   22.70   12.80
   6  -1  -7   20.80   14.10
   7   1  -7  416.46   39.40
  -7  -1  -7  372.46   36.00
   7  -1   7  300.17   35.10
  -7   1   7  450.05   37.70
   7   1   7  453.05   37.30
  -7  -1   7  377.06   37.20
  -7   1  -7  307.57   36.10
   7  -1  -7  390.76   39.20
   0  -2   7    1.00    5.20
   0  -2  -7   -1.80    5.60
   0   2  -7   -0.40    5.40
   0  -2  -7   -5.40    5.30
   0   2   7    3.10    4.40
   0   2  -7   -3.20    5.30
   1   2  -7  342.07   19.70
   1   2  -7  327.67   25.30
   1   2  -7  397.46   28.60
  -1  -2  -7  342.77   26.50
  -1   2   7  365.06   25.00
  -1  -2  -7  324.67   17.80
   1  -2   7  344.07   24.70
  -1   2  -7  338.17   25.10
   1  -2  -7  337.67   24.70
   1  -2  -7  322.67   26.30
  -1  -2   7  370.96   23.00
   1   2   7  341.97   26.10
  -1   2  -7  344.37   26.40
   1  -2  -7  355.06   18.60
   1   2   7  379.76   23.90
  -2   2   7  131.89   12.40
   2  -2   7  143.59   17.20
  -2  -2  -7  141.29   12.10
   2   2  -7  163.68   17.90
   2   2  -7  162.08   14.20
  -2   2   7  140.79   15.80
   2   2  -7  127.49   17.20
  -2  -2  -7  145.89   17.60
  -2  -2   7  127.59   16.50
  -2  -2   7  139.09   12.70
   2   2   7  157.28   16.20
  -2   2  -7  157.68   16.60
   2  -2  -7  159.78   18.10
   2   2   7  137.69   14.50
  -2   2  -7  153.88   17.10
   2  -2  -7  162.58   16.00
   3   2  -7   35.30   11.30
   3   2  -7   39.50   10.60
  -3  -2  -7   48.30    9.60
  -3  -2  -7   43.40   11.70
  -3   2   7   32.50    8.60
   3  -2   7   24.90   10.10
   3  -2  -7   40.80   12.40
   3  -2  -7   36.00    9.60
   3  -2  -7   32.20   10.50
  -3   2  -7   28.40    9.50
   3   2   7   68.99   11.40
   3   2   7   44.10   10.70
  -3   2  -7   31.80   11.60
  -3  -2   7   45.70    8.50
  -3  -2   7   63.19   14.10
   4  -2   7  130.39   20.50
  -4  -2  -7  150.88   17.00
   4   2  -7  135.19   17.50
  -4   2   7  118.59   14.70
   4   2  -7  123.39   18.70
  -4  -2  -7  106.99   17.00
   4  -2  -7  118.79   19.70
   4   2   7  100.29   14.30
  -4   2  -7  118.49   15.40
  -4   2  -7  133.09   21.40
  -4  -2   7  106.89   19.00
   4  -2  -7   89.49   17.50
   4   2   7  106.59   15.70
  -5   2   7  392.76   29.50
  -5  -2  -7  353.66   31.20
   5   2  -7  365.56   31.20
  -5  -2  -7  435.96   30.70
   5   2  -7  316.37   31.40
   5  -2   7  337.77   33.40
   5   2   7  400.06   28.80
   5  -2  -7  392.66   32.80
  -5   2  -7  385.56   34.60
   5  -2  -7  307.17   30.60
   5   2   7  345.37   30.60
  -5  -2   7  410.86   32.30
  -6  -2  -7   -2.10   10.20
  -6   2   7    3.90    9.60
   6   2  -7   21.20   11.70
  -6  -2  -7    0.10    9.20
   6  -2   7   -0.60   12.10
   6  -2  -7   14.70   12.80
  -6  -2   7   11.10   11.10
   6   2   7    3.20    8.10
   6   2   7    2.60    9.90
   6  -2  -7    1.00   11.30
  -6   2  -7    9.20   13.70
  -7   2   7   10.20   13.90
   7   2  -7    6.00   14.50
  -7  -2  -7   29.30   15.90
   7  -2   7   31.90   16.40
  -7  -2   7   28.10   15.40
   7   2   7   40.20   15.50
   7  -2  -7   29.70   17.40
  -7   2  -7   51.39   22.80
   0  -3  -7    2.30    6.70
   0   3  -7  -12.10    4.70
   0  -3  -7   -2.60    6.20
   0   3   7   -4.10    5.00
   0  -3   7    1.50    5.70
   0   3  -7    1.30    6.30
  -1   3   7   23.30    9.40
   1  -3   7   42.60   11.40
  -1  -3  -7   37.30   10.30
   1   3  -7   49.30    7.50
   1   3  -7   20.60    9.30
  -1  -3  -7   59.49   13.10
  -1  -3   7   33.10    8.10
  -1  -3   7   35.80   11.10
   1   3   7   35.10    9.10
   1  -3  -7   31.00    9.20
  -1   3  -7   19.80    8.60
   1  -3  -7   37.30   11.00
  -1   3  -7   29.70    9.80
  -2  -3  -7  577.94   40.10
  -2   3   7  654.23   31.60
  -2   3   7  532.35   37.90
   2   3  -7  664.53   34.70
   2   3  -7  685.23   41.50
   2  -3   7  612.44   39.90
  -2  -3   7  656.93   42.10
   2   3   7  646.94   38.10
   2  -3  -7  647.34   41.70
   2   3   7  661.73   39.30
  -2  -3   7  652.33   33.10
  -2   3  -7  622.24   38.50
   2  -3  -7  688.33   37.20
  -2   3  -7  613.64   40.00
   3   3  -7   27.90    9.70
  -3  -3  -7   -0.10    6.90
   3  -3   7   10.10    9.50
  -3   3   7    8.10    7.00
   3   3  -7    4.10    8.70
  -3   3   7    3.10    7.90
  -3   3  -7   22.10    8.80
   3  -3  -7   29.10    9.80
   3  -3  -7   11.20    9.50
   3   3   7   14.90    8.40
  -3  -3   7    8.30    9.30
  -3   3  -7   30.10   12.30
   3   3   7   12.50    7.90
  -4  -3  -7  974.20   56.19
   4  -3   7  964.80   58.79
  -4   3   7  900.31   49.00
   4   3  -7 1014.50   53.69
   4   3  -7  850.81   55.29
  -4  -3   7  944.51   58.29
   4  -3  -7 1043.70   58.79
  -4   3  -7  839.22   56.59
   4   3   7  970.30   52.79
   4  -3  -7  861.71   55.79
   4   3   7  946.51   52.59
  -4   3  -7 1031.10   50.89
  -5   3   7   12.30   10.00
   5  -3   7    5.60   12.40
   5   3  -7    5.30   10.60
  -5  -3  -7   13.40   10.60
   5   3  -7   16.10   12.80
   5  -3  -7   17.20   12.60
  -5  -3   7    5.30   11.10
  -5   3  -7   -0.80   11.40
   5  -3  -7   23.90   12.40
   5   3   7   17.90   11.40
   5   3   7   22.80   10.50
   6   3  -7   42.10   16.00
  -6   3   7   23.80   13.60
  -6  -3  -7   28.90   13.40
   6  -3   7   25.90   15.90
   6  -3  -7   27.90   15.60
   6  -3  -7    9.00   13.00
  -6  -3   7    4.00   11.80
   6   3   7   28.30   11.60
  -6   3  -7   26.90   18.30
   7  -3   7   12.50   16.90
   7   3  -7   37.30   18.00
  -7   3   7   10.90   14.90
  -7  -3   7   32.60   15.60
   7   3   7   25.50   13.80
   7  -3  -7   56.39   19.60
   7  -3  -7   18.90   18.70
  -7   3  -7    4.80   16.50
   0   4  -7    0.80    6.90
   0  -4  -7   -4.30    7.80
   0  -4   7   -6.40    6.00
   0   4   7   -3.60    6.20
   0  -4  -7   -0.40    6.70
   0  -4   7   -2.50    5.90
  -1  -4  -7  381.16   30.50
   1   4  -7  401.46   23.00
   1  -4   7  392.86   28.90
   1  -4   7  354.16   28.60
  -1   4   7  412.46   31.30
   1   4  -7  387.86   30.60
  -1  -4  -7  395.06   28.80
   1  -4  -7  308.67   28.80
   1  -4  -7  339.77   27.40
   1   4   7  316.47   27.60
  -1   4  -7  416.46   31.40
  -1  -4   7  418.86   32.40
  -1  -4   7  388.96   25.00
   2   4  -7  228.58   24.20
  -2   4   7  260.47   25.10
   2   4  -7  253.57   19.70
   2  -4   7  237.78   24.30
  -2  -4  -7  210.78   23.30
  -2   4  -7  216.18   23.60
   2  -4  -7  217.18   24.20
  -2   4  -7  268.57   24.70
   2  -4  -7  250.87   21.00
  -2  -4   7  228.98   25.30
   2   4   7  245.18   23.30
   2   4   7  259.07   23.10
  -3  -4  -7    4.80    8.30
   3   4  -7   -2.00    8.40
  -3   4   7    9.60    9.00
   3  -4   7    4.10    9.40
   3   4  -7   -0.60    6.60
   3   4   7   23.70    9.80
   3  -4  -7   -3.70    9.60
  -3   4  -7   -3.40    8.70
  -3  -4   7    0.70   10.40
  -3   4  -7    0.00    8.20
   3   4   7    1.30    6.20
  -4  -4  -7   29.80   12.70
   4   4  -7   49.80   15.10
   4   4  -7   40.50   13.20
  -4   4   7   45.60   14.80
   4  -4   7   60.39   16.20
  -4   4  -7   35.70   16.30
   4  -4  -7   29.30   13.00
   4   4   7   57.09   13.50
  -4  -4   7   36.50   14.20
   4   4   7   56.49   14.90
  -5   4   7  165.18   24.20
   5  -4   7  125.49   25.10
  -5  -4  -7  174.88   23.10
   5   4  -7  173.78   24.80
   5   4  -7  202.58   23.80
  -5   4  -7  127.89   26.40
   5  -4  -7  168.78   28.30
   5   4   7  136.99   19.80
  -5  -4   7  110.49   22.80
  -6  -4  -7   30.70   15.00
   6   4  -7   10.40   13.90
  -6   4   7   57.49   17.10
   6   4  -7   25.30   14.10
   6  -4   7   36.20   18.30
   6   4   7   51.39   14.80
  -6   4  -7   43.90   20.20
  -6  -4   7    7.00   13.40
   6  -4  -7   20.20   16.60
   0  -5  -7   -1.50    8.60
   0  -5   7   -4.00    6.10
   0   5   7   -2.60    7.10
   0   5  -7   -0.70    8.90
   0  -5   7   -2.00    8.00
   0  -5  -7    4.60    8.20
  -1  -5  -7  570.94   41.50
  -1   5   7  655.83   44.20
   1  -5   7  678.23   40.80
   1   5  -7  600.04   42.90
  -1  -5  -7  698.33   41.70
   1  -5   7  634.84   42.40
   1  -5  -7  648.14   40.50
  -1  -5   7  607.74   44.20
   1  -5  -7  632.64   43.80
  -1   5  -7  559.14   41.30
   1   5   7  559.04   41.00
   2  -5   7  155.68   19.60
  -2  -5  -7  100.89   19.90
   2   5  -7  124.79   21.30
  -2   5   7  101.89   19.90
   2   5  -7  152.18   16.70
  -2  -5  -7  118.19   17.20
   2  -5   7  102.69   18.40
   2  -5  -7  129.39   17.10
  -2  -5   7  114.59   22.50
   2   5   7  123.29   18.80
   2  -5  -7  157.28   21.90
  -2   5  -7   88.89   18.60
   3   5  -7   15.00    9.80
   3   5  -7   17.80   11.90
   3  -5   7   16.50   10.30
   3  -5   7   10.20   11.10
  -3   5   7   -4.70   10.30
  -3  -5  -7    9.20   10.80
  -3  -5   7    9.00   11.40
  -3   5  -7    4.20   10.60
   3   5   7    3.20    8.50
   3  -5  -7   -0.50   10.50
   3   5   7   -0.40    8.80
   4  -5   7   23.00   13.20
   4   5  -7   53.69   14.10
  -4  -5  -7   49.20   16.80
  -4   5   7   42.80   14.80
   4   5  -7   55.79   16.70
  -4  -5   7   65.99   19.10
   4  -5  -7   21.10   14.70
   4   5   7   31.30   12.60
  -4   5  -7   57.19   17.70
   5  -5   7  117.39   24.20
  -5   5   7   96.39   23.60
   5   5  -7  108.79   20.20
  -5  -5  -7  117.59   22.40
   5   5  -7  106.59   22.30
   5   5   7   77.79   18.60
  -5   5  -7   73.89   21.40
  -5  -5   7  134.29   26.00
   5  -5  -7  105.69   25.50
   6  -5   7   14.30   17.90
  -6   5   7   18.00   16.40
   6   5  -7    2.30   12.60
  -6  -5  -7   11.20   13.50
   6   5  -7   -5.50   14.20
  -6   5  -7   21.00   16.10
  -6  -5   7   11.30   17.20
   6   5   7   27.30   14.20
   6  -5  -7  -13.90   14.60
   0  -6  -7   -6.50    9.00
   0  -6  -7   -8.60    7.80
   0  -6   7    8.70    9.70
   0   6  -7    9.10   11.40
   0   6   7   -7.70    9.10
   0  -6   7    0.80   10.40
  -1  -6  -7  156.88   22.70
   1   6  -7  124.89   22.30
  -1   6   7  199.18   25.00
   1  -6   7   96.79   20.00
  -1  -6  -7  116.09   19.50
   1  -6   7  147.59   19.40
   1  -6  -7  101.29   19.10
   1   6   7  132.69   22.40
  -1   6  -7  114.99   22.10
   1  -6  -7  176.38   23.40
  -1  -6   7  148.99   23.80
  -2   6   7  243.88   29.10
   2   6  -7  222.68   27.40
  -2  -6  -7  253.67   29.40
   2  -6   7  288.97   27.80
  -2  -6  -7  253.47   24.90
   2  -6   7  253.27   26.80
  -2  -6   7  193.88   27.60
   2  -6  -7  244.98   24.10
   2  -6  -7  238.38   28.70
   2   6   7  236.98   26.70
  -2   6  -7  261.67   28.60
   3   6  -7    3.80   10.70
   3   6  -7   -4.00    9.90
  -3  -6  -7   -5.40    8.90
  -3   6   7    4.30   12.50
   3  -6   7    3.10   11.40
   3  -6   7   11.60   12.60
   3   6   7    7.30   10.30
  -3   6  -7   14.90   12.40
   3  -6  -7   15.10   12.50
  -3  -6   7   10.00   13.40
  -4   6   7  186.28   32.00
   4   6  -7  149.19   26.40
  -4  -6  -7  231.48   28.70
   4  -6   7  169.98   28.40
   4   6  -7  216.08   23.90
  -4   6  -7  174.18   30.40
  -4  -6   7  181.28   28.20
   4  -6  -7  176.78   30.40
   4   6   7  179.48   25.20
  -5   6   7   63.39   22.80
  -5  -6  -7   73.69   20.50
   5   6  -7   87.09   22.50
   5  -6   7   72.39   22.20
   5   6  -7  112.89   21.60
   5   6   7   73.99   20.40
   5  -6  -7   85.09   26.10
  -5  -6   7   57.29   21.40
  -5   6  -7   73.19   23.30
   0   7  -7   -5.10   11.00
   0  -7   7   -3.60   10.10
   0  -7  -7  -10.10    9.00
   0  -7  -7    4.50   11.20
   0   7   7   -9.90   10.00
   1   7  -7  226.58   28.40
  -1   7   7  192.38   31.90
  -1  -7  -7  172.78   22.60
   1  -7   7  183.28   25.80
  -1  -7  -7  163.78   25.10
   1  -7   7  187.18   23.70
   1  -7  -7  186.98   26.10
  -1   7  -7  169.58   27.70
  -1  -7   7  185.38   27.40
   1  -7  -7  175.08   24.50
   1   7   7  178.78   26.30
  -2  -7  -7   71.79   20.70
   2  -7   7   95.09   20.30
   2   7  -7   51.99   19.20
  -2   7   7  129.19   26.10
   2  -7   7   82.79   19.90
  -2  -7  -7   85.69   19.20
  -2  -7   7   59.19   21.40
   2  -7  -7  108.09   23.50
  -2   7  -7  101.19   21.70
   2   7   7   92.69   22.50
   3  -7   7   21.80   14.30
   3   7  -7    4.60   12.80
  -3   7   7   -0.70   14.20
  -3  -7  -7    6.70   16.70
   3  -7  -7    4.70   13.70
  -3  -7   7   11.20   13.50
   3   7   7   30.70   15.30
  -3   7  -7    5.30   13.10
   4  -7   7  183.18   27.60
  -4   7   7  154.18   31.00
  -4  -7  -7  125.79   25.80
   4   7  -7  124.29   25.70
  -4  -7   7  232.38   34.20
  -4   7  -7  123.89   25.40
   4   7   7  179.98   26.90
   4  -7  -7  197.38   35.00
   0   8   7    2.60   12.10
   0  -8   7   -3.50   12.80
   0  -8  -7    0.10   12.90
   0  -8  -7    1.80   12.60
   0   8  -7    2.00   14.40
  -1  -8  -7   65.49   21.40
  -1   8   7  125.99   27.00
  -1  -8  -7  102.79   20.90
   1   8  -7  109.09   24.10
   1  -8   7  128.69   24.90
  -1   8  -7  129.69   25.90
  -1  -8   7  125.19   26.30
   1   8   7   70.09   22.30
   1  -8  -7  125.99   25.80
   1  -8  -7  110.49   22.40
   2   8  -7   76.79   21.40
  -2   8   7   50.19   22.40
   2  -8   7  102.19   23.10
   2  -8   7  104.29   21.80
  -2  -8  -7   90.19   25.00
   2   8   7   75.29   21.80
  -2   8  -7   38.60   19.10
  -2  -8   7   95.39   26.20
   2  -8  -7  112.39   25.70
  -3  -8  -7   -4.50   17.60
  -3   8   7   -4.90   17.00
   3   8  -7  -12.80   12.80
   3  -8   7   -4.70   12.00
   3  -8  -7    7.30   16.50
   3   8   7    5.80   11.80
  -3   8  -7  -15.50   12.40
  -3  -8   7   18.50   16.40
   0   0  -8 6951.50  270.87
   0   0   8 6955.20  267.77
   0   0  -8 6870.21  277.47
   0   0   8 6755.32  275.67
   1   0  -8    6.90    7.00
   1   0  -8    0.20    5.60
  -1   0  -8   -2.30    4.40
   1   0   8   -0.20    3.10
   1   0   8   -5.10    4.30
  -1   0  -8   -1.00    5.30
  -1   0   8    1.50    4.00
   1   0  -8   -0.60    5.50
   2   0  -8   86.59   13.70
   2   0  -8   66.39   13.40
   2   0   8   89.09   13.00
  -2   0  -8   71.49   12.10
   2   0  -8   62.39   11.60
  -2   0  -8   93.29   15.80
   2   0  -8   82.29   13.10
   2   0   8   72.39    8.00
   3   0   8    4.20    6.70
   3   0  -8   -9.20    6.00
   3   0  -8    0.60    5.80
  -3   0  -8    6.60    7.10
  -3   0  -8    0.70    5.90
   3   0  -8    1.50    6.40
   3   0  -8    2.30    6.80
  -4   0  -8   54.39   12.90
   4   0  -8   71.59   13.70
   4   0  -8   49.99   13.60
  -4   0  -8   41.60   12.60
   4   0   8   32.40   12.00
   4   0  -8   34.60   10.80
  -4   0   8   51.49   11.60
  -5   0  -8  -12.90    9.20
  -5   0  -8   -4.40    7.10
   5   0  -8  -14.20    8.30
   5   0   8    6.50    9.80
  -5   0   8   -4.50    9.10
   5   0  -8   -2.50   11.70
  -6   0   8 1627.64   86.39
  -6   0  -8 1710.13   86.79
   6   0  -8 1577.94   86.89
   6   0   8 1611.64   87.49
   7   0   8    4.80   13.10
  -7   0  -8    0.70   14.10
   7   0  -8   -8.00   14.10
  -7   0   8    0.60   12.20
   0   1   8  307.77   24.80
   0   1  -8  288.07   24.70
   0  -1   8  332.07   23.70
   0  -1  -8  351.46   26.20
   0  -1  -8  328.37   19.30
   0  -1   8  282.07   16.20
   0   1  -8  332.27   23.20
   0   1   8  330.87   21.10
   0  -1  -8  296.77   24.10
   1   1  -8  241.78   20.00
   1   1  -8  210.58   21.70
  -1   1   8  234.78   18.30
  -1  -1  -8  268.37   17.30
  -1  -1  -8  269.07   23.40
   1  -1   8  256.07   21.50
   1   1  -8  224.98   17.00
  -1  -1   8  245.68   19.70
   1  -1  -8  257.27   17.40
  -1   1  -8  258.67   20.20
   1   1   8  177.28   19.50
   1   1   8  240.58   17.00
   1  -1  -8  256.17   21.70
   1  -1  -8  250.07   21.50
  -1   1  -8  277.47   22.90
  -2  -1  -8   96.99   11.80
   2   1  -8   93.19   13.70
   2  -1   8   98.09   14.30
   2   1  -8  113.39   16.70
  -2  -1  -8  100.09   15.20
   2   1  -8   95.19   12.30
  -2   1  -8   87.09   13.30
   2   1   8   92.79   10.50
  -2   1  -8   78.79   12.90
   2   1   8   98.39   14.70
   2  -1  -8   90.09   13.70
   2  -1  -8   98.49   15.20
  -2  -1   8  113.99   13.50
   2  -1  -8  104.89   14.40
   2  -1  -8   85.79   11.70
  -3  -1  -8  469.05   30.00
   3   1  -8  440.66   34.10
   3  -1   8  439.76   34.60
   3   1  -8  515.55   31.70
   3   1  -8  553.14   31.50
   3   1  -8  474.75   33.20
  -3  -1  -8  460.75   33.80
   3  -1  -8  527.35   34.70
   3  -1  -8  442.96   32.90
   3   1   8  467.45   33.40
   3  -1  -8  522.45   31.30
  -3   1  -8  471.65   33.50
  -3   1  -8  502.95   33.70
   3   1   8  538.95   29.20
   3  -1  -8  487.35   32.30
  -4  -1  -8   75.89   15.90
   4   1  -8   60.39   12.40
  -4  -1  -8   94.49   15.10
  -4   1   8   70.79   13.80
   4   1  -8   72.09   15.80
   4   1  -8   58.79   15.00
   4  -1   8   50.79   14.60
   4   1   8   58.89   13.90
   4   1   8   56.09   11.00
  -4   1  -8   64.79   14.30
  -4   1  -8   62.49   15.40
   4  -1  -8   62.49   14.30
   4  -1  -8   86.49   13.70
   4  -1  -8   49.70   13.20
  -4  -1   8   72.49   15.40
   5  -1   8   51.09   16.40
  -5  -1  -8   75.29   16.80
  -5   1   8   93.99   17.40
   5   1  -8   75.29   17.60
  -5  -1  -8   46.80   14.60
   5   1  -8   68.09   17.20
  -5   1  -8   73.89   17.30
   5  -1  -8   68.29   15.90
  -5   1  -8   61.99   13.70
  -5  -1   8  100.49   18.30
   5   1   8   71.99   16.40
   5  -1  -8   74.89   16.80
   6   1  -8  157.28   25.20
  -6   1   8  175.88   23.30
   6  -1   8  141.49   24.70
  -6  -1  -8  142.09   23.40
  -6  -1   8  134.99   23.60
   6   1   8  152.78   23.10
   6  -1  -8  151.38   25.10
  -6   1  -8  182.98   26.60
   7   1  -8    7.80   15.70
  -7  -1  -8   -5.70   13.10
  -7   1   8   21.30   14.60
   7  -1   8   23.60   16.10
   7  -1  -8   55.99   20.10
   7   1   8   25.70   15.60
  -7   1  -8   18.60   16.80
  -7  -1   8   11.30   14.60
   0  -2  -8  169.68   18.30
   0  -2  -8  174.58   19.00
   0  -2   8  204.58   18.00
   0   2  -8  169.18   17.80
   0   2   8  166.78   15.90
   0   2  -8  179.08   19.10
   0  -2  -8  158.98   11.30
   1   2  -8   30.90    9.50
   1   2  -8   46.20   12.60
   1  -2   8   40.80   10.80
  -1  -2  -8   40.60    6.50
  -1  -2  -8   59.49   13.00
   1   2  -8   33.70    7.00
  -1   2   8   31.70    8.90
  -1   2  -8   42.70   10.70
   1  -2  -8   46.00    7.10
   1  -2  -8   33.00   10.70
   1  -2  -8   60.19   12.70
   1   2   8   39.90   10.70
  -1   2  -8   41.90   11.60
   1   2   8   49.90    9.80
  -1  -2   8   43.60    9.70
  -2  -2  -8   99.59   10.70
   2   2  -8   80.69   11.20
   2   2  -8   70.09   15.70
  -2  -2  -8   65.49   15.10
  -2   2   8   88.59   10.70
  -2   2   8   79.09   14.30
   2  -2   8   87.09   16.20
   2   2  -8  107.69   15.60
   2  -2  -8   87.29   14.00
   2  -2  -8  110.19   16.00
   2   2   8   84.39   11.90
  -2   2  -8  128.69   16.20
  -2  -2   8   88.29   11.00
   2   2   8  101.19   14.50
  -2   2  -8  108.49   15.60
  -3   2   8 3813.32  148.69
   3  -2   8 3520.55  157.48
   3   2  -8 3454.35  154.68
  -3  -2  -8 3484.15  146.69
   3   2  -8 3727.93  150.88
  -3  -2  -8 3682.53  157.38
  -3  -2   8 3450.15  156.08
   3   2   8 3355.86  153.68
  -3  -2   8 3664.93  146.89
   3  -2  -8 3731.63  151.18
  -3   2  -8 3756.92  153.78
   3  -2  -8 3387.06  155.78
   3  -2  -8 3442.96  155.48
   3   2   8 3845.12  150.08
  -3   2  -8 3493.05  155.68
  -4   2   8   30.70    9.60
   4  -2   8    6.00   10.90
  -4  -2  -8   39.00   11.80
   4   2  -8   19.30   11.10
   4   2  -8    9.40    9.60
  -4  -2  -8   -1.00    7.90
  -4  -2   8   37.80   13.00
   4   2   8   14.40   10.30
   4  -2  -8   20.50   12.50
  -4   2  -8   55.09   15.20
   4   2   8   17.90    8.60
  -4   2  -8   25.80   10.20
   4  -2  -8   24.00   11.50
   5   2  -8   52.59   16.20
   5  -2   8   36.60   15.50
  -5  -2  -8   70.69   16.90
  -5  -2  -8   40.50   13.70
   5   2  -8   40.50   13.20
  -5   2   8   24.40   10.30
  -5  -2   8   61.49   16.60
   5  -2  -8   50.29   14.10
  -5   2  -8   14.20   13.80
   5   2   8   43.20   13.40
   5  -2  -8   56.49   16.20
   5   2   8   56.29   12.90
   6  -2   8   30.40   16.50
   6   2  -8   51.29   17.10
  -6   2   8   42.90   13.90
  -6  -2  -8   39.30   14.70
   6  -2  -8   33.20   16.20
  -6  -2   8   26.30   14.50
   6  -2  -8   44.60   16.30
  -6   2  -8   35.70   16.70
   6   2   8   38.50   15.10
   0   3  -8  428.86   31.70
   0   3  -8  424.56   32.90
   0  -3  -8  389.96   31.10
   0  -3   8  472.45   29.80
   0  -3  -8  445.86   32.50
   0   3   8  437.36   30.30
   1   3  -8   68.19   14.90
  -1   3   8   53.09   12.40
   1  -3   8   65.89   14.10
   1   3  -8   36.20   10.70
  -1  -3  -8   72.89   14.40
  -1  -3  -8   28.80   10.40
   1   3   8   67.09   12.90
  -1   3  -8   83.79   15.40
   1  -3  -8   52.29   13.30
   1  -3  -8   46.90   12.10
  -1   3  -8   54.29   12.80
  -1  -3   8   61.49   11.00
   2  -3   8  263.37   25.20
   2   3  -8  269.97   19.80
  -2  -3  -8  212.88   23.70
  -2   3   8  233.48   23.50
   2   3  -8  216.78   23.70
   2  -3  -8  264.17   25.80
   2  -3  -8  250.77   22.10
   2   3   8  245.38   21.70
   2   3   8  263.17   24.00
  -2  -3   8  250.87   25.10
  -2   3  -8  240.48   23.00
  -2  -3   8  249.88   18.70
  -2   3  -8  231.98   23.60
  -3   3   8   53.39   14.50
  -3  -3  -8   19.10   11.30
   3   3  -8   10.50    9.60
   3   3  -8   16.70    9.10
   3  -3   8   24.10   11.30
  -3   3  -8   32.50   12.50
  -3   3  -8   27.20   10.30
   3   3   8   16.40    9.30
   3  -3  -8   42.60   11.20
   3   3   8   10.40    8.70
  -3  -3   8   25.50   11.60
   3  -3  -8   14.70   10.90
  -4  -3  -8  128.79   19.50
   4  -3   8   88.49   18.80
  -4   3   8  140.19   23.10
  -4   3   8   97.49   19.80
   4   3  -8  129.49   18.40
   4   3  -8   85.49   18.60
  -4  -3   8  103.89   20.60
   4  -3  -8  105.79   19.30
   4   3   8  120.39   17.80
  -4   3  -8  113.79   16.20
   4   3   8  137.99   17.80
  -4   3  -8  107.89   21.80
  -5  -3  -8   67.89   16.80
   5  -3   8   55.59   17.40
   5   3  -8   53.19   16.10
  -5   3   8   38.70   12.20
   5   3  -8    9.40   12.70
   5   3   8   55.29   15.10
   5  -3  -8   48.80   15.80
  -5  -3   8   41.90   15.50
   5   3   8   46.80   13.30
   5  -3  -8   22.20   13.70
  -5   3  -8   30.70   17.20
   6   3  -8  197.68   30.80
   6  -3   8  196.28   30.40
  -6  -3  -8  207.08   26.40
  -6   3   8  214.88   25.90
   6   3  -8  238.88   28.30
   6  -3  -8  185.48   28.70
  -6   3  -8  169.28   31.90
   6   3   8  253.07   25.70
   6  -3  -8  166.28   26.80
   0  -4   8 2551.64  107.89
   0  -4  -8 2508.05  112.79
   0  -4   8 2566.84  114.19
   0  -4  -8 2348.86  112.09
   0   4  -8 2261.17  112.09
   0   4   8 2279.57  111.09
   1  -4   8  182.18   19.80
   1   4  -8  165.68   21.80
  -1  -4  -8  117.99   16.80
  -1   4   8  135.99   18.60
  -1  -4  -8  135.39   20.10
  -1  -4   8  125.59   19.60
   1  -4  -8  129.49   18.60
  -1   4  -8  103.89   18.10
   1  -4  -8  138.99   18.40
   1   4   8  146.89   18.40
  -1  -4   8  150.88   16.20
  -1   4  -8  129.99   19.20
   2   4  -8   20.00   13.00
   2  -4   8   19.00   10.10
  -2   4   8    5.20    9.40
   2   4  -8   -4.90    8.60
  -2  -4  -8   20.80   11.50
  -2   4  -8    6.20    8.20
   2  -4  -8    9.10   10.40
   2  -4  -8   21.00    9.10
   2   4   8   14.40    9.00
  -2   4  -8   13.70    9.10
  -2  -4   8   16.60   10.90
   2   4   8   19.00   10.90
   3   4  -8  295.97   23.30
  -3  -4  -8  215.48   25.10
   3   4  -8  211.28   25.10
   3  -4   8  240.08   26.40
  -3   4   8  263.87   27.40
  -3   4  -8  243.08   27.70
   3   4   8  260.87   24.40
  -3   4  -8  221.58   22.40
   3   4   8  252.17   24.00
  -3  -4   8  227.48   27.80
   3  -4  -8  249.58   27.40
   4   4  -8   34.80   12.70
  -4  -4  -8   25.60   13.00
  -4   4   8   32.70   13.50
   4   4  -8   45.90   15.80
   4  -4   8   14.00   12.00
  -4   4  -8   38.90   16.30
   4  -4  -8   31.70   14.60
  -4  -4   8   26.70   13.70
   4   4   8   32.80   12.70
   4   4   8   37.60   12.40
  -5   4   8  149.39   26.00
   5   4  -8  162.18   27.20
  -5  -4  -8  194.78   24.80
   5   4  -8  193.78   24.10
   5  -4   8  157.28   27.50
  -5  -4   8  161.98   27.50
   5  -4  -8  140.59   26.40
  -5   4  -8  169.28   29.40
   5   4   8  154.68   21.20
   6   4  -8  551.04   44.30
   6   4  -8  556.74   49.10
  -6  -4  -8  573.74   45.80
  -6   4   8  505.05   46.50
   6  -4   8  592.64   51.49
   6  -4  -8  712.03   53.19
  -6  -4   8  743.73   53.09
  -6   4  -8  536.75   51.69
   6   4   8  602.64   43.20
   0  -5  -8   15.60   12.70
   0   5  -8   28.50   13.00
   0   5   8   41.10   13.60
   0  -5  -8   39.60   13.30
   0  -5   8   16.60   10.40
   0  -5   8   19.30   12.50
   1  -5   8  204.18   21.70
  -1   5   8  171.18   22.00
   1   5  -8  120.29   20.80
   1  -5   8  154.78   21.60
  -1  -5  -8  128.69   19.80
  -1  -5  -8  136.59   19.20
   1  -5  -8   94.09   18.80
   1  -5  -8  140.19   20.60
  -1   5  -8  125.79   21.90
   1   5   8  155.88   20.80
  -1  -5   8  154.68   22.90
  -2   5   8   57.79   17.20
   2   5  -8  112.79   20.50
   2  -5   8  100.99   19.10
  -2  -5  -8   99.09   20.20
   2  -5   8   89.09   17.30
  -2   5  -8  113.99   21.40
   2  -5  -8  110.99   16.40
   2  -5  -8   89.49   19.90
   2   5   8   95.19   18.30
  -2  -5   8   73.59   19.50
   2   5   8   74.49   16.70
  -3  -5  -8   68.79   17.60
   3  -5   8   69.79   18.00
   3   5  -8   99.49   20.50
  -3   5   8   92.99   20.40
   3  -5   8   68.79   15.70
   3   5   8   81.29   17.30
   3  -5  -8   80.79   19.80
  -3   5  -8   82.69   19.50
   3   5   8   65.29   16.20
  -3  -5   8   68.09   19.70
  -4  -5  -8   44.80   15.40
   4   5  -8   36.60   12.90
   4  -5   8   38.80   15.60
   4   5  -8   21.40   13.70
  -4   5   8   19.00   12.70
  -4   5  -8   13.80   15.40
   4  -5  -8   41.00   18.50
   4   5   8   13.30   10.90
  -4  -5   8   36.80   16.70
   4   5   8   48.20   21.40
   5  -5   8   50.09   20.20
  -5   5   8   46.60   17.40
  -5  -5  -8   63.59   18.50
   5   5  -8   67.69   20.40
   5   5  -8   76.49   18.50
  -5   5  -8   46.90   20.90
   5  -5  -8   31.70   19.80
  -5  -5   8   40.80   16.90
   5   5   8   63.89   18.20
   0   6   8  269.57   29.60
   0  -6   8  309.67   31.80
   0  -6  -8  285.17   29.40
   0   6  -8  186.28   26.50
   0  -6  -8  266.57   28.50
   1   6  -8   38.20   15.50
   1  -6   8   44.40   14.10
  -1  -6  -8   48.70   16.90
   1  -6   8   21.90   13.20
  -1   6   8   50.19   15.90
  -1  -6  -8   50.39   15.30
  -1   6  -8   64.49   17.10
  -1  -6   8   59.19   18.60
   1   6   8   48.50   15.00
   1  -6  -8   55.89   16.00
   1  -6  -8   86.09   19.50
   2  -6   8  196.18   24.40
  -2  -6  -8  152.78   24.00
  -2   6   8  165.98   25.50
   2   6  -8  171.08   27.40
   2  -6   8  182.88   24.40
   2   6   8  180.68   24.50
  -2  -6   8  170.48   29.80
   2  -6  -8  159.38   22.40
   2   6   8  198.68   23.80
  -2   6  -8  170.18   24.90
   2  -6  -8  183.88   25.60
   3   6  -8  437.26   40.70
   3  -6   8  540.95   39.20
   3  -6   8  530.45   42.20
  -3  -6  -8  419.76   39.50
  -3   6   8  485.15   43.30
   3   6   8  486.35   36.90
   3  -6  -8  416.26   41.30
  -3  -6   8  409.16   41.60
   3   6   8  522.35   41.30
  -3   6  -8  460.65   41.10
   4  -6   8   68.29   20.10
   4   6  -8   50.89   17.60
  -4  -6  -8   38.30   15.90
  -4   6   8   67.09   20.30
   4   6   8   62.39   17.90
  -4  -6   8   82.79   22.90
   4  -6  -8   56.19   22.10
  -4   6  -8   36.00   17.60
  -5  -6  -8  -18.50   11.60
   5   6  -8    0.80   21.70
   5  -6   8    8.20   15.10
  -5   6   8    3.20   12.60
   5   6  -8    8.40   13.60
  -5   6  -8    4.30   14.40
   5  -6  -8   14.60   20.10
  -5  -6   8   10.70   15.90
   5   6   8   -5.80   10.40
   0  -7  -8   -5.20   10.30
   0  -7  -8   -7.40   12.10
   0   7   8   -6.30   10.90
   0   7  -8    7.30   12.50
   0  -7   8    1.70   14.20
   1   7  -8   54.39   17.60
  -1  -7  -8   55.79   18.40
  -1   7   8   40.40   16.90
   1  -7   8   28.10   16.10
  -1  -7  -8   39.70   15.20
  -1  -7   8   59.09   18.90
   1  -7  -8   61.99   17.60
  -1   7  -8   80.49   20.60
   1   7   8   58.69   18.80
   1  -7  -8   73.19   19.60
  -2   7   8   43.30   17.80
   2  -7   8   16.60   13.40
   2  -7   8   30.10   16.50
  -2  -7  -8   33.80   17.60
   2   7  -8   44.80   18.30
  -2  -7  -8   53.99   16.00
  -2  -7   8   82.99   24.90
  -2   7  -8   16.90   14.20
   2   7   8   32.30   15.50
   2  -7  -8   30.50   15.90
   3   7  -8    4.70   14.00
  -3  -7  -8   44.00   18.90
  -3   7   8   44.70   19.00
   3  -7   8   49.00   17.60
  -3   7  -8   27.10   16.00
   3   7   8   34.70   17.10
   3  -7  -8   28.20   17.80
  -3  -7   8   12.40   15.70
  -4  -7  -8   35.70   18.90
   4   7  -8   17.90   15.30
   4  -7   8   25.80   17.00
  -4   7   8   -5.30   15.30
   4   7   8   22.20   14.10
  -4  -7   8   14.60   15.80
   4  -7  -8   23.30   17.30
  -4   7  -8   18.80   17.20
   0  -8  -8  108.79   24.00
   0  -8  -8   58.79   20.40
   0   8   8   90.89   24.10
   0   8  -8  110.29   26.20
   0  -8   8   80.39   24.30
  -1  -8  -8   55.49   17.70
   1  -8   8   69.49   21.60
   1   8  -8   57.89   20.20
  -1  -8  -8   50.09   21.10
  -1   8   8   96.69   24.90
   1   8   8   36.60   17.60
   1  -8  -8   33.40   18.90
  -1   8  -8   42.50   19.60
   1  -8  -8   76.99   21.60
  -1  -8   8   55.99   23.00
  -2  -8  -8   52.39   22.00
  -2   8   8   32.50   18.00
   2  -8   8   36.90   18.40
   2   8  -8   50.49   21.60
  -2   8  -8   40.80   19.70
   2   8   8   45.90   18.30
   2  -8  -8   65.79   22.30
  -2  -8   8   41.00   22.50
   0   0  -9    3.30    6.10
   0   0   9    6.70    6.50
   0   0  -9   -3.00    5.40
   0   0   9    2.90    3.60
  -1   0   9   -3.30    5.70
  -1   0  -9   -9.50    5.40
   1   0  -9   -2.20    7.00
   1   0  -9   -6.70    4.70
  -1   0   9   -1.20    4.30
   1   0   9   -3.20    5.10
  -1   0  -9   -3.10    5.70
   2   0   9  261.27   24.10
   2   0  -9  225.98   23.50
  -2   0  -9  237.18   20.50
  -2   0  -9  223.68   23.10
   2   0  -9  251.57   20.90
   2   0  -9  248.98   20.70
   2   0  -9  238.98   22.20
   3   0  -9   14.20    8.70
   3   0  -9    5.00    7.50
  -3   0  -9   -8.40    6.70
   3   0  -9   -2.70    7.00
  -3   0  -9   -0.90    8.20
   3   0   9    0.90    6.90
   3   0  -9    8.20    8.20
   4   0   9   24.10   12.00
   4   0  -9   62.39   14.60
  -4   0  -9   44.20   13.40
  -4   0  -9   62.29   14.20
  -4   0   9   47.30   12.30
   4   0  -9   77.09   15.80
   4   0  -9   50.39   14.10
  -5   0   9   -4.10    8.60
   5   0   9   11.30   10.70
  -5   0  -9  -16.50    8.90
  -5   0  -9   -5.80    9.20
   5   0  -9    6.60   10.40
   6   0   9   91.19   20.90
   6   0  -9  109.49   23.20
  -6   0  -9  107.29   21.90
  -6   0   9   49.30   16.10
   0  -1  -9    0.50    4.50
   0   1   9   -2.30    4.60
   0  -1   9   -5.00    4.90
   0   1   9   -1.20    5.90
   0  -1  -9    3.90    7.40
   0   1  -9   -1.40    5.80
   0   1  -9    2.60    6.20
  -1   1   9  455.05   27.80
   1   1  -9  425.76   28.80
   1   1  -9  427.26   32.30
   1  -1   9  393.56   29.60
  -1  -1  -9  414.26   31.40
  -1  -1  -9  392.66   24.70
   1  -1  -9  443.16   31.70
  -1   1  -9  449.76   29.00
   1   1   9  417.46   30.80
  -1  -1   9  381.26   27.90
   1  -1  -9  455.85   25.90
  -1   1  -9  384.06   30.30
   1  -1  -9  471.05   31.90
   1   1   9  401.36   24.70
   2  -1   9   32.30   10.70
   2   1  -9   46.00   13.30
  -2   1   9   54.79   11.80
  -2  -1  -9   58.59   14.10
  -2  -1  -9   45.40    9.70
   2   1  -9   49.60   11.50
   2   1  -9   52.09   10.90
   2   1   9   56.29   13.50
   2  -1  -9   45.10   11.90
   2  -1  -9   85.79   12.30
  -2   1  -9   68.69   13.00
  -2  -1   9   66.89   12.80
   2  -1  -9   58.39   13.50
   2   1   9   43.30    8.70
  -2   1  -9   50.59   12.70
   3   1  -9   20.60    9.20
   3   1  -9   34.60   12.50
   3  -1   9   11.80    9.70
  -3  -1  -9   31.30   10.00
   3   1  -9   39.80   11.90
  -3  -1  -9    8.10    9.10
   3   1  -9   29.30    9.90
  -3   1  -9   12.50    9.10
   3   1   9   27.80   10.90
   3  -1  -9   35.10   12.10
  -3   1  -9   30.30   10.10
   3  -1  -9   24.20    9.90
   3  -1  -9   34.80    9.80
   3  -1  -9   12.10    9.60
  -4   1   9  106.39   16.10
   4   1  -9  114.19   19.10
  -4  -1  -9  116.29   17.00
   4   1  -9  137.89   19.00
   4  -1   9   77.29   18.50
  -4  -1  -9   87.49   17.30
  -4   1  -9  102.79   19.70
  -4   1  -9  102.99   16.40
   4  -1  -9  102.29   17.40
   4   1   9   82.29   17.20
   4  -1  -9  123.99   20.40
  -4  -1   9   96.69   17.60
   4  -1  -9  122.69   19.90
  -5   1   9  124.29   20.40
   5   1  -9  100.79   20.10
   5   1  -9   70.19   16.30
  -5  -1  -9  120.79   21.30
  -5  -1  -9  136.49   21.00
   5  -1   9  104.59   21.60
   5   1   9   63.09   18.40
   5  -1  -9   61.59   16.10
  -5   1  -9  117.69   21.70
   5  -1  -9  127.29   21.70
  -5   1  -9  101.69   16.00
  -6  -1  -9   69.49   19.80
  -6  -1  -9   38.50   16.20
  -6   1   9   26.30   13.00
   6  -1   9   32.10   16.50
   6   1  -9   31.80   15.90
   6   1   9   47.30   16.00
  -6   1  -9    8.30   14.50
  -6  -1   9   31.20   16.10
   6  -1  -9   11.30   13.30
   0   2   9   -1.90    5.50
   0   2  -9    1.50    7.20
   0  -2   9    3.50    6.20
   0  -2  -9   -9.40    5.50
   0   2  -9   -2.50    6.10
   0  -2  -9    8.90    7.60
   1  -2   9   78.99   14.10
   1   2  -9   79.59   14.70
  -1   2   9   97.09   14.00
   1   2  -9  145.49   19.50
  -1  -2  -9  119.39   17.40
  -1   2  -9   53.39   13.10
   1   2   9   78.59   11.90
   1  -2  -9   90.79   16.60
   1   2   9   76.69   15.10
  -1   2  -9  100.69   14.80
  -1  -2   9   92.39   12.90
   1  -2  -9  138.39   18.00
  -2  -2  -9  103.69   17.10
   2   2  -9   92.79   17.00
   2   2  -9  154.18   15.30
   2  -2   9  132.49   17.90
  -2   2   9  149.49   17.70
   2   2  -9  129.19   19.60
   2   2   9  112.39   16.80
   2  -2  -9  159.98   18.20
  -2   2  -9  136.79   17.60
   2   2   9  103.09   13.80
  -2  -2   9  112.49   13.60
  -2   2  -9  119.39   17.50
   2  -2  -9  118.89   18.40
  -3   2   9   42.10   10.30
   3   2  -9   78.99   13.40
  -3  -2  -9   72.89   16.30
   3  -2   9   42.40   14.60
  -3   2   9   76.69   15.50
   3   2  -9   40.50   13.60
  -3   2  -9   50.99   14.60
  -3   2  -9   32.50   11.20
  -3  -2   9   40.00   13.10
   3  -2  -9   63.49   13.20
   3  -2  -9   43.10   13.50
  -3  -2   9   39.60   10.00
   3   2   9   53.19   11.00
   3   2   9   38.00   12.00
   4   2  -9  120.09   20.60
   4   2  -9  139.19   18.40
  -4   2   9  111.19   16.10
  -4  -2  -9  191.88   22.90
   4  -2   9  150.68   22.40
  -4  -2   9  133.09   20.40
  -4   2  -9  118.49   17.80
   4  -2  -9  110.09   20.10
   4   2   9  104.29   15.10
   4   2   9  123.89   21.00
  -4   2  -9   96.29   19.60
   4  -2  -9  116.19   21.30
   5   2  -9  118.89   21.60
  -5   2   9   84.79   16.30
   5  -2   9   92.69   21.70
  -5  -2  -9  130.09   20.50
   5   2  -9  118.39   21.80
   5   2   9  130.09   22.10
   5  -2  -9  138.19   21.70
   5  -2  -9   98.19   21.00
  -5   2  -9  105.79   23.40
  -5  -2   9   89.99   19.70
   6   2  -9    5.50   12.70
  -6  -2  -9    6.40   12.70
  -6   2   9    2.80   10.80
   6  -2   9   -2.20   13.50
   6  -2  -9  -13.50   11.20
   6   2   9   -2.10   11.50
  -6  -2   9   -1.20   12.80
   6  -2  -9   15.00   16.10
  -6   2  -9    6.90   14.80
   0  -3  -9   -3.90    6.40
   0  -3   9   10.80    8.30
   0   3  -9    9.70    9.10
   0   3  -9    9.20    8.70
   0   3   9   -3.40    6.00
   0  -3  -9    1.10    8.50
   1   3  -9    5.30    8.60
  -1   3   9   23.70   10.00
   1   3  -9    9.00    9.40
   1  -3   9   24.20   10.30
  -1  -3  -9   12.50   10.40
  -1   3  -9    6.70    9.10
  -1   3  -9   18.20    9.80
   1  -3  -9    8.60    9.60
   1   3   9   10.20    7.20
   1  -3  -9    4.90    8.70
  -1  -3   9    6.40    7.40
   1   3   9    8.80    9.30
   2   3  -9  323.07   29.50
   2  -3   9  324.87   28.80
  -2  -3  -9  366.16   30.90
  -2   3   9  366.36   29.70
  -2  -3   9  322.87   29.40
   2  -3  -9  319.87   29.50
  -2   3  -9  324.17   29.10
   2   3   9  393.46   30.80
  -2  -3   9  351.76   24.00
   2   3   9  330.17   26.30
   2  -3  -9  292.77   26.40
  -2   3  -9  309.27   27.70
   3   3  -9   34.60    9.80
  -3  -3  -9   23.80   12.00
  -3   3   9   18.90   10.70
   3   3  -9   17.70   11.40
   3  -3   9   27.50   12.00
  -3   3  -9   11.50   11.10
  -3  -3   9   14.70    9.90
   3   3   9   20.60    9.00
   3  -3  -9   22.10   10.10
   3  -3  -9    8.00   10.80
  -3   3  -9   19.60   10.00
   3   3   9   21.10   10.50
   4   3  -9  386.56   35.20
  -4   3   9  399.36   35.70
   4   3  -9  456.85   32.90
  -4  -3  -9  434.06   35.90
   4  -3   9  366.36   35.90
  -4  -3   9  397.56   37.20
   4   3   9  453.75   32.70
   4   3   9  440.86   34.30
  -4   3  -9  453.55   32.30
  -4   3  -9  409.56   37.80
   4  -3  -9  385.36   35.40
  -5  -3  -9   32.60   13.90
   5   3  -9   74.09   19.00
   5  -3   9   31.10   17.20
  -5   3   9   49.40   16.90
   5   3  -9   97.19   20.00
   5   3   9   74.19   16.50
   5  -3  -9   73.59   19.30
  -5   3  -9   54.49   20.20
  -5  -3   9   16.80   13.80
   5   3   9   75.69   16.90
   6  -3   9   13.60   17.30
  -6  -3  -9   30.00   15.50
   6   3  -9   29.90   16.10
   6   3  -9   21.00   16.90
   6  -3  -9   16.60   16.70
   6  -3  -9   21.10   16.30
  -6   3  -9   28.00   19.70
   0   4   9    4.20    8.30
   0   4  -9    3.50    9.40
   0  -4   9    9.20    8.50
   0  -4   9   -3.40    7.80
   0  -4  -9    6.60    9.70
   0  -4  -9    9.20    9.30
  -1   4   9  349.67   30.90
   1  -4   9  412.76   31.40
  -1  -4  -9  335.07   30.70
  -1  -4  -9  412.36   34.30
   1   4  -9  383.46   33.00
  -1   4  -9  414.96   34.30
   1   4   9  350.66   29.90
   1  -4  -9  403.76   31.20
   1  -4  -9  402.76   33.70
  -1   4  -9  373.36   33.00
  -1  -4   9  355.46   32.70
  -1  -4   9  406.16   28.50
  -2  -4  -9   59.49   16.80
   2   4  -9   83.59   18.70
   2  -4   9   49.00   15.60
  -2   4   9   88.79   18.20
   2  -4  -9   98.09   15.70
   2   4   9   63.69   14.90
  -2  -4   9   50.49   15.30
  -2   4  -9   57.49   14.50
   2   4   9   58.29   13.90
   2  -4  -9   41.90   14.80
  -2   4  -9   64.09   16.10
  -3  -4  -9   17.30   11.70
   3   4  -9   13.00   11.20
  -3   4   9    9.70   10.20
   3  -4   9    7.80   10.40
  -3  -4   9    5.10   11.20
   3   4   9   15.00   10.60
  -3   4  -9   18.20   10.10
  -3   4  -9    3.30   11.30
   3  -4  -9    2.60   11.10
   3   4   9    3.30    8.20
   4  -4   9   -2.10   10.10
  -4  -4  -9    7.60   12.10
   4   4  -9    6.30   10.70
   4   4  -9   12.00   13.40
  -4   4   9   16.50   12.60
   4   4   9    4.90    8.50
   4   4   9   -4.70   10.10
  -4  -4   9    4.30   12.80
  -4   4  -9    9.60   14.40
   4  -4  -9  -17.10    9.70
  -4   4  -9   13.30   16.60
   5  -4   9  130.59   27.20
   5   4  -9  182.48   24.80
  -5  -4  -9  177.98   25.40
   5   4  -9  152.88   26.90
  -5   4   9  137.09   26.70
   5   4   9  147.79   21.20
   5  -4  -9  169.88   28.80
  -5   4  -9  173.28   31.00
   5   4   9  166.88   35.50
  -5  -4   9  157.08   27.90
   0  -5   9   -2.00    9.40
   0  -5  -9    9.60   10.80
   0   5  -9  -12.90    9.60
   0  -5  -9   -1.00   10.60
   0  -5   9   -2.40    8.00
   0   5   9   -0.80    8.10
  -1  -5  -9  309.37   31.30
   1   5  -9  304.07   31.30
  -1  -5  -9  293.27   28.50
  -1   5   9  319.27   31.20
   1  -5   9  313.67   28.30
   1  -5   9  326.47   30.40
   1  -5  -9  316.77   29.20
  -1   5  -9  286.37   31.10
   1  -5  -9  218.68   27.40
  -1  -5   9  302.17   31.80
   1   5   9  317.37   29.50
  -2  -5  -9  159.58   23.70
  -2   5   9  147.99   23.00
   2  -5   9  232.38   25.60
   2   5  -9  127.99   23.80
   2  -5   9  206.18   24.30
  -2   5  -9  167.48   25.10
   2   5   9  186.78   24.30
   2   5   9  195.98   23.70
  -2  -5   9  151.58   27.20
   2  -5  -9  220.58   27.70
   2  -5  -9  190.48   21.90
   3  -5   9   15.70   11.80
   3  -5   9   13.90   11.60
  -3   5   9   -1.10   10.60
  -3  -5  -9   15.50   11.30
   3   5  -9    8.10   13.60
   3  -5  -9   15.00   14.40
  -3  -5   9  -11.80   13.20
   3   5   9   29.80   12.00
   3   5   9    6.50   11.10
  -3   5  -9    9.90   12.90
   4   5  -9   48.20   18.80
  -4   5   9   34.40   15.60
  -4  -5  -9   91.19   20.60
   4  -5   9   65.29   19.60
   4   5   9   94.79   19.60
   4  -5  -9   82.79   23.40
  -4  -5   9  107.69   23.60
  -4   5  -9  106.89   24.80
   4   5   9   58.29   16.40
   5   5  -9   99.89   23.60
   5  -5   9   61.59   20.00
  -5   5   9   81.39   21.50
  -5  -5  -9   83.09   21.00
   5   5   9   54.39   16.90
  -5   5  -9  100.79   26.70
  -5  -5   9   99.89   24.60
   5  -5  -9   83.09   25.20
   0   6   9  -10.70    9.70
   0  -6  -9  -15.20    9.50
   0   6  -9   -4.90   10.80
   0  -6   9    4.40   11.50
   0  -6  -9   -2.90   10.20
  -1   6   9   50.89   16.90
   1  -6   9  102.89   19.60
   1  -6   9   49.40   16.80
   1   6  -9   75.79   18.90
  -1  -6  -9   99.09   21.20
  -1  -6  -9   85.69   18.30
  -1  -6   9  106.69   24.50
   1   6   9   95.89   20.00
   1  -6  -9   85.19   20.80
   1  -6  -9  108.69   21.10
  -1   6  -9  113.89   22.20
   2   6  -9  245.98   31.00
   2  -6   9  303.27   30.10
  -2  -6  -9  244.68   31.00
  -2   6   9  279.17   31.90
   2  -6   9  290.67   30.00
   2   6   9  282.57   29.30
  -2   6  -9  259.97   30.10
  -2  -6   9  240.98   33.60
   2   6   9  237.08   28.50
   2  -6  -9  229.08   30.10
   3   6  -9   29.10   15.30
   3  -6   9    4.50   12.60
  -3   6   9   13.00   14.20
  -3  -6  -9   -7.00   13.50
   3  -6   9   26.70   14.40
   3   6   9    7.70   11.20
   3   6   9    0.00   11.60
   3  -6  -9   43.40   17.20
  -3   6  -9   -9.30   11.20
  -3  -6   9   15.30   14.80
  -4   6   9  271.67   34.00
   4   6  -9  233.78   30.80
   4  -6   9  214.88   30.90
  -4  -6  -9  210.68   30.20
  -4  -6   9  269.27   36.30
   4  -6  -9  227.88   35.20
  -4   6  -9  210.18   33.80
   4   6   9  195.88   26.70
   0   7  -9   -4.50   11.70
   0  -7   9  -15.10   14.50
   0  -7  -9   -9.10   11.90
   0   7   9   -2.70   11.10
   0  -7  -9    0.80   11.20
   1   7  -9  200.38   29.70
  -1   7   9  208.88   29.80
  -1  -7  -9  203.98   30.00
  -1  -7  -9  210.08   26.30
   1  -7   9  220.68   31.30
   1  -7  -9  247.58   28.70
   1  -7  -9  209.28   29.70
   1   7   9  155.98   27.80
  -1  -7   9  240.88   34.20
  -1   7  -9  216.08   29.70
   2  -7   9   84.59   20.70
   2   7  -9   90.49   23.80
  -2   7   9   97.89   24.10
  -2  -7  -9   31.70   17.90
   2  -7   9   60.09   21.00
  -2   7  -9   78.49   22.50
   2  -7  -9   71.49   23.40
  -2  -7   9   94.69   26.40
   2   7   9   78.89   21.60
   2   7   9   58.79   18.20
  -3  -7  -9   15.30   17.50
   3   7  -9   -6.40   14.60
  -3   7   9    7.20   14.80
   3  -7   9   -1.00   11.70
  -3  -7   9    3.90   16.00
   3   7   9   15.60   13.60
  -3   7  -9    2.30   13.90
   3  -7  -9   -7.60   13.00
   0  -8  -9   25.40   16.10
   0   8   9    3.90   13.70
   0  -8  -9   10.70   16.20
   0  -8   9   -8.20   15.60
   0   8  -9   -6.50   13.00
   0   0 -10 1280.37   69.99
   0   0 -10 1413.46   64.69
   0   0  10 1368.66   69.99
   1   0 -10    2.70    6.70
  -1   0 -10   -8.60    6.30
   1   0 -10   -6.20    6.50
  -1   0  10    2.40    4.80
   1   0  10   -5.90    5.90
  -1   0  10   -4.20    7.00
  -1   0 -10    3.20    6.60
   2   0 -10  706.43   47.10
  -2   0 -10  859.01   50.19
  -2   0 -10  731.03   42.00
   2   0  10  722.63   46.90
   2   0 -10  738.03   46.00
   2   0 -10  855.81   44.40
   3   0 -10   -1.90    7.40
   3   0 -10    6.80    9.10
   3   0 -10    8.70    8.90
  -3   0 -10    2.20    7.20
   3   0  10  -13.20    7.70
   3   0 -10   -2.60    8.40
  -3   0 -10   -5.70    7.60
   4   0  10  391.86   35.40
  -4   0 -10  406.66   33.40
  -4   0 -10  496.25   37.20
   4   0 -10  432.16   33.40
   4   0 -10  495.55   35.20
   4   0 -10  373.56   32.20
   4   0 -10  424.46   34.70
  -5   0 -10    0.90    9.70
  -5   0  10    3.00   10.40
  -5   0 -10    3.20   12.30
   5   0  10   -9.40   10.00
   5   0 -10  -14.00    8.10
   6   0 -10  450.25   40.50
  -6   0 -10  515.95   42.50
   6   0  10  483.35   43.50
  -6   0  10  533.55   42.50
   0  -1 -10  645.04   44.20
   0   1  10  688.63   44.50
   0   1  10  738.03   38.30
   0  -1 -10  725.53   36.80
   0   1 -10  714.73   40.90
   0   1 -10  638.34   44.40
   0  -1  10  679.63   42.10
  -1   1  10   83.19   13.10
  -1  -1 -10   76.99   11.70
  -1  -1 -10   77.69   16.90
   1   1 -10   76.29   14.40
   1  -1  10   49.50   13.00
   1   1 -10   80.79   17.60
   1  -1 -10   93.99   12.50
   1  -1 -10   91.49   17.00
   1   1  10  101.59   17.50
  -1  -1  10   74.49   14.60
   1  -1 -10   52.59   13.40
  -1   1 -10   79.19   14.30
  -1   1 -10   64.49   15.10
   1   1  10   77.19   14.80
   2  -1  10    7.20    8.70
   2   1 -10   31.30   10.00
  -2   1  10    8.80    7.70
  -2  -1 -10   35.40   11.40
   2   1 -10   21.70   11.90
  -2  -1 -10   27.80    8.90
   2   1 -10   31.00   10.40
   2  -1 -10   38.40    9.60
  -2   1 -10   11.70    9.30
   2   1  10   28.60   11.50
   2  -1 -10   11.60    9.20
  -2   1 -10   22.10    9.20
   2  -1 -10    9.70    9.20
  -2  -1  10   20.70    9.20
   3  -1  10  857.41   55.09
  -3  -1 -10 1023.30   57.79
  -3  -1 -10  866.11   49.90
   3   1 -10  966.70   53.59
   3   1 -10  944.11   50.99
   3   1 -10  923.01   55.99
   3  -1 -10 1007.80   54.69
  -3   1 -10 1023.50   55.99
  -3  -1  10  971.80   51.59
   3  -1 -10 1030.00   56.49
   3   1  10  862.51   54.69
   3  -1 -10  772.42   51.49
  -3   1 -10  885.41   52.49
   3  -1 -10  952.60   49.99
   4   1 -10   20.40   12.20
   4  -1  10   16.80   14.00
  -4   1  10   24.80   11.80
  -4  -1 -10   22.50   11.40
   4   1 -10   49.20   14.30
  -4  -1  10   21.50   10.80
   4  -1 -10   14.90   11.20
   4  -1 -10    6.20   10.20
   4   1  10   17.00   10.30
  -4   1 -10   14.40   11.90
  -4   1 -10   16.80    9.90
  -5  -1 -10  102.79   19.50
  -5   1  10  113.79   19.90
   5   1 -10   75.49   18.10
   5   1 -10   89.59   18.80
   5  -1  10   49.40   17.40
  -5   1 -10   74.69   20.10
   5  -1 -10   50.99   16.20
   5  -1 -10   69.49   19.50
   5   1  10   80.19   19.90
  -5   1 -10   74.19   17.40
   6  -1  10  259.27   33.30
  -6  -1 -10  261.67   32.90
  -6   1  10  209.78   26.50
   6   1 -10  202.98   28.40
  -6   1 -10  297.27   33.70
  -6  -1  10  211.98   29.20
   6   1  10  210.38   28.60
   6  -1 -10  200.08   28.80
   0   2  10   69.39   13.10
   0  -2 -10   79.99   17.10
   0  -2 -10   89.09   17.60
   0   2 -10  112.59   17.60
   0   2 -10   88.49   16.30
   0  -2  10   83.79   15.30
   1   2 -10  670.53   42.00
   1   2 -10  629.34   45.20
  -1   2  10  589.34   38.80
   1  -2  10  673.33   42.00
  -1  -2 -10  679.63   45.60
   1   2  10  680.93   38.60
   1   2  10  702.33   45.50
  -1  -2  10  697.63   40.30
  -1   2 -10  629.64   44.40
   1  -2 -10  647.34   43.50
   1  -2 -10  707.83   44.40
  -1   2 -10  665.53   42.20
   2   2 -10   54.79   14.00
  -2   2  10   45.90   11.60
   2   2 -10   75.09   17.20
   2  -2  10   35.00   11.90
  -2  -2 -10   61.19   15.70
   2   2  10   40.70   12.50
  -2  -2  10   25.10    9.20
   2  -2 -10   29.50   12.00
   2   2  10   58.39   11.70
  -2   2 -10   59.09   14.10
  -2   2 -10   41.40   13.20
   2  -2 -10   49.60   12.40
  -3  -2 -10  808.12   51.09
  -3   2  10  751.42   47.20
   3   2 -10  730.73   47.00
   3  -2  10  718.63   49.60
   3   2 -10  711.93   42.60
  -3   2 -10  806.12   48.30
  -3  -2  10  660.43   46.40
  -3   2 -10  706.03   47.30
   3   2  10  800.22   49.40
   3  -2 -10  756.72   46.10
   3  -2 -10  773.22   49.70
   4   2 -10   12.30   11.00
   4   2 -10    1.20   10.20
  -4   2  10   10.60    9.60
  -4  -2 -10   25.30   13.00
   4  -2  10   19.20   12.70
  -4   2 -10   35.80   14.10
   4   2  10    0.90   11.00
  -4  -2  10   17.50   11.40
   4  -2 -10   12.70   10.70
  -4   2 -10   19.60   11.00
  -5  -2 -10  307.87   31.00
   5   2 -10  297.77   29.30
   5   2 -10  283.67   31.30
   5  -2  10  220.08   31.00
   5  -2 -10  265.27   29.60
   5  -2 -10  265.37   29.50
  -5  -2  10  217.08   28.50
   5   2  10  202.68   27.10
  -5   2 -10  230.38   31.10
  -6  -2 -10   55.09   18.70
   6   2 -10   58.29   19.80
   6  -2  10   51.59   20.60
   6   2  10   48.90   16.70
  -6  -2  10   27.90   17.20
  -6   2 -10   38.90   20.40
   6  -2 -10   32.20   17.20
   6  -2 -10   40.10   19.40
   0   3 -10 1076.49   62.49
   0  -3 -10 1130.99   64.49
   0   3  10 1189.88   61.79
   0   3 -10 1055.09   64.39
   0  -3 -10 1146.49   64.39
   0  -3  10 1223.68   60.49
   1   3 -10   16.40   11.00
   1  -3  10   16.20   10.50
  -1   3  10  -10.70    6.20
   1   3 -10    7.10   10.00
  -1  -3 -10   -2.80    9.00
   1  -3 -10   -0.50    7.90
   1  -3 -10   14.10   10.00
  -1   3 -10   13.60   10.80
   1   3  10   10.80   10.40
   1   3  10    6.50    7.60
  -1   3 -10    9.70   10.80
  -1  -3  10    8.60    8.70
   2   3 -10  117.29   20.80
  -2   3  10  175.58   21.00
  -2  -3 -10  147.79   22.70
   2  -3  10  150.58   21.60
   2   3  10  147.89   18.30
  -2  -3  10  166.78   20.30
  -2   3 -10  156.88   20.90
  -2   3 -10  130.49   21.90
  -2  -3  10  160.88   21.30
   2  -3 -10  180.98   21.20
   2   3  10  158.38   21.30
   2  -3 -10  166.18   23.10
  -3  -3 -10   81.59   19.00
   3  -3  10   84.19   18.50
  -3   3  10   74.09   16.90
   3   3 -10   76.49   17.60
   3  -3 -10   69.09   15.40
  -3   3 -10  120.09   22.00
   3   3  10  114.19   18.20
  -3  -3  10  119.69   21.80
   3   3  10   94.19   19.20
  -3   3 -10  109.99   17.00
   3  -3 -10   77.29   18.80
   4   3 -10   42.50   15.80
  -4  -3 -10   30.10   14.60
   4  -3  10   29.90   15.40
   4   3 -10   20.40   13.10
  -4   3  10   54.19   16.20
   4   3  10   33.80   14.30
   4  -3 -10   29.00   13.40
  -4   3 -10   40.90   13.30
  -4   3 -10   23.60   14.70
  -4  -3  10   49.40   17.00
  -5   3  10   -9.50    9.10
   5  -3  10    9.40   14.90
   5   3 -10    5.10   12.90
   5   3 -10    8.70   13.60
  -5  -3 -10  -10.40    9.80
  -5   3 -10    0.00   13.60
   5  -3 -10    1.50   13.00
   5   3  10    7.20   11.70
  -5  -3  10   -8.60   13.20
   0  -4 -10  359.76   31.90
   0  -4  10  314.97   31.50
   0  -4 -10  371.96   32.60
   0   4 -10  380.56   33.50
   0  -4  10  364.16   29.00
   0   4  10  351.46   30.70
  -1  -4 -10  115.19   21.30
  -1   4  10   65.99   15.80
  -1  -4 -10  104.59   20.20
   1  -4  10   80.89   17.80
   1   4 -10   66.39   17.60
   1  -4 -10   88.39   17.90
  -1   4 -10   78.89   18.70
  -1   4 -10   71.49   18.00
   1   4  10   81.59   18.10
  -1  -4  10   91.39   19.20
  -1  -4  10  100.79   17.40
   1  -4 -10   72.49   17.40
   1   4  10   88.99   17.40
   2  -4  10  505.55   36.80
   2   4 -10  350.66   33.90
  -2  -4 -10  344.07   34.10
  -2   4  10  369.26   33.30
   2   4  10  412.66   34.70
   2  -4 -10  322.17   34.00
  -2   4 -10  410.56   33.70
   2  -4 -10  427.76   33.20
  -2   4 -10  308.47   32.20
   2   4  10  358.06   30.90
  -2  -4  10  331.17   33.90
   3   4 -10  135.29   23.70
  -3   4  10  142.39   21.90
  -3  -4 -10  150.08   22.80
   3  -4  10  215.08   25.60
   3   4  10  122.49   18.90
   3  -4 -10   92.09   20.40
   3   4  10  147.79   22.30
  -3   4 -10  144.99   20.40
  -3   4 -10  107.19   22.20
  -3  -4  10   99.59   21.80
  -4  -4 -10  149.88   26.00
  -4   4  10  199.38   26.70
   4   4 -10  186.48   29.30
   4  -4  10  217.88   29.20
   4   4  10  198.98   25.40
  -4   4 -10  219.68   27.70
  -4   4 -10  205.08   30.30
  -4  -4  10  249.18   31.80
   4   4  10  198.08   23.40
   4  -4 -10  205.48   29.20
  -5   4  10   39.60   17.40
   5  -4  10   40.90   18.00
  -5  -4 -10   92.09   21.90
   5   4 -10   36.00   18.50
  -5  -4  10  104.89   23.30
   5   4  10   76.99   19.60
   5  -4 -10   79.19   23.00
  -5   4 -10   46.30   22.30
   0  -5  10   -7.10   10.20
   0   5 -10    0.30   11.20
   0  -5 -10    7.60    9.90
   0   5  10    3.40    9.40
   0  -5 -10    1.40   12.10
   0  -5  10   -9.80    8.40
   1   5 -10  107.89   22.50
  -1   5  10   91.09   20.50
   1  -5  10   96.09   18.30
  -1  -5 -10   77.99   18.70
  -1  -5 -10  107.89   20.80
   1  -5  10   87.49   20.50
   1  -5 -10   75.99   19.40
  -1  -5  10   72.09   19.60
  -1   5 -10  118.29   22.70
   1   5  10   56.39   17.10
   1  -5 -10   77.49   17.30
   2   5 -10   51.69   18.60
  -2   5  10   20.20   12.50
  -2  -5 -10   46.70   18.10
   2  -5  10   66.39   17.40
   2  -5  10    8.80   12.50
  -2   5 -10   66.99   18.00
   2   5  10   49.20   15.10
   2  -5 -10   46.00   14.80
   2   5  10   51.59   14.90
   2  -5 -10   46.20   15.60
  -2  -5  10   31.70   15.90
  -3   5  10  397.66   38.50
   3  -5  10  422.36   38.30
   3   5 -10  460.15   41.60
   3  -5  10  469.55   37.20
  -3  -5 -10  364.96   37.30
  -3  -5  10  415.36   41.70
   3  -5 -10  414.56   41.80
   3   5  10  482.15   37.90
  -3   5 -10  435.86   40.40
   3   5  10  456.85   37.10
  -4  -5 -10   47.20   17.60
   4  -5  10   46.00   19.00
  -4   5  10   21.50   15.10
   4   5 -10   28.10   17.00
   4   5  10   37.50   14.70
  -4   5 -10   25.00   18.40
   4  -5 -10   49.70   20.80
   4   5  10   13.70   12.60
  -4  -5  10   62.09   21.60
   0  -6  10  111.79   24.10
   0  -6 -10  156.48   23.30
   0   6 -10  131.79   26.40
   0   6  10  104.19   23.40
   0  -6 -10  115.39   23.20
   1   6 -10  247.78   32.70
  -1  -6 -10  236.88   30.70
   1  -6  10  227.38   29.40
  -1  -6 -10  168.98   25.10
   1  -6  10  265.27   27.60
  -1   6  10  198.68   28.40
  -1  -6  10  226.48   32.00
   1  -6 -10  192.58   27.70
   1   6  10  172.28   25.70
  -1   6 -10  214.78   30.30
   1  -6 -10  248.68   28.10
   2   6 -10  136.09   27.80
  -2   6  10   87.79   21.30
   2  -6  10  109.59   23.20
  -2  -6 -10  122.39   26.10
   2  -6  10   79.69   19.90
   2  -6 -10   95.49   22.60
   2   6  10   76.09   19.10
  -2  -6  10  142.29   27.80
   2   6  10  100.89   21.70
  -2   6 -10   89.39   24.30
  -3   6  10    6.30   13.90
   3  -6  10   23.00   14.30
   3  -6  10   19.50   15.50
  -3  -6 -10   16.70   16.10
   3   6 -10   -2.00   12.20
   3   6  10    1.10   10.60
  -3  -6  10   14.40   15.80
   3   6  10    8.90   14.00
  -3   6 -10   18.40   17.90
   3  -6 -10   33.90   18.20
   0  -7  10  127.99   29.50
   0  -7 -10   97.69   24.30
   0   7  10  161.78   28.20
   0   7 -10  191.08   31.20
   0  -7 -10  117.49   24.10
   1  -7  10   44.40   19.40
  -1  -7 -10   86.89   22.70
  -1  -7 -10   50.49   18.20
  -1   7  10   67.29   22.00
   1   7 -10   76.19   22.40
  -1  -7  10   61.79   23.00
   1  -7 -10   34.10   16.60
   1  -7 -10   32.80   16.70
   1   7  10   37.80   16.30
  -1   7 -10  101.89   23.90
   2  -7  10   48.30   18.20
  -2  -7 -10   13.60   17.80
   2  -7  10   80.29   21.70
   2   7 -10   50.79   20.20
  -2   7  10   50.99   20.10
  -2   7 -10   22.60   17.30
   2   7  10   43.10   18.00
   2   7  10   80.29   20.40
  -2  -7  10   40.60   20.80
   2  -7 -10   58.69   20.60
   0   0  11    7.40    8.30
   0   0 -11    6.50    8.90
   0   0 -11   -3.20    6.60
   1   0 -11  -13.30    7.00
   1   0  11   -1.70    8.00
   1   0 -11   -6.60    6.50
  -1   0 -11   -7.20    6.60
  -1   0  11   -1.00    7.80
  -1   0 -11    1.30    7.10
  -2   0 -11  640.04   39.40
  -2   0  11  702.33   39.80
   2   0 -11  722.73   41.70
  -2   0 -11  645.04   46.50
  -2   0  11  711.53   44.80
   2   0  11  661.53   46.00
   2   0 -11  742.63   47.60
   3   0 -11    8.60    9.00
   3   0 -11    1.80   10.50
   3   0  11    9.80   10.10
  -3   0 -11  -10.10    7.00
  -3   0 -11    1.70    9.00
   3   0 -11   -1.70    9.00
   3   0 -11    2.60    9.90
   4   0 -11  800.72   50.59
  -4   0 -11  815.22   50.69
  -4   0 -11  847.82   54.39
   4   0 -11  895.01   51.99
   4   0 -11  856.11   50.39
   4   0 -11  792.32   52.39
   4   0  11  692.33   52.19
  -5   0  11    1.60   11.40
   5   0 -11   -4.00   10.60
  -5   0 -11    4.70   12.30
   5   0  11   -7.80   10.40
  -5   0 -11    4.30   12.00
  -6   0  11    9.80   14.40
   6   0  11   -4.10   14.00
   0   1  11    2.10    7.60
   0  -1 -11    0.20    9.80
   0   1 -11    7.40   10.10
   0   1 -11   -2.80    7.20
   0  -1  11    0.40    7.60
  -1   1  11  118.29   14.90
  -1   1  11  137.69   19.70
  -1  -1 -11  130.89   20.90
   1   1 -11  141.99   24.00
   1   1 -11  122.79   17.10
   1  -1  11  117.49   17.70
  -1   1 -11  115.59   17.00
  -1   1 -11  116.19   20.30
  -1  -1  11   80.79   15.70
   1   1  11  134.19   19.80
   1  -1 -11  126.99   20.00
   2  -1  11   45.80   14.00
   2   1 -11   61.89   16.10
   2   1 -11   40.40   12.00
  -2   1  11   57.79   13.00
  -2  -1 -11   52.09   16.50
  -2   1 -11   56.79   13.60
   2  -1 -11   61.09   16.60
  -2   1 -11   68.49   16.40
  -2  -1  11   76.79   15.40
   2  -1 -11   67.09   16.00
   2   1  11   57.99   15.90
   3   1 -11   15.20   10.50
  -3  -1 -11   18.20   13.20
   3  -1  11   15.10   10.10
   3   1 -11   17.10   12.50
  -3   1  11   19.40   10.00
   3   1 -11   19.20   10.80
   3  -1 -11   14.90   12.00
   3  -1 -11   20.00   11.20
  -3   1 -11   18.50   10.10
   3   1  11   10.80   10.60
  -3  -1  11   13.80   10.30
  -3   1 -11   31.30   13.30
   3  -1 -11    0.20   10.30
   4  -1  11   14.80   14.20
   4   1 -11    7.30    9.90
  -4   1  11    7.90    9.40
   4   1 -11   42.30   14.80
  -4  -1 -11   16.50   12.60
   4  -1 -11   20.70   11.90
  -4   1 -11   29.30   14.40
   4  -1 -11   15.20   11.10
   4   1  11   23.40   13.00
  -4  -1  11   11.50   10.40
  -4   1 -11   23.70   12.00
   5   1 -11   88.99   20.60
   5   1 -11  113.09   22.10
  -5  -1 -11  120.99   24.30
  -5   1  11  103.79   20.00
   5  -1  11  132.69   25.90
  -5   1 -11  116.29   22.30
   5  -1 -11  142.79   25.20
   5   1  11   98.09   22.30
  -5   1 -11  126.49   20.20
   5  -1 -11  108.29   22.10
   0  -2 -11    0.90    9.80
   0   2  11   -7.60    6.40
   0   2  11   -3.90    6.10
   0  -2  11    1.30    7.90
   0   2 -11    7.60    9.50
   0   2 -11   -8.20    6.90
   1  -2  11  776.62   47.10
  -1   2  11  674.13   42.90
   1   2 -11  686.83   49.99
   1   2 -11  693.53   45.80
  -1  -2 -11  722.03   49.60
   1  -2 -11  802.92   49.70
   1  -2 -11  781.92   50.29
  -1  -2  11  791.12   45.10
   1   2  11  755.12   49.50
  -1   2 -11  708.23   49.20
  -1   2 -11  739.73   46.40
  -2   2  11   79.29   15.10
   2   2 -11   93.89   17.80
  -2  -2 -11   36.90   13.50
   2  -2  11   87.89   17.90
   2   2 -11   93.49   19.30
   2  -2 -11  103.09   19.60
  -2   2 -11   64.39   15.80
  -2  -2  11   92.79   14.40
   2   2  11   83.09   18.70
  -2   2 -11   99.29   19.30
   2  -2 -11   85.09   18.10
   3   2 -11    8.40    9.60
  -3   2  11   -4.60    8.00
  -3  -2 -11   -1.20   10.30
   3  -2  11   -4.80    9.30
  -3   2 -11   -6.20    8.60
  -3  -2  11    5.80    8.50
  -3   2 -11   13.70   10.20
   3  -2 -11    2.40   11.40
   3  -2 -11   13.30    9.50
   3   2  11   19.00   11.60
   4  -2  11   74.39   19.20
  -4   2  11   67.09   17.70
   4   2 -11   78.49   18.40
  -4  -2 -11   80.79   19.80
  -4  -2  11  102.19   21.30
   4   2  11   88.09   21.70
  -4   2 -11   79.59   19.60
  -4   2 -11   60.29   15.20
   4  -2 -11   64.99   17.20
  -5  -2 -11  194.98   27.20
   5   2 -11  145.69   25.30
   5   2 -11  207.28   26.80
   5  -2  11  165.58   29.40
  -5  -2  11  218.48   28.90
   5  -2 -11  220.88   28.90
  -5   2 -11  258.67   31.70
   5  -2 -11  179.18   28.30
   5   2  11  247.48   29.80
   0  -3 -11   -1.70    9.20
   0   3 -11    0.60    9.40
   0   3  11   -1.70    7.80
   0  -3 -11    5.40    8.90
   0   3 -11   -8.20    7.60
   0  -3  11   15.00    9.50
   1   3 -11   22.50   13.30
   1  -3  11   29.40   12.20
  -1  -3 -11   10.50   11.80
  -1   3  11   37.50   11.90
   1   3 -11    2.00    8.90
   1   3  11   31.70   10.70
   1   3  11   16.10   11.60
   1  -3 -11   13.00   11.80
   1  -3 -11   21.70   13.90
  -1   3 -11   22.60   12.70
  -1  -3  11   40.10   12.70
  -1   3 -11   33.90   13.00
  -2  -3 -11  140.79   25.20
  -2   3  11  202.18   23.20
   2   3 -11  160.98   24.20
   2  -3  11  178.58   24.20
  -2   3 -11  188.58   23.40
  -2   3 -11  178.68   23.70
   2   3  11  199.08   21.40
   2   3  11  193.88   24.80
   2  -3 -11  186.78   25.00
  -2  -3  11  204.88   24.70
   2  -3 -11  167.08   22.80
  -3  -3 -11    4.70   10.90
  -3   3  11    5.20    9.80
   3  -3  11   14.70   12.50
   3   3 -11   18.50   13.00
   3  -3 -11   19.30   12.50
  -3  -3  11   11.80   11.10
   3   3  11   -9.70    9.20
   3  -3 -11    2.80   11.40
  -3   3 -11   12.40   12.40
  -3   3 -11    2.80    9.60
  -4   3  11   53.29   18.00
  -4  -3 -11   68.59   18.70
   4  -3  11   54.39   19.10
   4   3 -11   54.69   17.20
   4  -3 -11   86.49   20.60
  -4  -3  11   80.39   20.90
   4   3  11   60.09   17.70
  -4   3 -11   63.49   16.40
  -4   3 -11   47.20   17.80
  -5   3  11    5.60   12.90
   5  -3  11    0.30   13.50
  -5  -3 -11   -5.90   11.90
   5   3 -11   25.90   16.70
   5  -3 -11    6.40   14.00
   5   3  11    9.70   13.30
  -5  -3  11   -1.30   14.80
  -5   3 -11   -5.50   14.90
   0  -4 -11    2.70   11.80
   0   4 -11  -13.30    9.40
   0  -4  11  -10.10    9.30
   0  -4 -11   -7.70    7.80
   0   4 -11    0.30    9.60
   0   4  11   -7.60    8.30
   1   4 -11  268.27   29.80
  -1   4  11  249.68   27.20
  -1  -4 -11  266.27   29.80
   1  -4  11  266.47   26.60
  -1  -4  11  251.47   27.80
  -1   4 -11  281.47   29.20
  -1   4 -11  243.38   28.40
   1   4  11  290.87   27.50
   1   4  11  202.38   25.90
   1  -4 -11  185.28   25.40
   1  -4 -11  254.87   27.50
  -2   4  11  200.28   25.30
  -2  -4 -11  238.08   30.00
   2   4 -11  186.58   27.50
   2  -4  11  188.48   24.60
   2   4  11  217.58   24.70
  -2  -4  11  184.78   26.20
  -2   4 -11  242.58   28.30
   2  -4 -11  228.38   26.50
   2   4  11  219.98   26.40
   2  -4 -11  185.08   27.20
  -2   4 -11  213.38   26.10
  -3  -4 -11   10.00   13.00
  -3   4  11   16.20   11.80
   3   4 -11   -4.50   11.70
   3  -4  11   -2.10   10.50
  -3   4 -11   13.30   12.10
   3  -4 -11   -7.80   11.70
  -3  -4  11   -3.50    9.90
   3   4  11    3.20   11.00
   3   4  11    2.20   10.00
  -3   4 -11   -2.00   10.10
   4   4 -11  260.17   32.20
  -4  -4 -11  240.78   30.60
   4  -4  11  195.38   29.20
  -4   4  11  306.87   33.30
   4   4  11  271.67   30.50
  -4   4 -11  221.08   27.60
  -4  -4  11  254.17   33.00
   4  -4 -11  218.28   31.20
  -4   4 -11  248.48   32.90
   0  -5 -11   -3.10   10.10
   0  -5  11   -2.10   11.00
   0  -5 -11   -5.60   11.30
   0  -5  11   -3.60   10.70
   0   5 -11   -8.50   11.20
   0   5  11   -0.60    9.50
   1   5 -11   49.60   18.20
   1  -5  11   76.09   17.60
  -1   5  11   48.00   15.00
   1  -5  11   33.60   16.80
  -1  -5 -11   37.30   16.60
  -1   5 -11   48.50   18.40
   1  -5 -11   43.00   15.50
  -1  -5  11   56.09   18.00
   1  -5 -11   47.80   15.30
   1   5  11   51.79   16.30
   1   5  11   61.69   17.80
  -2   5  11   56.79   17.70
   2  -5  11   40.00   14.70
   2  -5  11   41.60   14.90
  -2  -5 -11   53.39   19.20
   2   5 -11   47.20   20.00
   2  -5 -11   47.60   18.00
   2   5  11   58.19   17.90
  -2  -5  11   35.50   16.30
  -2   5 -11   43.40   17.80
   2  -5 -11   40.80   15.90
   2   5  11   73.79   18.10
   3   5 -11   -3.00   14.00
  -3   5  11   -4.40   12.00
   3  -5  11    8.10   12.80
  -3  -5 -11   29.60   14.90
   3  -5  11   -1.30   12.20
   3   5  11    6.60   12.40
  -3   5 -11    3.60   15.30
   3  -5 -11   11.60   16.00
   3   5  11    6.10   10.30
  -3  -5  11    8.10   13.80
  -4  -5 -11  100.29   22.50
   4  -5  11  108.19   24.90
  -4   5  11  132.49   26.10
   4   5 -11  116.79   27.30
  -4   5 -11  127.59   28.20
  -4  -5  11  149.69   29.90
   4   5  11   82.69   19.90
   4   5  11  106.29   20.90
   4  -5 -11   77.09   24.60
   0  -6 -11    3.40   14.70
   0  -6  11    3.00   14.30
   0   6 -11  -14.50   13.90
   0  -6 -11   -2.70   12.10
   0   6  11    4.90   12.80
  -1  -6 -11   59.79   19.10
  -1  -6 -11   62.99   20.60
   1  -6  11   65.69   21.10
   1  -6  11   65.19   17.30
   1   6 -11   62.99   22.20
  -1   6  11   53.59   19.20
   1  -6 -11   49.90   19.40
  -1   6 -11   74.19   23.00
   1   6  11   37.30   16.10
   1  -6 -11   72.49   21.10
  -1  -6  11  115.79   26.80
   2  -6  11  173.58   27.40
   2  -6  11  129.09   23.90
  -2   6  11  112.19   25.30
   2   6 -11  167.58   30.70
  -2  -6 -11  103.69   24.90
   2  -6 -11  156.18   29.20
   2   6  11  145.69   25.30
  -2   6 -11  144.79   29.10
   2   6  11  173.98   29.50
  -2  -6  11  142.39   29.20
   3  -6  11    6.60   14.20
   3  -6  11   -2.50   12.70
  -3   6  11   14.40   14.60
  -3  -6 -11   -7.80   15.20
   3   6 -11   11.90   17.70
   3  -6 -11   13.40   18.70
   3   6  11    8.50   13.40
  -3   6 -11    8.10   17.10
  -3  -6  11   -1.50   14.80
   3   6  11    6.30   10.90
   0   7 -11   -1.60   13.20
   0  -7  11  -16.10   16.20
   0  -7 -11    3.50   13.40
   0   7  11    4.10   11.40
   0  -7 -11    2.40   15.60
   0   0 -12   48.20   11.90
   0   0 -12   69.19   18.10
   0   0  12   40.60   12.90
   1   0 -12  -10.40    8.30
  -1   0  12    4.20    8.00
  -1   0 -12   -6.80    7.40
  -1   0 -12   -5.60    8.60
   1   0 -12    7.90    8.60
   1   0  12  -11.50    6.30
  -2   0 -12  327.87   32.60
  -2   0  12  393.76   32.50
   2   0  12  314.77   31.80
   2   0 -12  367.86   28.70
   2   0 -12  339.47   32.70
   3   0  12   -2.80   10.20
   3   0 -12    2.10   10.20
  -3   0 -12    2.50   11.50
   3   0 -12    0.10    9.80
  -3   0  12   -9.80    8.40
   4   0 -12  143.79   21.40
   4   0  12  107.19   23.00
  -4   0 -12  179.88   26.30
   4   0 -12  148.99   23.60
   4   0 -12  162.28   22.90
   4   0 -12  201.28   26.90
   5   0 -12  -11.10   11.90
   5   0  12   -3.10   13.20
  -5   0  12    9.70   12.30
  -5   0 -12  -17.50   11.20
   0   1 -12  139.69   19.00
   0  -1  12  117.49   18.60
   0  -1 -12  167.08   23.40
   0   1  12  105.59   19.90
   0   1 -12  172.78   23.80
   1   1 -12   90.09   20.10
   1  -1  12  148.49   21.10
  -1  -1 -12   70.19   18.40
   1   1 -12   85.69   16.70
  -1   1  12  106.49   20.20
   1  -1 -12   95.99   19.60
  -1   1 -12  104.29   17.50
   1   1  12  103.69   19.70
  -1   1 -12  101.09   20.20
  -1  -1  12  138.19   19.00
  -2   1  12   94.89   18.00
  -2  -1 -12   79.29   19.40
   2   1 -12  109.29   22.20
   2  -1  12   99.19   21.00
   2   1 -12   99.79   18.10
   2  -1 -12   89.59   19.50
  -2   1 -12  106.59   18.40
  -2  -1  12  156.18   19.70
  -2   1 -12  122.29   21.70
   2   1  12   77.29   19.90
   2  -1 -12  117.99   22.50
  -3   1  12  346.17   29.50
   3   1 -12  324.97   33.20
  -3  -1 -12  418.96   38.30
   3  -1  12  367.96   33.80
   3   1 -12  389.86   32.20
  -3   1 -12  307.37   31.70
   3  -1 -12  472.85   36.40
  -3   1 -12  300.47   28.90
   3   1  12  291.77   32.10
  -3  -1  12  347.97   29.80
   3  -1 -12  347.57   32.30
  -4  -1 -12   42.20   18.70
   4   1 -12   40.00   14.80
  -4   1  12   47.90   14.30
   4  -1  12   32.60   17.70
  -4  -1  12   35.00   12.70
   4  -1 -12   38.70   16.30
   4   1  12   34.90   15.50
  -4   1 -12   39.70   15.90
  -4   1 -12   40.40   15.60
  -5  -1 -12  201.38   29.30
   5   1 -12  214.78   31.60
   5   1 -12  168.48   26.20
   5  -1  12  162.78   28.70
   5  -1 -12  120.49   24.00
   5   1  12  117.49   25.30
  -5   1 -12  133.89   24.70
  -5   1 -12  141.79   26.60
   0   2  12  141.29   22.20
   0  -2  12  138.79   19.60
   0  -2 -12  115.79   22.80
   0   2 -12  116.89   20.20
   0   2 -12  143.49   22.30
   1   2 -12  271.37   26.80
  -1   2  12  246.28   23.90
   1   2 -12  211.78   28.50
  -1  -2 -12  269.07   30.50
   1  -2  12  257.07   26.20
   1  -2 -12  272.67   29.60
  -1   2 -12  222.88   27.50
   1   2  12  262.67   29.10
   1  -2 -12  282.67   29.50
  -1   2 -12  305.37   28.50
  -1  -2  12  255.47   24.20
   2  -2  12   26.50   12.40
   2   2 -12    7.50   10.80
  -2  -2 -12   29.00   14.10
  -2   2  12    9.10    9.20
   2   2 -12   30.50   14.20
  -2   2 -12    6.80   11.60
   2   2  12   34.10   13.60
   2  -2 -12   20.80   13.00
  -2   2 -12   19.00   11.50
  -2  -2  12    6.50   10.00
   2  -2 -12   23.30   13.10
   3   2 -12   38.70   14.10
  -3  -2 -12   56.99   17.30
   3  -2  12   41.40   15.80
  -3   2  12   24.60   11.50
   3  -2 -12   67.09   17.70
   3   2  12   52.29   16.60
  -3  -2  12   63.29   16.20
  -3   2 -12   69.09   17.00
  -3   2 -12   57.99   17.50
   3  -2 -12   49.70   15.80
   4   2 -12   10.40   13.60
  -4   2  12   11.20   11.10
  -4  -2 -12   10.30   11.90
   4  -2  12   14.10   12.90
   4  -2 -12   -0.90   12.30
  -4   2 -12   30.10   15.80
  -4   2 -12   -2.40   10.70
  -4  -2  12   -6.60   10.40
   4   2  12  -19.70   10.90
  -5  -2 -12  158.38   27.30
   5   2 -12  121.79   23.50
   5  -2  12   61.89   22.20
  -5   2  12   92.59   21.30
  -5   2 -12  200.28   31.30
   5  -2 -12  104.79   23.70
   5   2  12  119.59   24.40
   0  -3 -12  671.33   50.29
   0   3 -12  673.93   47.50
   0   3  12  764.82   46.10
   0   3  12  618.14   47.50
   0   3 -12  672.13   50.49
   0  -3  12  699.33   44.30
   1   3 -12   66.49   19.30
  -1  -3 -12   50.19   16.50
   1  -3  12   49.10   15.80
  -1   3  12   54.19   13.80
   1   3 -12   67.79   17.70
  -1  -3  12   41.60   13.10
  -1   3 -12   67.79   18.60
   1   3  12   35.30   14.50
   1  -3 -12   73.59   18.70
  -1   3 -12   68.79   17.70
   1  -3 -12   45.20   15.70
  -2   3  12  120.59   21.70
   2   3 -12  122.19   22.10
  -2  -3 -12  176.78   29.40
   2  -3  12   88.19   20.90
  -2   3 -12  122.49   22.50
  -2   3 -12   65.89   19.10
   2  -3 -12  142.69   21.30
   2  -3 -12  110.69   22.10
   2   3  12   86.19   19.80
  -2  -3  12  102.49   20.00
  -3   3  12    6.60   10.70
   3  -3  12    7.20   11.50
   3   3 -12    2.40   12.00
  -3  -3 -12    6.80   11.30
  -3  -3  12    2.20    9.50
   3  -3 -12   19.10   14.50
  -3   3 -12   -3.40   11.20
   3   3  12   -3.90   10.50
  -3   3 -12    5.60   10.90
   4  -3  12   54.49   17.60
  -4   3  12   27.50   14.60
   4   3 -12   41.50   17.20
  -4  -3 -12   46.30   18.10
   4   3  12   36.30   16.00
  -4   3 -12   21.20   16.20
   4  -3 -12   13.10   14.50
  -4   3 -12   29.70   15.10
  -4  -3  12   25.40   15.10
   0  -4 -12  185.18   26.50
   0  -4 -12  186.58   25.90
   0  -4  12  108.69   20.90
   0   4 -12  160.78   26.50
   0   4  12  166.28   23.00
   0   4 -12  199.88   28.10
   1  -4  12   53.29   15.50
   1   4 -12   22.90   14.70
  -1  -4 -12   69.29   19.80
  -1   4  12   52.69   15.90
  -1  -4  12   15.30   11.60
  -1   4 -12   15.30   12.90
   1   4  12   36.10   14.00
   1   4  12   15.40   13.60
  -1   4 -12   28.00   14.80
   1  -4 -12   34.80   15.80
   1  -4 -12   53.99   18.70
  -2  -4 -12   66.49   21.20
  -2   4  12  133.79   23.20
   2   4 -12   71.99   20.20
   2  -4  12   80.29   18.70
  -2   4 -12  130.29   24.90
   2  -4 -12   91.79   21.90
  -2  -4  12   60.89   17.40
   2   4  12  103.29   22.70
   2  -4 -12  126.19   23.10
  -2   4 -12  110.29   22.40
  -3  -4 -12  220.48   29.80
  -3   4  12  195.68   27.70
   3  -4  12  272.47   32.30
   3   4 -12  248.68   31.20
   3  -4 -12  214.68   31.80
   3   4  12  321.57   33.70
  -3  -4  12  254.37   30.90
  -3   4 -12  277.57   30.00
  -3   4 -12  188.88   30.20
   4  -4  12   87.89   22.20
   4   4 -12   73.49   21.40
  -4   4  12   57.79   19.30
  -4  -4 -12   65.09   20.40
  -4   4 -12   78.59   21.40
  -4   4 -12   60.59   21.50
   4   4  12   29.70   17.80
   4  -4 -12   94.69   25.30
  -4  -4  12   55.69   19.10
   0   5  12  126.69   24.40
   0  -5 -12  126.89   25.70
   0  -5 -12  115.09   24.20
   0   5 -12  128.89   26.60
   0  -5  12  155.18   28.80
  -1  -5 -12   30.70   16.70
   1  -5  12   34.10   15.40
   1   5 -12   37.30   18.80
   1  -5  12   17.20   15.20
  -1   5  12   10.10   13.00
   1  -5 -12   57.09   16.80
   1   5  12   28.80   13.30
   1  -5 -12   22.60   14.80
  -1   5 -12   26.70   15.80
  -1  -5  12   26.40   16.90
   1   5  12   26.20   16.00
   2   5 -12   29.90   18.30
   2  -5  12   47.90   16.00
  -2  -5 -12   62.19   20.90
   2  -5  12   18.60   15.10
  -2   5  12   17.30   12.90
   2   5  12   41.90   15.30
   2  -5 -12   62.19   21.10
   2   5  12   50.29   17.90
  -2  -5  12   69.39   21.00
   2  -5 -12   19.30   15.60
  -2   5 -12   41.20   19.30
   3  -5  12  417.76   38.10
   3  -5  12  365.56   37.30
   3   5 -12  330.97   38.30
  -3   5  12  357.56   38.30
  -3  -5 -12  351.76   38.20
  -3   5 -12  305.57   37.70
  -3  -5  12  362.76   39.90
   3  -5 -12  343.27   40.60
   3   5  12  363.56   37.00
   0   6 -12  284.37   37.10
   0  -6 -12  293.87   34.70
   0  -6 -12  222.08   31.70
   0   6  12  277.87   32.60
   0  -6  12  277.27   35.90
   1  -6  12   29.80   18.70
   1   6 -12   37.90   21.40
  -1  -6 -12   37.40   20.70
  -1   6  12   35.60   17.10
  -1   6 -12   19.50   17.30
  -1  -6  12   31.10   20.10
   1  -6 -12   22.30   16.20
   1   6  12    9.60   14.40
   1  -6 -12   17.40   14.70
   1   6  12   35.50   16.50
   0   0  13   -3.70    8.80
   0   0 -13   12.50   12.40
  -1   0 -13    7.30   10.50
   1   0 -13    1.80   10.90
   1   0  13   -2.80    8.60
  -1   0  13    1.10    9.80
   2   0  13  640.14   46.90
  -2   0  13  562.94   42.20
  -2   0 -13  545.95   44.30
   2   0 -13  529.25   43.40
   3   0 -13  -14.40   11.30
  -3   0  13   -7.40   10.00
  -3   0 -13   17.10   11.20
   3   0  13   -6.60   10.50
   4   0  13  486.15   45.60
  -4   0 -13  573.84   45.90
   4   0 -13  570.64   45.50
   0   1 -13   -6.90    8.10
   0   1  13    1.80    9.70
   0   1 -13    3.50   12.80
   0  -1  13    0.90    9.60
   0  -1 -13  -14.60    9.20
   1  -1  13  271.67   29.00
  -1  -1 -13  255.07   31.20
   1   1 -13  272.27   27.40
   1   1 -13  229.38   29.00
  -1   1  13  259.77   29.30
  -1  -1  13  272.77   28.00
   1  -1 -13  190.08   27.50
   1   1  13  277.07   30.70
  -1   1 -13  338.67   28.50
  -1   1 -13  314.87   32.10
   2   1 -13  106.79   19.40
  -2  -1 -13  144.19   25.80
  -2   1  13  111.39   21.50
   2  -1  13  146.49   25.50
   2   1 -13  203.58   27.70
  -2  -1  13  156.68   20.40
   2  -1 -13  122.59   23.20
  -2   1 -13  155.18   26.40
   2   1  13  187.48   26.60
  -2   1 -13  125.49   21.00
   3   1 -13   34.30   16.30
   3   1 -13   23.80   13.20
  -3  -1 -13   20.60   14.70
   3  -1  13    5.30   10.70
  -3   1 -13    8.60   12.40
   3  -1 -13   -1.50   11.00
  -3   1 -13    2.90   12.00
  -3  -1  13   20.60   13.20
   3  -1 -13    3.00   11.60
   3   1  13   35.10   16.40
   4   1 -13   54.39   17.70
   4  -1  13   58.39   20.90
  -4  -1 -13   95.89   22.50
  -4   1  13   60.19   17.50
   4   1  13   55.79   18.90
  -4  -1  13   22.70   12.80
  -4   1 -13   65.09   19.50
   4  -1 -13   41.50   16.70
   0  -2  13    0.40    8.10
   0   2 -13    3.70   12.60
   0   2 -13    4.80   11.00
   0  -2 -13   -3.30   12.30
   0   2  13   -0.90    9.40
   1   2 -13  539.65   40.50
   1  -2  13  522.75   40.60
  -1  -2 -13  454.45   43.70
  -1   2  13  530.05   42.70
   1   2 -13  549.85   45.90
  -1  -2  13  576.24   40.00
   1   2  13  567.04   45.00
  -1   2 -13  561.64   44.80
   1  -2 -13  495.05   41.50
  -1   2 -13  575.84   40.80
   2  -2  13   27.70   14.20
   2   2 -13   24.40   13.70
  -2  -2 -13    9.30   14.30
   2   2 -13   27.60   16.30
  -2   2 -13    8.80   12.40
   2   2  13   39.90   18.70
  -2   2 -13    9.10   13.40
  -2  -2  13    6.40   10.20
   2  -2 -13   18.00   12.60
   2  -2 -13   42.00   18.00
  -3  -2 -13   25.60   17.40
   3  -2  13  -10.00   10.60
  -3   2  13    5.90   10.50
   3   2 -13   18.90   13.00
  -3   2 -13   -6.20   11.00
   3  -2 -13    4.40   13.40
  -3  -2  13   10.80   10.30
  -3   2 -13    9.90   12.50
   3  -2 -13    8.20   12.70
   3   2  13   27.80   16.80
   4  -2  13   47.10   18.00
  -4  -2 -13   37.80   18.70
   4   2 -13   23.70   14.80
  -4   2  13   34.80   14.70
  -4   2 -13   21.50   13.90
  -4  -2  13   17.70   12.70
   4  -2 -13   50.09   17.90
   4   2  13   13.00   17.30
  -4   2 -13   42.80   16.80
   0   3 -13    3.20   12.50
   0   3 -13    5.40   11.70
   0  -3 -13   -2.80   13.60
   0   3  13    3.40    9.20
   0  -3  13   -7.50    8.30
   1   3 -13   12.90   12.70
  -1  -3 -13   26.70   16.60
   1  -3  13    8.30   11.70
   1   3 -13    7.10   13.40
  -1   3 -13   26.30   14.20
  -1   3 -13   40.60   16.00
   1  -3 -13    8.40   14.50
   1   3  13    2.10   11.50
  -1  -3  13   27.50   12.80
   1  -3 -13   11.30   13.10
   2  -3  13  245.78   30.50
   2   3 -13  308.17   32.60
  -2   3  13  236.68   27.00
  -2  -3 -13  247.68   33.30
  -2   3 -13  244.48   30.20
  -2   3 -13  287.97   31.90
   2  -3 -13  225.58   30.20
   2   3  13  260.77   31.60
  -2  -3  13  210.28   27.30
   2  -3 -13  195.98   27.20
   3   3 -13   12.60   13.70
  -3  -3 -13    8.30   12.90
  -3   3  13  -10.20   11.00
   3  -3  13    4.30   12.90
   3   3  13   10.50   13.70
  -3  -3  13   20.90   13.10
  -3   3 -13    8.00   14.00
   3  -3 -13   -1.90   13.00
  -3   3 -13   -6.90   11.10
  -4  -3 -13  167.08   29.50
  -4   3  13  139.19   25.80
   4  -3  13  157.98   28.20
   4   3 -13  176.38   29.00
  -4   3 -13  158.58   24.70
  -4  -3  13  176.08   27.00
   4  -3 -13  148.89   27.30
   4   3  13  161.08   29.30
  -4   3 -13  145.19   28.00
   0   4  13   -5.80   11.80
   0   4 -13  -24.60   11.80
   0  -4  13  -21.90   10.90
   0   4  13  -11.40   10.80
   0   4 -13    5.60   13.40
   0  -4 -13  -10.50   13.30
   1  -4  13  150.48   21.60
  -1  -4 -13  116.39   25.60
  -1   4  13   94.29   21.00
   1   4 -13  117.49   25.10
  -1   4 -13  153.88   27.30
  -1  -4  13   92.39   21.50
  -1   4 -13  119.39   24.30
   1  -4 -13   55.29   20.50
   1  -4 -13   96.69   23.40
   1   4  13   75.99   21.50
   2  -4  13  175.08   26.30
  -2  -4 -13  170.78   31.60
   2   4 -13  183.78   29.90
  -2   4  13  153.38   25.50
   2  -4 -13  119.19   24.90
  -2  -4  13  131.59   24.90
  -2   4 -13  183.48   25.80
  -2   4 -13  174.58   28.80
   2   4  13  183.08   28.50
   2  -4 -13  162.48   27.10
  -3   4  13   -1.70   12.10
   3  -4  13  -11.20   12.70
  -3  -4 -13    4.40   12.70
   3   4 -13  -15.10   12.80
  -3   4 -13    2.60   13.70
  -3  -4  13   -2.50   12.70
   3  -4 -13   -1.60   14.00
   3   4  13   13.60   16.30
  -3   4 -13   -5.90   11.20
   0  -5  13    1.60   14.30
   0   5  13   10.60   13.20
   0   5 -13  -11.70   15.50
   0  -5 -13   -3.00   15.40
   0  -5 -13    2.90   12.20
  -1  -5 -13  150.48   29.80
  -1   5  13  110.49   23.50
   1   5 -13   96.79   25.90
   1  -5  13  110.39   23.10
   1  -5  13   88.29   23.90
   1   5  13  137.69   26.10
   1  -5 -13  130.29   25.70
   1   5  13  138.59   27.30
  -1  -5  13  101.99   25.50
  -1   5 -13  139.39   27.00
   1  -5 -13  153.28   28.30
  -2  -5 -13   23.70   19.80
  -2   5  13   17.80   14.50
   2  -5  13    5.10   15.10
   2  -5  13    4.50   13.50
   2   5 -13    6.10   16.30
   2   5  13   14.50   15.70
   2  -5 -13   14.60   16.30
  -2   5 -13    9.30   17.60
  -2  -5  13   17.30   15.80
   0   0  14  127.79   23.90
   0   0 -14   93.19   22.80
   1   0  14   -1.40    9.50
  -1   0 -14   -5.80    9.80
  -1   0  14    2.90   10.30
   1   0 -14    7.70   14.80
  -2   0 -14  365.76   37.00
   2   0  14  348.07   35.80
  -2   0  14  376.26   34.60
   2   0 -14  289.87   33.90
  -3   0  14    6.70   13.00
  -3   0 -14  -16.30   10.30
   3   0  14   10.20   14.00
   3   0 -14   -1.30   12.10
   0  -1  14   18.90   11.60
   0  -1 -14   -0.20   12.10
   0   1 -14   -5.30   13.90
   0   1  14    0.40    9.60
   1   1 -14   86.59   22.60
  -1  -1 -14   62.09   19.90
  -1   1  14   65.29   18.60
   1  -1  14   42.80   15.60
  -1   1 -14   38.10   17.10
  -1  -1  14   86.69   19.80
   1   1  14   71.79   19.40
   1  -1 -14   10.70   14.20
  -2   1  14    2.10   12.20
   2   1 -14   34.80   17.80
   2  -1  14   32.20   14.80
  -2  -1 -14   46.70   18.90
  -2   1 -14   55.29   19.10
   2  -1 -14   15.30   15.30
   2   1  14   33.40   16.10
  -2  -1  14   48.70   16.50
   3   1 -14   32.20   20.00
  -3   1  14   28.40   16.10
  -3  -1 -14   31.70   19.30
   3  -1  14   14.80   13.20
   3   1 -14   17.90   16.30
  -3   1 -14   10.20   13.70
   3   1  14    5.70   15.70
   3  -1 -14    7.20   14.70
   0  -2  14  152.08   22.80
   0   2 -14   93.69   25.00
   0   2  14   94.59   20.70
   0   2 -14  143.99   23.80
   0  -2 -14  105.59   26.30
   1   2 -14  263.67   35.00
   1   2 -14  325.77   32.20
  -1   2  14  257.17   31.10
   1  -2  14  303.27   31.10
  -1  -2 -14  284.87   36.20
   1   2  14  247.58   30.10
   1  -2 -14  262.57   32.00
  -1  -2  14  283.77   29.20
  -1   2 -14  261.87   29.00
  -1   2 -14  321.77   34.10
   2  -2  14    4.00   11.10
   2   2 -14   24.30   14.80
   2   2 -14   24.50   16.50
  -2  -2 -14   -2.80   11.90
  -2   2  14   27.70   15.20
   2   2  14   -1.70   13.50
  -2   2 -14   16.80   13.50
  -2   2 -14   11.60   13.70
   2  -2 -14   16.30   15.40
   3   2 -14   66.49   19.90
   3  -2  14   56.69   19.80
  -3  -2 -14   39.30   19.10
  -3  -2  14   37.10   14.90
   3   2  14   84.69   23.20
   3  -2 -14   22.70   16.40
   3  -2 -14   29.40   17.10
  -3   2 -14   39.70   18.90
  -3   2 -14   29.80   16.10
   0  -3 -14   60.29   22.20
   0  -3  14   40.10   15.80
   0   3 -14   37.50   17.60
   0   3 -14   84.09   19.80
   0   3  14   32.60   15.30
  -1   3  14    5.90   11.90
   1   3 -14    2.30   12.50
   1  -3  14   -8.70   10.50
  -1  -3 -14    5.60   18.40
   1   3 -14   13.60   16.90
   1   3  14    0.70   13.60
  -1   3 -14   16.00   14.10
   1  -3 -14    9.40   14.00
  -1  -3  14   -5.00    9.30
  -1   3 -14    8.00   13.40
   2   3 -14  124.89   24.10
  -2  -3 -14  111.39   28.70
   2  -3  14  116.59   26.20
  -2   3 -14   59.39   20.40
  -2   3 -14  121.39   23.60
   2  -3 -14  128.59   26.50
   2   3  14  116.69   26.20
   2  -3 -14   77.39   20.20
  -2  -3  14  104.79   22.70
   3  -3  14   95.69   23.00
   3   3 -14   79.19   21.40
  -3  -3 -14   89.59   25.10
  -3  -3  14   44.90   17.70
  -3   3 -14   64.89   20.80
  -3   3 -14   64.49   21.00
   3  -3 -14   49.30   19.70
   3   3  14   96.89   25.00
   0  -4  14  -15.90   11.20
   0   4 -14    1.10   13.80
   0  -4 -14   -3.10   17.50
   0   4  14   -0.60   12.10
   0   4 -14    8.80   15.20
   1   4 -14   16.20   16.30
  -1  -4 -14   48.80   21.50
   1  -4  14   22.80   13.80
   1  -4 -14    5.80   16.40
  -1  -4  14   -9.20   10.90
  -1   4 -14   -0.40   13.70
  -1   4 -14   21.10   16.60
   1   4  14    0.70   13.50
   1  -4 -14    3.60   15.60
   2   4 -14  201.88   32.90
  -2   4  14  157.48   27.00
  -2  -4 -14  190.58   32.50
   2  -4  14   91.79   21.00
  -2   4 -14  180.78   29.30
   2   4  14  147.49   27.10
   2  -4 -14   87.79   24.00
  -2   4 -14  141.69   26.70
  -2  -4  14  124.99   25.00
   2  -4 -14  206.48   27.00
   0   0  15    5.20   13.10
   0   0 -15   10.60   15.50
   1   0 -15  -17.90   13.70
   1   0  15   17.10   14.00
  -1   0 -15    0.60   14.90
  -1   0  15   -9.50   10.10
  -2   0 -15  212.18   31.00
   2   0 -15  131.49   27.00
   2   0  15  206.98   30.50
  -2   0  15  166.58   25.90
   0   1 -15   -8.10   15.70
   0  -1 -15    0.30   15.20
   0   1  15    3.00   11.80
   0  -1  15    1.00   11.10
  -1  -1 -15  223.78   32.90
   1  -1  15  289.67   33.50
  -1   1  15  179.48   28.20
   1   1 -15  237.48   33.60
   1  -1 -15  264.37   34.50
   1   1  15  203.48   30.20
  -1   1 -15  278.47   34.00
  -1  -1  15  321.17   33.00
   2   1 -15   81.19   23.80
  -2  -1 -15   95.69   24.00
  -2   1  15   69.79   20.40
   2  -1  15   49.30   17.60
  -2   1 -15   91.49   24.00
   2   1  15   96.99   24.90
   2  -1 -15   41.90   19.00
  -2  -1  15   50.49   17.60
   0  -2 -15   14.50   17.70
   0   2  15   -9.00    9.50
   0   2 -15   -0.90   13.70
   0  -2  15  -21.90   10.60
   0   2 -15  -15.80   12.80
   1   2 -15   91.09   21.70
  -1   2  15   64.79   19.30
   1  -2  15  102.69   22.50
  -1  -2 -15  105.19   28.30
   1   2 -15   58.69   22.10
  -1   2 -15   83.19   21.20
  -1  -2  15   83.69   19.50
   1   2  15   48.40   18.80
   1  -2 -15   87.59   24.20
   2  -2  15   35.50   16.30
  -2  -2 -15   25.00   17.70
   2   2 -15   51.39   18.30
  -2   2  15   24.40   16.10
   2   2 -15   39.80   20.80
   2   2  15   11.40   16.30
   2  -2 -15   24.20   15.80
  -2   2 -15   36.40   17.30
   0   3 -15   -2.90   12.10
   0  -3 -15    0.30   18.00
   0  -3  15  -14.50    9.50
   0   3 -15   14.70   15.80
   0   3  15    3.90   10.00
   1   3 -15   32.10   21.60
   1   3 -15   35.60   18.50
   1  -3  15   19.60   14.60
  -1  -3 -15   39.10   22.30
  -1   3  15   14.40   12.60
  -1   3 -15    7.80   14.70
  -1   3 -15   42.40   17.30
   1  -3 -15    5.00   16.00
   1   3  15   33.30   16.70
   0   0   0    0.00    0.00

_computing_structure_solution     'SHELXT 2014/5 (Sheldrick, 2014)'
;
_shelx_hkl_checksum              72469
loop_
_space_group_symop_operation_xyz
'x, y, z'
'-x, -y, z+1/2'
'x+1/2, -y, z'
'-x+1/2, y, z+1/2'
loop_
_atom_site_type_symbol
_atom_site_label
_atom_site_fract_x
_atom_site_fract_y
_atom_site_fract_z
_atom_site_U_iso_or_equiv
_atom_site_adp_type
_atom_site_calc_flag
_atom_site_occupancy
Zr Zr1 0.42265(13) 0.33389(11) 0.49994(14) 0.0170(3) Uani d 1
Cl Cl1 0.5727(4) 0.1350(3) 0.6288(2) 0.0221(6) Uani d 1
Cl Cl2 0.0920(4) 0.3893(3) 0.61382(19) 0.0189(6) Uani d 1
Cl Cl3 0.2781(4) 0.1303(3) 0.3723(2) 0.0226(6) Uani d 1
Cl Cl4 0.7506(4) 0.3924(3) 0.38424(18) 0.0194(6) Uani d 1
loop_
_atom_site_aniso_label
_atom_site_aniso_U_11
_atom_site_aniso_U_22
_atom_site_aniso_U_33
_atom_site_aniso_U_12
_atom_site_aniso_U_13
_atom_site_aniso_U_23
Zr1 0.0132(4) 0.0184(5) 0.0193(5) 0.0001(4) 0.0003(4) 0.0003(6)
Cl1 0.0211(13) 0.0236(13) 0.0217(13) 0.0026(10) -0.0024(10) 0.0043(10)
Cl2 0.0150(12) 0.0217(12) 0.0200(14) 0.0014(9) 0.0012(9) 0.0022(10)
Cl3 0.0208(12) 0.0238(12) 0.0231(14) -0.0017(10) -0.0020(12) -0.0022(10)
Cl4 0.0153(11) 0.0219(12) 0.0211(14) -0.0019(10) 0.0017(11) -0.0009(10)
loop_
_atom_type_symbol
_atom_type_description
_atom_type_scat_dispersion_real
_atom_type_scat_dispersion_imag
_atom_type_scat_source
Cl Cl 0.1484 0.1585 'International Tables Vol C Tables 4.2.6.8 and 6.1.1.4'
Zr Zr -2.9673 0.5597 'International Tables Vol C Tables 4.2.6.8 and 6.1.1.4'
loop_
_geom_angle_atom_site_label_1
_geom_angle_atom_site_label_2
_geom_angle_atom_site_label_3
_geom_angle_site_symmetry_1
_geom_angle_site_symmetry_3
_geom_angle
Cl3 Zr1 Cl1 . . 100.75(9)
Cl3 Zr1 Cl2 . . 98.17(9)
Cl1 Zr1 Cl2 . . 94.25(10)
Cl3 Zr1 Cl4 . . 93.74(10)
Cl1 Zr1 Cl4 . . 98.34(9)
Cl2 Zr1 Cl4 . . 160.75(9)
Cl3 Zr1 Cl2 . 3_565 169.16(11)
Cl1 Zr1 Cl2 . 3_565 89.00(10)
Cl2 Zr1 Cl2 . 3_565 85.69(8)
Cl4 Zr1 Cl2 . 3_565 80.05(7)
Cl3 Zr1 Cl4 . 3_465 89.40(9)
Cl1 Zr1 Cl4 . 3_465 169.03(11)
Cl2 Zr1 Cl4 . 3_465 80.08(7)
Cl4 Zr1 Cl4 . 3_465 85.01(7)
Cl2 Zr1 Cl4 3_565 3_465 81.26(7)
Zr1 Cl2 Zr1 . 3_465 99.96(9)
Zr1 Cl4 Zr1 . 3_565 99.90(9)
loop_
_geom_bond_atom_site_label_1
_geom_bond_atom_site_label_2
_geom_bond_site_symmetry_2
_geom_bond_distance
Zr1 Cl3 . 2.313(3)
Zr1 Cl1 . 2.314(3)
Zr1 Cl2 . 2.497(3)
Zr1 Cl4 . 2.499(2)
Zr1 Cl2 3_565 2.659(3)
Zr1 Cl4 3_465 2.659(2)
Cl2 Zr1 3_465 2.659(3)
Cl4 Zr1 3_565 2.659(2)

_cod_database_fobs_code 2021027
