#------------------------------------------------------------------------------
#$Date: 2019-08-29 07:13:12 +0300 (Thu, 29 Aug 2019) $
#$Revision: 217821 $
#$URL: file:///home/coder/svn-repositories/cod/cif/2/02/17/2021755.cif $
#------------------------------------------------------------------------------
#
# This file is available in the Crystallography Open Database (COD),
# http://www.crystallography.net/. The original data for this entry
# were provided by IUCr Journals, http://journals.iucr.org/.
#
# The file may be used within the scientific community so long as
# proper attribution is given to the journal article from which the
# data were obtained.
#
data_2021755
loop_
_publ_author_name
'Meundaeng, Natthaya'
'Prior, Timothy John'
'Rujiwatra, Apinpus'
_publ_section_title
;
 Crystal structures and Hirshfeld surface analysis of transition-metal
 complexes of 1,3-azolecarboxylic acids
;
_journal_coeditor_code           FN3320
_journal_issue                   9
_journal_name_full               'Acta Crystallographica Section C'
_journal_page_first
;
;
_journal_paper_doi               10.1107/S2053229619011525
_journal_volume                  75
_journal_year                    2019
_chemical_formula_iupac          '[Ni (C4 H2 N O2 S)2 (H2 O)2]'
_chemical_formula_moiety         'C8 H8 N2 Ni O6 S2'
_chemical_formula_sum            'C8 H8 N2 Ni O6 S2'
_chemical_formula_weight         350.99
_chemical_name_systematic
;
Diaquabis(thiazole-2-carboxylato-\k^2^<i>N</i>,<i>O</i>)nickel(II)
;
_space_group_crystal_system      monoclinic
_space_group_IT_number           14
_space_group_name_Hall           '-P 2yn'
_space_group_name_H-M_alt        'P 1 21/n 1'
_symmetry_space_group_name_Hall  '-P 2yn'
_symmetry_space_group_name_H-M   'P 1 21/n 1'
_atom_sites_solution_hydrogens   difmap
_audit_creation_method           SHELXL-2018/3
_cell_angle_alpha                90
_cell_angle_beta                 109.780(16)
_cell_angle_gamma                90
_cell_formula_units_Z            2
_cell_length_a                   5.0710(9)
_cell_length_b                   18.239(3)
_cell_length_c                   6.8383(17)
_cell_measurement_reflns_used    4959
_cell_measurement_temperature    150(2)
_cell_measurement_theta_max      29.55
_cell_measurement_theta_min      2.25
_cell_volume                     595.2(2)
_computing_cell_refinement
;
X-AREA (Stoe & Cie, 2016)
;
_computing_data_collection
;
X-AREA (Stoe & Cie, 2016)
;
_computing_data_reduction
;
SORTAV (Blessing, 1987, 1989)
;
_computing_structure_refinement
;
SHELXL2018 (Sheldrick, 2015b)
;
_computing_structure_solution
;
SHELXT2014 (Sheldrick, 2015a)
;
_diffrn_ambient_temperature      150(2)
_diffrn_detector_area_resol_mean 6.67
_diffrn_measured_fraction_theta_full 1.000
_diffrn_measured_fraction_theta_max 0.996
_diffrn_measurement_device_type  'Stoe IPDS2'
_diffrn_measurement_method       \w-scans
_diffrn_radiation_type           MoK\a
_diffrn_radiation_wavelength     0.71073
_diffrn_reflns_av_R_equivalents  0.0361
_diffrn_reflns_av_unetI/netI     0.0321
_diffrn_reflns_limit_h_max       5
_diffrn_reflns_limit_h_min       -6
_diffrn_reflns_limit_k_max       24
_diffrn_reflns_limit_k_min       -21
_diffrn_reflns_limit_l_max       9
_diffrn_reflns_limit_l_min       -9
_diffrn_reflns_number            4011
_diffrn_reflns_theta_full        26.000
_diffrn_reflns_theta_max         29.114
_diffrn_reflns_theta_min         2.233
_diffrn_source                   'fine-focus sealed tube'
_exptl_absorpt_coefficient_mu    2.005
_exptl_absorpt_correction_T_max  0.823
_exptl_absorpt_correction_T_min  0.817
_exptl_absorpt_correction_type   multi-scan
_exptl_absorpt_process_details
;
(SORTAV; Blessing, 1995)
;
_exptl_crystal_colour            blue
_exptl_crystal_density_diffrn    1.959
_exptl_crystal_description       block
_exptl_crystal_F_000             356
_exptl_crystal_size_max          0.460
_exptl_crystal_size_mid          0.110
_exptl_crystal_size_min          0.100
_refine_diff_density_max         0.495
_refine_diff_density_min         -0.289
_refine_ls_extinction_method     none
_refine_ls_goodness_of_fit_ref   0.949
_refine_ls_hydrogen_treatment    refall
_refine_ls_matrix_type           full
_refine_ls_number_parameters     98
_refine_ls_number_reflns         1594
_refine_ls_number_restraints     0
_refine_ls_restrained_S_all      0.949
_refine_ls_R_factor_all          0.0276
_refine_ls_R_factor_gt           0.0223
_refine_ls_shift/su_max          0.001
_refine_ls_shift/su_mean         0.000
_refine_ls_structure_factor_coef Fsqd
_refine_ls_weighting_details
'w=1/[\s^2^(Fo^2^)+(0.0372P)^2^] where P=(Fo^2^+2Fc^2^)/3'
_refine_ls_weighting_scheme      calc
_refine_ls_wR_factor_gt          0.0562
_refine_ls_wR_factor_ref         0.0571
_reflns_number_gt                1367
_reflns_number_total             1594
_reflns_threshold_expression     'I > 2\s(I)'
_cod_data_source_file            fn3320sup1.cif
_cod_data_source_block           Ni-2tza
_cod_database_code               2021755
_shelx_space_group_comment
;
The symmetry employed for this shelxl refinement is uniquely defined
by the following loop, which should always be used as a source of
symmetry information in preference to the above space-group names.
They are only intended as comments.
;
_shelx_estimated_absorpt_t_min   0.459
_shelx_estimated_absorpt_t_max   0.825
_shelx_hkl_file
;
  -6   5   4   21.37    9.84   2 0.04138-0.78615-0.00924 0.20385 0.95424-0.81418
  -4 -13   3  370.58   13.18   4 0.03508-0.51772 0.00179-0.50867 0.95240-0.82397
  -4   6   2  493.76    8.73   3 0.04047-0.56123-0.00766 0.24202 0.95398-0.93388
  -3 -19   4  350.29   12.50   3 0.03486-0.33177 0.00217-0.74128 0.95234-0.66344
  -3 -16   3  537.34   11.91   4 0.03447-0.36853 0.00286-0.62568 0.95222-0.77346
  -3  11   2  297.27    6.29   2 0.04531-0.41768-0.01614 0.44529 0.95531-0.88527
  -2 -18   3   99.40    8.79   3 0.04247-0.22780-0.01115-0.68950 0.95454-0.72598
  -2   8   1  800.84    9.54   2 0.04336-0.30455-0.01272 0.32527 0.95478-0.94457
  -2  14   2  162.14    6.91   3 0.03981-0.26302-0.00649 0.55212 0.95379-0.83198
  -2  20   4  158.14   10.54   2 0.04157-0.19034-0.00957 0.78913 0.95429-0.61176
  -1 -21   4   33.37   10.69   3 0.04026-0.04026-0.00728-0.81084 0.95392-0.56525
  -1 -11   1  205.17    7.11   3 0.04186-0.15314-0.01008-0.41893 0.95437-0.89521
  -1  15   2   21.72    6.48   2 0.04445-0.11893-0.01462 0.59961 0.95508-0.78341
  -1  18   3  131.95    6.55   2 0.04704-0.08459-0.01917 0.72120 0.95576-0.67374
   0 -21   4   -2.49   10.80   3 0.04293 0.10707-0.01197-0.80707 0.95467-0.51229
   0 -19   3  433.42    8.08   2 0.04596 0.06577-0.01727-0.72250 0.95548-0.62731
   0 -16   2  548.65    9.00   3 0.04268 0.03204-0.01153-0.61081 0.95460-0.73528
   0  11   1  582.88    8.08   2 0.04574-0.00840-0.01689 0.44634 0.95542-0.84381
   1 -20   4   21.48   10.64   3 0.04100 0.25733-0.00859-0.77049 0.95413-0.46368
   1 -18   3  533.54   10.09   3 0.04136 0.21934-0.00922-0.69119 0.95423-0.57556
   1 -11   1  137.69    6.30   3 0.04048 0.14620-0.00768-0.42086 0.95399-0.79418
   2  -9   1  190.68    6.43   2 0.04294 0.29271-0.01198-0.33788 0.95467-0.74370
   2  13   2   84.15    8.89   3 0.03908 0.33336-0.00521 0.51221 0.95358-0.63102
   3 -10   2   15.38    7.10   3 0.04179 0.48024-0.00997-0.37914 0.95435-0.58289
   3  -2   1   71.34    6.44   2 0.04255 0.44229-0.01129-0.06562 0.95456-0.69243
   3  -1   1  373.24    8.74   3 0.04065 0.44443-0.00796-0.03028 0.95403-0.69241
   3   0   1 2310.83   18.14   3 0.03986 0.44563-0.00659 0.00730 0.95381-0.69181
   3   1   1  371.78    9.43   3 0.04175 0.44343-0.00989 0.04969 0.95434-0.69221
   3  13   3   34.41   13.49   4 0.03069 0.52783 0.00946 0.49848 0.95104-0.46768
   4 -11   4   35.44   10.59   2 0.04506 0.70009-0.01569-0.41175 0.95524-0.31314
   4  -8   3  359.62    9.69   2 0.04417 0.66328-0.01414-0.29564 0.95500-0.42339
  -6  -6   4  181.61   15.10   4 0.03070-0.77518 0.00990-0.24010 0.95089-0.81304
  -6   6   4  184.40   10.77   3 0.03356-0.77726 0.00489 0.23129 0.95179-0.81291
  -5   7   3   87.60    6.33   3 0.03779-0.67010-0.00251 0.27693 0.95307-0.87396
  -5  13   4  171.40    9.72   3 0.03639-0.63173-0.00006 0.50835 0.95265-0.76287
  -4   7   2   12.37    6.50   4 0.02978-0.55134 0.01150 0.26179 0.95059-0.93119
  -4  13   3  400.77    8.89   3 0.03555-0.51926 0.00141 0.50606 0.95240-0.82220
  -4  17   4   -5.26    9.03   4 0.03249-0.47971 0.00677 0.65462 0.95146-0.71007
  -3  -1   1 1093.44   14.83   3 0.03313-0.44343 0.00564-0.04413 0.95166-0.99261
  -3   0   1 3562.38   23.27   3 0.03486-0.44531 0.00261-0.00206 0.95219-0.99326
  -3   1   1 1108.21   13.07   3 0.03361-0.44387 0.00481 0.03467 0.95181-0.99270
  -3   2   1  403.84    8.59   4 0.02994-0.43954 0.01123 0.06741 0.95064-0.99139
  -3  12   2  197.03    7.14   4 0.03134-0.40330 0.00878 0.45907 0.95109-0.87997
  -3  16   3  505.39    9.04   3 0.03593-0.37093 0.00075 0.62336 0.95251-0.77137
  -3  19   4  326.12   10.27   3 0.03547-0.33331 0.00154 0.73968 0.95238-0.66065
  -2 -14   2  146.04    7.44   4 0.03076-0.25384 0.00979-0.55517 0.95091-0.83287
  -2  18   3   82.30    8.00   4 0.03132-0.21681 0.00882 0.69255 0.95109-0.71872
  -1  11   1  209.00    6.80   4 0.03225-0.14397 0.00719 0.42212 0.95138-0.88969
  -1  21   4   29.84    9.84   4 0.03217-0.03139 0.00733 0.81135 0.95136-0.55754
   1 -15   2  475.28    6.93   3 0.03779 0.18578-0.00251-0.58131 0.95307-0.68415
   1  15   2  504.66    9.70   3 0.03352 0.19018 0.00496 0.57998 0.95178-0.67936
   2 -18   4    0.62    9.75   4 0.03498 0.41166 0.00241-0.70171 0.95223-0.40964
   2 -16   3   31.20    6.28   3 0.03671 0.37343-0.00062-0.62233 0.95275-0.52257
   2 -13   2   92.97    6.97   3 0.03425 0.33797 0.00368-0.50892 0.95200-0.63192
   2  16   3   34.67    8.85   3 0.03393 0.37611 0.00424 0.62042 0.95191-0.51860
   2  18   4    0.91   11.30   4 0.03325 0.41438 0.00544 0.69835 0.95169-0.40706
   3 -15   4  230.23   11.49   3 0.03415 0.56137 0.00386-0.58651 0.95197-0.36081
   3 -13   3   36.31    6.51   3 0.03736 0.52201-0.00176-0.50391 0.95294-0.47214
   4 -10   4  481.08   12.56   4 0.03426 0.71061 0.00366-0.39179 0.95201-0.31031
   4  -7   3  460.77    9.89   3 0.03509 0.67228 0.00221-0.27346 0.95226-0.42043
  -6   7   4   21.96   10.38   4 0.02525-0.77096 0.01927 0.25480 0.94909-0.80933
  -5   8   3   29.25    7.83   4 0.02823-0.66111 0.01407 0.29938 0.95009-0.87016
  -5  14   4   18.36   10.68   5 0.02390-0.61958 0.02162 0.52501 0.94863-0.75705
  -3  -2   1  408.54   11.61   4 0.02431-0.43446 0.02091-0.09832 0.94877-0.98982
  -3   3   1   78.26    6.46   4 0.02452-0.43393 0.02055 0.09697 0.94884-0.98942
  -2 -20   4  176.22    9.84   4 0.02754-0.17628 0.01526-0.79276 0.94986-0.61109
  -2   9   1 4529.07   18.10   4 0.02844-0.28916 0.01369 0.33781 0.95016-0.93968
  -1 -18   3  155.40    8.55   5 0.02364-0.06017 0.02208-0.72275 0.94854-0.67031
  -1 -15   2   22.19    6.56   5 0.02527-0.09975 0.01924-0.60312 0.94910-0.78020
  -1  16   2   63.49    7.26   5 0.02431-0.09857 0.02092 0.60281 0.94877-0.77663
  -1  19   3   85.67    8.88   4 0.02540-0.06238 0.01900 0.72237 0.94914-0.66704
   0 -20   4  168.33   10.52   5 0.02299 0.12649 0.02322-0.80142 0.94831-0.50949
   0 -18   3  202.42    8.91   5 0.02487 0.08663 0.01993-0.72025 0.94896-0.62037
   0 -15   2  108.02    6.69   5 0.02218 0.05274 0.02463-0.60843 0.94802-0.72899
   0 -11   1  625.30    8.82   4 0.02628 0.01133 0.01746-0.44603 0.94944-0.83956
   0  12   1   56.51    6.22   5 0.02323 0.01411 0.02280 0.44527 0.94839-0.83637
   0  16   2  533.02    8.97   4 0.02701 0.04776 0.01619 0.60784 0.94969-0.72793
   0  19   3  478.07   10.57   4 0.02438 0.08725 0.02079 0.71987 0.94879-0.61638
   0  21   4    2.82   11.46   5 0.02530 0.12412 0.01918 0.80225 0.94911-0.50520
   1 -19   4   51.99    9.31   5 0.02268 0.27556 0.02376-0.76304 0.94820-0.45893
   1 -17   3  349.00    8.49   5 0.02287 0.23785 0.02342-0.68485 0.94827-0.56948
   1 -10   1  712.83    8.70   5 0.02246 0.16441 0.02414-0.41381 0.94812-0.78804
   1  11   1  131.41    6.74   4 0.02804 0.15898 0.01440 0.41519 0.95003-0.78787
   1  18   3  495.35   10.70   4 0.02703 0.23397 0.01616 0.68610 0.94969-0.56710
   1  20   4   18.37   11.35   4 0.02665 0.27267 0.01682 0.76506 0.94957-0.45458
   2  -8   1   15.76    3.93   4 0.02996 0.30636 0.01103-0.32298 0.95066-0.73977
   3 -12   3  638.10   10.34   5 0.02355 0.53524 0.02224-0.48849 0.94850-0.46852
   3  -9   2  449.50    7.14   4 0.02996 0.49138 0.01104-0.36113 0.95066-0.58038
   4  -9   4   31.49   10.71   5 0.02391 0.72191 0.02162-0.37069 0.94863-0.30636
   4  -6   3  142.00    9.23   4 0.02609 0.68144 0.01780-0.25025 0.94938-0.41711
  -6   8   4   58.20   10.85   5 0.01704-0.76087 0.03378 0.28009 0.94603-0.80763
  -5   9   3   -1.84    8.41   6 0.01720-0.65363 0.03350 0.31657 0.94609-0.86724
  -4   8   2   86.27    6.97   5 0.01948-0.54048 0.02952 0.28317 0.94693-0.92768
  -4  14   3   21.68    6.07   5 0.02143-0.50627 0.02611 0.52079 0.94763-0.81665
  -4  18   4   13.13   10.78   6 0.01596-0.46269 0.03567 0.66749 0.94562-0.70363
  -3   4   1  557.05    9.14   5 0.01744-0.42735 0.03308 0.12336 0.94618-0.98708
  -3  13   2 1605.90   11.64   5 0.01617-0.38835 0.03530 0.47150 0.94570-0.87510
  -3  17   3    5.55    7.87   5 0.01905-0.35430 0.03027 0.63401 0.94677-0.76488
  -3  20   4   31.43   10.88   5 0.01715-0.31502 0.03359 0.74844 0.94607-0.65358
  -2 -17   3  686.70   10.74   6 0.01607-0.20098 0.03548-0.69746 0.94566-0.71730
  -2  -8   1  809.61   14.39   6 0.01247-0.27277 0.04175-0.35408 0.94428-0.93509
  -2  10   1  150.06    6.38   6 0.01399-0.27494 0.03910 0.35070 0.94487-0.93440
  -2  15   2   -0.88    4.79   5 0.02143-0.24627 0.02611 0.55873 0.94763-0.82690
  -2  21   4   99.95    8.29   5 0.02099-0.17009 0.02687 0.79272 0.94747-0.60607
  -1 -20   4   96.73   10.14   6 0.01684-0.01624 0.03413-0.81188 0.94595-0.55687
  -1 -10   1  982.36   11.44   6 0.01554-0.12672 0.03639-0.42704 0.94546-0.88650
   0   2   0 2266.91   30.26   6 0.01414-0.01460 0.03884 0.04130 0.94493-0.94476
   1 -14   2    7.76    6.14   5 0.01804 0.20523 0.03203-0.57603 0.94640-0.67645
   2 -17   4   65.14    7.59   5 0.02013 0.42713 0.02839-0.68960 0.94716-0.40724
   2 -15   3  223.57    6.85   5 0.02034 0.38933 0.02801-0.61151 0.94724-0.51775
   2 -12   2   26.31    6.20   5 0.01801 0.35396 0.03208-0.49833 0.94639-0.62600
   2  -7   1  507.32    8.09   6 0.01547 0.32069 0.03652-0.30887 0.94544-0.73459
   2   9   1  177.75   10.18   6 0.00969 0.32583 0.04661 0.30510 0.94318-0.73066
   3 -14   4   22.63    7.73   5 0.02099 0.57638 0.02687-0.57179 0.94747-0.35538
   3  -8   2  665.29    9.39   6 0.01684 0.50483 0.03412-0.34458 0.94595-0.57446
   4  -8   4  103.49    9.87   6 0.01364 0.73207 0.03972-0.34968 0.94473-0.30281
   4  -5   3  131.62    8.86   5 0.01761 0.69018 0.03279-0.22616 0.94624-0.41341
   4   6   3  122.61   13.34   7 0.00185 0.70649 0.06027 0.17296 0.93992-0.40583
  -6   9   4    0.63   10.76   7 0.00812-0.75537 0.04948 0.30038 0.94248-0.80302
  -5  10   3  242.99    9.80   6 0.00821-0.64021 0.04932 0.34129 0.94252-0.86343
  -5  15   4  170.12   10.56   6 0.01061-0.60579 0.04514 0.54066 0.94349-0.75279
  -4 -16   4  474.26   12.52   7 0.00732-0.45273 0.05089-0.67434 0.94215-0.70439
  -4   9   2  129.01    7.69   6 0.00916-0.53017 0.04768 0.30366 0.94290-0.92357
  -4  15   3  185.90    9.39   6 0.00766-0.49112 0.05029 0.53487 0.94229-0.81167
  -3 -18   4   15.06   10.04   7 0.00644-0.30433 0.05242-0.75359 0.94179-0.65361
  -3 -15   3  571.85   11.92   7 0.00073-0.33489 0.06238-0.64602 0.93937-0.76080
  -3 -11   2  309.30   10.70   7 0.00489-0.37618 0.05511-0.48351 0.94115-0.87257
  -3  -3   1   77.55    9.24   7 0.00207-0.41185 0.06003-0.17632 0.93995-0.98124
  -3   5   1 1047.42   11.02   6 0.01046-0.42035 0.04539 0.14978 0.94343-0.98397
  -2  19   3   32.01    6.43   6 0.01181-0.19777 0.04305 0.69803 0.94396-0.71242
  -1  12   1   24.63    4.28   6 0.01311-0.12500 0.04078 0.42774 0.94447-0.88332
  -1  20   3   74.95    8.61   7 0.00559-0.04249 0.05389 0.72523 0.94144-0.65878
  -1  22   4   14.26   11.46   6 0.00942-0.00829 0.04721 0.81246 0.94301-0.54887
   0  17   2   15.47    6.82   7 0.00551 0.06981 0.05403 0.60801 0.94141-0.71860
   1  16   2   27.33    7.11   6 0.00683 0.21681 0.05173 0.57268 0.94196-0.66864
   2  14   2 1717.67   17.28   7 0.00356 0.36916 0.05743 0.48841 0.94059-0.61734
   3 -13   4  182.34   10.43   7 0.00647 0.58936 0.05235-0.55798 0.94181-0.35127
   3 -11   3   10.06    7.64   6 0.00900 0.54952 0.04795-0.47513 0.94284-0.46150
   3  -7   2  789.23    9.57   7 0.00488 0.51649 0.05513-0.32751 0.94114-0.57011
   3  10   2   15.62   14.28   8-0.00894 0.53015 0.07921 0.31109 0.93498-0.56147
   4  -7   4    1.62    9.45   7 0.00552 0.74412 0.05402-0.32879 0.94141-0.29566
   4  -4   3    8.70    7.75   6 0.00941 0.69789 0.04724-0.20183 0.94300-0.41041
   4  -3   3  441.62   10.95   7 0.00287 0.70479 0.05865-0.17556 0.94029-0.40815
  -6  -7   4   22.49   18.20   9-0.01268-0.73174 0.08575-0.35697 0.93309-0.79547
  -6  10   4  247.31   12.05   7-0.00017-0.74294 0.06397 0.32785 0.93889-0.80001
  -5  11   3   18.53    8.77   7-0.00153-0.63098 0.06633 0.36303 0.93829-0.85796
  -5  16   4   38.30   10.64   8-0.00230-0.59254 0.06768 0.55661 0.93794-0.74716
  -4  10   2  258.61    8.33   7-0.00111-0.51935 0.06559 0.32479 0.93848-0.91883
  -4  19   4   -0.79   11.49   8-0.00022-0.44792 0.06404 0.67803 0.93887-0.69825
  -3 -20   5  204.79   11.63   7 0.00169-0.26139 0.06072-0.83843 0.93970-0.54086
  -3   6   1 1052.07   10.51   7 0.00212-0.41163 0.05997 0.17472 0.93989-0.98056
  -3  14   2    5.45    6.82   7 0.00152-0.37393 0.06102 0.48568 0.93963-0.86879
  -3  18   3   78.13    6.66   7 0.00282-0.33740 0.05875 0.64351 0.94019-0.75901
  -3  21   4  494.37   12.88   7-0.00015-0.29731 0.06393 0.75530 0.93890-0.64820
  -2 -19   4   13.68    8.61   7 0.00232-0.15074 0.05963-0.79874 0.93997-0.60122
  -2 -13   2 1391.01   13.09   8-0.00074-0.22211 0.06496-0.57141 0.93864-0.82006
  -2  11   1  327.96    7.40   7-0.00066-0.25994 0.06482 0.36435 0.93867-0.92842
  -2  16   2  482.89    7.14   7 0.00434-0.22718 0.05611 0.56788 0.94083-0.81977
  -2  22   4  155.12   11.08   7 0.00215-0.15082 0.05993 0.79788 0.93990-0.59806
  -1 -21   5    3.05   10.98   8 0.00076 0.03777 0.06234-0.87829 0.93930-0.43783
  -1 -17   3  224.56    8.40   8-0.00061-0.03649 0.06472-0.72610 0.93870-0.66018
  -1 -14   2  184.97    7.14   8-0.00014-0.07404 0.06391-0.60878 0.93890-0.76975
  -1  17   2 1026.70    9.29   7 0.00434-0.07832 0.05611 0.60673 0.94083-0.76911
   0 -19   4    5.14    6.73   7 0.00260 0.14714 0.05913-0.79930 0.94009-0.50020
   0 -17   3    3.74    5.58   7 0.00412 0.10815 0.05648-0.71886 0.94074-0.61112
   0 -14   2    4.93    6.19   8-0.00005 0.07476 0.06376-0.60868 0.93894-0.71926
   0 -10   1 1773.65   12.50   7 0.00434 0.03301 0.05611-0.44623 0.94083-0.83124
   0   3   0    0.67    4.08   7 0.00282-0.00279 0.05875 0.05847 0.94019-0.93989
   0  13   1  984.76   10.44   7 0.00087 0.03667 0.06215 0.44518 0.93934-0.82805
   0  20   3    5.38    9.17   7 0.00058 0.11209 0.06265 0.71883 0.93922-0.60555
   0  22   4   56.28   11.19   7 0.00186 0.14831 0.06042 0.79946 0.93978-0.49528
   1 -19   5    7.31   10.40   8-0.00277 0.33994 0.06849-0.81008 0.93773-0.33601
   1 -18   4    2.60    6.84   7 0.00412 0.29548 0.05648-0.75864 0.94074-0.44785
   1 -16   3  214.12    6.31   7 0.00412 0.25623 0.05648-0.67937 0.94074-0.56161
   1 -13   2  270.20    7.32   8-0.00051 0.22407 0.06455-0.57054 0.93874-0.66869
   1  -9   1    7.04    3.89   7 0.00369 0.18334 0.05724-0.40854 0.94056-0.77997
   1  12   1 3510.79   19.84   7 0.00088 0.18597 0.06213 0.40649 0.93935-0.77738
   1  19   3    1.11    9.26   8-0.00043 0.26160 0.06442 0.67843 0.93877-0.55539
   1  21   4  252.29   13.15   7-0.00030 0.29837 0.06420 0.75497 0.93883-0.44626
   2 -17   5   56.12   10.71   8-0.00260 0.48752 0.06820-0.72973 0.93781-0.28727
   2 -16   4  591.98    8.88   7 0.00369 0.44281 0.05724-0.68027 0.94056-0.40086
   2 -14   3   31.16    5.67   7 0.00369 0.40664 0.05724-0.60195 0.94056-0.51001
   2 -11   2   12.60    4.62   7 0.00260 0.37049 0.05913-0.48809 0.94009-0.61893
   2  -6   1 1796.76   13.00   7-0.00018 0.33609 0.06398-0.29760 0.93889-0.72733
   2  17   3  392.78   11.43   7-0.00017 0.40998 0.06397 0.59947 0.93889-0.50614
   2  19   4    0.10   11.70   8-0.00065 0.44836 0.06480 0.67813 0.93868-0.39411
   3 -10   3   38.96    7.58   8-0.00412 0.56320 0.07084-0.45934 0.93712-0.45620
   3  16   4    5.57   15.79   9-0.01249 0.60971 0.08542 0.53975 0.93318-0.33798
   4  -2   3   98.65    8.62   8-0.00368 0.71180 0.07007-0.14782 0.93732-0.40482
   4   5   3  122.15   12.14   9-0.01239 0.72058 0.08524 0.10883 0.93323-0.39949
  -6  11   4   15.06   11.84   8-0.00936-0.73486 0.07948 0.35022 0.93479-0.79466
  -5  12   3   22.77    8.59   9-0.01224-0.61997 0.08448 0.38371 0.93342-0.85310
  -4 -18   5   27.10   12.49   9-0.01116-0.39739 0.08261-0.78398 0.93394-0.58531
  -4 -12   3   -1.10   10.24  10-0.01815-0.46641 0.09475-0.56390 0.93048-0.80066
  -4  11   2   11.36    6.88   9-0.01235-0.50928 0.08467 0.34503 0.93336-0.91351
  -4  16   3  179.34    9.09   8-0.00679-0.47692 0.07500 0.54910 0.93600-0.80601
  -3   7   1   37.92    5.77   8-0.00676-0.40296 0.07495 0.19899 0.93602-0.97653
  -2 -16   3   71.68    7.52   9-0.01190-0.17345 0.08390-0.70724 0.93358-0.70534
  -2  20   3  162.07    9.35   8-0.00680-0.17963 0.07502 0.70457 0.93600-0.70502
  -1 -19   4  611.73    9.08   8-0.00563 0.00581 0.07297-0.81287 0.93654-0.54798
  -1  13   1  506.61    7.05   8-0.00454-0.10720 0.07109 0.43607 0.93704-0.87586
   0 -20   5   -0.61   11.25   9-0.00910 0.19686 0.07901-0.85788 0.93492-0.38196
   0   4   0 1685.50   19.14   8-0.00915 0.00892 0.07910 0.07862 0.93490-0.93462
   3 -12   4   24.17    9.44   8-0.00871 0.60507 0.07834-0.54461 0.93510-0.34266
   3  -6   2  503.62    8.66   8-0.00842 0.53006 0.07784-0.31080 0.93524-0.56334
   4  -6   4   15.24    8.98   8-0.00796 0.75252 0.07704-0.30934 0.93545-0.29266
   4  -1   3  508.06   10.94   9-0.01025 0.71829 0.08102-0.11983 0.93437-0.40158
   4   0   3    1.02    9.28   9-0.01444 0.72456 0.08832-0.08877 0.93234-0.39762
   4   4   3   11.22   10.97  10-0.02003 0.72808 0.09802 0.05794 0.92952-0.39564
  -6  12   4  131.03   12.18   9-0.01882-0.72435 0.09613 0.37323 0.92998-0.79026
  -4  17   3  175.90    9.30  10-0.01990-0.46262 0.09801 0.56494 0.92943-0.79848
  -3   8   1 1275.94   10.85   9-0.01574-0.39387 0.09079 0.22155 0.93154-0.97231
  -3  15   2  559.25    7.70   9-0.01304-0.35895 0.08609 0.49870 0.93287-0.86288
  -3  19   3   37.92    7.09   9-0.01369-0.32117 0.08722 0.65424 0.93255-0.75166
  -2 -20   5  131.68   11.88  10-0.01852-0.09267 0.09561-0.87431 0.93014-0.48150
  -2  12   1  520.79    7.20   9-0.01477-0.24597 0.08911 0.37875 0.93202-0.92194
  -2  17   2  416.71    7.33   9-0.01282-0.21071 0.08571 0.57717 0.93298-0.81243
  -1 -20   5  168.29   10.53  10-0.02019 0.05749 0.09851-0.87750 0.92928-0.43027
  -1  -9   1   24.80    5.71  10-0.01716-0.09416 0.09326-0.44364 0.93082-0.87128
  -1  18   2    9.71    7.60   9-0.01616-0.05826 0.09151 0.61293 0.93133-0.75969
  -1  21   3   24.02    9.27   9-0.01614-0.02068 0.09148 0.72946 0.93134-0.64861
   0 -18   4  195.68    9.56  10-0.01870 0.16722 0.09592-0.79691 0.93005-0.49105
   0 -16   3  400.18    8.62  10-0.01821 0.12978 0.09507-0.71797 0.93029-0.60083
   0  -9   1  187.55    6.35  10-0.02072 0.05812 0.09944-0.45066 0.92900-0.81921
   0   5   0   -0.10    5.37  10-0.01976 0.01975 0.09777 0.09741 0.92950-0.92912
   0  14   1  365.59    7.96  10-0.01859 0.05616 0.09573 0.45002 0.93010-0.81836
   0  18   2  338.37    8.96   9-0.01759 0.09205 0.09399 0.60759 0.93061-0.70956
   0  21   3   -1.57    9.35  10-0.02019 0.13132 0.09852 0.71838 0.92928-0.59651
   1 -17   4  509.30    8.27   9-0.01499 0.31294 0.08948-0.75154 0.93191-0.44176
   1 -15   3   26.70    6.83   9-0.01597 0.27700 0.09119-0.67455 0.93142-0.55119
   1 -12   2   94.22    6.34  10-0.01995 0.24341 0.09810-0.56566 0.92940-0.65981
   1  -8   1 2337.13   14.46   9-0.01743 0.20426 0.09372-0.40561 0.93069-0.76966
   1  17   2  265.27    9.15   9-0.01877 0.24248 0.09604 0.56621 0.93001-0.65756
   2 -16   5    1.81   10.83  10-0.01954 0.50525 0.09739-0.72036 0.92961-0.27718
   2 -15   4  101.69    7.10   9-0.01347 0.46055 0.08684-0.67098 0.93266-0.39185
   2 -13   3  288.43    6.67   9-0.01326 0.42301 0.08647-0.59254 0.93277-0.50265
   2 -10   2  419.19    6.74   9-0.01434 0.38721 0.08835-0.47780 0.93223-0.61143
   2  -5   1  812.58    9.74   9-0.01578 0.35183 0.09085-0.28539 0.93152-0.71987
   3 -13   5   57.98    8.90   9-0.01369 0.64823 0.08722-0.59415 0.93255-0.22937
   3  -9   3  118.41    7.94  10-0.01837 0.57689 0.09536-0.44598 0.93021-0.44900
   3  -5   2 2084.02   13.82  10-0.02011 0.54194 0.09838-0.29360 0.92932-0.55754
   3  14   3    7.55   12.12  10-0.02257 0.58105 0.10265 0.44297 0.92804-0.44415
   4  -5   4  104.53    9.76  10-0.01727 0.76243 0.09345-0.28774 0.93077-0.28717
   4   1   3  490.04   10.78  10-0.01921 0.72747 0.09682-0.05890 0.92978-0.39638
   4   2   3   93.72   10.01  10-0.02192 0.72991 0.10152-0.02490 0.92838-0.39498
   4   3   3  440.20   12.46  10-0.02273 0.73057 0.10292 0.01240 0.92796-0.39434
  -5 -15   5   29.92   15.30  11-0.03526-0.52320 0.12464-0.70906 0.92107-0.62303
  -5 -12   4   57.95   14.79  12-0.03970-0.55439 0.13232-0.60041 0.91849-0.73094
  -5  13   3   15.71    8.99  10-0.02387-0.60990 0.10489 0.40320 0.92737-0.84811
  -4 -15   4   34.65   10.81  11-0.03271-0.41337 0.12023-0.70418 0.92252-0.68422
  -4  12   2   14.18    5.41  10-0.02343-0.49862 0.10414 0.36469 0.92760-0.90835
  -3 -19   5   10.00   11.64  10-0.02582-0.23388 0.10828-0.84877 0.92633-0.52666
  -3 -17   4  284.59   10.52  10-0.02537-0.27213 0.10750-0.76903 0.92657-0.63752
  -3   9   1   40.72    6.29  10-0.02518-0.38390 0.10718 0.24444 0.92667-0.96749
  -3  16   2   39.34    7.74  10-0.02698-0.34448 0.11029 0.51277 0.92570-0.85585
  -3  20   3  388.95   10.35  11-0.02888-0.30654 0.11359 0.66499 0.92466-0.74367
  -2 -18   4  790.81   11.14  10-0.02414-0.12493 0.10537-0.80594 0.92722-0.58800
  -2  13   1  174.43    7.04  11-0.02786-0.23305 0.11182 0.39456 0.92522-0.91458
  -2  18   2   44.40    7.44  11-0.02840-0.19501 0.11275 0.58822 0.92492-0.80355
  -2  21   3  724.40   11.52  10-0.02477-0.16074 0.10645 0.71192 0.92689-0.69651
  -1 -18   4   54.66    8.45  11-0.02935 0.03032 0.11440-0.81497 0.92440-0.53550
  -1 -16   3   18.99    7.38  10-0.02578-0.01115 0.10821-0.73166 0.92635-0.64617
  -1 -13   2   88.63    6.45  10-0.02678-0.04723 0.10995-0.61662 0.92580-0.75629
  -1  14   1 1149.07    9.72  10-0.02170-0.08960 0.10113 0.44508 0.92851-0.86788
   0 -19   5   10.61    9.76  11-0.02885 0.21653 0.11353-0.85402 0.92468-0.37313
   0 -13   2  277.16    5.98  10-0.02256 0.09695 0.10264-0.60943 0.92806-0.70842
   1 -18   5  104.90    8.03  10-0.02235 0.35746 0.10226-0.80382 0.92817-0.32765
   1  13   1   65.45    6.25  10-0.02326 0.21008 0.10384 0.40323 0.92769-0.76595
   1  20   3   76.85   10.40  10-0.02607 0.28676 0.10872 0.67089 0.92619-0.54490
   2  10   1  310.59   10.49  10-0.02777 0.36321 0.11167 0.27868 0.92527-0.71271
   2  15   2   26.09    9.03  10-0.02833 0.40065 0.11264 0.47189 0.92496-0.60210
   2  18   3    9.77   10.65  11-0.03051 0.44018 0.11642 0.58517 0.92376-0.49032
   3 -12   5   43.40   11.17  11-0.02816 0.66217 0.11234-0.58009 0.92505-0.22299
   3 -11   4  103.38    7.02  10-0.02213 0.61827 0.10188-0.53068 0.92828-0.33684
   4  -6   5   38.77   12.41  11-0.02733 0.81023 0.11091-0.34458 0.92550-0.17207
   4  -4   4  200.76   10.20  11-0.02644 0.77161 0.10936-0.26539 0.92599-0.28275
   4   9   4   21.68   18.40  14-0.05687 0.80114 0.16201 0.18694 0.90776-0.26277
  -5  14   3  558.81   11.58  11-0.03434-0.59836 0.12340 0.42247 0.92154-0.84292
  -4  13   2  146.60    8.40  11-0.03414-0.48741 0.12305 0.38367 0.92166-0.90272
  -4  18   3   14.18   10.20  11-0.03478-0.44988 0.12415 0.57925 0.92129-0.79137
  -3 -14   3   24.91    7.75  11-0.03457-0.29983 0.12380-0.66895 0.92141-0.74238
  -3  10   1  344.48    8.00  11-0.03458-0.37523 0.12382 0.26598 0.92140-0.96224
  -2 -12   2 1031.16   11.81  11-0.03497-0.18753 0.12449-0.59194 0.92118-0.80183
  -2  -7   1  421.05   11.99  12-0.04060-0.21957 0.13424-0.40776 0.91789-0.90880
  -1   2   0  222.27    8.70  11-0.03237-0.11798 0.11998-0.04143 0.92266-0.97343
  -1   3   0  549.89    9.98  11-0.02977-0.12067 0.11547 0.00246 0.92412-0.97479
  -1   4   0 7605.19   31.77  11-0.03193-0.11826 0.11923 0.03769 0.92291-0.97352
  -1   5   0  379.20    8.74  11-0.03585-0.11416 0.12601 0.06946 0.92068-0.97092
  -1  15   1   92.88    6.70  11-0.03660-0.07555 0.12731 0.45687 0.92024-0.85875
  -1  19   2  396.23    9.54  11-0.03391-0.04188 0.12265 0.61781 0.92179-0.75197
  -1  22   3  112.44   10.95  11-0.03500-0.00344 0.12455 0.73251 0.92116-0.64047
   0   6   0   40.34    4.31  11-0.03085 0.03051 0.11735 0.11813 0.92352-0.92319
   0  15   1  329.86    7.80  11-0.03651 0.07289 0.12715 0.45723 0.92030-0.80840
   0  19   2   -1.89    7.52  12-0.03670 0.11002 0.12748 0.61155 0.92019-0.69881
   1 -16   4   62.90    8.61  11-0.03427 0.33198 0.12328-0.74675 0.92158-0.43097
   1 -14   3 1214.63   10.58  11-0.03536 0.29633 0.12517-0.67034 0.92096-0.54070
   2 -15   5   88.27   10.68  12-0.03565 0.52146 0.12566-0.71042 0.92079-0.26930
   2 -14   4  232.37    7.21  11-0.03020 0.47710 0.11623-0.66192 0.92388-0.38339
   2 -12   3    5.14    5.26  11-0.03042 0.44145 0.11660-0.58454 0.92376-0.49181
   2  -9   2   36.67    4.62  11-0.03193 0.40472 0.11923-0.46983 0.92291-0.60163
   2  -4   1 2005.12   14.11  11-0.03150 0.36790 0.11848-0.27441 0.92315-0.71153
   3 -10   4    9.22    9.09  12-0.03618 0.63407 0.12658-0.51665 0.92049-0.32733
   3  -8   3  911.58   10.06  11-0.03231 0.59117 0.11989-0.43169 0.92270-0.44132
   3  -4   2  253.64    7.51  11-0.03316 0.55498 0.12136-0.27719 0.92221-0.55018
   4  -5   5   27.47   11.88  12-0.03713 0.82126 0.12823-0.32231 0.91993-0.16521
   4  -3   4   -0.79    9.71  12-0.03507 0.78143 0.12467-0.24297 0.92112-0.27626
  -6   2   3   56.67   10.43  13-0.04831-0.73278 0.14770-0.06957 0.91307-0.88536
  -6   3   3  119.80   10.04  13-0.04533-0.73517 0.14254-0.02634 0.91492-0.88658
  -6   4   3   23.07    9.69  12-0.04501-0.73617 0.14198 0.01484 0.91512-0.88621
  -6   5   3  762.51   12.01  13-0.04641-0.73424 0.14440 0.04980 0.91426-0.88593
  -5   2   2    8.54    8.11  13-0.04679-0.62190 0.14507-0.06651 0.91402-0.94499
  -5   3   2  491.64    9.97  13-0.04515-0.62421 0.14223-0.02621 0.91504-0.94626
  -5   4   2  619.37   10.35  12-0.04475-0.62456 0.14154 0.01344 0.91528-0.94640
  -5   5   2   48.36    7.40  13-0.04593-0.62298 0.14358 0.05068 0.91455-0.94559
  -5  15   3   40.83   10.75  12-0.04434-0.58812 0.14083 0.44314 0.91553-0.83564
  -4 -17   5   28.74   11.54  12-0.04451-0.36453 0.14112-0.80406 0.91543-0.56605
  -4  14   2 1623.58   12.54  12-0.04436-0.47756 0.14086 0.40366 0.91552-0.89578
  -3 -10   2  362.54   11.03  13-0.04484-0.32601 0.14170-0.53171 0.91522-0.84637
  -3  11   1  479.63    8.45  12-0.04413-0.36606 0.14048 0.28786 0.91565-0.95640
  -3  17   2   26.40    7.59  12-0.04138-0.33123 0.13572 0.52739 0.91732-0.84790
  -3  21   3   16.86   10.70  12-0.04439-0.29009 0.14091 0.67715 0.91550-0.73397
  -2 -19   5  111.51   10.89  12-0.04381-0.06673 0.13991-0.88000 0.91585-0.46590
  -2 -15   3   59.90    7.26  12-0.04197-0.14302 0.13673-0.72095 0.91697-0.68709
  -2  14   1   68.31    6.67  12-0.04230-0.21882 0.13730 0.40796 0.91677-0.90768
  -2  19   2   21.47    8.45  12-0.04431-0.17881 0.14079 0.59932 0.91555-0.79410
  -2  22   3    6.47   10.70  12-0.04268-0.14353 0.13796 0.72119 0.91654-0.68551
  -1 -19   5  108.53   10.41  12-0.04331 0.08168 0.13905-0.87881 0.91616-0.41558
  -1   1   0 6099.74   39.49  12-0.04364-0.10719 0.13963-0.10048 0.91595-0.96697
  -1   6   0   31.79    5.80  12-0.04252-0.10724 0.13768 0.09629 0.91664-0.96718
   0 -17   4  289.94    7.16  12-0.04009 0.19004 0.13347-0.79546 0.91809-0.47784
   0 -15   3  723.55    8.09  12-0.04052 0.15285 0.13422-0.71824 0.91784-0.58757
   0 -12   2 2703.52   14.43  13-0.04587 0.12172 0.14348-0.61173 0.91459-0.69473
   0   7   0    1.44    5.37  12-0.04203 0.04192 0.13684 0.13637 0.91693-0.91673
   0  22   3  133.69   11.43  12-0.04337 0.15213 0.13915 0.71826 0.91612-0.58625
   1 -17   5   98.72    9.42  12-0.04104 0.37734 0.13512-0.79738 0.91753-0.31622
   1 -11   2  359.57    6.36  12-0.04095 0.26517 0.13497-0.56344 0.91758-0.64682
   1  -7   1  576.41    7.83  12-0.03857 0.22581 0.13085-0.40373 0.91899-0.75791
   1  14   1    6.23    6.22  12-0.04437 0.23050 0.14089 0.40482 0.91551-0.75375
   1  18   2   48.44    8.48  12-0.04319 0.26500 0.13883 0.56341 0.91623-0.64556
   3 -11   5    8.58   10.86  12-0.04321 0.67713 0.13888-0.56691 0.91622-0.21269
   3  -7   3  273.99    7.98  13-0.04651 0.60597 0.14458-0.41686 0.91419-0.43245
   3  -3   2  400.96    8.41  13-0.04559 0.56791 0.14300-0.25942 0.91476-0.54259
   4  -4   5   26.12   10.80  13-0.04664 0.83040 0.14480-0.30131 0.91412-0.15982
   4  -2   4   23.36    9.74  13-0.04400 0.78967 0.14024-0.21807 0.91574-0.27202
  -6   1   3   53.30    9.63  13-0.05224-0.72803 0.15535-0.11591 0.91033-0.88267
  -6   6   3  244.70   10.11  13-0.04950-0.73149 0.15061 0.08364 0.91208-0.88472
  -6   7   3  190.21   10.80  13-0.05240-0.72852 0.15562 0.11702 0.91023-0.88205
  -5   1   2  202.37    8.99  13-0.05285-0.61643 0.15639-0.11786 0.90994-0.94157
  -5   6   2   58.91    7.43  13-0.04929-0.62044 0.15024 0.08283 0.91222-0.94408
  -5   7   2  427.32    9.48  13-0.05261-0.61703 0.15598 0.11620 0.91010-0.94144
  -4  19   3  458.16    9.44  13-0.04799-0.43690 0.14800 0.59273 0.91304-0.78440
  -3 -18   5  616.60   12.71  14-0.05323-0.20604 0.15705-0.85913 0.90970-0.51105
  -3 -16   4  130.45    8.59  14-0.05520-0.24143 0.16045-0.78451 0.90841-0.61967
  -3  -4   1  567.99   21.80  15-0.06977-0.33971 0.18561-0.34235 0.89845-0.93950
  -3  12   1   68.86    6.65  13-0.05301-0.35687 0.15668 0.31025 0.90984-0.94977
  -3  18   2    3.22    8.00  13-0.05288-0.31738 0.15645 0.54253 0.90992-0.83901
  -2 -17   4   98.17    8.90  13-0.05089-0.09727 0.15300-0.81495 0.91120-0.57093
  -1 -17   4   79.21    8.48  13-0.05261 0.05361 0.15599-0.81887 0.91009-0.51993
  -1 -15   3  257.84    7.88  13-0.05128 0.01523 0.15368-0.73746 0.91095-0.63049
  -1 -12   2   28.71    5.53  14-0.05445-0.01901 0.15916-0.62770 0.90890-0.73891
  -1  -8   1  415.79    8.77  13-0.05187-0.05887 0.15471-0.46710 0.91057-0.85018
  -1   7   0  992.65   10.31  13-0.04950-0.10082 0.15061 0.12285 0.91208-0.96285
  -1  16   1  226.00    7.70  13-0.05250-0.06038 0.15580 0.46742 0.91017-0.84983
  -1  20   2   18.43    8.62  13-0.05169-0.02242 0.15440 0.62642 0.91069-0.74014
  -1  23   3   15.55   10.35  14-0.05343 0.01677 0.15740 0.73802 0.90956-0.62837
   0 -18   5   77.25    7.82  13-0.04929 0.23584 0.15024-0.85134 0.91222-0.36144
   0  -8   1 2289.41   15.08  13-0.04799 0.08672 0.14800-0.46021 0.91304-0.80204
   0   8   0 2365.91   16.66  13-0.05245 0.05162 0.15570 0.15742 0.91020-0.91006
   0  16   1  433.61    8.43  14-0.05422 0.09050 0.15876 0.46438 0.90905-0.79771
   1 -15   4  500.44    9.31  14-0.05278 0.35130 0.15627-0.74104 0.90999-0.41967
   1  21   3  139.27   11.23  13-0.05021 0.30946 0.15183 0.66775 0.91164-0.53135
   2 -14   5  174.72   10.28  13-0.05250 0.53714 0.15579-0.70173 0.91017-0.25864
   2 -13   4    1.96    5.84  13-0.04713 0.49591 0.14650-0.65483 0.91358-0.36878
   2 -11   3  369.54    6.62  13-0.04799 0.45856 0.14800-0.57592 0.91304-0.48151
   2  -8   2   95.02    6.00  13-0.04985 0.42305 0.15121-0.46211 0.91186-0.58998
   2  -3   1 4243.01   21.48  13-0.04923 0.38580 0.15013-0.26610 0.91226-0.70026
   2  11   1  889.07   14.48  14-0.05568 0.39031 0.16128 0.26842 0.90810-0.69580
   2  16   2    2.93    9.04  14-0.05641 0.42868 0.16254 0.46060 0.90762-0.58531
   3  -9   4   46.28    8.51  13-0.05106 0.64758 0.15330-0.50409 0.91109-0.31825
   4  -3   5   91.24   10.81  14-0.05585 0.83916 0.16159-0.27930 0.90798-0.15455
   4  -1   4    6.06    9.64  13-0.05172 0.79785 0.15445-0.19335 0.91067-0.26660
  -6   0   3   -1.67    9.18  15-0.06109-0.72216 0.17114-0.17291 0.90448-0.87493
  -6   8   3   37.23    9.80  14-0.05721-0.72428 0.16445 0.14831 0.90709-0.87907
  -6   9   3  274.64   11.51  14-0.06146-0.71950 0.17179 0.17847 0.90423-0.87538
  -5   0   2   -0.82    9.05  14-0.06087-0.60841 0.17077-0.17002 0.90463-0.93557
  -5   8   2  431.76    9.03  14-0.05807-0.61155 0.16594 0.14623 0.90651-0.93886
  -5   9   2  173.44    8.60  15-0.06231-0.60732 0.17325 0.17665 0.90365-0.93459
  -5  16   3   91.19    8.63  14-0.05613-0.57723 0.16259 0.46147 0.90780-0.82948
  -4  15   2    9.71    6.28  14-0.05613-0.46537 0.16259 0.42319 0.90780-0.88906
  -4  20   3   87.71   11.66  14-0.06094-0.42345 0.17089 0.60823 0.90458-0.77509
  -3  22   3   20.52   11.47  14-0.06052-0.27430 0.17016 0.68812 0.90487-0.72478
  -2  15   1  478.48    7.04  14-0.05506-0.20656 0.16072 0.42408 0.90851-0.89940
  -2  20   2  240.53    9.29  14-0.06070-0.16369 0.17047 0.60841 0.90475-0.78583
  -2  23   3    8.46   11.89  14-0.05994-0.12622 0.16916 0.72922 0.90526-0.67520
  -1   8   0 1668.03   12.44  14-0.05743-0.09236 0.16482 0.14786 0.90694-0.95761
   0 -16   4  472.19    9.18  15-0.06121 0.21150 0.17136-0.79486 0.90440-0.46390
   0 -14   3   14.04    6.32  15-0.06259 0.17544 0.17373-0.72055 0.90346-0.57208
   0   9   0    0.24    5.30  15-0.06367 0.06346 0.17560 0.17546 0.90272-0.90263
   0  20   2  699.30   10.59  14-0.05745 0.13076 0.16486 0.61501 0.90693-0.68684
   0  23   3  396.36   11.92  15-0.06263 0.17242 0.17381 0.72143 0.90343-0.57203
   1 -16   5  138.98    9.93  14-0.05985 0.39562 0.16901-0.79233 0.90532-0.30356
   1 -13   3    5.81    4.71  14-0.05506 0.31682 0.16072-0.66792 0.90851-0.52664
   1 -10   2  265.39    6.88  15-0.06187 0.28678 0.17249-0.56218 0.90395-0.63292
   1  -6   1 3710.59   19.02  15-0.06147 0.24928 0.17181-0.40598 0.90422-0.74290
   1  19   2  545.46   10.40  15-0.06316 0.28504 0.17473 0.56531 0.90306-0.63118
   2  19   3   16.19   10.76  14-0.06001 0.46912 0.16928 0.57194 0.90521-0.47349
   3 -10   5  148.07    8.16  14-0.05657 0.69044 0.16333-0.55330 0.90751-0.20504
   3  -6   3  874.92   10.35  15-0.06095 0.62047 0.17090-0.40417 0.90458-0.42228
   3  -2   2   15.04    6.20  14-0.05890 0.58113 0.16737-0.24545 0.90596-0.53314
   3  15   3    1.53   13.25  16-0.07295 0.63211 0.19160 0.39383 0.89615-0.41308
   4  -2   5   33.91   12.19  15-0.06536 0.84886 0.17851-0.25644 0.90155-0.14745
   4   0   4  822.39   13.06  15-0.06011 0.80546 0.16946-0.16935 0.90514-0.26142
   4   1   4   12.35   11.00  15-0.06574 0.81259 0.17916-0.14029 0.90128-0.25686
   4   8   4   78.20   15.29  16-0.07391 0.81914 0.19325 0.11637 0.89546-0.25050
  -6  -1   3   51.80   11.69  16-0.07306-0.70789 0.19222-0.22986 0.89615-0.86793
  -6  10   3    7.91   11.07  15-0.06830-0.71398 0.18401 0.20731 0.89957-0.87111
  -5  10   2  115.15    9.27  15-0.06901-0.60082 0.18523 0.20386 0.89907-0.93079
  -5  17   3    0.18   10.95  16-0.06830-0.56822 0.18401 0.47985 0.89957-0.82160
  -4 -14   4   96.17   10.60  16-0.07154-0.37357 0.18960-0.73555 0.89725-0.65801
  -4 -11   3  200.90   11.29  16-0.07403-0.40811 0.19389-0.62283 0.89545-0.76603
  -4  16   2   16.99    8.39  15-0.06723-0.45424 0.18215 0.44273 0.90033-0.88134
  -3 -13   3  233.47    8.77  16-0.07062-0.26304 0.18800-0.69513 0.89792-0.71847
  -3  13   1   87.39    5.27  15-0.06422-0.34660 0.17696 0.32934 0.90243-0.94382
  -3  19   2  157.91    9.40  15-0.06852-0.30537 0.18439 0.55516 0.89942-0.83144
  -2 -18   5  111.03   10.40  15-0.06884-0.04133 0.18494-0.88617 0.89919-0.44831
  -2 -14   3   27.52    7.00  16-0.07088-0.11461 0.18846-0.73492 0.89773-0.66773
  -2 -11   2  149.26    7.18  16-0.07016-0.15243 0.18722-0.61641 0.89825-0.77851
  -2  16   1    5.79    7.09  15-0.06830-0.19251 0.18401 0.44061 0.89957-0.89023
  -1 -19   6  239.82   11.14  15-0.06757 0.14333 0.18274-0.92271 0.90009-0.28858
  -1 -18   5   12.82    7.25  15-0.06551 0.10374 0.17919-0.88092 0.90153-0.39964
  -1   9   0 4800.93   19.70  15-0.06594-0.08435 0.17993 0.17150 0.90123-0.95216
  -1  17   1   47.88    7.28  15-0.06863-0.04424 0.18457 0.47727 0.89934-0.84076
  -1  21   2 1152.29   12.37  15-0.06879-0.00790 0.18485 0.63322 0.89923-0.73084
   0 -18   6  227.34   12.22  15-0.06906 0.29346 0.18531-0.88678 0.89903-0.23729
   0 -17   5  424.26   10.45  16-0.06959 0.25659 0.18624-0.84912 0.89865-0.34802
   0 -11   2   16.96    5.30  16-0.07140 0.14618 0.18935-0.61919 0.89736-0.67664
   0  17   1  421.15    8.61  16-0.07138 0.10790 0.18932 0.47276 0.89737-0.78630
   1  15   1    1.18    4.81  15-0.06487 0.25031 0.17807 0.40638 0.90198-0.74201
   1  22   3  325.94   11.88  16-0.07143 0.33104 0.18941 0.66715 0.89734-0.51554
   2 -13   5   74.59    9.63  16-0.06938 0.55470 0.18587-0.69291 0.89880-0.24634
   2 -12   4  740.69    8.56  15-0.06465 0.51279 0.17770-0.64459 0.90213-0.36049
   2 -10   3  521.61    7.29  15-0.06594 0.47669 0.17993-0.56900 0.90123-0.46952
   2  -7   2   14.42    5.62  15-0.06787 0.44092 0.18325-0.45677 0.89988-0.57800
   2  -2   1   52.76    5.72  15-0.06806 0.40453 0.18358-0.26138 0.89974-0.68782
   3  -9   5   37.87    9.99  16-0.07062 0.70508 0.18801-0.53961 0.89792-0.19491
   3  -8   4  307.02    7.43  15-0.06530 0.66235 0.17882-0.48993 0.90168-0.30960
   3  -1   2  223.76    7.58  16-0.07168 0.59357 0.18984-0.22947 0.89715-0.52506
   3  11   2  141.26   17.13  17-0.08092 0.60210 0.20578 0.22374 0.89031-0.51721
   4  -1   5    7.79   12.05  16-0.07333 0.85777 0.19268-0.23239 0.89596-0.14141
   4   2   4   20.71   11.21  16-0.07401 0.81854 0.19385-0.11726 0.89547-0.25221
   4   7   4    0.78   13.82  17-0.07859 0.82525 0.20175 0.07027 0.89208-0.24786
  -6  11   3   55.92   10.45  16-0.07441-0.70682 0.19557 0.23522 0.89508-0.86703
  -6  12   3   -1.13   10.72  17-0.07932-0.70186 0.20404 0.26103 0.89143-0.86124
  -5 -14   5  133.67   13.84  17-0.07954-0.47643 0.20442-0.75086 0.89126-0.59159
  -5  -1   2  200.07    9.12  16-0.07693-0.59248 0.19992-0.23770 0.89321-0.92484
  -5  11   2  289.61    9.71  16-0.07570-0.59346 0.19780 0.23196 0.89413-0.92608
  -4 -16   5   94.88   10.97  17-0.07798-0.32950 0.20173-0.82554 0.89243-0.54273
  -4   3   1 1702.60   14.00  16-0.07734-0.48118 0.20063-0.08290 0.89291-0.98407
  -4   4   1  340.78    8.00  16-0.07442-0.48375 0.19559-0.03874 0.89507-0.98649
  -4   5   1  153.48    5.70  16-0.07354-0.48461 0.19407 0.00187 0.89571-0.98713
  -4   6   1  150.62    6.94  16-0.07440-0.48360 0.19555 0.03912 0.89509-0.98648
  -4   7   1 1936.21   13.56  16-0.07683-0.48147 0.19975 0.07396 0.89329-0.98474
  -4   8   1   66.93    6.91  17-0.07927-0.47838 0.20395 0.10797 0.89147-0.98195
  -4  17   2  519.38   11.10  16-0.07773-0.44301 0.20131 0.46132 0.89262-0.87321
  -3  14   1  474.94    7.06  16-0.07418-0.33498 0.19518 0.35071 0.89524-0.93618
  -2 -16   4   48.85    7.92  16-0.07748-0.07049 0.20086-0.82428 0.89281-0.55288
  -2   5   0  116.50    6.48  17-0.07872-0.21994 0.20301-0.00772 0.89188-0.99235
  -2   6   0 1200.97   11.33  17-0.07925-0.21938 0.20391 0.03038 0.89148-0.99185
  -2  21   2    5.97    9.63  16-0.07662-0.14738 0.19938 0.62112 0.89345-0.77391
  -1 -16   4    0.90    8.05  17-0.07729 0.07867 0.20053-0.82568 0.89295-0.49957
  -1 -14   3  981.63   10.41  16-0.07725 0.04087 0.20047-0.74573 0.89298-0.61236
  -1   0   0    0.73    5.40  16-0.07440-0.07474 0.19555-0.19542 0.89509-0.94555
  -1  10   0  319.35    6.25  16-0.07440-0.07470 0.19555 0.19506 0.89509-0.94540
   0  -7   1 3557.50   19.65  17-0.07783 0.11598 0.20148-0.47509 0.89254-0.78183
   0  10   0 3326.97   17.51  16-0.07461 0.07455 0.19592 0.19484 0.89493-0.89492
   0  21   2    5.61    9.34  16-0.07635 0.15075 0.19892 0.62034 0.89364-0.67282
   1 -16   6   24.68   10.27  16-0.07549 0.44885 0.19744-0.82075 0.89428-0.18178
   1 -15   5  203.24    9.62  17-0.07796 0.41369 0.20170-0.78699 0.89245-0.29159
   1 -14   4   12.73    5.42  16-0.07247 0.37154 0.19222-0.73854 0.89649-0.40437
   1 -12   3   12.44    6.15  16-0.07612 0.33743 0.19852-0.66627 0.89382-0.51213
   2  12   1  195.73    9.69  17-0.07991 0.41489 0.20506 0.26284 0.89098-0.67900
   2  17   2   91.70   10.25  17-0.08115 0.45276 0.20719 0.45499 0.89005-0.56787
   3  -7   4   65.64    8.00  17-0.07989 0.67685 0.20503-0.47774 0.89099-0.29853
   3  -5   3  111.70    7.44  16-0.07557 0.63453 0.19756-0.39306 0.89423-0.41189
   4   0   5    0.92   12.09  17-0.08217 0.86575 0.20895-0.21101 0.88927-0.13438
   4   3   4    1.65    9.71  17-0.07868 0.82386 0.20293-0.08613 0.89191-0.24841
   4   4   4  218.62   12.34  17-0.08293 0.82790 0.21026-0.05470 0.88868-0.24510
   4   5   4   76.08   11.67  18-0.08530 0.83047 0.21435-0.02021 0.88685-0.24278
   4   6   4    4.96   11.62  18-0.08498 0.83008 0.21379 0.02003 0.88710-0.24340
  -6  -2   3   49.48   12.62  18-0.09295-0.68768 0.22792-0.30461 0.88054-0.85287
  -5  12   2   40.74    8.80  17-0.08281-0.58756 0.21046 0.25796 0.88853-0.92073
  -4   2   1   47.30    6.86  17-0.08398-0.47400 0.21248-0.13428 0.88763-0.97934
  -4   9   1   20.60    7.22  17-0.08458-0.47361 0.21351 0.13801 0.88716-0.97888
  -3 -17   5    2.61    9.32  18-0.08437-0.17459 0.21314-0.87461 0.88733-0.48475
  -3 -15   4  285.78    9.47  18-0.08734-0.20867 0.21826-0.80344 0.88501-0.59541
  -3  15   1  214.07    8.12  17-0.08463-0.32550 0.21360 0.37069 0.88712-0.92866
  -3  20   2   51.50    7.25  17-0.08181-0.29163 0.20873 0.57079 0.88930-0.82093
  -2   3   0   83.49    6.40  17-0.08637-0.21231 0.21659-0.09956 0.88577-0.98658
  -2   4   0  390.74    7.47  17-0.08138-0.21756 0.20799-0.05175 0.88962-0.99075
  -2   7   0    3.43    4.01  17-0.08266-0.21569 0.21020 0.06345 0.88864-0.98984
  -2   8   0 1107.87   10.56  17-0.08600-0.21277 0.21595 0.09636 0.88606-0.98690
  -2  17   1  190.37    6.34  17-0.08095-0.18102 0.20726 0.45502 0.88995-0.88155
  -1 -18   6  115.46   10.46  18-0.08863 0.16418 0.22049-0.92290 0.88399-0.27282
  -1 -17   5  143.99    8.89  18-0.08794 0.12674 0.21930-0.88248 0.88453-0.38378
  -1 -11   2 1986.38   13.90  17-0.08585 0.01232 0.21570-0.64453 0.88618-0.71536
  -1  11   0 1376.93   11.17  17-0.08362-0.06636 0.21184 0.21755 0.88791-0.93861
  -1  18   1 1307.40   11.21  17-0.08311-0.02994 0.21098 0.49024 0.88830-0.82952
  -1  22   2   10.55    9.82  17-0.08544 0.01082 0.21500 0.64367 0.88649-0.71605
   0 -17   6  217.02   10.27  18-0.08822 0.31289 0.21977-0.88341 0.88432-0.22324
   0 -15   4  298.12    8.08  17-0.08388 0.23405 0.21230-0.79622 0.88771-0.44621
   0 -13   3 1797.23   12.07  18-0.08619 0.19891 0.21629-0.72320 0.88591-0.55536
   0  11   0   -1.64    5.70  18-0.08586 0.08417 0.21572 0.21256 0.88617-0.88733
   0  18   1   21.76    6.95  18-0.08781 0.12459 0.21907 0.48145 0.88464-0.77381
   1  -9   2  589.81    8.27  17-0.08504 0.30956 0.21430-0.56493 0.88681-0.61519
   1  -5   1   35.12    5.21  18-0.08749 0.27473 0.21853-0.41403 0.88489-0.72370
   1   5   0  372.35   12.30  18-0.08955 0.23897 0.22206-0.02613 0.88326-0.83233
   1   6   0   34.38    6.79  18-0.08790 0.23690 0.21924 0.01543 0.88457-0.83370
   1  16   1 1306.63   12.44  17-0.08370 0.26908 0.21199 0.41206 0.88784-0.72761
   1  20   2  111.85    9.31  17-0.08558 0.30761 0.21524 0.56412 0.88639-0.61631
   2 -13   6   97.78    8.85  17-0.08138 0.60452 0.20799-0.71497 0.88962-0.12702
   2 -12   5   53.45    8.82  17-0.08606 0.57145 0.21606-0.68444 0.88601-0.23339
   2 -11   4  115.95    6.04  17-0.08202 0.53005 0.20910-0.63745 0.88914-0.34732
   2  -9   3  654.13    8.76  17-0.08473 0.49516 0.21377-0.56383 0.88705-0.45475
   2  -6   2 1236.09   10.91  18-0.08667 0.46034 0.21711-0.45139 0.88554-0.56368
   2  -1   1 2725.03   19.40  18-0.08886 0.42565 0.22088-0.25976 0.88381-0.67156
   2  20   3  159.46   12.08  17-0.08623 0.49493 0.21636 0.56310 0.88588-0.45439
   3  -8   5   64.76    9.90  17-0.08555 0.71930 0.21518-0.52691 0.88641-0.18321
   3   0   2    1.72    6.01  17-0.08525 0.60708 0.21466-0.21508 0.88664-0.51430
   4   1   5    4.21   12.25  18-0.08991 0.87344 0.22269-0.18416 0.88298-0.12859
  -5 -11   4  427.13   15.47  20-0.10640-0.48792 0.25146-0.67991 0.86896-0.68017
  -5  -2   2    6.06   10.04  19-0.10091-0.56944 0.24203-0.31962 0.87365-0.90549
  -5  13   2   90.12    7.27  18-0.08987-0.57946 0.22304 0.28441 0.88270-0.91510
  -4   1   1 1257.72   13.52  18-0.09404-0.46442 0.23022-0.19058 0.87933-0.97108
  -4  10   1   45.54    5.42  18-0.08945-0.46894 0.22231 0.16763 0.88304-0.97485
  -4  11   1  332.81    8.73  18-0.09467-0.46323 0.23130 0.19749 0.87882-0.96988
  -4  18   2  211.46    7.86  18-0.08945-0.43204 0.22231 0.47968 0.88304-0.86506
  -3 -18   6   58.14   10.86  18-0.09264-0.12994 0.22780-0.92903 0.88048-0.36990
  -3  -9   2 1466.48   18.13  20-0.10246-0.26956 0.24470-0.59570 0.87233-0.80316
  -3  16   1  195.72    8.35  18-0.09455-0.31479 0.23110 0.39231 0.87892-0.91986
  -3  21   2   52.89   10.56  18-0.09460-0.27779 0.23119 0.58720 0.87888-0.80948
  -2 -18   6   27.71   10.39  19-0.09759 0.02450 0.23632-0.93880 0.87642-0.31508
  -2 -17   5  253.69   10.07  18-0.09423-0.01648 0.23053-0.89305 0.87919-0.42869
  -2   2   0 1906.38   16.80  19-0.09710-0.20130 0.23547-0.15718 0.87683-0.97781
  -2   9   0   31.63    4.34  18-0.09094-0.20716 0.22487 0.12651 0.88185-0.98286
  -2  10   0  203.76    6.56  19-0.09601-0.20213 0.23360 0.15651 0.87773-0.97803
  -2  18   1   38.56    7.76  18-0.09353-0.16690 0.22934 0.47158 0.87975-0.87117
  -2  22   2  156.43   10.00  18-0.09145-0.13239 0.22575 0.63180 0.88144-0.76337
  -1  -7   1  774.50   11.51  18-0.09304-0.01822 0.22849-0.50193 0.88015-0.81971
  -1  12   0  666.48    8.74  18-0.09300-0.05633 0.22843 0.23976 0.88018-0.93085
  -1  19   1   31.41    7.37  19-0.09666-0.01550 0.23473 0.50462 0.87719-0.81725
   0 -16   5   17.05    6.59  18-0.09051 0.27809 0.22414-0.84840 0.88219-0.32982
   0  12   0   43.19    6.01  19-0.09548 0.09512 0.23270 0.23495 0.87816-0.87772
   0  22   2   72.46   10.45  18-0.09438 0.16836 0.23080 0.62601 0.87906-0.65905
   1 -15   6  157.15   10.99  18-0.09354 0.46678 0.22935-0.81405 0.87975-0.16754
   1 -14   5  249.05    8.98  19-0.09725 0.43324 0.23574-0.78191 0.87670-0.27528
   1 -13   4  226.86    8.15  18-0.09303 0.39132 0.22847-0.73517 0.88016-0.38841
   1 -11   3  170.04    6.69  19-0.09682 0.35854 0.23500-0.66412 0.87706-0.49586
   1   7   0  972.00   14.17  18-0.09342 0.24291 0.22914 0.04500 0.87984-0.82920
   3  -8   6   15.35   11.88  18-0.09410 0.76608 0.23031-0.54272 0.87929-0.06490
   3  -6   4  153.16    8.73  19-0.09443 0.69119 0.23089-0.46510 0.87902-0.28633
   3  -4   3    8.06    5.13  18-0.08987 0.64960 0.22304-0.37953 0.88270-0.39969
   3   1   2  217.85    8.64  19-0.09869 0.62070 0.23821-0.19947 0.87551-0.50294
   4   2   5   35.58   11.73  19-0.09653 0.88010 0.23450-0.15757 0.87730-0.12306
  -5  14   2    1.16    7.25  19-0.09795-0.57465 0.23721 0.30763 0.87610-0.90831
  -5  15   2  330.10   10.78  20-0.10470-0.56318 0.24882 0.33686 0.87039-0.90082
  -4  12   1  185.81    8.40  19-0.10204-0.45607 0.24425 0.22358 0.87266-0.96499
  -4  19   2   -0.75    9.91  20-0.10176-0.42261 0.24377 0.49855 0.87290-0.85526
  -2 -15   4   22.01    7.07  20-0.10620-0.04172 0.25140-0.83626 0.86910-0.52882
  -2 -13   3   66.94    6.91  20-0.10324-0.08255 0.24631-0.75298 0.87164-0.64241
  -2  11   0   86.82    6.35  19-0.10308-0.19465 0.24603 0.18262 0.87178-0.97255
  -1 -15   4  225.76    8.21  19-0.10249 0.10266 0.24502-0.82960 0.87228-0.48191
  -1 -13   3  552.34    8.71  20-0.10432 0.06679 0.24816-0.75537 0.87072-0.59094
  -1  13   0  510.78    8.20  19-0.10272-0.04623 0.24542 0.26145 0.87208-0.92253
  -1  23   2   -2.66   10.70  20-0.10250 0.02722 0.24504 0.65286 0.87227-0.70259
   0 -10   2 1013.89    9.29  19-0.09858 0.17399 0.23830-0.62842 0.87557-0.65454
   0  19   1  258.32    8.26  20-0.10403 0.14199 0.24766 0.49198 0.87097-0.75962
   1   4   0 7409.10   59.33  20-0.10542 0.25569 0.25006-0.09269 0.86977-0.81857
   1   8   0 1475.39   15.92  19-0.09981 0.24917 0.24040 0.07279 0.87455-0.82391
   1   9   0 4710.66   25.71  20-0.10613 0.25593 0.25128 0.10006 0.86916-0.81763
   1  17   1   73.09    7.46  19-0.10209 0.28819 0.24434 0.41807 0.87262-0.71242
   1  21   2  145.99   11.25  20-0.10515 0.32973 0.24959 0.56762 0.87001-0.59745
   2 -12   6  191.72    8.73  19-0.09752 0.62012 0.23648-0.70505 0.87645-0.11417
   2 -11   5   55.49    8.79  20-0.10314 0.58821 0.24614-0.67581 0.87173-0.21900
   2 -10   4  106.36    7.29  19-0.10005 0.54758 0.24083-0.63051 0.87434-0.33230
   2  -8   3  318.80    8.01  20-0.10284 0.51270 0.24562-0.55829 0.87198-0.44013
   2  13   1  259.45    9.02  19-0.10282 0.43831 0.24558 0.26109 0.87201-0.66023
   2  18   2  559.27   12.99  20-0.10596 0.47923 0.25098 0.44914 0.86931-0.54648
   3  -7   5    3.10    7.01  19-0.09901 0.73398 0.23903-0.51383 0.87522-0.16944
   3  -3   3   73.96    7.26  20-0.10494 0.66377 0.24922-0.36826 0.87019-0.38758
   3  16   3  473.33   18.90  20-0.11023 0.66961 0.25831 0.36408 0.86559-0.38152
   4   3   5   66.93   11.88  20-0.10330 0.88623 0.24641-0.13212 0.87159-0.11725
   4   4   5    9.35   13.23  21-0.11016 0.89225 0.25819-0.10249 0.86565-0.11118
  -5  16   2    5.39   10.07  20-0.11134-0.55481 0.26027 0.36020 0.86437-0.89379
  -4 -15   5  142.75   10.73  21-0.11261-0.29607 0.26246-0.84773 0.86324-0.51421
  -4 -13   4   57.06   10.04  21-0.11417-0.33147 0.26513-0.77173 0.86184-0.62276
  -4   0   1   -1.67    6.57  21-0.11101-0.44929 0.25971-0.26233 0.86466-0.95569
  -4  13   1  117.71    7.93  20-0.10880-0.44827 0.25591 0.25204 0.86661-0.95891
  -4  20   2    8.33   11.40  21-0.11207-0.40936 0.26153 0.51864 0.86372-0.84513
  -3 -16   5   11.01    9.16  21-0.11212-0.14795 0.26161-0.88628 0.86368-0.46276
  -3 -12   3 2047.17   16.36  21-0.11138-0.22365 0.26035-0.72799 0.86433-0.68529
  -3  17   1   57.41    6.43  20-0.10573-0.30261 0.25065 0.41272 0.86928-0.91096
  -3  22   2  172.56   10.87  20-0.10876-0.26178 0.25585 0.60182 0.86665-0.79877
  -2 -10   2 1161.03   12.78  21-0.11125-0.11245 0.26012-0.65013 0.86445-0.74482
  -2  -6   1    2.49    6.30  21-0.11678-0.14390 0.26960-0.50358 0.85948-0.85001
  -2  12   0 1473.42   11.27  20-0.11053-0.18648 0.25890 0.20968 0.86508-0.96624
  -2  19   1  527.04    8.05  20-0.10636-0.15274 0.25174 0.48923 0.86873-0.85975
  -2  23   2   10.91    8.48  20-0.10657-0.11723 0.25210 0.64606 0.86855-0.74950
  -1 -17   6  216.63   10.98  21-0.11112 0.18466 0.25989-0.92326 0.86457-0.25388
  -1 -16   5 1025.48   11.53  21-0.11160 0.14795 0.26073-0.88530 0.86414-0.36418
  -1  14   0    3.25    6.39  21-0.11265-0.03644 0.26253 0.28371 0.86320-0.91387
  -1  20   1  386.75    9.50  20-0.11149 0.00147 0.26053 0.51850 0.86424-0.80408
   0 -16   6    8.15    9.28  21-0.11041 0.33424 0.25868-0.88006 0.86519-0.20350
   0 -15   5  323.04    9.27  21-0.11181 0.29713 0.26109-0.84708 0.86395-0.31335
   0 -14   4  114.87    5.69  20-0.10615 0.25406 0.25137-0.79749 0.86892-0.42827
   0 -12   3    2.86    5.95  20-0.11101 0.22384 0.25971-0.72839 0.86466-0.53295
   0  -6   1  219.84    6.88  21-0.11308 0.15057 0.26326-0.49821 0.86282-0.75200
   0  13   0   37.03    4.50  20-0.10742 0.10910 0.25355 0.25292 0.86781-0.86741
   0  23   2   48.52   10.26  20-0.11201 0.18732 0.26143 0.63359 0.86377-0.64286
   1 -14   6    0.39   10.14  21-0.11143 0.48613 0.26043-0.80792 0.86429-0.14800
   1 -12   4  158.20    7.41  21-0.11300 0.41061 0.26312-0.73197 0.86289-0.37186
   1  -8   2 3109.69   15.60  20-0.10924 0.33276 0.25668-0.56889 0.86622-0.59440
   2 -11   6   89.58    9.89  21-0.11417 0.63526 0.26513-0.69577 0.86184-0.09943
   2  -5   2   45.71    4.43  20-0.10742 0.48051 0.25355-0.44917 0.86781-0.54539
   2   0   1    0.63    5.32  21-0.11248 0.44836 0.26224-0.26225 0.86335-0.65167
   2  21   3  111.52   14.17  20-0.11238 0.52366 0.26206 0.55493 0.86344-0.43072
   3  -7   6  388.65   11.60  20-0.10797 0.77818 0.25449-0.52936 0.86734-0.05361
   3  -6   5   57.86    8.91  21-0.11330 0.74710 0.26363-0.49911 0.86263-0.15929
   3  -5   4  129.21    8.34  20-0.10994 0.70542 0.25787-0.45398 0.86561-0.27254
   3   2   2   18.36    6.51  21-0.11199 0.63356 0.26139-0.18413 0.86379-0.49193
   4   5   5   11.92   12.35  21-0.11248 0.89613 0.26224-0.06720 0.86335-0.10866
   4   6   5   22.19   13.83  21-0.11565 0.89879 0.26766-0.03463 0.86051-0.10621
  -6  -3   3  118.29   13.77  22-0.12369-0.65726 0.28198-0.39617 0.85275-0.82620
  -5 -13   5  384.94   14.32  22-0.12573-0.43162 0.28547-0.79248 0.85083-0.55182
  -4  14   1  149.49    6.47  21-0.11573-0.44127 0.26836 0.27799 0.86010-0.95244
  -3 -17   6  218.51   12.16  22-0.11924-0.10455 0.27437-0.93755 0.85689-0.34727
  -3 -14   4   -1.35    7.96  22-0.12046-0.17754 0.27645-0.82569 0.85577-0.56368
  -3  18   1  581.91    8.36  21-0.11615-0.29184 0.26908 0.43255 0.85972-0.90161
  -2 -17   6   67.70    9.90  22-0.12181 0.04702 0.27875-0.94272 0.85452-0.29422
  -2 -16   5   49.57    8.91  22-0.11989 0.00873 0.27548-0.90016 0.85629-0.40624
  -2   1   0  110.56    6.72  21-0.11638-0.18229 0.26947-0.22988 0.85951-0.96101
  -2  13   0  827.98    9.39  21-0.11777-0.17919 0.27184 0.23542 0.85825-0.95941
  -2  20   1   64.63    8.98  21-0.11871-0.14033 0.27345 0.50561 0.85739-0.84853
  -1 -10   2  170.68    6.73  21-0.11909 0.04439 0.27411-0.66434 0.85703-0.68641
  -1  24   2    7.76   11.67  21-0.11847 0.04427 0.27304 0.66358 0.85761-0.68769
   0  14   0 1609.29   12.25  21-0.11884 0.11970 0.27367 0.27234 0.85727-0.85749
   0  20   1  275.94    9.38  21-0.11998 0.15896 0.27563 0.50295 0.85621-0.74536
   1 -13   5  104.22    8.07  21-0.11701 0.45175 0.27054-0.77779 0.85894-0.25701
   1 -10   3  422.92    7.57  22-0.11933 0.37989 0.27451-0.66512 0.85681-0.47527
   1  -4   1  830.71   10.70  21-0.11768 0.30492 0.27170-0.42804 0.85832-0.69645
   1  10   0  294.33    7.97  21-0.11571 0.26578 0.26832 0.12228 0.86012-0.80925
   1  18   1   60.49    8.07  21-0.11907 0.30644 0.27406 0.42669 0.85706-0.69653
   2 -10   5   21.63    8.54  22-0.12008 0.60543 0.27580-0.66629 0.85612-0.20327
   2  -9   4    8.47    7.20  21-0.11777 0.56618 0.27184-0.62299 0.85825-0.31492
   2  -7   3  729.86    9.00  22-0.12196 0.53180 0.27902-0.55302 0.85437-0.42229
   2  14   1  164.16    9.59  22-0.12197 0.45841 0.27903 0.26579 0.85437-0.64219
   3  -6   6    9.45   11.46  21-0.12013 0.79372 0.27588-0.51056 0.85608-0.04086
   3  -2   3 1268.17   11.92  22-0.11997 0.67937 0.27560-0.35507 0.85623-0.37305
   3   3   2  398.77   10.77  23-0.12700 0.64928 0.28763-0.17147 0.84963-0.47635
   3  12   2  122.36   18.21  23-0.13530 0.65786 0.30180 0.16495 0.84157-0.46794
  -5  17   2  246.25    9.52  22-0.12303-0.54464 0.28094 0.38354 0.85320-0.88655
  -4 -16   6   60.20   12.15  23-0.12768-0.24214 0.28887-0.91393 0.84881-0.38860
  -4 -10   3  486.98   13.64  24-0.13638-0.34648 0.30370-0.69367 0.84033-0.71156
  -4  15   1  199.71    6.87  22-0.12345-0.43303 0.28165 0.30385 0.85281-0.94533
  -3   6   0  210.58    6.85  23-0.13012-0.31664 0.29303-0.05875 0.84646-0.99797
  -3   7   0 1512.61   11.95  22-0.12837-0.31811 0.29005-0.01681 0.84815-0.99959
  -3   8   0   57.57    6.33  23-0.12853-0.31835 0.29031 0.02198 0.84799-0.99951
  -3   9   0  346.14    7.71  23-0.13010-0.31616 0.29299 0.05803 0.84648-0.99803
  -3  19   1   23.59    9.45  22-0.12716-0.28279 0.28798 0.45320 0.84930-0.89126
  -2  14   0  183.94    7.06  22-0.12606-0.17097 0.28610 0.25975 0.85035-0.95204
  -1 -14   4   36.80    7.35  23-0.12806 0.12881 0.28952-0.83575 0.84844-0.45780
  -1  15   0  382.53    6.76  22-0.12261-0.02571 0.28022 0.30476 0.85360-0.90427
  -1  21   1   80.20    9.37  22-0.12628 0.01617 0.28648 0.53150 0.85014-0.79122
   0 -15   6    4.08    9.86  23-0.12836 0.35397 0.29002-0.87683 0.84816-0.18486
   0 -13   4  380.89    8.17  23-0.12910 0.27865 0.29129-0.79866 0.84745-0.40639
   0  -9   2  233.05    6.67  23-0.12766 0.20261 0.28884-0.64030 0.84882-0.62761
   0  15   0   -1.34    6.05  23-0.12880 0.12759 0.29078 0.29204 0.84773-0.84821
   0  24   2   -0.25   10.88  23-0.12943 0.20360 0.29185 0.64160 0.84713-0.62666
   1 -13   6  388.30    9.92  23-0.12989 0.50294 0.29263-0.80053 0.84669-0.13460
   1  11   0 1304.61   13.09  22-0.12508 0.27486 0.28443 0.14526 0.85128-0.80054
   1  22   2  367.15   11.98  22-0.12670 0.35212 0.28719 0.56945 0.84974-0.57927
   2 -10   6   30.66    9.58  23-0.13058 0.65301 0.29381-0.68421 0.84602-0.08246
   2  -4   2 7074.67   24.43  23-0.12857 0.50236 0.29039-0.44682 0.84795-0.52512
   2  19   2    1.86   10.85  23-0.13120 0.50496 0.29488 0.44682 0.84541-0.52325
   3  -5   5   13.91    9.18  23-0.12787 0.76241 0.28919-0.48388 0.84863-0.14431
   3  -4   4  136.42    7.65  22-0.12427 0.72041 0.28304-0.44029 0.85205-0.25866
  -6   7   2   30.16    9.40  24-0.13888-0.67868 0.30805-0.03501 0.83766-0.92067
  -6   8   2  511.78   11.53  24-0.13806-0.67844 0.30664 0.00692 0.83848-0.92156
  -6   9   2   10.63    9.85  24-0.13938-0.67915 0.30890 0.04170 0.83715-0.92011
  -5  -3   2  499.71   14.91  24-0.13837-0.53125 0.30717-0.42275 0.83817-0.87101
  -4  -1   1 1240.79   15.42  23-0.13599-0.42261 0.30313-0.34155 0.84054-0.93306
  -4  16   1  158.04    7.24  23-0.13141-0.42646 0.29534 0.32831 0.84503-0.93773
  -3   5   0  579.90    9.00  23-0.13484-0.31204 0.30117-0.10595 0.84168-0.99394
  -3  10   0   83.92    6.64  23-0.13365-0.31308 0.29914 0.09045 0.84285-0.99557
  -3  11   0  134.98    7.26  23-0.13632-0.30933 0.30369 0.12512 0.84022-0.99175
  -3  20   1  105.77    9.39  24-0.13707-0.27108 0.30497 0.47389 0.83947-0.88027
  -2 -14   4  703.99    9.97  24-0.13583-0.01299 0.30285-0.84892 0.84070-0.50082
  -2 -12   3   -1.95    6.18  24-0.13695-0.04883 0.30476-0.77594 0.83959-0.60763
  -2  15   0   86.81    7.11  23-0.13440-0.16315 0.30041 0.28375 0.84212-0.94422
  -2  21   1    2.07    6.58  23-0.13183-0.12968 0.29605 0.52270 0.84462-0.83673
  -1 -16   6   65.30    9.32  23-0.13358 0.20864 0.29903-0.92323 0.84291-0.23169
  -1 -15   5    6.41    8.31  23-0.13595 0.17451 0.30306-0.88878 0.84058-0.33854
  -1 -12   3 1093.61   10.32  23-0.13469 0.09774 0.30092-0.76854 0.84183-0.56088
  -1  16   0   47.62    6.57  23-0.13338-0.01540 0.29869 0.32471 0.84311-0.89474
   0 -15   7  101.69   11.90  24-0.13708 0.39797 0.30498-0.89134 0.83946-0.06759
   0 -14   5   11.80    7.40  23-0.13467 0.32179 0.30089-0.84587 0.84184-0.28984
   0 -11   3  352.57    7.55  24-0.13666 0.24823 0.30426-0.73432 0.83988-0.50918
   0  21   1  421.35   10.33  23-0.13625 0.17430 0.30356 0.51423 0.84029-0.73075
   1 -12   5   83.92    8.44  24-0.13638 0.47192 0.30379-0.77270 0.84015-0.23792
   1 -11   4  414.57    8.18  23-0.13485 0.43284 0.30118-0.73010 0.84167-0.34939
   1  -7   2  349.08    7.31  23-0.13482 0.35888 0.30114-0.57424 0.84169-0.56948
   1  12   0  635.44    9.88  23-0.13504 0.28462 0.30150 0.16686 0.84148-0.79106
   1  19   1   -0.79    8.12  24-0.13622 0.32214 0.30352 0.43774 0.84031-0.68014
   2  -9   5  663.39   10.11  24-0.13754 0.62147 0.30576-0.65878 0.83900-0.18658
   2  -8   4  295.87    8.13  24-0.13639 0.58334 0.30381-0.61706 0.84015-0.29765
   2   1   1 2762.39   22.76  24-0.14082 0.47724 0.31135-0.27276 0.83570-0.62306
   2  15   1  280.33   10.28  24-0.14076 0.47722 0.31125 0.27254 0.83576-0.62358
   3  -5   6   30.65   11.14  23-0.13458 0.80682 0.30073-0.49599 0.84193-0.02664
   3  -3   4   66.40    7.29  24-0.13913 0.73560 0.30848-0.42745 0.83740-0.24354
   3  -1   3   18.58    6.54  24-0.13599 0.69540 0.30313-0.34222 0.84054-0.35738
   3   4   2  245.88   10.14  24-0.14186 0.66412 0.31312-0.15877 0.83464-0.46101
  -6 -10   5    8.82   17.41  26-0.15709-0.54884 0.33894-0.72942 0.81842-0.57036
  -6   5   2   21.29   10.12  24-0.14480-0.67371 0.31813-0.12363 0.83139-0.91439
  -6   6   2  185.85    9.97  24-0.14182-0.67567 0.31309-0.07702 0.83443-0.91940
  -6  10   2  110.37   10.87  24-0.14166-0.67556 0.31282 0.07867 0.83459-0.91939
  -6  11   2    1.22   11.76  25-0.14426-0.67667 0.31723 0.10912 0.83194-0.91514
  -6  12   2  337.42   11.86  25-0.14687-0.66980 0.32165 0.14683 0.82925-0.91256
  -4 -14   5   42.04   10.47  25-0.15049-0.25707 0.32778-0.87336 0.82546-0.47597
  -4  17   1  424.31    8.40  24-0.13968-0.41716 0.30946 0.35389 0.83659-0.92936
  -3 -16   6   46.04    9.84  25-0.14706-0.07452 0.32197-0.94703 0.82905-0.31845
  -3 -15   5   12.60    8.92  24-0.14327-0.11543 0.31555-0.90089 0.83295-0.43211
  -3   4   0    4.88    5.87  24-0.14177-0.30513 0.31300-0.15663 0.83449-0.98700
  -3  12   0   29.53    6.57  24-0.14181-0.30394 0.31307 0.15514 0.83444-0.98740
  -3  13   0  558.51    8.60  25-0.14585-0.29989 0.31992 0.18705 0.83030-0.98179
  -2 -16   6  569.04   10.99  25-0.14710 0.07371 0.32203-0.94691 0.82901-0.26846
  -2 -15   5  434.73    9.41  25-0.14752 0.03680 0.32274-0.90848 0.82858-0.37827
  -2   0   0  586.53   12.44  25-0.14890-0.14954 0.32508-0.32481 0.82714-0.92877
  -2  16   0 1576.82   11.77  24-0.14296-0.15375 0.31502 0.30883 0.83327-0.93507
  -2  22   1   19.20   10.30  24-0.14436-0.11635 0.31739 0.54085 0.83184-0.82323
  -1 -16   7    6.61   11.72  25-0.14459 0.25902 0.31779-0.94279 0.83160-0.10843
  -1  -6   1  377.29    9.08  25-0.14438 0.03261 0.31744-0.55231 0.83181-0.77172
  -1  17   0  222.76    7.95  24-0.14358-0.00431 0.31607 0.34665 0.83264-0.88362
  -1  22   1  301.64    8.28  24-0.14052 0.03001 0.31088 0.54620 0.83575-0.77723
   0  16   0  123.33    6.96  24-0.14146 0.14236 0.31247 0.31083 0.83480-0.83531
   1  -9   3   98.16    6.37  24-0.14309 0.40413 0.31524-0.66646 0.83314-0.45095
   1  13   0  488.80    9.03  24-0.14454 0.29433 0.31769 0.18920 0.83166-0.78069
   1  23   2  135.91   12.00  24-0.14514 0.37004 0.31871 0.57634 0.83104-0.55947
   2  -9   6    7.63    9.11  25-0.14544 0.67124 0.31923-0.67222 0.83072-0.06453
   2  -6   3  600.86    8.86  24-0.14292 0.55289 0.31496-0.54948 0.83331-0.40027
   3  -4   5  170.53    8.95  24-0.14233 0.77593 0.31395-0.47103 0.83392-0.12991
   3  -4   6   39.38    9.89  25-0.14757 0.81998 0.32284-0.47998 0.82852-0.01356
   3  17   3   -0.81   15.95  26-0.15661 0.71669 0.33813 0.32519 0.81894-0.33623
  -6   4   2   40.72    9.96  25-0.15155-0.66598 0.32960-0.17314 0.82414-0.90900
  -5   6   1  533.88   10.50  25-0.15272-0.55345 0.33158-0.09725 0.82290-0.96621
  -5   7   1   -3.70    8.23  26-0.15145-0.55866 0.32942-0.05869 0.82425-0.96813
  -5   8   1  507.31    9.80  25-0.14917-0.55700 0.32557-0.01325 0.82665-0.97051
  -5   9   1   -0.77    7.94  26-0.15093-0.56047 0.32855 0.02100 0.82479-0.96937
  -5  10   1  214.06    9.67  25-0.15084-0.55519 0.32839 0.06188 0.82489-0.96902
  -5  11   1  284.04   10.23  25-0.15270-0.55312 0.33153 0.09731 0.82292-0.96644
  -4 -12   4 1537.79   16.29  26-0.15961-0.28497 0.34322-0.81171 0.81547-0.57578
  -4  18   1   -2.04    7.44  25-0.14876-0.41141 0.32487 0.37621 0.82708-0.92100
  -3 -11   3   12.76    7.71  26-0.15569-0.17819 0.33658-0.76651 0.81973-0.64016
  -3   3   0 1279.33   12.60  25-0.15220-0.29493 0.33069-0.21330 0.82346-0.97598
  -3  14   0   45.42    7.34  25-0.15235-0.29405 0.33094 0.21464 0.82330-0.97601
  -3  21   1    3.69    7.67  25-0.14938-0.26129 0.32592 0.49284 0.82643-0.86974
  -2  17   0  176.88    8.09  25-0.15198-0.14526 0.33031 0.33167 0.82369-0.92614
  -1 -13   4  344.28    7.77  26-0.15510 0.15603 0.33559-0.84314 0.82036-0.42976
  -1  -9   2  252.98    7.03  26-0.15532 0.08139 0.33597-0.68770 0.82012-0.64986
  -1  18   0  335.67    8.76  26-0.15353 0.00507 0.33294 0.36798 0.82204-0.87277
  -1  23   1   23.37    9.52  25-0.15320 0.04203 0.33239 0.56221 0.82239-0.76268
   0 -14   6  941.95   11.08  25-0.15019 0.37438 0.32728-0.87371 0.82558-0.16342
   0 -12   4  267.80    7.62  26-0.15313 0.30296 0.33226-0.80125 0.82247-0.38101
   0  -5   1 2245.07   17.71  26-0.15479 0.19286 0.33507-0.53113 0.82069-0.70943
   0  17   0    0.90    6.87  25-0.15249 0.15231 0.33117 0.33214 0.82315-0.82354
   0  22   1  371.05   11.14  25-0.15181 0.18927 0.33004 0.52646 0.82386-0.71524
   1 -12   6   59.51    6.97  25-0.14855 0.52216 0.32451-0.79378 0.82730-0.11427
   1 -12   7  240.11   11.67  26-0.15230 0.56310 0.33086-0.80042 0.82335-0.00017
   1  -3   1 4717.56   24.70  25-0.15216 0.33967 0.33062-0.44780 0.82350-0.66139
   1  14   0    8.67    6.26  26-0.15451 0.30332 0.33460 0.21146 0.82099-0.77035
   1  20   1  150.29    9.21  25-0.15255 0.33914 0.33128 0.44740 0.82308-0.66286
   2  -8   5    3.19    7.39  25-0.15249 0.64282 0.33117-0.64677 0.82315-0.16602
   2  -7   4    1.20    6.39  26-0.15383 0.60482 0.33345-0.60947 0.82172-0.27509
   2  -3   2  112.24    6.42  25-0.15227 0.52603 0.33081-0.44792 0.82338-0.49994
   2  20   2   20.16   10.39  25-0.15255 0.52550 0.33128 0.44804 0.82308-0.50136
   3  -3   5   53.12    8.49  26-0.15579 0.78992 0.33677-0.45569 0.81961-0.11598
   3  -2   4    1.64    7.47  26-0.15321 0.75215 0.33240-0.41218 0.82238-0.22658
   3   0   3  113.68    7.21  26-0.15214 0.71148 0.33059-0.33134 0.82352-0.33975
   3   5   2 2006.25   21.07  26-0.15712 0.67953 0.33900-0.14457 0.81819-0.44448
  -6   3   2   25.98    9.94  26-0.15987-0.65776 0.34370-0.22663 0.81519-0.89925
  -5   5   1   42.37    8.24  26-0.15820-0.54847 0.34088-0.14550 0.81702-0.96088
  -5  12   1  649.94    9.44  26-0.15654-0.54975 0.33809 0.12995 0.81881-0.96318
  -5  13   1    4.05    9.82  27-0.16087-0.54729 0.34540 0.16205 0.81409-0.95856
  -4 -15   6  213.46   12.02  26-0.16003-0.20969 0.34397-0.93009 0.81502-0.35425
  -4  19   1    7.48    9.77  26-0.15758-0.40095 0.33983 0.40165 0.81769-0.91105
  -3 -13   4  225.50    8.12  26-0.15842-0.13746 0.34125-0.84844 0.81678-0.52658
  -3  15   0  532.93    9.24  26-0.15908-0.28711 0.34237 0.24187 0.81605-0.96946
  -3  22   1  107.70   11.42  26-0.16011-0.24876 0.34410 0.51277 0.81493-0.85778
  -2 -16   7   32.53   11.84  27-0.16148 0.12674 0.34641-0.97220 0.81343-0.14070
  -2  -9   2    5.41    5.82  26-0.15830-0.06434 0.34106-0.69234 0.81690-0.69693
  -2  18   0    6.87    7.70  26-0.16073-0.13705 0.34515 0.35682 0.81425-0.91584
  -2  23   1  446.81   11.30  26-0.15782-0.10245 0.34024 0.55546 0.81743-0.81131
  -1 -15   6  190.13    7.78  26-0.15613 0.23150 0.33739-0.92326 0.81925-0.20819
  -1 -14   5   84.45    7.84  27-0.16071 0.19952 0.34513-0.89171 0.81427-0.31291
   0 -14   7    8.30    8.06  26-0.15613 0.41999 0.33739-0.88484 0.81925-0.04499
   0 -13   5  152.17    6.14  26-0.15593 0.34312 0.33704-0.84493 0.81947-0.26778
   0  -8   2 2030.11   13.77  26-0.15973 0.23517 0.34346-0.65580 0.81535-0.59360
   1 -11   5   70.49    5.89  26-0.15634 0.49269 0.33774-0.76751 0.81903-0.21664
   1 -10   4  113.25    5.28  26-0.15572 0.45448 0.33669-0.72743 0.81970-0.32755
   1  -6   2   18.09    5.42  27-0.16172 0.38635 0.34683-0.58075 0.81316-0.54139
   2  -8   6   66.10    8.88  27-0.16293 0.68668 0.34887-0.66151 0.81182-0.04833
   2  -8   7    8.68   10.60  27-0.16246 0.72418 0.34807-0.66102 0.81234 0.06343
   2  -5   3  126.99    6.24  27-0.16309 0.57423 0.34913-0.54415 0.81164-0.37876
   2  16   1  245.16    9.39  26-0.15962 0.49515 0.34328 0.28047 0.81546-0.60480
   3  -3   6  179.85   11.31  27-0.16084 0.83303 0.34534-0.46305 0.81413 0.00005
   3   6   2  475.98   13.61  28-0.17342 0.69588 0.36655-0.13324 0.79994-0.42626
   3  13   2  684.81   25.09  28-0.17594 0.69754 0.37079 0.13646 0.79702-0.42394
  -6  -4   3   21.72   17.09  29-0.18253-0.59763 0.38180-0.53795 0.78901-0.76195
  -6   2   2  292.04   11.55  28-0.17178-0.64530 0.36370-0.28588 0.80164-0.88556
  -5 -12   5  375.18   13.74  28-0.17320-0.38229 0.36610-0.83557 0.80000-0.50022
  -5 -10   4    4.17   11.33  28-0.17209-0.42321 0.36423-0.75592 0.80127-0.61286
  -5   4   1  130.13    7.91  27-0.16557-0.54098 0.35325-0.19771 0.80867-0.95263
  -5  14   1   30.46    7.64  27-0.16516-0.54186 0.35256 0.19389 0.80913-0.95375
  -5  15   1   42.54   11.03  27-0.16924-0.53715 0.35943 0.22506 0.80453-0.94759
  -4  -2   1   57.23    9.24  28-0.17619-0.38163 0.37112-0.44872 0.79652-0.88916
  -4  20   1   17.26   10.49  27-0.16737-0.39191 0.35627 0.42544 0.80666-0.90103
  -3  -8   2   95.67    8.51  28-0.17550-0.19576 0.36998-0.68258 0.79732-0.72769
  -3   2   0   -0.75    5.96  28-0.16854-0.28009 0.35825-0.28288 0.80532-0.95749
  -3  16   0   23.65    5.81  27-0.16578-0.28112 0.35359 0.27027 0.80844-0.96189
  -2 -13   4 1198.68   11.46  27-0.16750 0.02042 0.35650-0.86367 0.80650-0.46522
  -2  19   0    4.39    7.73  28-0.17089-0.12705 0.36221 0.37953 0.80265-0.90542
  -1 -15   7    5.27   10.00  28-0.16828 0.28149 0.35781-0.93979 0.80562-0.08444
  -1 -11   3  428.56    6.83  27-0.16516 0.12930 0.35256-0.78219 0.80913-0.52770
  -1  19   0  179.54    6.55  27-0.16516 0.01544 0.35256 0.38725 0.80913-0.86200
  -1  24   1  313.51   12.30  27-0.16857 0.05616 0.35830 0.57580 0.80529-0.74858
   0 -13   6  127.79    8.42  28-0.17033 0.39551 0.36126-0.86975 0.80330-0.14100
   0 -10   3  214.56    5.39  27-0.16475 0.27790 0.35186-0.74221 0.80959-0.47741
   0  18   0 1203.54   10.13  27-0.16434 0.16352 0.35117 0.35020 0.81005-0.81191
   0  23   1   51.98   10.57  27-0.16737 0.20420 0.35627 0.54016 0.80666-0.69882
   1 -11   6   89.43    9.15  27-0.16782 0.54159 0.35704-0.78665 0.80614-0.09248
   1 -11   7    0.24   10.62  28-0.16916 0.58222 0.35929-0.79087 0.80463 0.02315
   1  -8   3   47.00    5.53  27-0.16735 0.42898 0.35624-0.66807 0.80667-0.42426
   1  15   0  424.98    8.69  27-0.16629 0.31483 0.35446 0.23043 0.80787-0.75873
   1  21   1   10.72    9.09  27-0.16891 0.35569 0.35887 0.46027 0.80491-0.64428
   2   2   1   53.82    7.11  28-0.17539 0.51182 0.36978-0.29135 0.79746-0.58490
   3  -2   5   36.68    9.00  28-0.17008 0.80492 0.36084-0.43950 0.80358-0.09958
   3  -1   4  514.95    9.82  28-0.16933 0.76649 0.35958-0.39955 0.80443-0.21075
   3   1   3   18.38    6.72  28-0.16833 0.72801 0.35789-0.31879 0.80557-0.32193
  -5   3   1   11.65    7.91  28-0.17603-0.53114 0.37083-0.25369 0.79677-0.94058
  -5  16   1  589.89   12.89  28-0.17585-0.53033 0.37051 0.25266 0.79699-0.94188
  -4   9   0  351.83    8.30  29-0.17882-0.41592 0.37550-0.02483 0.79350-0.99632
  -4  10   0  198.01    7.74  29-0.17843-0.41608 0.37486 0.01450 0.79396-0.99658
  -3 -15   6   90.31   10.16  28-0.17607-0.04545 0.37089-0.95640 0.79673-0.28516
  -3 -14   5  695.09   10.49  28-0.17506-0.08344 0.36920-0.91556 0.79790-0.39683
  -3  17   0  597.79    8.07  28-0.17295-0.27355 0.36563 0.29629 0.80036-0.95402
  -2 -15   6  115.48    7.30  28-0.17234 0.09974 0.36460-0.95101 0.80106-0.23948
  -2 -14   5    1.65    8.13  29-0.17621 0.06637 0.37112-0.91851 0.79657-0.34229
  -2 -11   3 1799.48   13.77  28-0.17589-0.00912 0.37059-0.79989 0.79693-0.56596
  -1 -14   6   28.35    8.47  29-0.17905 0.25559 0.37590-0.92343 0.79323-0.18033
  -1  20   0  224.00    8.91  28-0.17630 0.02734 0.37128 0.40752 0.79646-0.84961
   0 -13   7  452.53   11.64  28-0.17631 0.43819 0.37128-0.87954 0.79645-0.02315
   0 -12   5  201.51    8.06  29-0.17854 0.36613 0.37505-0.84415 0.79382-0.24189
   0 -11   4    4.49    6.27  29-0.17844 0.32882 0.37487-0.80476 0.79395-0.35119
   0  19   0   -0.37    7.96  28-0.17621 0.17638 0.37112 0.37077 0.79657-0.79790
   1 -10   5  695.61    9.60  29-0.17686 0.51311 0.37221-0.76315 0.79581-0.19308
   1  -9   4   31.64    6.42  29-0.17770 0.47715 0.37362-0.72536 0.79482-0.30262
   1   3   0  599.05   28.39  30-0.19229 0.34237 0.39813-0.27962 0.77716-0.72629
   1  16   0   49.26    6.76  28-0.17678 0.32544 0.37208 0.25154 0.79590-0.74663
   2  -7   5   30.05    5.89  28-0.17295 0.65898 0.36563-0.63965 0.80036-0.14630
   2  -7   6   17.40    8.54  29-0.17879 0.70390 0.37546-0.65034 0.79353-0.02734
   2  -7   7  265.98   12.20  29-0.17746 0.73823 0.37323-0.64864 0.79510 0.07904
   2  -6   4  421.68    8.08  28-0.17518 0.62299 0.36939-0.60355 0.79777-0.25450
   2  -2   2   53.67    5.95  29-0.17664 0.55005 0.37184-0.44995 0.79607-0.47334
   2  17   1  287.95    9.66  28-0.17639 0.51156 0.37142 0.29122 0.79636-0.58641
   2  21   2   -3.88   11.06  29-0.17631 0.54970 0.37129 0.44875 0.79645-0.47613
   3  -2   6    4.12   10.15  28-0.17401 0.84650 0.36742-0.44602 0.79912 0.01602
   3   7   2  748.56   17.67  31-0.19171 0.71405 0.39716-0.12463 0.77788-0.40433
  -6   1   2   42.34   10.96  30-0.18942-0.62811 0.39352-0.35514 0.78045-0.86444
  -5 -13   6  158.29   13.44  30-0.19065-0.32768 0.39558-0.90428 0.77894-0.36796
  -5   2   1 1187.51   14.37  30-0.18981-0.51600 0.39418-0.31671 0.77997-0.92359
  -4 -13   5  282.56   10.61  30-0.18584-0.22084 0.38751-0.89681 0.78484-0.43428
  -4   7   0   -0.06    7.10  30-0.18449-0.41352 0.38524-0.11464 0.78648-0.98990
  -4   8   0  341.03    7.05  29-0.18085-0.41414 0.37912-0.06730 0.79085-0.99439
  -4  11   0    8.80    5.87  29-0.18024-0.41596 0.37810 0.05097 0.79157-0.99542
  -4  12   0  381.25    9.02  29-0.18208-0.41267 0.38118 0.08623 0.78938-0.99327
  -4  13   0  245.49    9.33  29-0.18481-0.41004 0.38578 0.12036 0.78608-0.98989
  -3  18   0   50.19    6.83  29-0.18044-0.26599 0.37844 0.32253 0.79133-0.94526
  -2 -15   7  200.34   11.29  30-0.18491 0.14924 0.38594-0.97269 0.78597-0.11380
  -2  20   0   85.29    6.70  29-0.18024-0.11731 0.37810 0.40100 0.79157-0.89491
  -1 -14   7  743.67   11.68  30-0.18669 0.30047 0.38893-0.93718 0.78381-0.06130
  -1 -13   5  175.29    7.98  30-0.18551 0.22460 0.38695-0.89511 0.78524-0.28348
  -1 -12   4   59.15    6.78  29-0.18369 0.18498 0.38390-0.85215 0.78744-0.39535
  -1  21   0   18.21    8.37  30-0.18598 0.03771 0.38774 0.42996 0.78467-0.83613
   0  20   0  156.41    8.33  30-0.18631 0.18642 0.38830 0.39014 0.78426-0.78509
   0  24   1   76.73   10.64  29-0.18251 0.22041 0.38191 0.55321 0.78886-0.68143
   1 -10   6  103.05    9.15  30-0.18596 0.56044 0.38771-0.77872 0.78469-0.07156
   1 -10   7   44.86    9.77  30-0.18680 0.59946 0.38913-0.78056 0.78366 0.04109
   1  17   0  203.16    7.80  30-0.18661 0.33559 0.38879 0.27341 0.78391-0.73385
   1  22   1   76.59   10.24  29-0.18490 0.37203 0.38593 0.47061 0.78598-0.62660
   2  -4   3  445.74    8.04  30-0.18484 0.59578 0.38584-0.54202 0.78604-0.35286
   3  -1   5   27.55    8.87  30-0.18436 0.81913 0.38503-0.42448 0.78663-0.08224
   3  -1   6   78.73   11.30  30-0.18622 0.85869 0.38814-0.42849 0.78438 0.02991
   3   0   4    2.74    7.58  29-0.18429 0.78236 0.38490-0.38546 0.78672-0.19229
   3   2   3 1294.00   13.29  30-0.18473 0.74455 0.38565-0.30790 0.78618-0.30242
   3  18   3    2.85   17.04  29-0.18729 0.74573 0.38995 0.31023 0.78307-0.30125
  -4 -14   6  317.23   11.62  30-0.19202-0.17748 0.39816-0.94547 0.77705-0.31576
  -4   6   0  985.63   10.87  30-0.18942-0.40592 0.39379-0.16041 0.78027-0.98392
  -4  14   0  148.18    7.09  30-0.18837-0.40701 0.39203 0.15277 0.78156-0.98561
  -4  15   0   26.10    9.02  30-0.19260-0.40259 0.39913 0.18573 0.77632-0.98019
  -3 -15   7   62.68   11.49  30-0.19233 0.00802 0.39866-0.98552 0.77667-0.15451
  -3 -12   4   46.32    7.02  31-0.19420-0.10151 0.40180-0.87144 0.77432-0.48414
  -3   1   0  102.50    6.94  30-0.19060-0.25627 0.39577-0.35711 0.77882-0.93115
  -3  19   0   42.52    7.07  30-0.18817-0.25866 0.39169 0.34843 0.78181-0.93578
  -2  21   0    5.23    8.78  31-0.19157-0.10689 0.39739 0.42504 0.77762-0.88228
  -1   9  -1    3.36    5.83  31-0.19404 0.00767 0.40153-0.05030 0.77453-0.93623
  -1  10  -1  730.66    9.09  30-0.19275 0.00586 0.39937-0.00899 0.77614-0.93809
  -1  11  -1  144.36    6.53  30-0.19315 0.00622 0.40004 0.02879 0.77564-0.93769
  -1  12  -1 3565.23   16.06  31-0.19432 0.00766 0.40201 0.06597 0.77417-0.93560
   0 -12   6  167.77    8.98  30-0.19171 0.41678 0.39762-0.86637 0.77744-0.11410
   0 -12   7   62.19    9.40  31-0.19471 0.45774 0.40266-0.87271 0.77368-0.00049
   0  -9   3  976.44    9.67  31-0.19282 0.30581 0.39949-0.75131 0.77606-0.44388
   0  -7   2   32.05    5.42  31-0.19334 0.26889 0.40037-0.67390 0.77540-0.55385
   1  -7   3   30.48    5.58  30-0.19233 0.45394 0.39867-0.67208 0.77667-0.39368
   1  -5   2 2892.30   16.33  30-0.19181 0.41670 0.39780-0.59276 0.77731-0.50458
   1  -2   1 9566.94   37.18  31-0.19269 0.38073 0.39927-0.47719 0.77621-0.61383
   2  -6   5   -1.11    7.40  31-0.19169 0.67638 0.39759-0.63246 0.77747-0.12247
   2  -6   6  248.36    9.17  31-0.19552 0.71897 0.40402-0.63947 0.77266-0.00872
   2  -6   7    0.75   11.23  31-0.19259 0.75359 0.39910-0.63532 0.77634 0.10121
   2  -5   4    4.99    6.56  31-0.19347 0.64267 0.40058-0.59677 0.77524-0.23103
   2  18   1   88.72    8.86  30-0.19211 0.52697 0.39830 0.30328 0.77694-0.56759
   2  22   2  105.63   12.89  30-0.19419 0.56681 0.40178 0.45481 0.77434-0.45383
   3   8   2  621.52   18.48  33-0.21184 0.73436 0.43131-0.12000 0.75140-0.37754
   3  14   2   15.51   16.04  32-0.20574 0.72724 0.42112 0.12460 0.75951-0.38713
  -6  -7   4   15.89   19.83  36-0.23282-0.50927 0.46630-0.74166 0.72182-0.58315
  -5  -4   2  671.75   22.07  33-0.21597-0.45296 0.43824-0.59457 0.74558-0.77799
  -4 -11   4   42.18    8.84  32-0.20555-0.23939 0.42083-0.85092 0.75954-0.51970
  -4  -9   3  692.55   14.16  32-0.20501-0.27701 0.41992-0.77232 0.76025-0.63048
  -4   5   0  335.16    8.21  31-0.19695-0.39822 0.40642-0.21178 0.77065-0.97442
  -4  16   0  322.94    8.22  31-0.19795-0.39705 0.40809 0.21455 0.76938-0.97465
  -4  17   0  129.77    9.61  32-0.20206-0.39247 0.41498 0.24637 0.76410-0.96731
  -3 -14   6   16.84    8.66  32-0.20278-0.01891 0.41618-0.96477 0.76317-0.25109
  -3 -10   3  438.93    9.52  32-0.20290-0.13089 0.41639-0.80814 0.76301-0.58288
  -3  20   0    6.14    7.46  31-0.19635-0.25010 0.40542 0.37484 0.77141-0.92523
  -2 -14   6    5.86    6.67  31-0.19755 0.12489 0.40743-0.95514 0.76989-0.20740
  -2 -13   5  449.13    8.93  32-0.20324 0.09351 0.41695-0.92545 0.76257-0.31106
  -2 -12   4   50.65    7.02  31-0.19925 0.05170 0.41027-0.87879 0.76772-0.42635
  -2  -1   0  115.92    8.14  32-0.20710-0.09147 0.42342-0.46272 0.75750-0.85917
  -2  10  -1  559.50    8.44  32-0.20166-0.13369 0.41431-0.02454 0.76462-0.97690
  -2  11  -1  946.13    9.81  32-0.20159-0.13371 0.41420 0.01445 0.76470-0.97717
  -2  12  -1  203.34    6.97  32-0.20234-0.13286 0.41545 0.05221 0.76374-0.97587
  -2  22   0  352.63   11.20  31-0.19998-0.09773 0.41150 0.44435 0.76678-0.87140
  -1 -13   6  175.75    9.03  32-0.20167 0.27811 0.41432-0.92307 0.76461-0.15212
  -1 -10   3 1309.62   10.51  31-0.19755 0.16107 0.40743-0.79857 0.76989-0.48837
  -1  -8   2  903.48   10.05  31-0.19635 0.12268 0.40542-0.71842 0.77141-0.60019
  -1   8  -1 2289.67   13.88  31-0.19755 0.01053 0.40743-0.09483 0.76989-0.93201
  -1  13  -1   72.69    6.33  31-0.19844 0.01208 0.40892 0.09770 0.76875-0.93163
  -1  14  -1    5.14    6.34  31-0.20109 0.01505 0.41337 0.13247 0.76534-0.92686
  -1  22   0  222.26    9.61  31-0.19801 0.04896 0.40819 0.44849 0.76931-0.82330
   0 -11   5  303.09    8.17  32-0.20115 0.38881 0.41346-0.84375 0.76527-0.21271
   0 -10   4  116.88    6.48  32-0.20305 0.35328 0.41665-0.80778 0.76281-0.32091
   0  21   0   -3.34    8.85  32-0.19994 0.20006 0.41143 0.40886 0.76683-0.76983
   1  -9   5  100.97    5.81  31-0.19675 0.53341 0.40609-0.75830 0.77091-0.16789
   1  -8   4  105.64    6.65  32-0.20056 0.49978 0.41247-0.72495 0.76603-0.27297
   1  18   0  314.82    8.75  31-0.19882 0.34769 0.40956 0.29163 0.76826-0.71993
   1  23   1    3.46   11.06  31-0.20044 0.38764 0.41228 0.48477 0.76618-0.60620
   2  -1   2  270.07    7.57  32-0.20225 0.57625 0.41529-0.45437 0.76386-0.44086
   3   0   5  533.32   10.28  31-0.19857 0.83287 0.40914-0.40965 0.76859-0.06427
   3   0   6    0.47    9.65  32-0.19974 0.87085 0.41110-0.41305 0.76709 0.04843
   3   1   4  512.82   10.08  32-0.20041 0.79745 0.41222-0.37386 0.76623-0.17203
   3   3   3   72.97    7.41  32-0.20118 0.76108 0.41350-0.29721 0.76524-0.28158
  -6   0   2   14.67   10.98  33-0.21410-0.60400 0.43549-0.43604 0.74783-0.83261
  -5  -7   3   91.21   15.94  36-0.23335-0.39627 0.46757-0.74343 0.72071-0.64060
  -5   1   1  199.68    9.17  32-0.20880-0.49729 0.42663-0.38790 0.75496-0.89854
  -4   4   0  576.23    9.65  32-0.20716-0.38797 0.42389-0.26830 0.75713-0.96075
  -4  18   0   51.60   10.76  32-0.20842-0.38648 0.42600 0.27522 0.75546-0.95978
  -3 -13   5   43.68    7.79  32-0.20632-0.05241 0.42248-0.93027 0.75824-0.35733
  -3  21   0  589.42    9.58  32-0.20471-0.24167 0.41980 0.39743 0.76035-0.91533
  -2 -14   7    8.92   10.30  32-0.20783 0.17300 0.42502-0.97269 0.75624-0.08314
  -2  -8   2  684.72   10.83  33-0.20959-0.01349 0.42795-0.74146 0.75391-0.63362
  -2   8  -1   17.68    5.77  32-0.20728-0.12809 0.42410-0.11218 0.75697-0.96976
  -2   9  -1  180.77    5.35  32-0.20372-0.13139 0.41815-0.06706 0.76165-0.97442
  -2  13  -1  268.86    6.11  32-0.20531-0.12975 0.42080 0.08558 0.75957-0.97304
  -2  14  -1  176.72    7.45  32-0.20818-0.12657 0.42561 0.11954 0.75577-0.96909
  -2  23   0   -3.15   11.35  33-0.20906-0.08839 0.42707 0.46855 0.75461-0.85741
  -1 -13   7   -8.44    9.90  33-0.20817 0.32253 0.42559-0.93413 0.75579-0.02951
  -1 -12   5  973.93    9.99  33-0.21071 0.24880 0.42982-0.89925 0.75241-0.25069
  -1 -11   4  234.53    7.08  33-0.21100 0.21213 0.43031-0.86067 0.75202-0.36045
  -1  -5   1 1447.77   17.10  33-0.21033 0.09847 0.42919-0.62555 0.75291-0.69249
  -1   7  -1  567.08    7.98  32-0.20352 0.01645 0.41781-0.14410 0.76190-0.92416
  -1  15  -1    0.20    6.23  32-0.20610 0.02004 0.42212 0.16314 0.75853-0.92077
  -1  23   0  237.77   11.02  32-0.20845 0.05993 0.42606 0.46938 0.75542-0.80875
   0  -4   1 1271.59   14.07  32-0.20491 0.24317 0.42013-0.57720 0.76009-0.64841
   0   9  -1  185.31    6.61  33-0.21026 0.17280 0.42908-0.07724 0.75301-0.86391
   0  10  -1 1762.39   13.18  32-0.20808 0.17063 0.42544-0.03456 0.75591-0.86739
   0  11  -1  608.08    8.93  32-0.20752 0.17008 0.42450 0.00500 0.75666-0.86832
   0  12  -1   53.86    6.20  32-0.20840 0.17092 0.42597 0.04209 0.75549-0.86716
   0  13  -1  980.35    9.96  33-0.20996 0.17285 0.42857 0.07845 0.75341-0.86417
   0  22   0   62.98    9.14  32-0.20939 0.21005 0.42762 0.42915 0.75417-0.75519
   1  -9   6  635.95    8.46  32-0.20432 0.57849 0.41914-0.77172 0.76087-0.04749
   1  -9   7   18.74    7.20  32-0.20392 0.61637 0.41848-0.77082 0.76139 0.06383
   1  19   0  210.62    9.13  32-0.20892 0.35828 0.42684 0.31315 0.75479-0.70540
   2  -5   5  754.78   10.17  33-0.20843 0.69384 0.42602-0.62223 0.75545-0.10144
   2  -5   6   60.69    8.49  33-0.21147 0.73486 0.43111-0.62820 0.75138 0.01373
   2  -5   7   40.01   11.09  32-0.20752 0.76850 0.42450-0.62016 0.75665 0.11875
   2  -3   3  299.20    7.38  32-0.20713 0.61801 0.42385-0.54079 0.75716-0.32379
   2  19   1   81.49    9.61  32-0.20764 0.54329 0.42470 0.31593 0.75649-0.54681
   3   1   5   13.56    7.90  33-0.21122 0.84692 0.43069-0.39255 0.75171-0.04639
   3   1   6   87.32   11.03  33-0.21032 0.88297 0.42917-0.39281 0.75293 0.06188
   3   9   2  404.92   18.31  36-0.23562 0.75767 0.47133-0.11996 0.71739-0.34419
  -6  -9   5   87.95   15.44  35-0.22584-0.47825 0.45526-0.81007 0.73137-0.48143
  -6   9   1  141.69   10.63  34-0.21792-0.63614 0.44207-0.09185 0.74245-0.93703
  -6  10   1   90.05   12.16  33-0.21622-0.63767 0.43923-0.04991 0.74479-0.94006
  -6  11   1   89.93   12.53  33-0.21577-0.63809 0.43848-0.00988 0.74540-0.94139
  -5 -11   5   66.87   11.63  34-0.21856-0.33660 0.44314-0.87464 0.74156-0.44170
  -4 -14   7   -2.75   11.02  34-0.21448-0.11760 0.43633-0.98254 0.74716-0.17427
  -4  19   0    8.95   11.00  33-0.21511-0.38051 0.43738 0.30374 0.74630-0.95142
  -3 -14   7    6.11   10.77  34-0.21702 0.03340 0.44058-0.98908 0.74368-0.12108
  -3  22   0    5.50   10.57  34-0.21532-0.23287 0.43773 0.42434 0.74601-0.90282
  -2 -10   3  582.36    9.07  33-0.21443 0.02921 0.43625-0.82679 0.74722-0.51619
  -2   7  -1  539.14    7.44  33-0.21311-0.12224 0.43404-0.16081 0.74902-0.96199
  -2  15  -1  277.36    6.65  33-0.21173-0.12288 0.43174 0.15271 0.75088-0.96401
  -2  16  -1  302.25    8.54  33-0.21622-0.11855 0.43923 0.18381 0.74478-0.95807
  -1   6  -1 3687.35   18.68  33-0.21271 0.02591 0.43338-0.19847 0.74955-0.91169
  -1  16  -1 1204.29    9.64  33-0.21153 0.02559 0.43142 0.19225 0.75114-0.91385
  -1  17  -1   74.15    7.67  33-0.21681 0.03060 0.44022 0.22140 0.74397-0.90628
   0 -11   6   82.16    6.37  33-0.21173 0.43637 0.43174-0.86264 0.75088-0.08808
   0 -11   7   79.36    9.01  33-0.21413 0.47627 0.43574-0.86639 0.74764 0.02621
   0   8  -1 2296.57   15.73  33-0.21634 0.17880 0.43943-0.12633 0.74462-0.85589
   0  14  -1  354.84    7.77  33-0.21443 0.17745 0.43624 0.10956 0.74723-0.85905
   0  15  -1  326.10    7.71  34-0.21794 0.18059 0.44210 0.14243 0.74243-0.85353
   1  -8   5  660.28    9.10  34-0.21688 0.55369 0.44033-0.75381 0.74388-0.14077
   1  -6   3   60.70    5.76  34-0.21774 0.47963 0.44177-0.67625 0.74270-0.35983
   1  24   1    1.75   12.04  34-0.21624 0.40333 0.43927 0.49736 0.74475-0.58578
   2  -4   4   71.10    6.50  33-0.21387 0.66144 0.43531-0.59228 0.74799-0.20461
   2   3   1 4183.48   32.93  34-0.21912 0.55585 0.44406-0.32616 0.74080-0.52813
   3   2   4   -1.25    7.82  34-0.21556 0.81305 0.43813-0.36118 0.74569-0.15035
   3   4   3    8.00    7.05  34-0.21800 0.77826 0.44220-0.28649 0.74234-0.25868
   3  15   2  178.39   17.78  35-0.22914 0.75003 0.46076 0.12492 0.72665-0.35507
  -6   7   1   28.02   11.49  35-0.22656-0.62827 0.45656-0.18484 0.73015-0.92440
  -6   8   1   86.46   11.22  34-0.22220-0.63239 0.44931-0.13824 0.73631-0.93199
  -5 -12   6   18.15   11.45  35-0.22565-0.29399 0.45506-0.92616 0.73144-0.32113
  -4 -13   6  254.89   10.98  34-0.22321-0.14623 0.45099-0.95977 0.73489-0.27334
  -4 -12   5   13.60    8.79  35-0.22340-0.18444 0.45130-0.92084 0.73462-0.38399
  -4   3   0  164.34    7.63  34-0.22142-0.37354 0.44801-0.33145 0.73740-0.94112
  -3   0   0    0.89    6.00  34-0.22337-0.22368 0.45125-0.45163 0.73467-0.88715
  -3  10  -1  751.12    9.36  35-0.22624-0.25751 0.45603-0.06706 0.73061-0.99381
  -3  11  -1  176.93    7.72  35-0.22482-0.25908 0.45368-0.02552 0.73261-0.99592
  -3  12  -1  283.63    8.23  34-0.22471-0.25919 0.45348 0.01329 0.73278-0.99625
  -3  13  -1   19.35    6.93  35-0.22531-0.25788 0.45449 0.05175 0.73192-0.99500
  -2 -13   6    5.38    8.42  35-0.22373 0.15128 0.45185-0.95872 0.73416-0.17162
  -2  -5   1 1319.31   22.31  36-0.23204-0.02814 0.46568-0.66189 0.72226-0.71205
  -2   6  -1 1840.40   13.17  34-0.22129-0.11464 0.44778-0.21362 0.73759-0.95055
  -2  17  -1  321.13    8.25  34-0.22162-0.11330 0.44834 0.21319 0.73712-0.95138
  -1 -12   6   72.92    8.26  35-0.22429 0.30105 0.45279-0.92258 0.73336-0.12055
  -1 -12   8    4.58   11.52  35-0.22453 0.37754 0.45319-0.92517 0.73303 0.10514
  -1   5  -1   25.88    5.66  35-0.22604 0.03927 0.45571-0.26062 0.73088-0.89269
  -1  18  -1   58.02    7.70  34-0.22383 0.03761 0.45202 0.24897 0.73402-0.89754
  -1  24   0   48.95    8.37  34-0.21967 0.07139 0.44509 0.49043 0.73984-0.79339
   0 -10   5   11.10    6.76  34-0.22393 0.41201 0.45219-0.84350 0.73388-0.18016
   0 -10   8   10.05   10.44  35-0.22553 0.52777 0.45485-0.84833 0.73162 0.15536
   0  -8   3   79.93    5.87  34-0.22287 0.33569 0.45042-0.76279 0.73537-0.40257
   0   7  -1 3395.49   19.35  35-0.22520 0.18731 0.45430-0.18015 0.73209-0.84331
   0  16  -1  433.21    8.61  34-0.22388 0.18640 0.45210 0.17124 0.73395-0.84628
   0  23   0    0.22    9.66  35-0.22288 0.22344 0.45044 0.44900 0.73535-0.73829
   1  -8   6   46.65    8.33  34-0.22326 0.59741 0.45107-0.76440 0.73482-0.02021
   1  -8   7  109.13    7.77  34-0.22045 0.63249 0.44639-0.76101 0.73875 0.08557
   1  -7   4 1355.28   10.92  34-0.22354 0.52281 0.45153-0.72464 0.73443-0.24094
   1  -4   2 1621.15   13.08  34-0.22329 0.44823 0.45112-0.60708 0.73478-0.46189
   1  20   0  189.50    8.65  34-0.22066 0.36965 0.44673 0.33260 0.73847-0.69045
   2  -4   5   33.86    7.76  35-0.22564 0.71222 0.45504-0.61193 0.73145-0.07744
   2  -4   7   16.03    9.98  34-0.22131 0.78323 0.44782-0.60524 0.73755 0.13849
   2  20   1  237.00   10.79  34-0.22308 0.55845 0.45077 0.32859 0.73507-0.52656
   3   2   5   32.25    8.63  35-0.22469 0.85998 0.45346-0.37632 0.73280-0.02871
   3   2   6    4.26   10.78  35-0.22348 0.89543 0.45144-0.37392 0.73451 0.08071
  -6   6   1  124.85   11.68  36-0.23355-0.62079 0.46831-0.23662 0.71983-0.91374
  -5  -9   4   19.14   11.52  37-0.23958-0.35196 0.47834-0.83281 0.71089-0.51979
  -5   0   1   10.44    8.98  36-0.23680-0.46989 0.47371-0.47498 0.71504-0.85849
  -5   9   0  937.74   11.64  36-0.23297-0.51041 0.46735-0.11852 0.72068-0.97440
  -5  10   0   13.97    9.43  35-0.23099-0.51357 0.46406-0.07443 0.72355-0.97850
  -5  11   0  139.11   10.35  35-0.22994-0.51352 0.46232-0.03486 0.72507-0.98098
  -5  12   0   24.47    9.32  35-0.22926-0.51486 0.46118 0.00599 0.72606-0.98143
  -5  13   0   52.01   10.47  35-0.23014-0.51363 0.46265 0.04276 0.72478-0.98081
  -5  14   0   52.04   11.15  35-0.23122-0.51242 0.46444 0.07968 0.72322-0.97869
  -5  15   0   92.00   10.88  36-0.23280-0.51084 0.46707 0.11531 0.72092-0.97531
  -3 -13   6  214.56    9.67  35-0.23098 0.01110 0.46405-0.97275 0.72357-0.21077
  -3 -11   4  410.32    9.01  36-0.23185-0.06310 0.46549-0.89675 0.72230-0.43057
  -3   8  -1  122.65    6.74  36-0.23350-0.25044 0.46824-0.15742 0.71989-0.98295
  -3   9  -1    8.19    6.36  35-0.22949-0.25489 0.46156-0.11040 0.72572-0.98967
  -3  14  -1 1039.39    9.41  35-0.22772-0.25625 0.45861 0.08603 0.72827-0.99270
  -3  15  -1   67.33    8.16  35-0.23042-0.25338 0.46311 0.12040 0.72438-0.98907
  -3  16  -1    7.75    7.61  35-0.23190-0.24967 0.46557 0.15595 0.72223-0.98400
  -2 -13   7   98.46    9.37  35-0.23061 0.19594 0.46342-0.97189 0.72411-0.05105
  -2 -12   5   69.81    7.61  36-0.23131 0.12229 0.46459-0.93398 0.72309-0.27055
  -2 -11   4    7.23    6.41  36-0.23114 0.08337 0.46431-0.89451 0.72333-0.38142
  -2   5  -1  843.94   10.12  36-0.23231-0.10357 0.46626-0.27131 0.72163-0.93405
  -2  18  -1   85.70    6.41  35-0.22714-0.10842 0.45765 0.24297 0.72910-0.94392
  -2  19  -1   87.68    8.32  36-0.23244-0.10322 0.46647 0.27276 0.72145-0.93526
  -1 -12   7   32.04    6.96  35-0.22810 0.34269 0.45925-0.92977 0.72772-0.00381
  -1  -9   3  175.86    6.62  36-0.23140 0.19564 0.46474-0.81673 0.72296-0.44067
  -1  19  -1   -2.19    7.99  36-0.23099 0.04415 0.46406 0.27726 0.72355-0.88814
   0 -10   6  523.83    9.25  36-0.23203 0.45847 0.46578-0.85745 0.72205-0.05861
   0 -10   7   -1.12    9.05  36-0.23195 0.49594 0.46566-0.85894 0.72216 0.05591
   0  -9   4  257.86    5.87  35-0.22849 0.37914 0.45990-0.81218 0.72717-0.28419
   0  -6   2 1174.11   11.45  35-0.23065 0.30649 0.46350-0.69794 0.72404-0.50138
   0  17  -1  405.81    8.85  35-0.22994 0.19212 0.46231 0.19977 0.72508-0.83846
   0  24   0  202.85   11.00  35-0.23260 0.23184 0.46674 0.46689 0.72121-0.72488
   1  21   0   22.12    8.81  35-0.23153 0.38126 0.46496 0.35367 0.72277-0.67433
   2  -4   6  381.49    8.17  35-0.22733 0.75118 0.45797-0.61519 0.72883 0.03534
   2  -3   4   29.00    6.67  36-0.23319 0.68210 0.46772-0.58567 0.72035-0.17616
   2  -2   3   79.09    6.16  35-0.23015 0.64102 0.46266-0.54068 0.72477-0.29112
   2   0   2 1794.91   14.98  35-0.23096 0.60491 0.46401-0.46343 0.72359-0.40055
   3   3   4   68.41    8.25  36-0.23069 0.82803 0.46355-0.34645 0.72400-0.13029
   3   3   6  172.24   11.61  36-0.23348 0.90689 0.46820-0.35187 0.71993 0.09400
   3   5   3   98.69    9.49  36-0.23622 0.79595 0.47275-0.27763 0.71590-0.23301
   3  10   2   14.52   13.98  40-0.26440 0.78627 0.51943-0.12967 0.67191-0.29929
  -5   8   0  203.62    9.67  36-0.23821-0.50537 0.47590-0.16580 0.71307-0.96783
  -4 -13   7   33.64   11.68  37-0.23978-0.09251 0.47852-0.98891 0.71071-0.13806
  -4  -6   2  500.07   19.46  40-0.26715-0.25233 0.52386-0.75969 0.66747-0.64708
  -4  -3   1 1693.18   25.34  37-0.24863-0.30897 0.49321-0.61124 0.69722-0.78842
  -4   2   0  313.89    8.74  36-0.23968-0.35534 0.47834-0.40125 0.71087-0.91354
  -3 -13   7  226.93   10.41  37-0.24149 0.05930 0.48136-0.99148 0.70814-0.08486
  -3 -12   5    2.55    7.55  36-0.23727-0.02218 0.47433-0.94447 0.71447-0.31254
  -3   7  -1  108.02    6.72  37-0.24003-0.24419 0.47893-0.20641 0.71034-0.97335
  -3  17  -1   90.74    9.17  36-0.23805-0.24654 0.47564 0.18568 0.71330-0.97888
  -2  20  -1  274.32   10.18  36-0.23934-0.09671 0.47777 0.30012 0.71139-0.92620
  -1 -11   5  611.46    7.84  36-0.23587 0.27534 0.47200-0.90261 0.71654-0.21344
  -1 -10   4  248.28    7.29  37-0.23987 0.24199 0.47867-0.87011 0.71058-0.31775
  -1  -7   2 1079.17   11.78  37-0.24017 0.16684 0.47915-0.75361 0.71014-0.53813
  -1  20  -1  157.06    9.03  36-0.23780 0.05064 0.47522 0.30300 0.71368-0.87856
   0   6  -1  222.50    7.44  37-0.23973 0.20163 0.47842-0.24293 0.71080-0.82254
   0  18  -1   16.05    6.76  36-0.23644 0.19941 0.47296 0.22914 0.71570-0.82870
   1  -7   5   33.49    6.70  36-0.23810 0.57431 0.47571-0.74970 0.71324-0.10966
   1  -7   6   25.91    7.59  37-0.24095 0.61644 0.48045-0.75559 0.70897 0.00632
   1  -7   7    7.72    8.96  36-0.23797 0.64948 0.47550-0.75024 0.71342 0.11130
   1  -1   1 3492.74   24.51  37-0.24117 0.42941 0.48082-0.51942 0.70863-0.54624
   2  -3   7  145.56    8.61  36-0.23549 0.79781 0.47137-0.58933 0.71711 0.15778
   2  12   0 1350.85   16.27  37-0.24218 0.53987 0.48249-0.01382 0.70711-0.60737
   2  13   0  747.75   12.77  37-0.24235 0.53985 0.48278 0.02465 0.70685-0.60731
   2  21   1  220.94   11.45  36-0.23805 0.57212 0.47564 0.34321 0.71330-0.50695
   3   3   5   51.67    9.08  37-0.23858 0.87344 0.47652-0.36004 0.71252-0.00856
   3  16   2   38.03   16.56  38-0.25127 0.77232 0.49759 0.12688 0.69310-0.32275
  -6  -1   2   40.97   12.13  37-0.24767-0.56908 0.49164-0.53195 0.69860-0.78157
  -6   5   1  205.68   10.02  37-0.24418-0.61052 0.48585-0.29204 0.70395-0.89907
  -5   7   0   35.51    8.02  37-0.24418-0.50002 0.48585-0.21386 0.70395-0.95852
  -4 -10   4   29.77    8.66  38-0.25191-0.19240 0.49868-0.89025 0.69199-0.45047
  -3   6  -1  300.98    7.50  38-0.24896-0.23506 0.49379-0.26052 0.69659-0.95952
  -3  18  -1  318.41    8.01  37-0.24248-0.24197 0.48302 0.21750 0.70654-0.97231
  -3  19  -1   20.30    9.81  37-0.24689-0.23632 0.49036 0.25055 0.69980-0.96414
  -2 -12   6  979.34   11.10  38-0.24702 0.17543 0.49057-0.96111 0.69959-0.13634
  -2   4  -1 2118.16   15.12  38-0.24805-0.08799 0.49227-0.33621 0.69801-0.91030
  -2  21  -1  271.81   10.68  37-0.24639-0.08910 0.48951 0.32745 0.70058-0.91609
  -1 -11   6  492.98    9.45  38-0.24688 0.32402 0.49033-0.92151 0.69982-0.08618
  -1 -11   7   -2.92    8.33  38-0.24776 0.36254 0.49180-0.92598 0.69845 0.03061
  -1 -11   8  197.28    8.74  37-0.24418 0.39570 0.48585-0.91799 0.70395 0.13075
  -1   4  -1  848.29   11.15  37-0.24561 0.05795 0.48822-0.33160 0.70178-0.86434
  -1  21  -1   12.45    9.43  37-0.24564 0.06010 0.48827 0.33174 0.70173-0.86612
   0  -9   5  103.48    6.98  38-0.24678 0.43523 0.49017-0.84241 0.69997-0.14624
   0  -9   8   14.64    8.47  37-0.24343 0.54390 0.48459-0.83863 0.70511 0.18062
   0  19  -1  238.36    7.08  37-0.24324 0.20536 0.48428 0.25557 0.70539-0.81948
   1  -6   4   41.39    6.37  38-0.24648 0.54558 0.48967-0.72432 0.70043-0.20701
   1  -5   3   24.35    5.26  37-0.24487 0.50692 0.48699-0.68238 0.70290-0.31941
   1  22   0  181.55    9.60  37-0.24343 0.39168 0.48459 0.37277 0.70511-0.65929
   2  -3   5  125.48    6.05  37-0.24362 0.72986 0.48491-0.60303 0.70482-0.05077
   2  -3   6  282.87    7.78  37-0.24305 0.76707 0.48397-0.60279 0.70568 0.05872
   2  -2   7   94.98   10.18  38-0.24945 0.81103 0.49461-0.57469 0.69583 0.17906
   2  11   0   68.83    6.78  37-0.24644 0.54417 0.48960-0.05977 0.70049-0.60138
   2  14   0  169.10    8.04  37-0.24621 0.54380 0.48922 0.05714 0.70084-0.60243
   2  15   0   81.35    8.41  38-0.24959 0.54711 0.49483 0.08999 0.69562-0.59670
   3   4   4  132.14    8.62  38-0.24600 0.84321 0.48887-0.33334 0.70117-0.10769
   3   4   5  171.41   10.61  38-0.25157 0.88631 0.49812-0.34303 0.69252 0.01132
   3   4   6   31.95   11.42  37-0.24560 0.91786 0.48821-0.33386 0.70179 0.11309
   3   6   3  814.90   13.68  39-0.25430 0.81437 0.50265-0.26861 0.68821-0.20512
  -6   4   1  142.41   12.19  39-0.25537-0.59904 0.50457-0.35006 0.68617-0.87992
  -5   6   0   14.44    8.67  38-0.25216-0.49216 0.49924-0.26582 0.69125-0.94602
  -4 -12   6   22.95    9.61  38-0.25363-0.11687 0.50167-0.97227 0.68894-0.22669
  -4  13  -1  541.78   10.04  39-0.25605-0.37633 0.50569-0.00037 0.68509-0.99926
  -3  -9   3   20.98    6.59  39-0.25325-0.08092 0.50104-0.85315 0.68954-0.50863
  -3  -7   2  262.60   10.02  39-0.25593-0.11481 0.50549-0.78012 0.68528-0.61419
  -3  20  -1  156.99   11.06  38-0.25310-0.23042 0.50079 0.27731 0.68978-0.95655
  -2 -12   7    2.60    8.76  39-0.25323 0.21814 0.50102-0.97072 0.68956-0.01407
  -2 -12   8   19.86    8.60  38-0.25006 0.25227 0.49574-0.96739 0.69455 0.09018
  -2  -9   3   88.07    6.49  39-0.25395 0.06953 0.50220-0.85484 0.68843-0.45605
  -2  22  -1  114.04   10.93  38-0.25364-0.08125 0.50170 0.35457 0.68891-0.90494
  -1  22  -1   72.30   10.13  38-0.25305 0.06691 0.50071 0.35478 0.68986-0.85553
   0  -9   6  110.15    7.74  38-0.25327 0.47845 0.50107-0.85359 0.68951-0.02519
   0  -9   7  234.33    7.50  38-0.25081 0.51391 0.49698-0.85099 0.69338 0.08102
   0  -8   4 1075.16   10.02  39-0.25442 0.40550 0.50299-0.81640 0.68768-0.24422
   0  -7   3   62.04    5.68  38-0.25305 0.36640 0.50071-0.77448 0.68985-0.35623
   0  20  -1  262.20    7.34  38-0.25062 0.21296 0.49667 0.28231 0.69368-0.80819
   1  -6   7   23.88    9.72  39-0.25408 0.66577 0.50243-0.73891 0.68822 0.13724
   1  -3   2 2082.69   14.94  39-0.25650 0.48207 0.50645-0.62361 0.68435-0.41130
   1  11  -1  192.99    6.92  39-0.25663 0.36749 0.50666-0.07715 0.68415-0.74589
   1  12  -1   28.05    5.99  38-0.25408 0.36569 0.50243-0.03393 0.68822-0.74980
   1  13  -1  510.05    8.93  38-0.25382 0.36507 0.50199 0.00549 0.68863-0.75099
   1  14  -1 1203.96   11.69  38-0.25450 0.36568 0.50312 0.04308 0.68755-0.74981
   1  15  -1   92.63    6.48  39-0.25666 0.36778 0.50671 0.07809 0.68410-0.74633
   1  23   0  235.28   11.20  38-0.25422 0.40297 0.50266 0.39281 0.68800-0.64182
   2  -2   4  396.42    8.35  39-0.25381 0.70248 0.50197-0.58019 0.68865-0.14486
   2  -1   3  244.51    7.27  38-0.25354 0.66464 0.50152-0.54044 0.68908-0.25574
   2  10   0  179.98    9.11  38-0.25450 0.55257 0.50312-0.11208 0.68755-0.58777
   2  16   0 1427.48   14.61  39-0.25521 0.55280 0.50430 0.11942 0.68642-0.58772
   2  22   1  104.20   11.60  38-0.25240 0.58787 0.49962 0.35792 0.69089-0.48368
   3   5   6   38.39   11.55  39-0.25515 0.92835 0.50421-0.31142 0.68651 0.12813
  -5 -11   6   -0.07   10.75  40-0.26123-0.25936 0.51457-0.94725 0.67653-0.26273
  -5 -10   5  322.98   11.33  40-0.26194-0.29328 0.51576-0.90952 0.67536-0.37383
  -5   5   0  892.01   11.98  39-0.26182-0.48142 0.51556-0.32147 0.67556-0.92937
  -4 -11   5  219.17    8.99  39-0.25996-0.14688 0.51245-0.94334 0.67861-0.32616
  -4   1   0   71.38    7.93  40-0.26464-0.33007 0.52024-0.48144 0.67092-0.87391
  -4  10  -1    2.15    7.93  40-0.26151-0.37314 0.51503-0.12705 0.67608-0.99065
  -4  11  -1  362.18    9.20  39-0.25884-0.37335 0.51060-0.08310 0.68042-0.99553
  -4  12  -1  177.64    6.97  39-0.25718-0.37551 0.50783-0.04095 0.68311-0.99827
  -4  14  -1    8.46    6.82  39-0.25736-0.37532 0.50814 0.03825 0.68281-0.99870
  -4  15  -1  211.91    7.78  39-0.25847-0.37374 0.50998 0.07302 0.68102-0.99693
  -4  16  -1   17.06   10.15  39-0.26034-0.37183 0.51310 0.11108 0.67798-0.99359
  -4  17  -1    9.48    9.79  40-0.26283-0.36915 0.51723 0.14507 0.67391-0.98938
  -3 -12   6    2.44    6.47  39-0.25773 0.03563 0.50876-0.98014 0.68221-0.16672
  -3   5  -1  353.46    8.04  39-0.26095-0.22331 0.51410-0.31963 0.67699-0.94055
  -3  21  -1   27.31   10.51  39-0.25901-0.22440 0.51088 0.30911 0.68014-0.94665
  -2 -11   5  335.68    8.05  39-0.25958 0.14992 0.51183-0.94214 0.67922-0.22609
  -2 -10   4 1824.17   13.04  40-0.26312 0.11537 0.51772-0.90976 0.67343-0.33133
  -2  23  -1   50.48   11.69  39-0.26096-0.07364 0.51413 0.38222 0.67697-0.89287
  -1 -10   5    1.29    6.73  40-0.26105 0.29973 0.51427-0.90703 0.67683-0.17086
  -1 -10   8   37.29   10.47  40-0.26184 0.41365 0.51559-0.90974 0.67553 0.15985
  -1  23  -1    3.79   10.61  40-0.26123 0.07541 0.51457 0.38256 0.67653-0.84196
   0  -8   8  305.29   10.64  39-0.26021 0.56042 0.51288-0.82736 0.67819 0.20673
   0   5  -1 2237.98   17.82  39-0.26096 0.22307 0.51412-0.31765 0.67697-0.78916
   0  21  -1  378.78    7.98  39-0.25829 0.22047 0.50968 0.30800 0.68132-0.79668
   1  -6   5  682.10    7.90  39-0.25773 0.59507 0.50876-0.74392 0.68221-0.07829
   1  -6   6  474.77    8.82  39-0.25979 0.63412 0.51218-0.74730 0.67888 0.03544
   1  -5   8   42.49    8.78  39-0.25736 0.70690 0.50814-0.70630 0.68281 0.25293
   1  10  -1  948.35   11.42  40-0.26225 0.37409 0.51627-0.12534 0.67486-0.73610
   1  16  -1  211.49    7.67  39-0.26080 0.37205 0.51385 0.10954 0.67724-0.74064
   2  -2   5    4.42    7.39  40-0.26140 0.74688 0.51486-0.59434 0.67625-0.02172
   2  -2   6  552.92    9.95  39-0.25895 0.78241 0.51077-0.58985 0.68025 0.08399
   2  -1   7  274.43   11.52  40-0.26274 0.82365 0.51708-0.55927 0.67406 0.20091
   2   1   2  263.85    7.86  40-0.26117 0.63515 0.51447-0.47538 0.67663-0.35353
   2  17   0  167.11    8.87  39-0.26191 0.56001 0.51570 0.14658 0.67542-0.57695
   2  23   1   46.66   13.80  40-0.26596 0.60186 0.52243 0.37361 0.66873-0.46094
   3   5   4  113.23    8.61  40-0.26085 0.85810 0.51394-0.32012 0.67716-0.08320
   3   5   5    3.52    9.39  40-0.26307 0.89877 0.51762-0.32421 0.67352 0.03104
   3   6   6    4.19   12.10  40-0.26508 0.93851 0.52097-0.28898 0.67019 0.14487
   3  11   2  144.68   17.83  45-0.29831 0.82104 0.57588-0.14825 0.61136-0.23803
   3  17   2   17.91   16.21  40-0.27002 0.79226 0.52917 0.13285 0.66191-0.29121
  -6   3   1   87.90   11.13  41-0.27153-0.58247 0.53163-0.41417 0.65943-0.85441
  -5  -1   1  204.45   11.64  41-0.27438-0.43186 0.53636-0.57459 0.65455-0.79852
  -4 -12   7   45.98   10.23  40-0.26667-0.06623 0.52358-0.99453 0.66761-0.09500
  -4  -8   3  642.04   13.54  41-0.27301-0.20959 0.53409-0.84762 0.65690-0.52631
  -4   8  -1  115.30    7.55  41-0.27095-0.35966 0.53068-0.21848 0.66040-0.97450
  -4   9  -1  690.30    9.95  40-0.26577-0.36572 0.52207-0.17114 0.66913-0.98401
  -4  18  -1   27.45   10.52  40-0.26706-0.36651 0.52421 0.17854 0.66697-0.98405
  -3 -12   7  456.25    9.04  40-0.26504 0.08062 0.52085-0.99302 0.67034-0.04776
  -3 -12   8   50.84    9.14  40-0.26467 0.11827 0.52025-0.99262 0.67094 0.06308
  -3 -11   5  140.88    7.92  41-0.26848 0.00888 0.52657-0.95766 0.66459-0.26319
  -3 -10   4  269.47    8.22  41-0.26931-0.02777 0.52795-0.92024 0.66319-0.37244
  -3  -1   0  107.57    8.38  41-0.27081-0.17604 0.53045-0.56894 0.66064-0.81287
  -2 -11   6    0.21    7.62  41-0.26995 0.19724 0.52901-0.96412 0.66211-0.09415
  -2 -11   8  352.35   12.04  41-0.26954 0.26997 0.52834-0.96213 0.66279 0.12048
  -2  -7   2   11.64    5.66  41-0.26778 0.04433 0.52541-0.79940 0.66577-0.54464
  -2   3  -1 4478.73   22.13  40-0.26892-0.06680 0.52730-0.40951 0.66384-0.87651
  -1 -10   6  128.09    8.05  41-0.26888 0.34368 0.52724-0.92058 0.66391-0.05107
  -1 -10   7  110.45    9.14  41-0.26866 0.38124 0.52688-0.92053 0.66428 0.05937
  -1  -9   4 4663.15   18.40  41-0.26872 0.26894 0.52697-0.88004 0.66419-0.27178
  -1  -8   3  546.97    7.62  40-0.26577 0.22917 0.52207-0.83588 0.66912-0.38677
  -1  24  -1    5.61   11.45  40-0.26888 0.08361 0.52724 0.40855 0.66391-0.82818
   0  -8   5  214.59    7.32  41-0.26891 0.45567 0.52729-0.84203 0.66385-0.11089
   0  -8   7  200.44    9.18  41-0.26888 0.53041 0.52723-0.84333 0.66392 0.11036
   0  -5   2  197.12    6.71  41-0.26922 0.34427 0.52781-0.72421 0.66333-0.44092
   0  -3   1 1564.29   16.72  40-0.26540 0.30355 0.52146-0.63951 0.66973-0.55768
   0  22  -1  332.49    9.97  40-0.26615 0.22998 0.52271 0.33369 0.66848-0.78311
   1  -5   4  131.32    6.40  41-0.26875 0.56723 0.52703-0.72432 0.66412-0.17093
   1  -5   7  136.60    9.89  41-0.26961 0.68053 0.52846-0.72762 0.66267 0.16182
   1  -4   8   -2.36   10.43  41-0.26995 0.72162 0.52901-0.69048 0.66211 0.27922
   1   9  -1   25.67    5.69  41-0.27180 0.38410 0.53208-0.18054 0.65896-0.71992
   1  17  -1   37.22    6.97  40-0.26522 0.37806 0.52116 0.14135 0.67004-0.73252
   1  18  -1 1273.93   12.12  41-0.26968 0.38299 0.52856 0.17237 0.66256-0.72404
   1  24   0   60.44   10.79  40-0.26599 0.41646 0.52245 0.41269 0.66874-0.62231
   2   4   1 1957.18   25.28  42-0.27638 0.61327 0.53966-0.38310 0.65110-0.43878
   2   9   0   32.08    7.39  41-0.27216 0.57105 0.53269-0.18161 0.65834-0.55762
   2  18   0    9.26    7.96  40-0.26945 0.56806 0.52818 0.17405 0.66295-0.56416
   3   7   3  260.02   11.12  41-0.27250 0.83240 0.53324-0.26293 0.65778-0.17383
  -6  -8   5    4.04   14.12  43-0.28366-0.42270 0.55202-0.86773 0.63796-0.38736
  -5   4   0  208.81    9.69  41-0.27534-0.46763 0.53828-0.38163 0.65255-0.90732
  -4   7  -1    5.22    6.94  41-0.27671-0.35355 0.54054-0.26854 0.65019-0.96174
  -3   4  -1  948.14   10.86  41-0.27549-0.20837 0.53852-0.38185 0.65230-0.91591
  -2 -11   7   37.72    8.55  41-0.27420 0.23836 0.53638-0.96830 0.65453 0.01926
  -1   3  -1 4688.53   24.49  41-0.27139 0.08433 0.53174-0.41346 0.65932-0.82183
   0  -8   6   38.63    5.53  41-0.27248 0.49669 0.53353-0.84904 0.65747 0.00652
   0  -7   8   52.61   10.73  42-0.27579 0.57677 0.53903-0.81538 0.65177 0.23351
   0  23  -1   55.65   10.54  41-0.27439 0.23917 0.53670 0.35900 0.65420-0.76876
   1  -5   5  281.10    7.47  42-0.27782 0.61510 0.54238-0.73869 0.64825-0.04445
   1  -5   6 1169.31   11.18  42-0.27667 0.65166 0.54048-0.73803 0.65025 0.06396
   1  -4   3 1469.75   11.04  41-0.27139 0.53296 0.53174-0.68935 0.65932-0.27589
   1  19  -1   32.15    7.85  41-0.27579 0.38819 0.53901 0.20212 0.65178-0.71446
   2  -1   4  132.99    6.60  41-0.27360 0.72137 0.53539-0.57632 0.65556-0.11162
   2  -1   5  449.98    8.79  42-0.27783 0.76442 0.54239-0.58281 0.64824 0.00560
   2  -1   6   16.07    8.22  41-0.27442 0.79683 0.53675-0.57745 0.65415 0.10984
   2   0   3    0.88    5.91  41-0.27572 0.68799 0.53890-0.54017 0.65190-0.21818
   2   0   7    1.07   10.66  42-0.27572 0.83682 0.53890-0.54247 0.65190 0.22579
   2  19   0    2.63   10.04  42-0.27803 0.57702 0.54273 0.19890 0.64789-0.54964
   3   6   4  141.68    8.86  42-0.27513 0.87259 0.53792-0.30579 0.65292-0.05897
   3   6   5   62.10    9.88  42-0.27559 0.91061 0.53869-0.30637 0.65213 0.05172
   3   7   6  370.81   13.67  42-0.27518 0.94760 0.53801-0.26792 0.65284 0.16187
   3  18   2   91.31   18.11  43-0.28763 0.80945 0.55857 0.14299 0.63082-0.26102
  -4 -11   6  183.90    9.72  43-0.28297-0.08632 0.55092-0.98327 0.63926-0.17618
  -3 -11   6  595.84   10.35  43-0.28414 0.06345 0.55286-0.98505 0.63717-0.12385
  -3 -11   8   19.49   10.50  43-0.28562 0.13891 0.55531-0.98876 0.63451 0.10074
  -2  12  -2   24.92    6.67  42-0.28303-0.08918 0.55103-0.08281 0.63915-0.96336
  -2  13  -2   87.43    7.18  42-0.28170-0.09074 0.54883-0.04222 0.64151-0.96635
  -2  14  -2 1750.51   11.94  42-0.28135-0.09112 0.54826-0.00324 0.64212-0.96747
  -2  15  -2   40.53    7.68  42-0.28152-0.09129 0.54854 0.03523 0.64182-0.96711
  -2  16  -2   -1.78    7.76  43-0.28287-0.09088 0.55077 0.07262 0.63943-0.96527
  -2  17  -2   94.88    8.12  43-0.28408-0.08770 0.55277 0.10899 0.63727-0.96149
  -1  -9   8   98.34    7.85  42-0.27967 0.43154 0.54548-0.90056 0.64509 0.19005
  -1  11  -2  365.81    7.57  43-0.28403 0.06029 0.55268-0.12346 0.63737-0.91040
  -1  12  -2   85.53    6.61  42-0.28147 0.05765 0.54846-0.08074 0.64191-0.91579
  -1  13  -2  248.11    6.01  42-0.28002 0.05631 0.54607-0.03945 0.64446-0.91886
  -1  14  -2    8.47    4.84  42-0.27931 0.05590 0.54489 0.00202 0.64572-0.91995
  -1  15  -2  483.85    7.03  42-0.28002 0.05618 0.54607 0.03815 0.64446-0.91933
  -1  16  -2   26.91    7.12  42-0.28145 0.05770 0.54842 0.07475 0.64195-0.91696
  -1  17  -2  262.26    8.48  42-0.28317 0.05964 0.55126 0.11073 0.63890-0.91321
   0  -7   4    2.66    4.01  42-0.28020 0.43040 0.54636-0.82152 0.64415-0.20025
   0  -6   3   63.49    5.76  43-0.28340 0.39633 0.55164-0.78687 0.63849-0.30552
   0  24  -1   73.78   11.66  42-0.28260 0.24609 0.55031 0.38382 0.63992-0.75527
   1  -4   7   17.14    8.70  43-0.28469 0.69774 0.55378-0.71347 0.63618 0.19090
   1  -3   8  154.05   10.85  43-0.28527 0.73522 0.55472-0.67500 0.63515 0.30026
   1   8  -1  392.93    8.86  43-0.28531 0.39703 0.55480-0.24172 0.63507-0.69637
   1  20  -1  366.37    9.74  42-0.28249 0.39424 0.55013 0.22884 0.64011-0.70421
   2  20   0   98.97   10.40  43-0.28573 0.58386 0.55548 0.22337 0.63432-0.53677
   3   7   5    5.08   10.47  42-0.28415 0.92294 0.55289-0.28129 0.63714 0.06925
   3   8   3  809.14   15.02  44-0.29035 0.85072 0.56311-0.25284 0.62593-0.14232
   3   8   6   13.94   12.40  43-0.28368 0.95669 0.55211-0.24234 0.63798 0.17658
  -6   2   1   23.20   10.71  43-0.29146-0.56266 0.56524-0.48832 0.62354-0.81672
  -6   9   0   55.72   11.15  44-0.29188-0.59926 0.56594-0.21613 0.62275-0.92780
  -5   3   0  245.63   10.54  44-0.29159-0.45135 0.56545-0.44877 0.62330-0.87690
  -4 -11   7  825.79   13.32  44-0.29117-0.04103 0.56476-0.99822 0.62407-0.05090
  -4 -10   5  205.61    9.82  44-0.29478-0.11313 0.57071-0.96266 0.61738-0.26553
  -4   6  -1  175.45    8.05  43-0.28854-0.34335 0.56044-0.32698 0.62887-0.94327
  -3 -11   7  124.86    9.92  43-0.28898 0.10533 0.56116-0.99316 0.62808-0.00393
  -2 -10   5  291.12    6.59  43-0.28604 0.17620 0.55630-0.94899 0.63341-0.18044
  -2 -10   8  250.52   11.12  43-0.28915 0.29112 0.56143-0.95462 0.62777 0.15687
  -2  10  -2  447.90    8.19  43-0.29001-0.08232 0.56286-0.17264 0.62619-0.95019
  -2  11  -2   13.87    4.79  43-0.28604-0.08692 0.55630-0.12725 0.63341-0.95811
  -2  18  -2  588.58    9.80  43-0.28746-0.08450 0.55865 0.14192 0.63083-0.95691
  -2  19  -2    0.19    9.18  44-0.29025-0.08288 0.56326 0.17674 0.62575-0.95135
  -1  -9   5   36.68    4.94  43-0.28551 0.32493 0.55543-0.90839 0.63436-0.13101
  -1  -9   6    5.57    7.43  44-0.29043 0.36682 0.56355-0.91788 0.62543-0.01027
  -1  -9   7  217.07    8.59  43-0.28841 0.40198 0.56022-0.91379 0.62911 0.09517
  -1  -6   2  586.66    8.70  43-0.28692 0.21302 0.55775-0.79327 0.63182-0.45964
  -1  -4   1 2440.00   23.55  44-0.29242 0.18044 0.56682-0.72421 0.62176-0.56067
  -1  10  -2  268.56    7.17  43-0.28920 0.06544 0.56152-0.17125 0.62767-0.90134
  -1  18  -2   48.80    6.16  43-0.28656 0.06327 0.55717 0.14457 0.63246-0.90784
  -1  19  -2  570.62   10.20  43-0.28978 0.06665 0.56247 0.17750 0.62662-0.90158
   0  -7   5 2260.33   12.89  44-0.29102 0.47873 0.56452-0.84019 0.62434-0.07058
   0  -7   6   52.79    7.07  44-0.29214 0.51747 0.56636-0.84230 0.62228 0.04207
   0  -7   7   93.43    6.57  43-0.28639 0.54921 0.55688-0.83333 0.63278 0.14226
   0  -6   8  353.34   10.38  44-0.29118 0.59178 0.56479-0.80310 0.62404 0.26106
   0   4  -1 1312.72   14.88  44-0.28982 0.25185 0.56254-0.40482 0.62654-0.73884
   1  -4   4  266.25    6.91  44-0.29178 0.59114 0.56577-0.72341 0.62295-0.12930
   1  -2   2   10.51    5.10  44-0.29184 0.51678 0.56587-0.64490 0.62283-0.34981
   1  21  -1   78.96    9.30  43-0.28933 0.40154 0.56173 0.25634 0.62744-0.69172
   2   0   6  182.84    9.37  43-0.28881 0.81193 0.56087-0.56256 0.62839 0.13610
   2   1   7  277.88   11.33  43-0.28879 0.84953 0.56084-0.52419 0.62842 0.24639
   2   2   2   50.77    7.08  44-0.29316 0.66720 0.56805-0.49014 0.62039-0.29742
   3   7   4   57.74    8.41  44-0.28929 0.88679 0.56167-0.29076 0.62750-0.03392
  -6  -2   2  305.31   16.96  45-0.30345-0.51403 0.58493-0.66302 0.60092-0.68433
  -6   8   0  124.27   11.09  45-0.29824-0.59231 0.57639-0.26372 0.61086-0.91647
  -5 -10   6   19.65   10.44  45-0.29565-0.22321 0.57214-0.96492 0.61572-0.20329
  -5  -8   4   81.26   10.68  45-0.29943-0.29372 0.57834-0.89276 0.60861-0.41792
  -5  11  -1   56.33    9.74  45-0.29852-0.48094 0.57686-0.14818 0.61032-0.97563
  -5  12  -1   82.91   11.12  44-0.29623-0.48404 0.57310-0.10566 0.61463-0.98109
  -5  13  -1   66.79   10.61  44-0.29460-0.48619 0.57042-0.06411 0.61768-0.98468
  -5  14  -1  120.47    8.93  44-0.29355-0.48674 0.56870-0.02335 0.61962-0.98666
  -4  -9   4    1.04    7.58  44-0.29512-0.15057 0.57127-0.92516 0.61671-0.37500
  -4   0   0   23.43    8.13  44-0.29704-0.29779 0.57442-0.57455 0.61312-0.81577
  -3 -10   5 1019.19   11.15  45-0.29851 0.03834 0.57684-0.96964 0.61035-0.20928
  -3   3  -1   61.81    6.57  44-0.29425-0.18981 0.56984-0.45296 0.61833-0.88166
  -3  12  -2  142.11    8.24  45-0.29749-0.22255 0.57516-0.10641 0.61228-0.98650
  -3  13  -2  802.34   10.28  44-0.29626-0.22400 0.57315-0.06667 0.61458-0.99019
  -3  14  -2   24.54    8.12  44-0.29578-0.22661 0.57235-0.02583 0.61548-0.99252
  -3  15  -2  214.56    8.60  44-0.29501-0.22566 0.57109 0.01309 0.61692-0.99281
  -3  16  -2   46.55    9.16  44-0.29580-0.22531 0.57239 0.05149 0.61544-0.99174
  -3  17  -2   20.15    9.77  44-0.29669-0.22463 0.57384 0.08890 0.61378-0.98929
  -3  18  -2  110.45    9.57  45-0.29834-0.22041 0.57656 0.12506 0.61066-0.98517
  -2 -10   6  426.47    9.00  44-0.29569 0.22220 0.57220-0.96442 0.61565-0.05261
  -2 -10   7   84.10    8.52  44-0.29553 0.25942 0.57195-0.96468 0.61594 0.05751
  -2  -9   4   22.26    6.15  45-0.29617 0.14812 0.57299-0.92571 0.61475-0.27196
  -2  -8   3  984.61   10.98  44-0.29529 0.10960 0.57155-0.88463 0.61640-0.38441
  -2   2  -1   59.35    6.10  44-0.29609-0.03961 0.57287-0.49453 0.61489-0.82758
  -2   9  -2   45.47    6.49  44-0.29610-0.07645 0.57289-0.22152 0.61487-0.93910
  -2  20  -2   19.04    9.03  44-0.29539-0.07784 0.57172 0.21009 0.61620-0.94385
  -2  21  -2    0.40    9.78  45-0.29789-0.07448 0.57583 0.24052 0.61151-0.93646
  -1  -8   4  787.25    9.13  45-0.29723 0.29747 0.57473-0.88929 0.61276-0.22023
  -1  -8   8   27.16   10.12  45-0.29707 0.44899 0.57447-0.89017 0.61307 0.22304
  -1   9  -2  595.99    8.53  44-0.29612 0.07254 0.57292-0.22132 0.61484-0.88867
  -1  20  -2  112.83    8.74  44-0.29425 0.07124 0.56984 0.20902 0.61833-0.89384
  -1  21  -2  153.30    9.36  45-0.29820 0.07660 0.57633 0.24146 0.61093-0.88471
   0  12  -2 2654.77   14.53  45-0.29750 0.22369 0.57519-0.10636 0.61224-0.83432
   0  13  -2  285.88    7.45  44-0.29548 0.22109 0.57186-0.06472 0.61604-0.83943
   0  14  -2    4.36    6.22  44-0.29487 0.22009 0.57087-0.02299 0.61717-0.84196
   0  15  -2  105.82    5.48  44-0.29408 0.21969 0.56956 0.01542 0.61865-0.84250
   0  16  -2  517.00    9.02  44-0.29521 0.22094 0.57142 0.05214 0.61654-0.84080
   0  17  -2   16.39    7.35  44-0.29669 0.22199 0.57385 0.08980 0.61378-0.83783
   1  -4   5 1206.17   10.76  45-0.29723 0.63327 0.57474-0.73421 0.61275-0.00873
   1  -4   6   75.47    7.28  44-0.29474 0.66865 0.57065-0.72889 0.61741 0.09698
   1  -2   8   85.92   10.58  45-0.29818 0.74734 0.57630-0.65952 0.61097 0.32534
   1   0   1 1251.63   16.17  45-0.29899 0.48697 0.57762-0.57786 0.60945-0.44680
   1  22  -1  334.15   10.85  44-0.29653 0.40954 0.57359 0.28282 0.61407-0.67768
   2   0   4   34.88    4.64  44-0.29303 0.74203 0.56784-0.56907 0.62059-0.07643
   2   0   5   -2.02    7.35  45-0.29573 0.78097 0.57227-0.57437 0.61558 0.04015
   2  21   0    5.99   10.00  44-0.29572 0.59485 0.57225 0.24746 0.61559-0.51808
   3   8   5   54.58   10.15  45-0.29738 0.93275 0.57499-0.26725 0.61247 0.09249
   3  19   2   52.95   17.77  45-0.30389 0.82614 0.58566 0.15355 0.60007-0.22961
  -6   7   0    7.43   12.14  46-0.30688-0.58556 0.59071-0.31890 0.59381-0.89903
  -5 -10   7  201.37   13.09  46-0.30744-0.17160 0.59163-0.98523 0.59271-0.06878
  -5  -9   5    3.98    9.25  45-0.30354-0.25286 0.58526-0.93982 0.60028-0.29889
  -5  10  -1  154.63   10.73  45-0.30315-0.47610 0.58462-0.19395 0.60103-0.96787
  -4   5  -1  571.34    9.50  45-0.30032-0.33137 0.58000-0.38386 0.60643-0.92156
  -3 -10   8    5.10    9.86  46-0.30572 0.16055 0.58882-0.98320 0.59606 0.13912
  -3  -9   4   10.61    7.32  46-0.30788 0.01232 0.59235-0.94446 0.59184-0.30001
  -3  -8   3 1231.19   13.40  46-0.30259-0.03097 0.58370-0.89722 0.60211-0.42048
  -3  10  -2   14.77    6.88  46-0.30500-0.21589 0.58764-0.19798 0.59746-0.97155
  -3  11  -2  168.79    7.53  45-0.30137-0.21808 0.58172-0.15211 0.60443-0.97989
  -3  19  -2   79.84   10.08  45-0.30178-0.21739 0.58238 0.15865 0.60366-0.98021
  -3  20  -2   45.68   10.59  45-0.30427-0.21622 0.58644 0.19194 0.59888-0.97449
  -2   8  -2   85.29    6.26  45-0.30335-0.06866 0.58495-0.27255 0.60064-0.92430
  -2  22  -2   90.01   11.51  45-0.30327-0.06676 0.58482 0.27233 0.60079-0.92637
  -1  -7   3  394.43    7.51  45-0.30181 0.26521 0.58244-0.85662 0.60359-0.32101
  -1   8  -2 3057.02   15.70  46-0.30388 0.07970 0.58581-0.27287 0.59963-0.87277
  -1  22  -2  367.11   11.30  45-0.30364 0.08143 0.58542 0.27126 0.60009-0.87509
   0  -6   7  127.94    8.60  46-0.30349 0.56797 0.58518-0.82204 0.60038 0.17454
   0  11  -2   13.67    5.76  45-0.30286 0.22767 0.58415-0.15408 0.60158-0.82542
   0  18  -2  277.87    7.02  45-0.29946 0.22645 0.57859 0.12320 0.60807-0.83166
   0  19  -2   -0.94    8.29  46-0.30316 0.22746 0.58464 0.15662 0.60101-0.82670
   1  -3   3   14.98    3.85  45-0.29912 0.56134 0.57803-0.69592 0.60872-0.22539
   1  -3   7   33.76    6.86  45-0.30015 0.71245 0.57972-0.70033 0.60676 0.21926
   1   7  -1  726.01   11.20  46-0.30509 0.41653 0.58779-0.31341 0.59728-0.65854
   1  23  -1   16.84   10.90  45-0.30362 0.41509 0.58538 0.31143 0.60013-0.66364
   2   1   3  241.07    7.29  45-0.30131 0.71218 0.58161-0.54392 0.60456-0.17081
   2   1   6   14.40    8.73  45-0.30271 0.82657 0.58390-0.54694 0.60188 0.16328
   2   2   7   93.44    8.34  45-0.29998 0.86106 0.57944-0.50670 0.60709 0.26856
   2   8   0 1001.27   20.36  46-0.30810 0.60685 0.59270-0.27960 0.59142-0.49090
   2  22   0  332.45   11.94  45-0.30379 0.60311 0.58566 0.27064 0.59981-0.50118
   3   8   4  272.26   10.13  46-0.30313 0.90083 0.58459-0.27416 0.60107-0.00719
   3   9   3  101.89   10.26  46-0.30894 0.86896 0.59406-0.24425 0.58978-0.10659
   3   9   5   39.03   11.96  46-0.30803 0.94352 0.59259-0.24344 0.59155 0.11274
   3  12   2  116.66   17.34  50-0.33523 0.85798 0.63669-0.16980 0.53516-0.16202
  -5   2   0   -0.14    8.75  47-0.31365-0.43282 0.60174-0.52628 0.58058-0.83352
  -5   9  -1   -2.07    9.39  47-0.30961-0.47517 0.59515-0.24656 0.58862-0.95502
  -4 -10   6   95.83    9.28  47-0.31165-0.05834 0.59848-0.99180 0.58457-0.12278
  -4 -10   8  222.80   11.53  47-0.31297 0.01720 0.60064-0.99520 0.58193 0.10082
  -3 -10   6   40.62    8.12  47-0.31040 0.08963 0.59644-0.98910 0.58706-0.07373
  -3 -10   7  448.57   10.86  47-0.31114 0.12723 0.59765-0.99164 0.58559 0.03743
  -3   9  -2  476.30    8.88  47-0.31100-0.20971 0.59742-0.24664 0.58587-0.95990
  -2  -9   8   19.70    7.77  46-0.30723 0.31047 0.59127-0.94615 0.59329 0.19217
  -2  -2   0 1984.21   29.81  47-0.31764 0.01882 0.60823-0.68622 0.57251-0.67400
  -1  -8   5  531.16    8.50  47-0.31032 0.34926 0.59631-0.91032 0.58722-0.08375
  -1  -8   6   40.79    6.94  47-0.31178 0.38801 0.59870-0.91396 0.58431 0.02858
  -1  -8   7   31.00    5.88  46-0.30690 0.42178 0.59072-0.90595 0.59395 0.13113
  -1   2  -1 9399.25   36.82  46-0.30690 0.11919 0.59072-0.51252 0.59395-0.75638
  -1  23  -2  131.90   11.62  46-0.30984 0.08604 0.59553 0.29919 0.58816-0.86556
   0  -6   4 1536.04   10.62  46-0.30621 0.45751 0.58961-0.82468 0.59528-0.15146
   0  -6   6  144.20    7.64  47-0.31131 0.53638 0.59793-0.83541 0.58525 0.07875
   0  -5   8   -2.29    7.31  46-0.30638 0.60739 0.58989-0.78864 0.59495 0.29379
   0  -4   2  380.42    7.81  47-0.31049 0.38623 0.59659-0.75376 0.58687-0.36404
   0  10  -2 1014.79   10.21  46-0.30916 0.23355 0.59441-0.20384 0.58951-0.81326
   0  20  -2  846.35    9.39  46-0.30706 0.23150 0.59100 0.18759 0.59362-0.81952
   0  21  -2   10.00    9.31  46-0.31086 0.23643 0.59719 0.22161 0.58614-0.80998
   1  -3   6  243.30    8.58  47-0.31119 0.68555 0.59774-0.71796 0.58548 0.12883
   1  -1   8   61.57   11.25  47-0.31086 0.76126 0.59719-0.64067 0.58615 0.35009
   1  24  -1  295.64   11.62  47-0.31150 0.42400 0.59824 0.33655 0.58486-0.64783
   2   1   4  134.03    6.68  47-0.31276 0.76110 0.60030-0.56349 0.58235-0.03839
   2   1   5  443.58    9.25  47-0.31136 0.79728 0.59800-0.56174 0.58516 0.06920
   2   3   7  149.28   11.79  47-0.31175 0.87304 0.59864-0.48636 0.58438 0.29093
   2  23   0    3.93   12.23  47-0.31453 0.61393 0.60318 0.29443 0.57880-0.48109
   3   9   4   43.19   10.23  48-0.31668 0.91406 0.60668-0.25820 0.57445 0.01953
   3  20   2   31.77   19.89  48-0.32128 0.84343 0.61416 0.16386 0.56501-0.19477
  -6  -6   4  195.76   16.15  50-0.33039-0.41063 0.62902-0.86630 0.54556-0.40476
  -6   1   1  404.93   13.59  47-0.31819-0.53592 0.60927-0.57094 0.57113-0.76523
  -6   6   0   96.61   11.65  47-0.31700-0.57421 0.60734-0.37414 0.57354-0.87890
  -5   8  -1   39.38    9.53  47-0.31588-0.46496 0.60552-0.29435 0.57582-0.94223
  -4 -10   7  117.12   10.75  48-0.31648-0.01591 0.60649-0.99989 0.57461-0.00138
  -4   4  -1  158.25    7.78  47-0.31525-0.31635 0.60449-0.44854 0.57709-0.89173
  -4  14  -2    3.72    9.19  47-0.31761-0.35134 0.60833-0.06363 0.57230-0.99762
  -4  15  -2   23.06   10.72  47-0.31714-0.35298 0.60756-0.02298 0.57327-0.99954
  -4  16  -2  367.18   12.15  47-0.31692-0.35159 0.60721 0.01615 0.57371-0.99986
  -4  17  -2  141.50   12.12  47-0.31727-0.35135 0.60778 0.05436 0.57299-0.99868
  -3   2  -1   75.34    6.70  47-0.31709-0.16661 0.60748-0.52890 0.57337-0.83672
  -3   8  -2  694.97    9.35  48-0.31837-0.20212 0.60956-0.29716 0.57076-0.94485
  -2  -9   5 1628.58   11.23  47-0.31337 0.20322 0.60144-0.95500 0.58087-0.12816
  -2  -9   6   34.18    7.53  48-0.31812 0.24581 0.60916-0.96358 0.57126-0.00781
  -2  -9   7  391.13    9.23  47-0.31592 0.28061 0.60558-0.95945 0.57574 0.09795
  -2   7  -2   13.17    4.30  47-0.31354-0.05949 0.60171-0.32805 0.58054-0.90505
  -1  -7   8  827.36    9.66  47-0.31337 0.46488 0.60144-0.87946 0.58087 0.25366
  -1   7  -2  351.25    7.69  47-0.31569 0.09188 0.60521-0.33130 0.57620-0.84986
   0  -6   5  681.24    7.66  47-0.31320 0.50096 0.60117-0.83766 0.58121-0.02745
   0  -5   3 2575.85   14.52  47-0.31471 0.42752 0.60362-0.80023 0.57818-0.24481
   0   9  -2  224.91    6.93  48-0.31724 0.24260 0.60772-0.25548 0.57306-0.79583
   0  22  -2   64.62   10.01  47-0.31652 0.24291 0.60656 0.25066 0.57453-0.79946
   1  -3   4 1543.17   11.49  47-0.31538 0.61447 0.60470-0.72263 0.57684-0.08302
   1  -3   5  294.46    8.02  48-0.31693 0.65377 0.60722-0.72661 0.57369 0.03049
   1  -2   7  552.15   10.06  47-0.31525 0.72722 0.60450-0.68545 0.57709 0.24783
   2   2   6  558.35   10.85  48-0.31657 0.84005 0.60663-0.53120 0.57444 0.19037
   3  10   5  129.22   11.50  48-0.31721 0.95296 0.60768-0.22055 0.57313 0.13168
  -6  -8   6  249.39   14.93  49-0.32477-0.34123 0.61965-0.93624 0.55793-0.19574
  -5  -9   6 1348.01   15.44  49-0.32752-0.19009 0.62410-0.97840 0.55213-0.13974
  -5  -2   1 1235.23   20.91  49-0.33104-0.37500 0.62979-0.70839 0.54459-0.68738
  -5   7  -1  139.11    9.66  48-0.32387-0.45656 0.61819-0.34591 0.55982-0.92492
  -4  12  -2  420.27   10.58  48-0.32301-0.34582 0.61681-0.14982 0.56160-0.98806
  -4  13  -2   89.84    7.32  48-0.32014-0.34912 0.61216-0.10616 0.56754-0.99386
  -3  -9   8  651.46   11.39  49-0.32533 0.17966 0.62056-0.97628 0.55675 0.17722
  -2  -8   8  100.42    9.56  49-0.32517 0.32819 0.62030-0.93668 0.55709 0.22753
  -2  -6   2  585.70   10.89  49-0.32784 0.10515 0.62463-0.85971 0.55143-0.43000
  -2   6  -2 1270.76   11.06  49-0.32492-0.04769 0.61989-0.38532 0.55762-0.88093
  -1  -7   7  108.00    7.91  49-0.32532 0.44018 0.62054-0.89718 0.55677 0.16751
   0  -5   7  512.79    7.82  48-0.32030 0.58348 0.61242-0.81129 0.56720 0.20726
   0  -4   8   61.97    9.07  48-0.32169 0.62224 0.61466-0.77396 0.56435 0.32042
   0  23  -2   50.95   10.93  48-0.32237 0.24833 0.61576 0.28029 0.56294-0.78845
   1   0   8   -6.37   11.31  49-0.32344 0.77363 0.61750-0.62132 0.56071 0.37809
   2   2   3   69.97    6.48  49-0.32557 0.73675 0.62095-0.54378 0.55624-0.12297
   2   3   2  101.86    7.66  49-0.32693 0.70086 0.62315-0.50603 0.55338-0.23058
   2   4   7   18.79   11.41  49-0.32346 0.88504 0.61754-0.46411 0.56066 0.31506
   3  10   3   32.63    9.94  49-0.32656 0.88692 0.62255-0.23404 0.55416-0.07041
   3  10   4   14.03   10.38  50-0.32936 0.92664 0.62707-0.23911 0.54821 0.04513
   3  11   5    4.23   12.62  49-0.32683 0.96174 0.62298-0.19599 0.55359 0.15000
  -6  -7   5  780.30   16.60  51-0.33569-0.36796 0.63747-0.91445 0.53424-0.28254
  -6   5   0   13.40   10.88  49-0.33009-0.56268 0.62845-0.43490 0.54640-0.85118
  -5  -9   7   -1.78   12.08  50-0.33324-0.14857 0.63353-0.98857 0.53959-0.01428
  -4  -9   5 1158.97   12.77  49-0.32890-0.07813 0.62654-0.97965 0.54894-0.19651
  -4   3  -1   45.14    7.96  50-0.33304-0.29930 0.63322-0.51666 0.54002-0.85405
  -4  10  -2   93.54    8.91  49-0.33070-0.33818 0.62944-0.23972 0.54508-0.96983
  -4  11  -2   59.80    6.70  49-0.32665-0.34250 0.62291-0.19484 0.55372-0.98000
  -3  -9   5    6.41    7.03  49-0.32881 0.07046 0.62640-0.97998 0.54912-0.14594
  -3   7  -2  832.82    9.85  49-0.32835-0.19259 0.62565-0.35319 0.55011-0.92484
  -2  -8   4  758.27    9.34  49-0.32849 0.18123 0.62588-0.93933 0.54981-0.20683
  -2   1  -1 2950.71   20.22  49-0.33019-0.00601 0.62863-0.58948 0.54616-0.75877
  -1  -7   4  485.33    6.88  49-0.32616 0.32791 0.62212-0.89694 0.55475-0.16148
  -1  -6   8  135.43    9.91  50-0.32994 0.48158 0.62822-0.86626 0.54671 0.28812
  -1   6  -2   23.41    5.86  49-0.32957 0.10503 0.62762-0.39282 0.54750-0.82128
   0  -5   4  243.90    6.66  50-0.33168 0.48204 0.63102-0.82778 0.54297-0.09972
   0  -5   6  232.18    7.68  50-0.33013 0.55579 0.62852-0.82654 0.54631 0.11776
   0   3  -1 1632.24   17.48  50-0.33023 0.29209 0.62869-0.50996 0.54608-0.65854
   0   8  -2 1962.16   13.70  49-0.32901 0.25390 0.62672-0.31368 0.54870-0.77215
   0  24  -2   -1.08   10.48  50-0.32909 0.25462 0.62685 0.31149 0.54853-0.77557
   1  -2   3  186.72    5.35  49-0.32714 0.58959 0.62370-0.70254 0.55268-0.16898
   1  -2   6    9.10    7.22  49-0.32828 0.70283 0.62554-0.70533 0.55026 0.16448
   1  -1   2  207.77    6.85  50-0.32990 0.55487 0.62816-0.66742 0.54679-0.27369
   1  -1   7   84.06    9.33  49-0.32953 0.74158 0.62756-0.66926 0.54759 0.27736
   1  14  -2  175.69    7.17  50-0.33062 0.40502 0.62931-0.08310 0.54526-0.71764
   1  15  -2   22.00    6.48  49-0.32923 0.40370 0.62708-0.04264 0.54822-0.72148
   1  16  -2   57.15    7.27  49-0.32868 0.40324 0.62619-0.00278 0.54940-0.72297
   1  17  -2 1082.20   11.23  49-0.32911 0.40355 0.62688 0.03559 0.54848-0.72229
   1  18  -2    2.65    7.59  49-0.33006 0.40412 0.62842 0.07413 0.54644-0.71988
   1  19  -2  381.20    8.79  50-0.33226 0.40716 0.63197 0.10823 0.54170-0.71454
   2   2   4  392.71    8.32  50-0.33227 0.78077 0.63197-0.55565 0.54169 0.00222
   2   2   5    3.35    6.80  50-0.32924 0.81304 0.62710-0.55026 0.54820 0.10434
   2   3   6  305.32   10.02  50-0.32977 0.85352 0.62794-0.51348 0.54708 0.21783
   2  15  -1  741.76   11.80  50-0.33187 0.59297 0.63133-0.04657 0.54256-0.55352
   2  16  -1    8.96    6.93  50-0.33081 0.59146 0.62962-0.00513 0.54484-0.55657
   2  17  -1  250.31    9.06  50-0.33118 0.59219 0.63021 0.03221 0.54405-0.55544
   2  18  -1   35.77    9.04  50-0.33367 0.59484 0.63423 0.06722 0.53864-0.55086
   3  12   5   41.09   13.32  50-0.33410 0.96973 0.63493-0.16964 0.53770 0.16743
  -5  -6   3  201.41   13.18  52-0.34356-0.28658 0.65008-0.88666 0.51685-0.43559
  -5   1   0  309.93   11.05  51-0.33879-0.40417 0.64241-0.60420 0.52760-0.78092
  -5   6  -1   19.72    8.95  50-0.33514-0.44629 0.63653-0.40305 0.53568-0.90157
  -4  -9   6   19.33    8.03  51-0.33933-0.03089 0.64328-0.99769 0.52640-0.06337
  -4  -9   8    0.99    8.52  50-0.33391 0.03889 0.63456-0.98944 0.53835 0.14879
  -4  -8   4  418.86   10.76  51-0.33908-0.10503 0.64288-0.95738 0.52695-0.28473
  -4  -7   3  189.13    8.80  51-0.33684-0.14522 0.63927-0.91461 0.53194-0.40042
  -4  -1   0   74.23    8.60  51-0.34105-0.25362 0.64604-0.68545 0.52255-0.72521
  -4   9  -2  117.86    8.87  50-0.33724-0.33192 0.63993-0.28927 0.53103-0.95600
  -3  -9   6  183.82    8.57  50-0.33589 0.11437 0.63775-0.99089 0.53403-0.02074
  -3  -9   7  240.94    7.61  50-0.33311 0.14916 0.63327-0.98812 0.54010 0.08348
  -3  -6   2   94.67    8.00  51-0.33833-0.03288 0.64168-0.87723 0.52862-0.45747
  -3  -2   0    0.37    7.92  51-0.34058-0.10491 0.64528-0.72319 0.52361-0.67433
  -2  -8   7   60.59    8.11  50-0.33593 0.30121 0.63781-0.95238 0.53393 0.14083
  -2  -7   3 1570.00   13.32  51-0.33617 0.15081 0.63820-0.91266 0.53341-0.30101
  -1  -7   5    7.10    4.53  50-0.33407 0.37329 0.63482-0.91039 0.53800-0.03353
  -1  -7   6  263.47    6.05  50-0.33279 0.40913 0.63275-0.90872 0.54080 0.07300
  -1  -6   3  867.20    9.95  51-0.33697 0.30081 0.63948-0.87527 0.53164-0.24854
  -1  -5   2  303.37    7.70  51-0.33650 0.26261 0.63873-0.83518 0.53267-0.36038
   0  -5   5  424.32    7.69  50-0.33555 0.52296 0.63720-0.83376 0.53477 0.01919
   0  -4   7   65.04    8.46  51-0.33668 0.60012 0.63903-0.79808 0.53227 0.24251
   0  -3   8   36.69    9.03  50-0.33582 0.63600 0.63763-0.75794 0.53419 0.35111
   0  -2   1 3950.38   28.42  51-0.33648 0.37492 0.63870-0.71761 0.53272-0.42024
   1  -2   4   31.86    5.77  51-0.33719 0.63745 0.63983-0.71922 0.53116-0.03706
   1  -2   5  206.51    7.41  51-0.33632 0.67307 0.63845-0.71832 0.53307 0.07112
   1   1   8   58.81   10.55  50-0.33586 0.78523 0.63771-0.60198 0.53408 0.40127
   1   6  -1  362.54    9.08  50-0.33450 0.44663 0.63551-0.39990 0.53706-0.59845
   1  13  -2  117.56    6.55  50-0.33468 0.40946 0.63579-0.12833 0.53669-0.70939
   1  20  -2   16.31    8.78  50-0.33626 0.41116 0.63834 0.14258 0.53321-0.70755
   2   5   7   36.84   10.26  50-0.33392 0.89530 0.63458-0.44281 0.53833 0.33718
   2  14  -1   52.51    6.96  50-0.33610 0.59744 0.63809-0.09243 0.53356-0.54527
   2  19  -1  599.80   11.34  50-0.33668 0.59800 0.63902 0.10117 0.53228-0.54483
   3  11   3    8.36   10.81  51-0.34205 0.90337 0.64764-0.21957 0.52029-0.03723
   3  11   4   90.08   11.72  51-0.34104 0.93871 0.64603-0.21913 0.52256 0.07134
   3  13   5   48.97   14.06  51-0.34127 0.97652 0.64639-0.14215 0.52206 0.18197
  -6   4   0  461.37   13.51  52-0.34531-0.54572 0.65276-0.49878 0.51291-0.81746
  -5  -8   5  514.44   11.58  52-0.34316-0.21227 0.64932-0.96503 0.51781-0.21538
  -4  -9   7    3.76    7.41  51-0.33982 0.00733 0.64396-0.99896 0.52535 0.04901
  -4   8  -2  287.98    8.67  52-0.34482-0.32415 0.65198-0.34111 0.51403-0.93874
  -3  -8   4 1160.51   11.72  52-0.34331 0.04705 0.64957-0.96412 0.51746-0.22490
  -3  -8   8   12.02   10.07  52-0.34356 0.19776 0.64995-0.96712 0.51692 0.21937
  -3   1  -1  388.41    9.52  52-0.34596-0.13779 0.65380-0.61537 0.51142-0.77413
  -3   6  -2  477.44    7.38  51-0.33951-0.18168 0.64345-0.41022 0.52605-0.90053
  -2  -8   5  282.80    6.25  51-0.33998 0.23003 0.64422-0.95874 0.52499-0.07155
  -2  -8   6  671.56    9.08  51-0.34164 0.26908 0.64688-0.96081 0.52126 0.04250
  -2  -7   8    6.65    9.21  52-0.34265 0.34560 0.64851-0.92480 0.51897 0.26685
  -2  -6   9   -2.82   11.37  52-0.34250 0.38294 0.64826-0.88532 0.51932 0.37942
  -2   5  -2   53.67    4.65  51-0.33998-0.03264 0.64422-0.44939 0.52499-0.84860
  -2  13  -3  276.05    8.07  52-0.34425-0.06501 0.65106-0.14485 0.51534-0.94991
  -2  14  -3   22.31    7.82  51-0.34238-0.06676 0.64806-0.10187 0.51960-0.95562
  -2  15  -3  223.21    6.98  51-0.34061-0.06858 0.64523-0.06171 0.52358-0.95941
  -2  16  -3   39.87    6.12  51-0.33982-0.06975 0.64396-0.02115 0.52535-0.96149
  -2  17  -3  413.11    7.89  51-0.33998-0.06929 0.64422 0.01701 0.52499-0.96161
  -2  18  -3   16.18    7.04  51-0.34061-0.06918 0.64523 0.05701 0.52358-0.96035
  -2  19  -3   18.84   10.07  51-0.34232-0.06747 0.64797 0.09362 0.51973-0.95744
  -2  20  -3  180.97   11.18  51-0.34337-0.06563 0.64965 0.12848 0.51735-0.95341
  -1  -6   7  639.16   10.02  52-0.34327 0.45739 0.64949-0.88676 0.51758 0.20704
  -1  -4   9   38.89   10.55  51-0.34194 0.53120 0.64737-0.80646 0.52058 0.42490
  -1  14  -3 1138.06   10.52  51-0.34291 0.08207 0.64892-0.10356 0.51839-0.90371
  -1  15  -3   27.76    7.04  51-0.34122 0.08005 0.64620-0.06125 0.52221-0.90805
  -1  16  -3  198.77    6.42  51-0.34029 0.07973 0.64472-0.02196 0.52428-0.90991
  -1  17  -3  343.35    7.36  51-0.34014 0.07937 0.64447 0.01732 0.52464-0.91033
  -1  18  -3  508.09    9.53  51-0.34097 0.08048 0.64580 0.05485 0.52277-0.90877
  -1  19  -3   -1.13    8.85  52-0.34265 0.08119 0.64851 0.09236 0.51897-0.90604
  -1  20  -3   78.33    8.95  52-0.34381 0.08356 0.65037 0.12805 0.51633-0.90148
   0   7  -2   34.76    5.87  51-0.34296 0.26816 0.64900-0.37505 0.51827-0.74128
   1  -1   6  135.27    8.27  52-0.34369 0.71846 0.65016-0.69184 0.51662 0.19747
   1   0   7   25.88    9.09  52-0.34291 0.75551 0.64892-0.65138 0.51838 0.30780
   1  12  -2   26.18    4.39  51-0.34014 0.41439 0.64447-0.17558 0.52464-0.69781
   1  21  -2  984.24   11.83  51-0.33983 0.41451 0.64397 0.17400 0.52534-0.69994
   1  22  -2   13.43   10.23  52-0.34374 0.41862 0.65026 0.20776 0.51649-0.69011
   2   3   5  131.09    8.18  52-0.34329 0.82949 0.64953-0.53392 0.51752 0.13651
   2   4   6  380.50   10.35  52-0.34269 0.86636 0.64857-0.49441 0.51887 0.24573
   2   5   1  786.32   17.81  52-0.34766 0.68424 0.65652-0.46067 0.50750-0.29554
   2   6   7    0.92   11.54  52-0.34328 0.90543 0.64951-0.41894 0.51754 0.36058
   2  13  -1  229.89    8.23  51-0.34161 0.60269 0.64684-0.13933 0.52132-0.53298
   2  20  -1   61.04    9.57  51-0.34121 0.60249 0.64619 0.13311 0.52223-0.53589
   2  21  -1    5.91   10.37  51-0.34437 0.60512 0.65126 0.16653 0.51506-0.52729
   3  13   2  649.17   24.19  56-0.37141 0.89418 0.69430-0.18784 0.44926-0.07621
  -6   0   1   -1.23   12.63  54-0.35529-0.50229 0.66869-0.67193 0.48957-0.68082
  -5  -7   4  314.68   12.15  53-0.35339-0.23977 0.66567-0.94120 0.49410-0.30296
  -5   5  -1  109.61    9.32  52-0.34740-0.43273 0.65608-0.46252 0.50818-0.87327
  -3  -7   3  571.15   10.08  53-0.35090 0.01659 0.66169-0.93683 0.49999-0.31852
  -3  15  -3    0.44    8.60  53-0.34995-0.20886 0.66017-0.07780 0.50223-0.98744
  -3  16  -3  534.33   11.32  52-0.34925-0.20819 0.65904-0.03607 0.50388-0.98980
  -3  17  -3   -2.15   10.67  53-0.34934-0.21037 0.65918 0.00233 0.50367-0.99089
  -3  18  -3    7.61   11.20  52-0.34907-0.20851 0.65877 0.04272 0.50428-0.98993
  -2  12  -3   -2.40    7.32  53-0.34872-0.06295 0.65820-0.19128 0.50510-0.94167
  -2  21  -3  109.24    8.97  52-0.34640-0.06276 0.65448 0.16329 0.51048-0.94795
  -1  -5   8   83.15    7.16  52-0.34531 0.49731 0.65274-0.85188 0.51298 0.32217
  -1   5  -2 2811.10   15.74  52-0.34640 0.12210 0.65448-0.45882 0.51048-0.78386
  -1  12  -3   15.45    6.60  52-0.34924 0.08839 0.65904-0.19047 0.50388-0.88844
  -1  13  -3    4.51    4.83  52-0.34547 0.08473 0.65299-0.14533 0.51263-0.89747
  -1  21  -3  191.31   10.20  52-0.34704 0.08667 0.65550 0.16170 0.50901-0.89571
  -1  22  -3  357.63   12.08  52-0.34961 0.08951 0.65963 0.19680 0.50301-0.88864
   0  -4   3  251.69    5.77  52-0.34640 0.45949 0.65448-0.81173 0.51048-0.17690
   0  -4   6  631.33    8.89  52-0.34887 0.57381 0.65843-0.81667 0.50476 0.15947
   0  -2   8  423.92   11.08  53-0.34905 0.64935 0.65873-0.74057 0.50432 0.38109
   1   2   8   69.24    8.62  52-0.34640 0.79683 0.65448-0.58040 0.51048 0.42581
   1  11  -2 1853.24   13.62  52-0.34754 0.42201 0.65631-0.22631 0.50784-0.68076
   1  23  -2    7.22   11.12  53-0.34958 0.42523 0.65958 0.23819 0.50309-0.67782
   2   3   3  297.43    8.08  53-0.34968 0.76092 0.65974-0.54367 0.50286-0.06934
   2   3   4   25.49    6.66  53-0.35118 0.79967 0.66213-0.54650 0.49935 0.04419
   2  12  -1  464.57    9.90  53-0.34977 0.61102 0.65988-0.19137 0.50265-0.51334
   2  22  -1   10.08   10.49  53-0.35011 0.61134 0.66042 0.19724 0.50186-0.51400
   3  12   4   18.29   11.29  53-0.35137 0.94939 0.66244-0.19677 0.49888 0.09515
  -6  -7   6   39.75   12.41  54-0.35902-0.30852 0.67481-0.95176 0.48026-0.11859
  -5  -8   6  120.67   10.46  54-0.35632-0.16160 0.67051-0.98692 0.48682-0.07397
  -5  -8   7  105.21   10.53  54-0.35764-0.12337 0.67260-0.98926 0.48363 0.03975
  -5  12  -2   13.16   12.34  54-0.35493-0.46481 0.66828-0.20163 0.49017-0.96813
  -4  -8   8   42.00   10.20  53-0.35373 0.05879 0.66639-0.98224 0.49302 0.19139
  -4   2  -1   45.76    7.10  53-0.35488-0.27722 0.66821-0.59109 0.49028-0.80432
  -4   7  -2    0.79    7.80  54-0.35470-0.31817 0.66792-0.39763 0.49073-0.91599
  -3  -8   5  307.71    8.04  54-0.35711 0.09840 0.67177-0.98669 0.48490-0.08194
  -3  -8   7  563.70    9.79  53-0.35442 0.16984 0.66748-0.98225 0.49138 0.13234
  -3   5  -2 2074.53   13.12  53-0.35249-0.16815 0.66440-0.46956 0.49598-0.87027
  -3  13  -3   35.99    9.08  53-0.35493-0.20306 0.66830-0.16170 0.49016-0.97654
  -3  14  -3    6.35    6.92  53-0.35249-0.20635 0.66440-0.11862 0.49598-0.98304
  -2  -7   7   25.48    8.11  53-0.35473 0.32004 0.66797-0.94359 0.49065 0.18466
  -2  -5   9    1.66   10.22  54-0.35583 0.39698 0.66973-0.86925 0.48800 0.41346
  -2   4  -2 7288.74   24.86  54-0.35681-0.01562 0.67129-0.51497 0.48564-0.80891
  -2  11  -3  373.08    6.74  53-0.35280-0.05608 0.66489-0.23615 0.49526-0.93027
  -1  -6   4  587.69    8.35  53-0.35474 0.35570 0.66799-0.90336 0.49061-0.09713
  -1  -6   6  463.61    6.90  53-0.35280 0.42850 0.66489-0.90190 0.49525 0.11874
  -1  -3   9  170.98   11.80  53-0.35467 0.54317 0.66788-0.78894 0.49079 0.45517
  -1   1  -1 3597.87   24.89  53-0.35311 0.16551 0.66538-0.62603 0.49452-0.65710
  -1  11  -3  167.09    7.02  53-0.35471 0.09450 0.66794-0.23889 0.49069-0.87553
   0  -4   4  426.09    7.49  54-0.35685 0.50727 0.67135-0.82879 0.48553-0.04167
   0  -4   5   56.43    6.27  54-0.35573 0.54389 0.66957-0.82758 0.48823 0.06569
   0  -3   2   25.47    5.23  53-0.35373 0.42864 0.66638-0.78388 0.49303-0.27133
   0  -3   7   49.15    6.12  53-0.35203 0.61459 0.66367-0.78440 0.49706 0.27703
   0  14  -3   16.80    6.44  54-0.35641 0.24464 0.67065-0.12474 0.48660-0.82039
   0  15  -3  705.73    9.54  53-0.35474 0.24353 0.66798-0.08346 0.49062-0.82545
   0  16  -3  346.98    8.28  53-0.35329 0.24231 0.66567-0.04241 0.49409-0.82887
   0  17  -3   -1.76    5.68  53-0.35280 0.24016 0.66489-0.00208 0.49525-0.83119
   0  18  -3  175.19    8.38  53-0.35310 0.24217 0.66537 0.03599 0.49453-0.82961
   0  19  -3  445.97   10.12  53-0.35441 0.24350 0.66746 0.07232 0.49141-0.82712
   0  20  -3    0.73    9.17  54-0.35568 0.24352 0.66949 0.11000 0.48836-0.82396
   1  -1   3  279.31    7.16  54-0.35509 0.61741 0.66855-0.70813 0.48977-0.10600
   1  -1   5  140.24    7.05  53-0.35483 0.69133 0.66813-0.70864 0.49041 0.11385
   1   1   7   70.86    9.39  54-0.35562 0.76800 0.66938-0.63401 0.48852 0.33622
   1   3   8  159.15   10.90  54-0.35700 0.80711 0.67159-0.55885 0.48517 0.45073
   1  10  -2  159.67    6.92  54-0.35640 0.43081 0.67064-0.27952 0.48662-0.65879
   1  24  -2   12.35   11.91  53-0.35473 0.43037 0.66798 0.26852 0.49063-0.66561
   2   4   5   28.42    7.04  54-0.35790 0.84465 0.67303-0.51844 0.48298 0.17190
   2   5   6   59.30    9.21  54-0.35481 0.87845 0.66811-0.47490 0.49044 0.27445
   2   7   7  285.31   11.79  53-0.35343 0.91445 0.66590-0.39596 0.49374 0.38100
   2  23  -1  402.80   12.84  54-0.35629 0.61821 0.67045 0.22511 0.48690-0.49942
   3  12   3  525.37   15.87  55-0.36060 0.92095 0.67731-0.21102 0.47639 0.00745
   3  13   4  153.31   13.97  55-0.36127 0.95937 0.67838-0.17391 0.47474 0.11984
   3  17   1   65.58   15.55  55-0.36369 0.84834 0.68222-0.01962 0.46873-0.20889
   3  18   1  271.37   18.22  55-0.36404 0.84894 0.68278 0.01879 0.46785-0.20812
  -6   3   0   39.01   12.21  55-0.36432-0.52723 0.68337-0.56821 0.46687-0.77191
  -5   4  -1  440.68   11.03  54-0.36160-0.41836 0.67906-0.52417 0.47364-0.83808
  -5  11  -2  253.30   11.17  54-0.35866-0.45824 0.67440-0.24680 0.48086-0.95798
  -4  -8   5   72.67    8.05  54-0.36039-0.04727 0.67715-0.99178 0.47661-0.12416
  -4  -8   7    7.53    9.67  55-0.36164 0.02945 0.67912-0.99526 0.47354 0.10111
  -3  -8   6  382.38    8.71  54-0.35918 0.13788 0.67522-0.98992 0.47959 0.03362
  -3  -7   8  100.98   10.46  55-0.36137 0.21545 0.67870-0.95647 0.47421 0.26038
  -3  11  -3    8.25    7.62  55-0.36282-0.19575 0.68100-0.25225 0.47060-0.95666
  -3  12  -3  631.08    8.74  54-0.35836-0.19912 0.67391-0.20679 0.48160-0.96764
  -2  -7   4   33.82    5.59  54-0.35962 0.21218 0.67592-0.95030 0.47851-0.13551
  -2  -7   6  313.68    8.18  55-0.36216 0.28979 0.67995-0.95628 0.47225 0.09125
  -2  -6   8   54.41    7.08  54-0.35836 0.36084 0.67391-0.91265 0.48160 0.30348
  -2  10  -3  518.83    7.38  54-0.35866-0.05052 0.67439-0.28484 0.48087-0.91603
  -1  -6   5 1129.01    9.35  54-0.35716 0.39595 0.67200-0.90840 0.48452 0.01914
  -1  -5   7    9.84    7.52  54-0.36043 0.47460 0.67721-0.87455 0.47652 0.24885
  -1  -4   8  102.85    8.80  54-0.36028 0.51131 0.67697-0.83645 0.47689 0.35818
  -1  10  -3  426.59    7.98  54-0.36062 0.09972 0.67750-0.28718 0.47606-0.86051
   0  -1   8   12.89   10.01  55-0.36142 0.66290 0.67878-0.72106 0.47408 0.41280
   0   6  -2 1137.00   11.52  54-0.36011 0.28502 0.67670-0.44143 0.47731-0.70070
   0  13  -3 1683.47   11.98  54-0.36058 0.24887 0.67744-0.17041 0.47616-0.81099
   0  21  -3    3.96    7.12  54-0.35836 0.24727 0.67391 0.14575 0.48160-0.81744
   0  22  -3  120.29   11.16  54-0.36103 0.25048 0.67816 0.17835 0.47505-0.81053
   1  -1   4  274.53    6.94  54-0.35971 0.65903 0.67607-0.71592 0.47829 0.01566
   1   0   6   -3.97    7.03  55-0.35993 0.73306 0.67641-0.67814 0.47776 0.23768
   2   4   2 6970.68   32.55  55-0.36111 0.73519 0.67829-0.52216 0.47484-0.15184
   2   8   7    9.41   12.56  55-0.36139 0.92388 0.67873-0.36930 0.47415 0.40194
   2  11  -1  281.29    8.50  55-0.36217 0.62333 0.67997-0.25031 0.47223-0.48291
   3  16   1    2.61   14.86  56-0.37141 0.85678 0.69460-0.07097 0.44877-0.18824
   3  19   1   15.09   15.07  55-0.36622 0.85084 0.68639 0.05340 0.46207-0.20253
  -5   0   0   -0.59    9.09  56-0.37063-0.37196 0.69379-0.69503 0.45044-0.70291
  -5  10  -2   49.26    8.49  55-0.36383-0.45343 0.68304-0.29437 0.46774-0.94439
  -4  -8   6  262.36    8.82  55-0.36522-0.00456 0.68524-0.99999 0.46424-0.00119
  -4   6  -2  224.38    8.21  55-0.36474-0.30415 0.68447-0.45125 0.46547-0.89071
  -4  15  -3   96.23   10.93  56-0.36768-0.33794 0.68912-0.10528 0.45803-0.99404
  -3   4  -2  261.72    7.75  56-0.36728-0.15373 0.68850-0.53253 0.45903-0.83276
  -3  10  -3   39.92    7.55  56-0.36761-0.18988 0.68902-0.29982 0.45819-0.94249
  -2  -7   5   69.34    6.29  55-0.36531 0.25537 0.68537-0.96016 0.46403-0.01070
  -2  -4   1  236.80   11.58  57-0.37363 0.11284 0.69851-0.85568 0.44262-0.43221
  -2   9  -3  637.55    9.08  55-0.36570-0.04365 0.68600-0.33534 0.46303-0.89827
  -1  -2   9  159.63   11.54  55-0.36646 0.55589 0.68720-0.76980 0.46112 0.48467
  -1   4  -2 1647.19   13.35  55-0.36637 0.14197 0.68705-0.53032 0.46136-0.73501
  -1   9  -3   98.89    6.41  56-0.36804 0.10708 0.68969-0.33837 0.45711-0.84102
   0  -3   6   12.47    6.57  55-0.36595 0.59138 0.68640-0.80504 0.46240 0.20190
   0  -2   7  103.95    8.27  56-0.36668 0.62981 0.68754-0.76851 0.46057 0.31424
   0  12  -3    4.82    6.17  55-0.36501 0.25291 0.68490-0.21594 0.46479-0.79959
   0  23  -3  411.52   11.82  55-0.36458 0.25383 0.68422 0.21093 0.46586-0.80228
   1   0   2   -0.34    4.89  56-0.36713 0.59156 0.68826-0.68947 0.45942-0.18644
   1   1   1 3519.91   28.32  55-0.36602 0.55383 0.68650-0.64675 0.46223-0.30019
   1   2   7  537.95   11.04  56-0.36754 0.78030 0.68891-0.61478 0.45836 0.36686
   1   4   8   -1.41   11.42  56-0.36677 0.81691 0.68768-0.53512 0.46035 0.47837
   1   9  -2  241.86    7.16  56-0.36856 0.44309 0.69052-0.33815 0.45577-0.62795
   2   4   4   69.23    6.67  56-0.36895 0.81761 0.69113-0.53665 0.45478 0.08911
   2   6   6  233.38    9.95  55-0.36588 0.88960 0.68628-0.45469 0.46258 0.30225
   3  13   3   31.87   12.38  57-0.37570 0.93590 0.70176-0.19681 0.43717 0.04610
   3  14   4   18.34   13.22  56-0.36983 0.96793 0.69252-0.14845 0.45251 0.14112
   3  20   1  119.77   17.06  56-0.37230 0.85733 0.69642 0.08279 0.44611-0.18659
  -6  -6   5    3.77   12.13  57-0.37731-0.32714 0.70435-0.94241 0.43250-0.18160
  -5   9  -2  110.83   10.44  56-0.37024-0.44680 0.69324-0.34356 0.45106-0.92770
  -4  -7   8   13.25   10.80  56-0.37151 0.07789 0.69523-0.97233 0.44778 0.23725
  -4  13  -3    1.22   10.97  57-0.37282-0.33612 0.69730-0.19269 0.44437-0.98053
  -4  14  -3   -4.60   10.26  57-0.37139-0.34007 0.69504-0.15034 0.44811-0.98806
  -3  -7   7   64.23    8.47  57-0.37274 0.19015 0.69718-0.97425 0.44457 0.17976
  -2  -6   7   19.78    7.76  57-0.37214 0.33831 0.69622-0.93302 0.44615 0.22900
  -2  -5   8   65.26    9.20  57-0.37351 0.37705 0.69838-0.89799 0.44257 0.34254
  -2  -4   9   -2.65    8.03  56-0.36965 0.41128 0.69231-0.85182 0.45258 0.44668
  -2   0  -1    3.72    5.66  56-0.37265 0.03728 0.69704-0.69730 0.44480-0.65699
  -2   8  -3  311.51    7.96  57-0.37321-0.03673 0.69792-0.38572 0.44334-0.87748
  -1  -5   3  244.50    6.90  56-0.37184 0.33562 0.69575-0.89206 0.44693-0.16390
  -1  -5   6   16.25    6.67  56-0.37139 0.44823 0.69505-0.89282 0.44808 0.16663
  -1  -3   8  232.89    9.71  57-0.37331 0.52603 0.69807-0.81968 0.44309 0.39201
   0   0   8   36.65    9.76  57-0.37320 0.67544 0.69789-0.70139 0.44338 0.44285
   0  11  -3  340.11    7.51  56-0.37072 0.25869 0.69399-0.26447 0.44983-0.78388
   1   0   5  217.97    7.41  56-0.37192 0.70902 0.69588-0.69739 0.44671 0.15745
   1   1   6  130.20    8.25  57-0.37302 0.74843 0.69761-0.66135 0.44385 0.27048
   1   5  -1 1431.60   17.04  56-0.37232 0.48440 0.69650-0.49968 0.44568-0.50699
   2   4   3  432.64    9.00  57-0.37283 0.78432 0.69731-0.54191 0.44435-0.01099
   2   5   5  742.79   10.85  57-0.37197 0.85822 0.69595-0.50285 0.44660 0.20768
   3  15   4  170.26   16.00  58-0.37728 0.97533 0.70430-0.12182 0.43258 0.16132
   3  21   1   18.60   17.24  57-0.37880 0.86347 0.70668 0.11138 0.42851-0.16911
  -5  -7   5    2.45    8.79  57-0.37731-0.17838 0.70449-0.98124 0.43234-0.13034
  -5  -7   7    5.64    9.70  57-0.37872-0.10259 0.70670-0.98576 0.42856 0.09648
  -5   3  -1  231.12   10.04  58-0.37872-0.40141 0.70670-0.59124 0.42856-0.79251
  -5   8  -2   24.74   10.65  57-0.37780-0.43964 0.70526-0.39472 0.43103-0.90702
  -4  -7   4   53.66    7.28  58-0.37814-0.06571 0.70580-0.98147 0.43011-0.18797
  -4   1  -1  103.47    8.57  58-0.37921-0.25313 0.70746-0.66925 0.42725-0.74055
  -4   5  -2   39.54    7.55  57-0.37724-0.29201 0.70439-0.51101 0.43252-0.85767
  -4  12  -3    7.27   10.28  57-0.37742-0.33081 0.70466-0.23721 0.43205-0.97057
  -3  -7   4  892.58   10.62  57-0.37749 0.08131 0.70477-0.97965 0.43186-0.13939
  -3  -6   8   -1.76    9.89  58-0.37787 0.23291 0.70537-0.94249 0.43084 0.30690
  -3  -5   9   37.23   10.73  57-0.37628 0.26887 0.70287-0.90241 0.43510 0.41061
  -3   0  -1 2432.22   19.13  58-0.37958-0.10419 0.70804-0.70836 0.42624-0.68886
  -3   9  -3  116.29    6.51  57-0.37490-0.18349 0.70072-0.35070 0.43874-0.92446
  -2  -6   3    2.49    3.91  57-0.37490 0.19017 0.70072-0.93650 0.43874-0.20657
  -2   3  -2  107.25    6.68  57-0.37672 0.00377 0.70358-0.58649 0.43391-0.75751
  -1  -5   5  401.78    7.82  58-0.37851 0.41792 0.70637-0.90424 0.42914 0.07461
  -1  -4   7 1207.54    9.63  57-0.37561 0.49023 0.70183-0.86148 0.43686 0.28797
  -1  -1   9   83.51   11.31  58-0.37789 0.56841 0.70540-0.74841 0.43079 0.51554
  -1   8  -3   53.20    6.11  57-0.37755 0.11653 0.70486-0.39290 0.43171-0.81596
   0  -3   3   86.21    5.69  57-0.37683 0.49021 0.70374-0.82142 0.43363-0.10010
   0  -3   5 1755.48   11.13  57-0.37519 0.56379 0.70116-0.82020 0.43799 0.11624
   0  10  -3  206.76    6.92  57-0.37799 0.26573 0.70555-0.31498 0.43053-0.76441
   1   0   4    1.77    5.35  58-0.37940 0.68037 0.70777-0.70948 0.42672 0.06850
   1   3   7   35.73    9.63  58-0.37914 0.79224 0.70735-0.59355 0.42744 0.39801
   1   5   8   40.56   10.80  57-0.37613 0.82705 0.70264-0.51106 0.43549 0.50010
   1  17  -3  186.55    8.52  58-0.37872 0.41546 0.70669-0.04391 0.42857-0.71233
   1  18  -3  139.84    8.74  58-0.37830 0.41505 0.70604-0.00423 0.42969-0.71386
   1  19  -3   73.33    8.76  58-0.37866 0.41563 0.70660 0.03370 0.42873-0.71305
   1  20  -3   67.31    8.79  58-0.37977 0.41646 0.70834 0.07078 0.42573-0.71061
   2   7   0    0.59    9.85  60-0.39183 0.69007 0.72713-0.45374 0.39198-0.29162
   2   7   6    6.16    8.65  58-0.37713 0.89988 0.70422-0.43334 0.43281 0.33053
   2  10  -1  140.36    8.20  58-0.37897 0.63998 0.70709-0.31603 0.42789-0.43828
   3  16   4    0.12   15.87  58-0.38264 0.98116 0.71283-0.09004 0.41788 0.17524
  -6  -4   3   21.67   16.38  61-0.39781-0.38089 0.73648-0.89598 0.37424-0.34390
  -6   2   0   95.27   12.46  59-0.38632-0.50483 0.71868-0.64347 0.40754-0.71140
  -6   6  -1   34.50   12.33  59-0.38406-0.54492 0.71516-0.48292 0.41383-0.82883
  -5  -7   6    5.54    9.44  59-0.38325-0.13433 0.71389-0.99045 0.41609-0.00339
  -4  -7   7 1073.21   12.01  58-0.38227 0.05086 0.71237-0.98842 0.41878 0.15534
  -4  11  -3   94.42    9.58  58-0.38129-0.32514 0.71084-0.28406 0.42146-0.95776
  -3  -7   5    9.99    6.61  59-0.38341 0.12542 0.71414-0.98976 0.41565-0.01243
  -3  -7   6 1166.46   10.03  58-0.38060 0.16002 0.70975-0.98615 0.42335 0.09019
  -3   3  -2  420.05    8.65  59-0.38476-0.13659 0.71625-0.59973 0.41190-0.78535
  -3   8  -3  935.95   10.61  58-0.38267-0.17551 0.71298-0.40197 0.41769-0.90306
  -2  -6   6  189.40    7.13  58-0.38248 0.31049 0.71269-0.94904 0.41821 0.14589
  -2  -5   2    0.48    6.23  59-0.38570 0.16324 0.71771-0.91414 0.40928-0.28818
  -2  -3   9  341.15   10.81  58-0.38261 0.42412 0.71289-0.83395 0.41785 0.47784
  -2   7  -3  753.26    9.41  58-0.38345-0.02657 0.71421-0.44152 0.41552-0.85027
  -2  17  -4   62.39    9.41  59-0.38482-0.06183 0.71634-0.05445 0.41174-0.95778
  -2  18  -4   -1.86    9.86  59-0.38419-0.06294 0.71536-0.01559 0.41348-0.95955
  -2  19  -4    5.85   10.36  59-0.38466-0.06188 0.71609 0.02460 0.41218-0.95925
  -1  -5   4 1948.17   12.21  58-0.38018 0.38189 0.70910-0.90637 0.42449-0.03109
  -1  -4   2  480.33    9.14  59-0.38483 0.31149 0.71636-0.87389 0.41170-0.23909
  -1  18  -4    2.17    8.70  59-0.38447 0.08598 0.71579-0.01592 0.41271-0.90717
  -1  19  -4   45.76    9.29  59-0.38495 0.08649 0.71655 0.02350 0.41136-0.90700
   0  -3   4   82.16    4.54  58-0.38018 0.53091 0.70910-0.82764 0.42449 0.01924
   0  -2   6    5.41    4.86  58-0.38143 0.60810 0.71105-0.79153 0.42108 0.24450
   0  -1   7   20.62    5.74  58-0.38004 0.64437 0.70888-0.75094 0.42487 0.35072
   0   1   8   15.85    9.96  59-0.38433 0.68686 0.71558-0.68000 0.41310 0.47401
   0   2  -1 3935.04   28.44  58-0.38297 0.34464 0.71345-0.63401 0.41686-0.52981
   0   5  -2  184.69    5.75  58-0.37990 0.30478 0.70866-0.51210 0.42525-0.64835
   1   0   3 1782.59   13.45  58-0.38198 0.64425 0.71192-0.71195 0.41956-0.03609
   1   8  -2  887.50   10.82  58-0.38336 0.45731 0.71407-0.40053 0.41577-0.58831
   1  15  -3  230.71    8.05  58-0.38308 0.41995 0.71363-0.12894 0.41655-0.70075
   1  16  -3   27.64    5.26  58-0.38046 0.41706 0.70953-0.08622 0.42373-0.70803
   1  21  -3   19.10    9.23  58-0.38185 0.41910 0.71170 0.10795 0.41994-0.70534
   1  22  -3   96.43   10.86  58-0.38370 0.42074 0.71460 0.14212 0.41483-0.69978
   2   5   4    8.37    6.21  59-0.38570 0.83480 0.71771-0.52412 0.40928 0.13458
   2   6   5   -0.94    8.03  59-0.38419 0.87204 0.71536-0.48363 0.41348 0.24328
   2   8   6   69.18    9.28  59-0.38582 0.91067 0.71790-0.40826 0.40895 0.35581
   2  16  -2  455.20    9.12  59-0.38517 0.60815 0.71689-0.09288 0.41076-0.53336
   2  17  -2  407.79    9.59  58-0.38341 0.60674 0.71415-0.05127 0.41563-0.53870
   2  18  -2   61.07    8.45  58-0.38266 0.60619 0.71298-0.01146 0.41770-0.54100
   2  19  -2   20.87    8.56  58-0.38304 0.60691 0.71357 0.02791 0.41665-0.54011
   2  20  -2  200.51    9.82  58-0.38372 0.60687 0.71463 0.06482 0.41478-0.53835
   2  21  -2    6.80   10.76  59-0.38499 0.60791 0.71661 0.10152 0.41126-0.53385
   3  14   2   13.77   15.25  62-0.40246 0.92477 0.74363-0.19846 0.36013 0.01209
   3  14   3    7.69   12.65  60-0.38907 0.94944 0.72295-0.17782 0.39977 0.08263
  -6  -6   6  151.82   12.02  59-0.38838-0.27829 0.72204-0.95956 0.40192-0.03910
  -6  -5   4   29.33   12.46  60-0.39263-0.34915 0.72864-0.92692 0.38971-0.24872
  -5   7  -2  154.73    9.99  59-0.38708-0.43039 0.72002-0.44895 0.40559-0.88127
  -4  -7   5  176.37    8.34  60-0.38887-0.01811 0.72281-0.99866 0.40051-0.04792
  -4  -7   6    8.86    8.02  59-0.38854 0.01935 0.72230-0.99829 0.40145 0.06213
  -4  -6   3  254.47    9.91  60-0.39329-0.08894 0.72967-0.96558 0.38776-0.25643
  -4  -6   8  104.72   10.74  59-0.38851 0.09398 0.72225-0.96023 0.40153 0.28285
  -4  -5   2    3.36    9.82  62-0.40001-0.11909 0.74005-0.93648 0.36777-0.34717
  -4   4  -2   68.89    7.41  60-0.39089-0.27778 0.72594-0.57058 0.39473-0.81907
  -4  10  -3  139.49    9.49  59-0.38680-0.31966 0.71958-0.33130 0.40639-0.94226
  -3  -6   7  413.51    9.15  60-0.39081 0.20705 0.72582-0.96405 0.39496 0.22889
  -3  -4   9   69.08   11.76  60-0.38952 0.28197 0.72381-0.88491 0.39867 0.44714
  -2  -6   4  178.05    6.71  59-0.38843 0.24088 0.72213-0.95773 0.40176-0.05844
  -2  -6   5  321.26    7.78  59-0.38861 0.27863 0.72240-0.95849 0.40125 0.05237
  -2  -5   7 1650.82   12.14  60-0.38869 0.35400 0.72253-0.92097 0.40102 0.27345
  -2  -4   8  402.05   10.00  59-0.38829 0.39135 0.72191-0.88148 0.40215 0.38293
  -2  14  -4  226.36    8.80  60-0.39033-0.05580 0.72507-0.17945 0.39635-0.94175
  -2  15  -4   89.64    9.48  59-0.38822-0.05866 0.72180-0.13809 0.40235-0.94902
  -2  16  -4  567.62    8.93  59-0.38652-0.06059 0.71914-0.09691 0.40717-0.95434
  -1  -4   6  341.49    7.93  60-0.38900 0.46584 0.72301-0.88213 0.40013 0.21411
  -1  -3   1   33.53    5.65  59-0.38713 0.27585 0.72010-0.83807 0.40545-0.34390
  -1  -3   7    9.02    6.96  60-0.39056 0.50577 0.72544-0.84572 0.39567 0.33061
  -1  -2   8   59.00    6.87  59-0.38638 0.53962 0.71893-0.80074 0.40755 0.42831
  -1   0   9   61.87   11.33  60-0.38876 0.57891 0.72263-0.72667 0.40084 0.54571
  -1   3  -2 2118.88   15.30  59-0.38908 0.16444 0.72313-0.60542 0.39992-0.67328
  -1   7  -3   28.76    5.91  59-0.38839 0.12686 0.72205-0.44872 0.40189-0.78648
  -1  15  -4  472.87    9.76  59-0.38901 0.09089 0.72302-0.13866 0.40012-0.89571
  -1  16  -4   57.10    7.83  59-0.38736 0.08875 0.72046-0.09761 0.40479-0.90143
  -1  17  -4  539.39    8.63  59-0.38597 0.08730 0.71829-0.05669 0.40870-0.90523
  -1  20  -4   17.35    7.73  59-0.38611 0.08847 0.71851 0.06195 0.40832-0.90500
  -1  21  -4  266.83   11.59  59-0.38764 0.08951 0.72089 0.09570 0.40401-0.90220
   0   9  -3  939.21    8.86  59-0.38679 0.27388 0.71957-0.36780 0.40641-0.74051
   1   1   5  128.48    7.10  59-0.38852 0.72559 0.72226-0.68467 0.40151 0.20259
   1   2   6    4.46    5.48  59-0.38665 0.76220 0.71936-0.64375 0.40679 0.30891
   1   4   7   19.10    9.52  60-0.38971 0.80343 0.72411-0.57110 0.39812 0.42853
   1  14  -3  835.30    8.90  59-0.38652 0.42289 0.71914-0.17307 0.40717-0.69154
   1  23  -3   20.20   10.77  59-0.38730 0.42537 0.72036 0.17786 0.40497-0.69064
   2  15  -2    3.39    6.99  59-0.38892 0.61233 0.72289-0.13717 0.40036-0.52292
   2  22  -2  139.04   11.19  59-0.38881 0.61269 0.72271 0.13409 0.40069-0.52470
  -6   5  -1   53.21   12.85  61-0.39741-0.53160 0.73602-0.54370 0.37575-0.78999
  -5  -6   4   74.78   10.04  61-0.39705-0.19544 0.73546-0.97247 0.37684-0.18449
  -4  -2   0  309.43   12.46  61-0.39888-0.19597 0.73829-0.81717 0.37134-0.57331
  -4   9  -3  131.85   10.00  60-0.39374-0.31189 0.73035-0.38039 0.38660-0.92338
  -3  -6   3 1031.66   12.38  61-0.39508 0.06086 0.73242-0.96873 0.38267-0.20058
  -3  -5   8  671.57   10.73  60-0.39344 0.24708 0.72988-0.92855 0.38750 0.34701
  -3   7  -3  276.47    6.66  60-0.39180-0.16593 0.72735-0.45464 0.39224-0.87747
  -3  15  -4  207.77   10.66  61-0.39512-0.19991 0.73248-0.14852 0.38255-0.97814
  -3  16  -4   13.45   11.75  60-0.39411-0.20200 0.73092-0.10706 0.38552-0.98374
  -2  -2   9   -8.67   10.78  61-0.39425 0.43554 0.73114-0.81251 0.38510 0.51424
  -2   6  -3  618.33    9.08  60-0.39449-0.01528 0.73151-0.49708 0.38441-0.81882
  -2  13  -4    0.45    8.63  61-0.39419-0.05476 0.73104-0.22516 0.38529-0.93242
  -1  13  -4  214.31    7.84  61-0.39504 0.09703 0.73235-0.22545 0.38280-0.87756
  -1  14  -4   15.25    5.56  60-0.39207 0.09347 0.72776-0.18116 0.39147-0.88800
   0  -2   2  598.90    9.63  61-0.39498 0.47077 0.73227-0.81129 0.38296-0.15991
   0  -2   5   55.67    6.30  61-0.39414 0.58224 0.73097-0.81096 0.38544 0.16878
   0   0   7    2.54    7.71  61-0.39379 0.65655 0.73043-0.73235 0.38645 0.39072
   0   2   8  395.49   11.04  61-0.39501 0.69725 0.73231-0.65859 0.38288 0.50282
   0  18  -4  169.67    8.93  61-0.39516 0.24618 0.73255-0.03110 0.38243-0.82710
   0  19  -4   -0.34    8.85  61-0.39498 0.24509 0.73226 0.00714 0.38297-0.82838
   0  20  -4  141.33    9.70  61-0.39565 0.24592 0.73330 0.04527 0.38099-0.82712
   1  13  -3  460.00    7.25  60-0.39127 0.42862 0.72652-0.21886 0.39378-0.67735
   2   5   2   48.52    6.31  61-0.39455 0.76803 0.73160-0.53711 0.38424-0.06187
   2   5   3  121.32    7.02  61-0.39512 0.80641 0.73249-0.53847 0.38255 0.05058
   2   9   6    2.84   10.38  61-0.39497 0.91982 0.73226-0.38358 0.38299 0.38241
   2  14  -2  148.61    7.28  60-0.39425 0.61803 0.73113-0.18471 0.38512-0.50727
   2  23  -2   20.03   10.49  60-0.39262 0.61723 0.72861 0.16793 0.38988-0.51398
   3  15   3    0.89   13.20  62-0.40148 0.96173 0.74230-0.15820 0.36343 0.11885
  -6  -1   1  387.23   17.97  62-0.40472-0.44926 0.74739-0.78862 0.35356-0.54591
  -5  -6   7   22.11   10.65  62-0.39998-0.08073 0.74009-0.97847 0.36818 0.15632
  -5   2  -1  222.59    9.81  61-0.39937-0.38077 0.73916-0.66277 0.37003-0.73379
  -5   6  -2   28.33    9.37  61-0.39777-0.42107 0.73669-0.50436 0.37484-0.85052
  -4  -6   7    6.20    9.03  62-0.40056 0.06872 0.74099-0.97874 0.36641 0.20855
  -4   8  -3  373.70    9.82  62-0.40053-0.30544 0.74094-0.43002 0.36651-0.90130
  -3  -6   6   61.10    6.90  62-0.40116 0.18042 0.74191-0.97907 0.36459 0.14989
  -3  13  -4  201.26    9.86  62-0.40094-0.19373 0.74158-0.23558 0.36525-0.96060
  -3  14  -4   37.43    9.77  61-0.39849-0.19733 0.73780-0.19215 0.37269-0.97043
  -2  -5   6   -1.98    6.22  62-0.40031 0.32821 0.74060-0.93941 0.36719 0.20145
  -2  -3   8  161.39    8.83  62-0.40128 0.40442 0.74210-0.86384 0.36421 0.42106
  -2   2  -2   54.70    6.24  61-0.39950 0.02687 0.73935-0.66129 0.36965-0.69302
  -2  12  -4  696.86    9.66  61-0.39815-0.04839 0.73728-0.27032 0.37370-0.91966
  -1  -4   5  119.81    6.27  62-0.39956 0.43836 0.73944-0.89757 0.36947 0.13461
  -1  -1   8  190.55    9.36  61-0.39902 0.55093 0.73862-0.78086 0.37108 0.46432
  -1   1   9   95.42   11.70  61-0.39907 0.58905 0.73869-0.70323 0.37094 0.57529
  -1   6  -3   71.58    6.16  62-0.40024 0.13838 0.74050-0.50615 0.36739-0.75126
  -1  12  -4  172.43    8.00  61-0.39970 0.10139 0.73966-0.27201 0.36904-0.86433
   0  -1   6  251.15    6.11  61-0.39695 0.62281 0.73542-0.77713 0.37731 0.28729
   0   8  -3   78.05    4.68  61-0.39747 0.28537 0.73622-0.42304 0.37575-0.70976
   0  15  -4  285.30    8.61  62-0.40007 0.25072 0.74023-0.15538 0.36791-0.81273
   0  16  -4  405.52    8.95  61-0.39833 0.24905 0.73754-0.11428 0.37318-0.81935
   0  17  -4  241.21    7.18  61-0.39669 0.24739 0.73502-0.07289 0.37808-0.82429
   0  21  -4   -1.35    8.00  61-0.39721 0.24792 0.73582 0.08323 0.37653-0.82396
   0  22  -4   51.50   11.85  61-0.39864 0.24893 0.73802 0.12046 0.37225-0.81985
   1   1   4  283.01    7.27  62-0.39982 0.69970 0.73985-0.70219 0.36866 0.12532
   1   3   6  243.14    8.37  62-0.39961 0.77458 0.73953-0.62500 0.36929 0.34536
   1   5   7  134.22   10.17  62-0.39997 0.81296 0.74008-0.54876 0.36822 0.45669
   1   7  -2 1001.78   11.50  62-0.40120 0.47535 0.74198-0.46747 0.36445-0.53682
   1  12  -3  958.61    9.16  61-0.39721 0.43426 0.73582-0.26727 0.37653-0.66006
   2   6   4  419.37    9.71  62-0.40236 0.85065 0.74376-0.51086 0.36090 0.18234
   2   7   5   35.19    7.73  61-0.39764 0.88382 0.73649-0.46510 0.37523 0.27882
   2   9  -1 4132.88   27.74  62-0.40267 0.66391 0.74423-0.39171 0.35995-0.37098
   2  13  -2 1203.84   12.45  62-0.40076 0.62417 0.74129-0.23385 0.36582-0.48763
  -5  -6   5  305.98   10.80  63-0.40807-0.14755 0.75269-0.98936 0.34277-0.04018
  -5  -6   6  168.71    9.51  63-0.40674-0.11152 0.75066-0.98831 0.34700 0.06634
  -5  -5   8    2.30   10.88  63-0.40530-0.03919 0.74846-0.94833 0.35153 0.28719
  -4  -5   8   72.40   10.40  62-0.40413 0.10943 0.74666-0.94524 0.35521 0.32978
  -4   3  -2    2.37    8.23  63-0.40664-0.26283 0.75051-0.63406 0.34731-0.77099
  -3  -4   1  540.49   21.27  66-0.42027 0.01067 0.77121-0.92834 0.30213-0.34175
  -3  -3   9   81.30    8.71  62-0.40190 0.29358 0.74324-0.86556 0.36210 0.48380
  -3   2  -2   20.45    6.40  62-0.40474-0.11602 0.74760-0.66985 0.35330-0.72647
  -3   6  -3  863.43    9.16  62-0.40202-0.15597 0.74343-0.51002 0.36171-0.84655
  -3  12  -4   27.28    9.83  62-0.40487-0.19055 0.74780-0.28000 0.35288-0.94856
  -2  -4   7  201.26    8.20  62-0.40430 0.36926 0.74693-0.90612 0.35467 0.32007
  -2  -1   9   -1.56   10.67  63-0.40493 0.44625 0.74789-0.79071 0.35270 0.54744
  -2  11  -4   97.86    7.59  62-0.40296-0.04373 0.74487-0.31634 0.35883-0.90478
  -1  -4   3 3286.80   17.74  63-0.40430 0.36802 0.74694-0.90424 0.35465-0.07149
  -1  -4   4   46.42    5.70  63-0.40546 0.40720 0.74871-0.90630 0.35102 0.04292
  -1  -3   6  467.71    8.26  63-0.40549 0.48232 0.74875-0.86898 0.35094 0.26345
  -1  -2   7    8.47    7.24  63-0.40458 0.51950 0.74735-0.82847 0.35380 0.37249
  -1  11  -4  410.37    8.32  62-0.40479 0.10664 0.74768-0.31868 0.35313-0.84813
   0  -2   3  219.14    6.74  63-0.40534 0.51866 0.74852-0.82760 0.35142-0.01786
   0  -2   4 2411.68   13.49  62-0.40253 0.55337 0.74421-0.82381 0.36015 0.08399
   0   1   7   16.51    7.95  63-0.40530 0.66926 0.74846-0.71233 0.35153 0.42451
   0   3   8   39.15   10.08  63-0.40483 0.70684 0.74774-0.63475 0.35301 0.53351
   0   4  -2  376.76    8.28  62-0.40364 0.32810 0.74592-0.58865 0.35671-0.58029
   0  14  -4  108.07    7.62  62-0.40365 0.25475 0.74593-0.20048 0.35670-0.80220
   1   1   2  204.75    6.91  62-0.40435 0.62937 0.74701-0.70787 0.35449-0.08175
   1   2   5  201.83    7.46  62-0.40404 0.74098 0.74653-0.66985 0.35548 0.24869
   1  11  -3  443.98    8.21  62-0.40445 0.44132 0.74716-0.31749 0.35419-0.63773
   2  10   6   34.29   10.62  62-0.40371 0.92775 0.74602-0.35816 0.35651 0.40849
   3  16   3  408.18   17.47  64-0.41139 0.97196 0.75777-0.13564 0.33203 0.15159
   3  18   0   37.17   12.23  63-0.40841 0.85587 0.75322-0.05201 0.34167-0.19280
   3  19   0   35.45   13.40  63-0.40650 0.85405 0.75030-0.01025 0.34776-0.19894
   3  20   0    1.01   13.89  63-0.40724 0.85514 0.75144 0.02812 0.34539-0.19655
   3  21   0  445.03   17.25  63-0.40930 0.85712 0.75458 0.06351 0.33882-0.19009
  -6  -5   5   65.07   12.27  64-0.41107-0.29286 0.75733-0.95676 0.33299-0.08042
  -6   1   0   25.24   13.28  64-0.41422-0.47710 0.76213-0.72582 0.32260-0.62663
  -6   4  -1   49.95   13.45  64-0.41251-0.51676 0.75952-0.60514 0.32828-0.74371
  -5  -5   3   15.11   10.32  64-0.41364-0.21765 0.76124-0.95890 0.32454-0.24369
  -5  -1   0  312.61   13.36  64-0.41257-0.33047 0.75962-0.80018 0.32806-0.58079
  -5   5  -2   49.83   10.16  63-0.40911-0.40801 0.75434-0.56078 0.33934-0.81453
  -4  -6   4  971.84   12.51  64-0.41283-0.03172 0.76002-0.99611 0.32720-0.08467
  -4  -6   6  682.24   10.25  64-0.40955 0.03968 0.75502-0.99249 0.33792 0.12575
  -4   0  -1    0.88    6.88  64-0.40919-0.22576 0.75447-0.75693 0.33908-0.65089
  -4   7  -3  495.67   10.82  63-0.40933-0.29662 0.75469-0.48278 0.33862-0.87408
  -3  -6   4  140.35    6.69  63-0.40823 0.11163 0.75300-0.98866 0.34218-0.04962
  -3  -6   5   19.26    6.47  63-0.40777 0.14944 0.75230-0.98838 0.34364 0.05980
  -3  -5   2 4488.62   29.68  64-0.41139 0.03966 0.75782-0.95437 0.33195-0.26054
  -3  -5   7   94.03    6.25  63-0.40747 0.22345 0.75184-0.95077 0.34460 0.27954
  -3  -4   8   43.55    6.98  63-0.40710 0.26102 0.75127-0.91146 0.34578 0.38980
  -3  11  -4  107.39    9.63  63-0.40965-0.18498 0.75517-0.32711 0.33759-0.93321
  -2  -5   3   54.47    5.64  64-0.41138 0.22620 0.75781-0.95454 0.33197-0.09901
  -2  -5   5  259.55    7.32  64-0.40983 0.29987 0.75544-0.95315 0.33703 0.11669
  -2   5  -3  125.65    5.45  63-0.40710-0.00290 0.75127-0.55617 0.34578-0.78030
  -2  10  -4   97.97    7.95  63-0.40856-0.03784 0.75350-0.36379 0.34112-0.88675
  -1   0  -1 1279.25   16.48  63-0.40858 0.22089 0.75354-0.75361 0.34104-0.50345
  -1   0   8    2.17    8.89  64-0.40962 0.56192 0.75512-0.75833 0.33770 0.50172
  -1   2   9  142.77   10.92  63-0.40821 0.59753 0.75297-0.67971 0.34224 0.60361
  -1  10  -4  114.53    6.78  64-0.41063 0.11243 0.75667-0.36670 0.33440-0.82881
   0   0   6  646.97    8.89  64-0.41112 0.63685 0.75742-0.76008 0.33281 0.33173
   0   7  -3   62.03    6.04  63-0.40936 0.29710 0.75473-0.48074 0.33854-0.67264
   0  13  -4  349.43    6.63  63-0.40734 0.25838 0.75165-0.24485 0.34499-0.79005
   1   1   3  264.78    6.21  63-0.40672 0.66912 0.75070-0.71235 0.34696 0.03652
   1   4   6   75.47    7.48  64-0.41119 0.78620 0.75752-0.60423 0.33260 0.38232
   1   6   7   15.76    9.99  64-0.40948 0.82202 0.75491-0.52346 0.33815 0.48758
   2   8   5    0.25    8.11  63-0.40845 0.89528 0.75334-0.44316 0.34145 0.31323
   2  11   6   76.77   11.21  64-0.41074 0.93513 0.75683-0.33143 0.33406 0.43064
   2  12  -2  896.25   11.30  64-0.40976 0.63347 0.75535-0.28653 0.33723-0.45916
   3  15   2  164.78   17.18  67-0.42544 0.94830 0.77903-0.19468 0.28369 0.08880
   3  17   0  464.21   16.33  64-0.41321 0.86079 0.76059-0.09779 0.32596-0.17674
   3  17   3    0.13   15.92  66-0.41976 0.97994 0.77050-0.10914 0.30379 0.17787
   3  22   0   -0.26   15.11  65-0.41418 0.86292 0.76206 0.09553 0.32274-0.17458
  -6  -5   6  183.74   12.39  64-0.41332-0.25371 0.76077-0.95961 0.32559 0.03728
  -5  -4   2  619.32   21.37  68-0.42741-0.24060 0.78196-0.94065 0.27652-0.30554
  -4  -6   5    4.50    7.26  64-0.41431 0.00681 0.76228-0.99960 0.32229 0.03119
  -3  -2   9  205.53   11.66  64-0.41383 0.30466 0.76155-0.84344 0.32389 0.52146
  -3   5  -3  115.32    7.66  64-0.41351-0.14437 0.76107-0.56688 0.32493-0.80988
  -3  10  -4   12.95    9.28  65-0.41493-0.18061 0.76321-0.37360 0.32023-0.91580
  -2  -5   4  127.40    6.33  65-0.41445 0.26698 0.76249-0.95981 0.32183 0.02146
  -2  -2   8  252.13    9.41  64-0.41393 0.41634 0.76171-0.84328 0.32354 0.46167
  -2   0   9    4.45   10.00  65-0.41544 0.45677 0.76400-0.76773 0.31850 0.57876
  -2   9  -4   10.65    7.39  64-0.41461-0.03231 0.76274-0.41170 0.32128-0.86600
  -1   2  -2    5.20    5.53  64-0.41436 0.19072 0.76236-0.68415 0.32211-0.59414
  -1   5  -3   28.93    5.83  64-0.41408 0.15337 0.76193-0.56670 0.32306-0.70680
   0  -1   1 2489.16   24.12  64-0.41209 0.45077 0.75892-0.79836 0.32962-0.21689
   0  -1   5  390.03    6.59  64-0.41137 0.59957 0.75781-0.79845 0.33199 0.22223
   0   4   8   58.68   10.40  65-0.41421 0.71555 0.76213-0.60924 0.32263 0.56342
   0  12  -4  245.57    6.38  64-0.41209 0.26275 0.75892-0.29101 0.32962-0.77468
   1  10  -3 1386.39   11.66  64-0.41324 0.45006 0.76066-0.36970 0.32583-0.60975
   1  18  -4   64.93    8.44  65-0.41595 0.41595 0.76476-0.06327 0.31681-0.71174
   1  19  -4  586.67   10.62  65-0.41502 0.41527 0.76335-0.02298 0.31992-0.71427
   1  20  -4   74.50    9.41  65-0.41503 0.41506 0.76337 0.01587 0.31988-0.71478
   1  21  -4   27.46    9.84  65-0.41533 0.41529 0.76383 0.05441 0.31887-0.71340
   2   6   1 1710.61   25.17  66-0.41923 0.75579 0.76971-0.53455 0.30561-0.09410
   2   6   3  582.98   10.20  65-0.41557 0.82702 0.76418-0.53073 0.31808 0.11506
   2   7   4    1.39    7.52  65-0.41721 0.86493 0.76666-0.49462 0.31254 0.23043
  -5  -5   7   75.22   10.60  65-0.41825-0.06284 0.76855-0.96697 0.30860 0.21532
  -5  -4   8   11.29   10.95  66-0.41978-0.02439 0.77086-0.93267 0.30331 0.33390
  -5   1  -1    6.37    9.93  66-0.42142-0.35899 0.77332-0.73602 0.29760-0.66035
  -4  -5   7  112.37    8.37  65-0.41739 0.08495 0.76726-0.96563 0.31154 0.26248
  -4  -4   8   95.83    9.48  65-0.41806 0.12286 0.76826-0.92800 0.30926 0.37503
  -4   6  -3  143.35    9.44  65-0.41865-0.28727 0.76916-0.53687 0.30721-0.84225
  -4  12  -4    6.38   12.12  65-0.41893-0.32480 0.76958-0.30271 0.30626-0.95228
  -3  -5   6  129.51    7.74  66-0.41934 0.19906 0.77019-0.96824 0.30486 0.20956
  -3  -3   8    0.79    8.53  66-0.41930 0.27325 0.77013-0.89082 0.30499 0.43550
  -3  -1  -1  393.80    9.69  65-0.41912-0.06512 0.76987-0.80978 0.30559-0.56786
  -2  -4   6   62.61    6.93  65-0.41822 0.34568 0.76850-0.92619 0.30871 0.25589
  -2  -3   7  730.72    9.80  65-0.41846 0.38335 0.76886-0.88840 0.30789 0.36690
  -2  -1  -1 2889.02   23.28  66-0.42158 0.08566 0.77357-0.81317 0.29702-0.50906
  -2   4  -3  447.15    8.02  66-0.42050 0.01058 0.77194-0.61638 0.30083-0.73473
  -1  -3   5   18.85    5.99  65-0.41827 0.45701 0.76858-0.88713 0.30853 0.19560
  -1  -1   7    5.03    7.00  66-0.41813 0.53184 0.76837-0.80869 0.30901 0.41477
  -1   1   8  181.21    8.88  66-0.41999 0.57268 0.77118-0.73611 0.30259 0.53298
  -1   3   9  141.76    8.96  65-0.41638 0.60636 0.76573-0.65359 0.31497 0.63164
  -1   9  -4   32.65    6.64  65-0.41796 0.12019 0.76811-0.41767 0.30960-0.80464
   0   2   7   98.19    6.53  65-0.41626 0.67990 0.76555-0.69041 0.31537 0.46002
   0  11  -4   10.12    6.28  65-0.41777 0.26836 0.76783-0.33782 0.31025-0.75595
   1   2   4   32.65    5.90  65-0.41840 0.71793 0.76878-0.69085 0.30808 0.18565
   1   3   5  289.20    7.99  65-0.41807 0.75512 0.76829-0.65205 0.30920 0.29500
   1   4  -1 2479.13   23.74  66-0.41948 0.53148 0.77040-0.61270 0.30437-0.36586
   1   7   7   11.11    9.05  65-0.41790 0.83039 0.76802-0.49713 0.30980 0.51542
   1  16  -4    5.41    8.10  65-0.41905 0.41887 0.76977-0.14520 0.30583-0.70024
   1  17  -4   71.75    8.05  65-0.41737 0.41779 0.76723-0.10462 0.31161-0.70659
   1  22  -4    1.94   10.47  65-0.41697 0.41776 0.76662 0.09203 0.31298-0.70890
   2   9   5  616.35   11.23  66-0.41878 0.90537 0.76936-0.41977 0.30676 0.34736
   2  11  -2  130.59    7.11  66-0.42051 0.64393 0.77195-0.34201 0.30080-0.42297
   2  12   6  191.29   11.43  65-0.41786 0.94178 0.76797-0.30186 0.30992 0.45419
   2  17  -3  545.64    9.95  66-0.42069 0.60663 0.77223-0.10965 0.30014-0.53408
   2  18  -3   77.88    8.74  65-0.41889 0.60567 0.76953-0.06783 0.30638-0.53977
   2  19  -3   29.02    8.85  65-0.41827 0.60532 0.76858-0.02717 0.30854-0.54267
   2  20  -3  139.33    9.83  65-0.41809 0.60524 0.76831 0.01069 0.30916-0.54335
   2  21  -3  664.79   12.65  65-0.41860 0.60560 0.76908 0.04880 0.30739-0.54186
   2  22  -3   18.38   11.10  66-0.41946 0.60628 0.77038 0.08789 0.30442-0.53820
   3  16   0   23.62   12.86  66-0.42251 0.87016 0.77495-0.15045 0.29377-0.14463
   3  18   3    6.88   16.91  68-0.42658 0.98651 0.78104-0.08004 0.27912 0.20253
  -5   4  -2    3.60    9.88  66-0.42209-0.39685 0.77446-0.62046 0.29491-0.76975
  -5   8  -3  233.98   11.89  67-0.42465-0.43038 0.77830-0.46820 0.28577-0.87103
  -4   2  -2  982.58   11.97  67-0.42392-0.24498 0.77720-0.70052 0.28841-0.71179
  -4  11  -4   34.62   11.64  66-0.42350-0.32068 0.77657-0.34886 0.28991-0.93626
  -3  -4   7  224.88    8.76  66-0.42261 0.23869 0.77523-0.93410 0.29309 0.33151
  -3  -1   9  264.36   11.48  67-0.42349 0.31591 0.77657-0.82078 0.28992 0.55621
  -3   9  -4   52.37    6.78  66-0.42124-0.17387 0.77318-0.42385 0.29792-0.89382
  -2  -1   8  145.61    8.44  67-0.42474 0.42794 0.77843-0.82129 0.28546 0.50015
  -2   1  -2  279.04    7.87  66-0.42349 0.05064 0.77655-0.73777 0.28996-0.61308
  -2   1   9    7.98    9.87  67-0.42440 0.46561 0.77792-0.74271 0.28667 0.61111
  -2   8  -4  310.94    8.09  66-0.42226-0.02439 0.77471-0.46370 0.29431-0.83970
  -2  16  -5    9.20   11.12  66-0.42336-0.06045 0.77637-0.15267 0.29039-0.94790
  -2  17  -5   38.16   10.89  66-0.42169-0.06197 0.77386-0.11217 0.29631-0.95357
  -1  -2   6    9.88    4.56  66-0.42055 0.49736 0.77215-0.85235 0.30032 0.31523
  -1   4   9   37.61   10.95  67-0.42434 0.61478 0.77783-0.62530 0.28690 0.66047
  -1  16  -5  136.87   10.10  67-0.42369 0.08834 0.77685-0.15420 0.28923-0.89514
  -1  17  -5   90.44    9.58  66-0.42233 0.08730 0.77481-0.11327 0.29408-0.90097
  -1  18  -5   94.32    8.28  66-0.42124 0.08652 0.77318-0.07336 0.29792-0.90499
  -1  19  -5    7.94    8.19  66-0.42067 0.08608 0.77232-0.03123 0.29992-0.90743
   0  -1   4  938.98    9.76  67-0.42306 0.57357 0.77591-0.81578 0.29149 0.15263
   0   1   6  253.25    7.88  67-0.42366 0.64964 0.77682-0.74055 0.28932 0.37550
   0   5   8    3.01    9.46  67-0.42271 0.72237 0.77540-0.58257 0.29270 0.59401
   0   6  -3   56.10    6.06  66-0.42238 0.31009 0.77489-0.54044 0.29389-0.62785
   0  10  -4  117.06    6.88  67-0.42376 0.27443 0.77697-0.38662 0.28896-0.73331
   1   5   6 1127.25   11.18  66-0.42214 0.79688 0.77453-0.58084 0.29474 0.41945
   1   6  -2  644.30    9.10  66-0.42147 0.49567 0.77352-0.53803 0.29712-0.46992
   1   8   7  108.25    9.80  67-0.42506 0.83842 0.77891-0.46997 0.28429 0.54114
   1   9  -3  167.01    6.80  66-0.42296 0.45989 0.77576-0.42386 0.29183-0.57560
   1  15  -4  206.43    7.73  66-0.42213 0.42201 0.77453-0.18986 0.29475-0.68977
   2   6   2 1223.93   15.44  67-0.42502 0.79897 0.77885-0.54432 0.28444 0.03817
   2  13   6  104.23   12.31  67-0.42327 0.94804 0.77622-0.27151 0.29074 0.47350
   2  16  -3   62.80    7.82  66-0.42337 0.60970 0.77638-0.15235 0.29036-0.52396
   2  23  -3    1.50   10.98  67-0.42243 0.61061 0.77497 0.12421 0.29371-0.52942
  -6   3  -1  223.38   14.45  68-0.42856-0.49971 0.78410-0.67049 0.27177-0.68489
  -5  -5   6 1227.72   13.00  67-0.42727-0.09097 0.78219-0.98065 0.27651 0.13747
  -4  -5   6  193.86    8.40  68-0.42811 0.05844 0.78343-0.98210 0.27342 0.19073
  -4   5  -3  150.57    8.51  68-0.42885-0.27713 0.78453-0.59133 0.27067-0.80499
  -4  10  -4  492.72   11.70  68-0.42845-0.31456 0.78393-0.39585 0.27217-0.91735
  -3  -5   5  127.20    7.05  68-0.42861 0.17046 0.78418-0.98187 0.27156 0.13221
  -3   1  -2  226.54    7.95  67-0.42652-0.09422 0.78106-0.74309 0.27929-0.65291
  -3   4  -3    4.66    5.36  67-0.42568-0.13330 0.77980-0.62476 0.28235-0.76710
  -3   8  -4  323.94    9.55  67-0.42790-0.16680 0.78312-0.47262 0.27420-0.86924
  -2  -4   5  728.22    9.01  68-0.42916 0.31946 0.78500-0.94328 0.26950 0.18468
  -2  14  -5  155.16   10.39  67-0.42792-0.05545 0.78314-0.23846 0.27414-0.93016
  -2  15  -5   73.36    7.91  67-0.42545-0.05789 0.77947-0.19714 0.28316-0.93969
  -1  -3   4    7.21    5.38  68-0.42784 0.42892 0.78303-0.90127 0.27443 0.11905
  -1   0   7  373.28    8.33  68-0.42906 0.54365 0.78484-0.78757 0.26990 0.45507
  -1   4  -3 1486.32   11.87  68-0.42831 0.16689 0.78373-0.62729 0.27268-0.65638
  -1   8  -4   94.94    5.29  67-0.42556 0.12788 0.77964-0.46824 0.28275-0.77729
  -1  14  -5  240.46    8.84  68-0.42876 0.09359 0.78440-0.23944 0.27102-0.87654
  -1  15  -5  196.39    9.18  67-0.42624 0.09126 0.78064-0.19713 0.28031-0.88665
   0   0   5    3.02    6.04  67-0.42725 0.61497 0.78215-0.78319 0.27659 0.27776
   0   3  -2   25.40    5.45  68-0.42859 0.35350 0.78415-0.66652 0.27164-0.49408
   0   3   7   50.01    7.69  67-0.42676 0.68950 0.78143-0.66672 0.27838 0.49682
   0  18  -5   59.62    9.43  68-0.42867 0.24253 0.78427-0.08324 0.27134-0.82680
   0  19  -5    4.54   10.76  68-0.42817 0.24266 0.78352-0.04228 0.27320-0.82941
   0  20  -5    1.20   11.44  68-0.42788 0.24199 0.78309-0.00363 0.27428-0.83082
   1  14  -4   34.05    5.36  67-0.42568 0.42631 0.77980-0.23366 0.28235-0.67645
   2   8  -1  739.46   13.89  68-0.43158 0.69305 0.78859-0.47494 0.26038-0.27160
   2   8   4  274.94    8.56  68-0.42926 0.87833 0.78514-0.47418 0.26915 0.27408
   2  10   5   24.12    9.00  68-0.42798 0.91475 0.78324-0.39412 0.27389 0.38016
   2  15  -3   52.49    7.31  67-0.42752 0.61438 0.78255-0.19756 0.27561-0.50921
  -6  -4   4  501.61   14.37  69-0.43409-0.30746 0.79248-0.95257 0.25045-0.10834
  -6  -4   6  106.93   12.11  69-0.43368-0.23369 0.79187-0.95264 0.25207 0.11097
  -5  -5   4  251.93    9.54  69-0.43177-0.16169 0.78904-0.98724 0.25942-0.06706
  -5  -5   5   10.68    8.39  69-0.43232-0.12480 0.78986-0.98854 0.25731 0.04572
  -5  -4   7   49.77    9.32  69-0.43351-0.04820 0.79162-0.95220 0.25272 0.27142
  -5  -3   8  686.71   12.51  69-0.43346-0.01169 0.79155-0.91371 0.25291 0.38160
  -5   7  -3   48.80   11.97  69-0.43263-0.42262 0.79031-0.51900 0.25613-0.84129
  -4  -4   7   28.50    9.00  69-0.43211 0.09942 0.78955-0.94933 0.25811 0.31662
  -4  -3   8  138.79    9.59  68-0.43052 0.13581 0.78719-0.90816 0.26417 0.42089
  -3  -5   3  528.86    9.67  69-0.43290 0.09822 0.79072-0.98795 0.25508-0.07293
  -3  -2   8  105.61    9.43  68-0.43169 0.28504 0.78892-0.87036 0.25973 0.47555
  -3   0   9  145.21   10.30  69-0.43303 0.32376 0.79091-0.79659 0.25456 0.59130
  -2  -3   6  416.54    7.91  69-0.43304 0.35975 0.79092-0.91103 0.25456 0.30950
  -2  -2   7    6.95    7.02  68-0.43146 0.39638 0.78858-0.86855 0.26061 0.41365
  -2   2   9    3.28    9.93  69-0.43251 0.47309 0.79014-0.71504 0.25658 0.64506
  -2   7  -4    0.41    5.07  68-0.43033-0.01867 0.78690-0.51578 0.26490-0.81030
  -2  13  -5   68.17    9.86  68-0.43144-0.05152 0.78855-0.28417 0.26068-0.91720
  -1  -3   2 2803.24   19.37  68-0.42968 0.35579 0.78594-0.90404 0.26733-0.09460
  -1  -3   3   27.30    5.52  69-0.43307 0.39648 0.79096-0.90939 0.25443 0.02900
  -1   2   8   65.73    6.64  68-0.42946 0.58163 0.78562-0.71132 0.26814 0.56760
  -1  13  -5  100.01    8.85  68-0.43219 0.09745 0.78966-0.28321 0.25782-0.86347
   0  -1   2  148.57    6.67  69-0.43327 0.50886 0.79127-0.83074 0.25364-0.03071
   0  -1   3  793.45    9.74  68-0.43160 0.54457 0.78879-0.82804 0.26007 0.07349
   0   6   8  320.89    9.11  68-0.42968 0.73151 0.78594-0.55547 0.26733 0.61864
   0   9  -4  281.89    7.44  68-0.43133 0.28212 0.78840-0.43724 0.26108-0.70573
   0  16  -5   13.46    8.87  69-0.43216 0.24636 0.78962-0.16517 0.25793-0.81424
   0  17  -5  346.18    7.88  68-0.43033 0.24415 0.78690-0.12567 0.26490-0.82134
   1   2   1 9219.95   47.79  69-0.43193 0.61972 0.78928-0.71035 0.25881-0.09703
   1   2   3  179.03    5.64  68-0.42968 0.69203 0.78594-0.70792 0.26733 0.11591
   1   4   5 1133.87   10.89  68-0.43095 0.76784 0.78783-0.63254 0.26255 0.34122
   1   6   6  437.50    9.68  69-0.43183 0.80629 0.78913-0.55698 0.25920 0.45532
   1   9   7   20.52   10.65  69-0.43219 0.84532 0.78967-0.44062 0.25780 0.56837
   1  13  -4  294.27    6.45  68-0.43011 0.42984 0.78658-0.27975 0.26571-0.66051
   2   7   3  706.74   11.70  69-0.43403 0.84505 0.79238-0.51981 0.25071 0.18237
   2  10  -2 1030.73   12.26  69-0.43320 0.65716 0.79116-0.39999 0.25391-0.37555
   2  14  -3   26.11    6.95  68-0.43205 0.61885 0.78946-0.24310 0.25834-0.49146
   3  15   0  404.12   17.84  70-0.43772 0.88544 0.79781-0.21227 0.23609-0.08665
   3  16   2   33.54   15.86  71-0.44329 0.96603 0.80591-0.18246 0.21308 0.15905
   3  18  -1  416.27   14.02  69-0.43593 0.84667 0.79519-0.09332 0.24322-0.20508
   3  19  -1   18.47   10.98  69-0.43302 0.84388 0.79089-0.04962 0.25463-0.21617
   3  20  -1   74.80   12.07  68-0.43215 0.84292 0.78961-0.00983 0.25796-0.22033
   3  21  -1    1.56   12.72  68-0.43197 0.84292 0.78933 0.02980 0.25867-0.21999
   3  22  -1   79.54   13.89  69-0.43375 0.84497 0.79197 0.06513 0.25179-0.21361
  -6  -4   5   15.95   11.88  70-0.43736-0.26762 0.79755-0.95817 0.23689 0.01684
  -5   3  -2  206.43   10.66  69-0.43603-0.38081 0.79560-0.68068 0.24221-0.71646
  -4  -5   3  939.07   13.09  70-0.43623-0.04631 0.79590-0.99378 0.24139-0.10843
  -4  -5   5  398.32    9.05  70-0.43614 0.02876 0.79577-0.99397 0.24175 0.11226
  -4   9  -4   33.64   10.14  69-0.43455-0.30907 0.79343-0.44379 0.24802-0.89489
  -3  -5   4  228.36    6.10  69-0.43395 0.13671 0.79254-0.99008 0.25038 0.04266
  -3  -4   6  169.62    7.83  69-0.43576 0.21427 0.79521-0.95380 0.24326 0.27116
  -3  -3   7  210.52    8.53  70-0.43582 0.25169 0.79530-0.91543 0.24302 0.38186
  -3   7  -4   63.86    8.75  69-0.43535-0.15910 0.79460-0.52266 0.24490-0.84023
  -3  13  -5   64.22   11.79  69-0.43632-0.19536 0.79603-0.29031 0.24105-0.94666
  -2  -4   2 1151.62   14.05  70-0.43674 0.21349 0.79665-0.95444 0.23936-0.11675
  -2   0   8  575.95    9.66  69-0.43508 0.43691 0.79421-0.79771 0.24595 0.53931
  -2   3  -3  303.42    7.64  69-0.43510 0.02566 0.79424-0.67744 0.24586-0.68027
  -2  12  -5   56.67    8.70  69-0.43500-0.04742 0.79408-0.32676 0.24628-0.90301
  -1  -2   5 1214.48   10.35  69-0.43508 0.47324 0.79421-0.87349 0.24594 0.25806
  -1  -1   6  615.86    7.40  69-0.43405 0.50985 0.79269-0.83466 0.24997 0.36483
  -1   7  -4 1355.27   10.12  69-0.43395 0.13662 0.79254-0.51935 0.25038-0.74518
  -1  12  -5   77.06    8.37  69-0.43604 0.10147 0.79562-0.32756 0.24214-0.84815
   0   2   6   -3.51    6.83  70-0.43576 0.66064 0.79521-0.71856 0.24325 0.42337
   0   4   7   63.55    8.64  69-0.43568 0.69855 0.79508-0.64179 0.24360 0.53188
   0   5  -3 2949.17   16.07  70-0.43613 0.32358 0.79575-0.59974 0.24180-0.57585
   0   7   8   73.55   10.97  70-0.43637 0.73857 0.79610-0.52663 0.24086 0.64497
   0  14  -5   10.51    7.35  70-0.43712 0.25135 0.79720-0.25099 0.23785-0.79332
   0  15  -5  285.20    7.09  69-0.43437 0.24926 0.79316-0.20869 0.24875-0.80449
   1   2   2    8.66    5.26  70-0.43670 0.66168 0.79659-0.71849 0.23951 0.03283
   1   3   4 1347.09   10.94  69-0.43416 0.73347 0.79285-0.67704 0.24957 0.24454
   1   8  -3  615.13    8.06  69-0.43374 0.47126 0.79223-0.47870 0.25120-0.53462
   1  12  -4   51.84    6.93  69-0.43519 0.43611 0.79437-0.32551 0.24551-0.63997
   2  11   5   57.80    9.69  70-0.43592 0.92285 0.79545-0.36769 0.24261 0.41108
   2  13  -3   61.60    6.61  70-0.43763 0.62365 0.79795-0.29052 0.23579-0.46980
   3  17  -1   68.79   11.40  70-0.44019 0.85058 0.80169-0.13845 0.22534-0.18814
  -5   6  -3  128.76   11.03  71-0.44113-0.41273 0.80297-0.57137 0.22176-0.80600
  -4  -5   4    7.69    6.63  71-0.44034-0.00549 0.80183-0.99986 0.22502 0.01795
  -4  -2   8   27.24    9.23  71-0.44118 0.14562 0.80305-0.88608 0.22152 0.46590
  -4  -1  -1   93.26    8.81  71-0.44054-0.19150 0.80212-0.84286 0.22418-0.53576
  -4   4  -3   11.61    8.45  70-0.44007-0.26721 0.80144-0.64682 0.22613-0.76082
  -4   8  -4  112.27   10.93  71-0.44055-0.30264 0.80214-0.49191 0.22414-0.86926
  -3   1   9  259.28   10.71  71-0.44150 0.33323 0.80352-0.77002 0.22019 0.62618
  -3   3  -3   74.91    7.14  70-0.43880-0.11948 0.79958-0.68405 0.23133-0.71524
  -3  12  -5   57.11   11.52  70-0.44019-0.19162 0.80160-0.33484 0.22565-0.93192
  -2  -4   4 1487.74   11.27  70-0.43771 0.29038 0.79798-0.95584 0.23576 0.10828
  -2   3   9  351.20   11.64  71-0.44043 0.48132 0.80195-0.69009 0.22466 0.67208
  -2   6  -4  410.51    8.28  70-0.43898-0.00765 0.79983-0.56692 0.23063-0.77553
  -2  11  -5   63.78    8.32  70-0.43916-0.04410 0.80010-0.37247 0.22989-0.88584
  -1   1  -2  205.06    7.17  71-0.44090 0.21641 0.80264-0.76343 0.22272-0.49552
  -1   1   7    4.27    7.35  71-0.43996 0.55314 0.80127-0.76410 0.22659 0.49816
  -1   3   8  232.49    7.47  70-0.43792 0.59040 0.79828-0.68490 0.23494 0.60105
  -1  11  -5   73.42    8.07  71-0.44042 0.10513 0.80195-0.37301 0.22468-0.83032
   0   0   4 2655.50   14.75  71-0.44083 0.59176 0.80254-0.80376 0.22298 0.22147
   0   1   5  394.99    7.92  71-0.44086 0.62913 0.80258-0.76526 0.22288 0.33149
   0   8  -4 1051.82   10.11  70-0.43946 0.28972 0.80054-0.48852 0.22865-0.67400
   0  13  -5  147.47    8.04  71-0.44066 0.25397 0.80230-0.29551 0.22369-0.77932
   1   7   6   23.22    8.07  71-0.44020 0.81544 0.80162-0.53048 0.22562 0.48948
   1  10   7   48.17   10.36  70-0.43822 0.85144 0.79872-0.41178 0.23371 0.59160
   1  11  -4  205.30    7.42  71-0.44079 0.44026 0.80249-0.37301 0.22315-0.61749
   2   9   4    6.26    7.23  71-0.44076 0.89008 0.80244-0.45222 0.22327 0.32050
  -6   0   0 1172.11   21.24  72-0.44593-0.44524 0.81021-0.81330 0.20059-0.50315
  -6   2  -1   16.90   13.32  72-0.44713-0.48225 0.81193-0.73704 0.19532-0.60836
  -5  -4   6   12.25    8.60  72-0.44408-0.07512 0.80753-0.96770 0.20866 0.20586
  -5  -2   8  111.03   11.65  72-0.44459 0.00147 0.80827-0.89217 0.20645 0.42906
  -5   0  -1  253.77   11.72  72-0.44694-0.33310 0.81166-0.81388 0.19615-0.55938
  -4  -4   6  611.91    9.92  72-0.44410 0.07418 0.80756-0.96734 0.20858 0.25600
  -4  -3   7  450.37    9.52  72-0.44488 0.11252 0.80869-0.93003 0.20520 0.36993
  -4   1  -2  133.57    8.60  71-0.44271-0.22637 0.80555-0.76835 0.21450-0.63788
  -3  -1   8  248.32    7.32  71-0.44155 0.29578 0.80387-0.84741 0.21937 0.51641
  -3   6  -4  169.62    8.91  71-0.44350-0.15105 0.80670-0.57428 0.21113-0.80633
  -3  11  -5    7.43   10.89  72-0.44413-0.18822 0.80760-0.37936 0.20844-0.91491
  -2  -4   3  349.82    7.00  71-0.44194 0.25646 0.80444-0.96232 0.21773 0.01543
  -2  -1   7  237.58    6.43  71-0.44224 0.40731 0.80486-0.84714 0.21650 0.45885
  -2   1   8  138.96    8.83  72-0.44391 0.44690 0.80729-0.77225 0.20937 0.57660
  -2  10  -5   23.78    8.71  71-0.44383-0.04009 0.80718-0.41737 0.20970-0.86626
  -1   3  -3   19.02    5.76  71-0.44362 0.18266 0.80687-0.68972 0.21061-0.59416
  -1   6  -4   51.82    6.62  71-0.44311 0.14492 0.80613-0.57198 0.21279-0.70807
   0   1  -1 2592.33   24.69  71-0.44165 0.40335 0.80401-0.76427 0.21896-0.33189
   0   5   7  526.37   10.05  72-0.44386 0.70734 0.80721-0.61496 0.20959 0.56554
   0   8   8  294.09   10.92  71-0.44282 0.74402 0.80570-0.49678 0.21405 0.67138
   0  12  -5  192.39    7.70  72-0.44456 0.25855 0.80822-0.34044 0.20659-0.76151
   1   5  -2  292.84    7.71  71-0.44329 0.51768 0.80639-0.60995 0.21203-0.38519
   1   5   5  249.80    6.58  71-0.44194 0.77934 0.80444-0.61064 0.21773 0.38632
   1  11   7    2.76   11.33  71-0.44359 0.85714 0.80683-0.38014 0.21074 0.61541
   1  18  -5    7.61    9.58  72-0.44417 0.40781 0.80766-0.10482 0.20827-0.71494
   1  19  -5   88.86   10.43  71-0.44319 0.40698 0.80624-0.06637 0.21247-0.71919
   1  20  -5  138.24   10.52  71-0.44253 0.40583 0.80528-0.02699 0.21527-0.72218
   2  12  -3    0.29    6.55  71-0.44388 0.62985 0.80724-0.33830 0.20951-0.44241
   2  12   5   50.96    9.59  71-0.44343 0.92970 0.80660-0.33973 0.21142 0.44206
   2  18  -4  854.68   11.39  72-0.44546 0.59492 0.80952-0.10808 0.20269-0.54747
   2  19  -4    8.92    9.30  71-0.44414 0.59384 0.80761-0.06585 0.20841-0.55320
   2  20  -4  146.93   10.73  71-0.44368 0.59355 0.80696-0.02804 0.21034-0.55583
   2  21  -4   99.47   11.31  71-0.44366 0.59390 0.80693 0.01063 0.21043-0.55611
   2  22  -4  134.60   12.29  71-0.44391 0.59394 0.80729 0.04952 0.20936-0.55494
   3  16  -1  156.73   11.66  72-0.44668 0.85727 0.81129-0.18729 0.19730-0.15933
   3  17   2   17.60   16.54  75-0.45540 0.97844 0.82365-0.16180 0.15684 0.21529
  -5  -3   7  163.76   10.42  72-0.44694-0.03482 0.81204-0.93312 0.19511 0.32906
  -4   7  -4   -3.05   10.34  73-0.44739-0.29940 0.81268-0.54245 0.19312-0.83845
  -3  -4   5  216.01    7.30  72-0.44680 0.18752 0.81184-0.97014 0.19572 0.20792
  -3  -3   0 1271.73   27.53  74-0.45263 0.00514 0.82015-0.93814 0.16900-0.32018
  -3  -2   7  418.96    9.06  73-0.44727 0.26280 0.81251-0.89433 0.19366 0.43100
  -3   0  -2    0.39    6.22  72-0.44739-0.07352 0.81268-0.81308 0.19312-0.56535
  -3  10  -5  164.72   10.06  73-0.44833-0.18229 0.81403-0.42488 0.18890-0.89465
  -2  -3   5   38.17    4.53  72-0.44552 0.33565 0.81000-0.92957 0.20137 0.25337
  -2  -2   6 1145.40    9.40  72-0.44599 0.37345 0.81068-0.89181 0.19931 0.36567
  -2   0  -2 1863.56   15.32  73-0.44793 0.07518 0.81345-0.81336 0.19071-0.51370
  -2   4   9   -0.36   11.11  73-0.44720 0.48708 0.81242-0.65911 0.19394 0.70473
  -2   5  -4    2.26    6.87  72-0.44739 0.00064 0.81268-0.61757 0.19312-0.73736
  -1  -2   4  335.10    7.25  72-0.44694 0.44782 0.81203-0.89125 0.19513 0.19868
  -1   0   6    0.06    4.59  72-0.44590 0.52217 0.81054-0.81264 0.19972 0.41766
  -1   2   7   13.58    7.06  73-0.44840 0.56287 0.81413-0.73906 0.18857 0.53777
  -1   4   8   94.82    7.08  72-0.44533 0.59711 0.80973-0.65764 0.20220 0.63395
  -1  10  -5  625.50    8.00  72-0.44524 0.11028 0.80959-0.42012 0.20261-0.80836
   0   3   6   12.92    4.99  72-0.44561 0.67183 0.81013-0.69524 0.20096 0.46409
   0   7  -4    8.00    5.90  72-0.44734 0.29812 0.81261-0.53885 0.19334-0.63756
   0   9   8   17.43   11.35  73-0.44765 0.74991 0.81306-0.46540 0.19194 0.69548
   1   4   4  251.69    7.40  73-0.44824 0.74757 0.81391-0.65935 0.18928 0.30462
   1   7  -3  360.07    6.63  72-0.44552 0.48245 0.81000-0.53582 0.20137-0.48522
   1   8   6   44.73    8.55  73-0.44757 0.82282 0.81295-0.50366 0.19229 0.52261
   1  10  -4  239.53    7.54  72-0.44731 0.44755 0.81257-0.42202 0.19347-0.58783
   1  12   7  218.40   12.47  73-0.44825 0.86109 0.81392-0.35050 0.18926 0.63656
   1  16  -5  886.21   11.26  72-0.44730 0.41076 0.81256-0.18893 0.19351-0.69919
   1  17  -5  123.57    7.21  72-0.44533 0.40857 0.80973-0.14735 0.20220-0.70845
   2   7   2   14.86    6.98  73-0.45026 0.82409 0.81679-0.54393 0.18007 0.14270
   2   8   3  305.43    9.43  73-0.44941 0.86034 0.81558-0.50432 0.18398 0.24897
   2   9  -2    6.56    5.96  72-0.44730 0.67114 0.81256-0.46053 0.19351-0.31572
   2  13   5   73.79   11.02  73-0.44900 0.93554 0.81499-0.31102 0.18585 0.46918
   2  17  -4   81.43    8.57  72-0.44720 0.59707 0.81242-0.14956 0.19394-0.53849
   3  21  -2   35.64   12.55  73-0.44996 0.82412 0.81636 0.00145 0.18148-0.25404
  -6  -3   6   11.63   11.13  74-0.45067-0.21647 0.81745-0.93859 0.17804 0.18595
  -5  -4   5  389.14   10.14  74-0.45210-0.10321 0.81947-0.97964 0.17136 0.13305
  -5   2  -2   42.85    9.86  73-0.45092-0.36609 0.81781-0.74184 0.17686-0.65137
  -5   5  -3   39.00   11.72  73-0.45056-0.40407 0.81730-0.62474 0.17851-0.76435
  -4  -1   8  347.82   10.75  74-0.45097 0.15592 0.81787-0.86216 0.17665 0.50877
  -4   3  -3  481.45   10.63  73-0.45127-0.25449 0.81830-0.70264 0.17526-0.70957
  -3  -3   6  856.60    8.77  73-0.44926 0.22733 0.81545-0.93629 0.18450 0.32972
  -3   0   8   -1.28    8.78  74-0.45075 0.30439 0.81756-0.81995 0.17767 0.56059
  -3   2  -3 1323.61   12.20  74-0.45167-0.10613 0.81887-0.74141 0.17338-0.65689
  -3   2   9  196.94    8.67  73-0.44871 0.33936 0.81467-0.74307 0.18698 0.65897
  -3   5  -4  132.48    8.56  74-0.45141-0.14354 0.81850-0.62426 0.17460-0.76911
  -2   0   7   -5.37    6.96  74-0.45151 0.41694 0.81863-0.82191 0.17414 0.50638
  -2   2  -3   74.64    6.11  73-0.44959 0.04002 0.81593-0.73812 0.18296-0.61709
  -2   2   8  251.01    8.79  74-0.45172 0.45520 0.81894-0.74528 0.17314 0.61294
  -2   9  -5  603.75    8.31  73-0.44880-0.03389 0.81480-0.46413 0.18657-0.84256
  -1  -1   5  519.95    7.11  73-0.44917 0.48744 0.81532-0.85646 0.18491 0.31923
  -1   5   8   79.22    8.79  74-0.45204 0.60471 0.81938-0.62879 0.17165 0.66434
  -1   9  -5   95.16    7.89  73-0.45070 0.11616 0.81749-0.46667 0.17789-0.78362
  -1  16  -6   27.91   11.42  74-0.45127 0.07934 0.81830-0.19463 0.17525-0.89226
   0   4  -3  261.54    7.26  73-0.45065 0.33846 0.81742-0.66051 0.17812-0.51225
   0   6   7  126.03    9.03  74-0.45091 0.71450 0.81779-0.58702 0.17691 0.59838
   0  11  -5  283.45    6.31  73-0.44917 0.26385 0.81532-0.38634 0.18491-0.74038
   1   3   3   17.19    4.07  73-0.44898 0.71094 0.81506-0.69890 0.18574 0.19823
   1   6   5  675.06    9.77  74-0.45161 0.78941 0.81878-0.58652 0.17366 0.43057
   1  15  -5    7.08    7.63  73-0.44980 0.41259 0.81622-0.23052 0.18202-0.68828
   2  10   4   97.72    8.21  74-0.45077 0.89959 0.81759-0.42868 0.17758 0.36580
   2  11  -3 1579.34   13.16  74-0.45159 0.63796 0.81876-0.38881 0.17373-0.40664
   2  16  -4   36.97    7.25  73-0.44971 0.60016 0.81609-0.19206 0.18243-0.52620
   3  15  -1  170.05   11.82  75-0.45501 0.86545 0.82356-0.23829 0.15741-0.11910
   3  19  -2  125.66   11.44  74-0.45153 0.82515 0.81867-0.07795 0.17402-0.24644
   3  20  -2   47.75   10.56  73-0.45057 0.82481 0.81731-0.03858 0.17850-0.25123
   3  22  -2  126.06   12.91  73-0.45058 0.82505 0.81733 0.03956 0.17842-0.25148
  -6  -3   3  109.46   13.73  76-0.45729-0.32160 0.82692-0.94813 0.14554-0.11316
  -6  -2   7   47.56   11.33  74-0.45358-0.17638 0.82176-0.90462 0.16375 0.31042
  -5  -4   3 1446.00   17.93  75-0.45676-0.17425 0.82620-0.98533 0.14816-0.06609
  -5  -1   8  163.53   11.84  75-0.45440 0.01079 0.82290-0.86698 0.15981 0.47571
  -4  -4   5  219.34    7.98  75-0.45420 0.04643 0.82263-0.98156 0.16076 0.19297
  -4   6  -4   11.08   10.17  75-0.45449-0.28986 0.82303-0.59070 0.15937-0.80529
  -3  -4   4  352.31    8.05  75-0.45537 0.15861 0.82426-0.98296 0.15507 0.13814
  -3   3   9   78.27   10.24  75-0.45544 0.34808 0.82435-0.71257 0.15475 0.69220
  -3   9  -5   40.70    9.31  74-0.45341-0.17828 0.82152-0.47226 0.16458-0.87119
  -2   5   9    4.19    8.08  74-0.45306 0.49320 0.82103-0.62886 0.16624 0.73297
  -2   8  -5    8.54    8.42  74-0.45435-0.02967 0.82284-0.51124 0.16004-0.81638
  -1   5  -4  118.70    5.38  74-0.45228 0.15407 0.81992-0.62518 0.16998-0.66493
  -1  15  -6  136.77   10.37  74-0.45351 0.08215 0.82165-0.23880 0.16412-0.88168
   0   0   3    1.58    3.73  74-0.45298 0.56567 0.82091-0.82180 0.16665 0.16642
   0   2  -2  617.34   10.16  74-0.45393 0.37856 0.82224-0.74359 0.16209-0.38570
   0   2   5   53.92    4.87  74-0.45263 0.64111 0.82041-0.74409 0.16832 0.38668
   0   4   6  610.50    9.26  75-0.45463 0.68059 0.82323-0.66985 0.15868 0.50631
   0  10  -5    9.08    6.93  74-0.45412 0.26792 0.82251-0.43198 0.16118-0.71749
   0  10   8   11.00    8.84  74-0.45254 0.75448 0.82029-0.43342 0.16873 0.71825
   0  17  -6  198.69   10.71  75-0.45494 0.23146 0.82366-0.16170 0.15719-0.82358
   0  18  -6  170.41   12.35  74-0.45413 0.23193 0.82252-0.12277 0.16113-0.82892
   1   9  -4 4438.29   18.08  74-0.45435 0.45415 0.82283-0.47131 0.16006-0.55483
   1   9   6  619.07   10.59  75-0.45435 0.82984 0.82284-0.47400 0.16004 0.55458
   1  14  -5   74.40    6.02  74-0.45280 0.41569 0.82066-0.27547 0.16748-0.67337
   2  14   5  158.05   11.00  75-0.45426 0.94141 0.82270-0.27855 0.16050 0.49327
   2  15  -4   21.21    7.11  74-0.45280 0.60244 0.82066-0.23558 0.16748-0.51208
   3  14   0   30.69   18.03  78-0.46430 0.91227 0.83648-0.29024 0.10840 0.04147
   3  18  -2    2.85    8.87  75-0.45429 0.82855 0.82275-0.11996 0.16034-0.23304
   3  18   2   83.86   17.41  78-0.46405 0.98726 0.83615-0.13550 0.10981 0.26263
  -6  -3   5  951.58   14.36  76-0.45749-0.24716 0.82747-0.94882 0.14396 0.10941
  -5  -4   4  443.51   10.48  76-0.45733-0.13636 0.82724-0.98654 0.14478 0.04794
  -5  -3   6    3.63    8.77  76-0.45802-0.06163 0.82821-0.94944 0.14125 0.27318
  -5  -2   0    1.57   13.83  77-0.46316-0.28088 0.83522-0.91561 0.11406-0.36553
  -5  -2   7  324.93   11.16  76-0.45787-0.02350 0.82800-0.91131 0.14200 0.38254
  -4  -3   6  119.49    8.08  76-0.45747 0.08701 0.82745-0.94803 0.14403 0.32007
  -4  -2   7   21.99    6.34  75-0.45570 0.12341 0.82498-0.90704 0.15292 0.42301
  -3  -2  -1   76.12    8.13  76-0.45936-0.02443 0.83004-0.90880 0.13439-0.39689
  -3  -1   7  220.60    8.39  76-0.45737 0.27291 0.82730-0.86992 0.14458 0.48009
  -3   1   8  246.75    9.10  76-0.45839 0.31181 0.82871-0.79510 0.13938 0.59628
  -3   8  -5   63.25    9.22  76-0.45829-0.17320 0.82857-0.51768 0.13989-0.84544
  -2  -3   4  459.53    7.87  75-0.45694 0.30860 0.82671-0.94527 0.14673 0.19675
  -2  -1   6  118.23    7.06  76-0.45759 0.38447 0.82762-0.86952 0.14342 0.42109
  -2   3   8  153.30    8.76  76-0.45875 0.46119 0.82922-0.71722 0.13750 0.64800
  -2   4  -4   70.04    7.16  75-0.45711 0.01108 0.82694-0.67162 0.14588-0.69073
  -2  13  -6  116.90   12.00  76-0.45787-0.06221 0.82799-0.32197 0.14204-0.90886
  -1  -2   3  985.63   10.68  75-0.45695 0.42027 0.82672-0.90566 0.14669 0.13652
  -1   1   6  591.23    7.39  75-0.45628 0.53263 0.82580-0.78947 0.15001 0.46508
  -1   2  -3  189.76    6.83  76-0.45824 0.19695 0.82851-0.74974 0.14012-0.52405
  -1   3   7   10.16    5.54  75-0.45645 0.57105 0.82603-0.71172 0.14917 0.57718
  -1   6   8  118.99    9.71  76-0.45789 0.61026 0.82803-0.59889 0.14190 0.69412
  -1   8  -5  629.98    7.70  75-0.45628 0.12143 0.82580-0.51420 0.15001-0.75560
  -1  13  -6  395.20   10.22  76-0.45816 0.08690 0.82840-0.32183 0.14054-0.85643
  -1  14  -6   10.94    7.62  75-0.45578 0.08379 0.82510-0.27925 0.15250-0.87061
   0   1   4  867.91    8.77  75-0.45595 0.60646 0.82533-0.78762 0.15167 0.29255
   0   6  -4 1505.19   10.60  75-0.45628 0.30713 0.82580-0.59120 0.15001-0.59464
   0   7   7   82.06    8.97  76-0.45738 0.72064 0.82731-0.55705 0.14453 0.63073
   0  16  -6    5.60    9.34  76-0.45738 0.23413 0.82733-0.20165 0.14448-0.81477
   1   6  -3  823.56    9.90  76-0.45761 0.49492 0.82764-0.59221 0.14333-0.42688
   1  13  -5  145.69    6.29  75-0.45620 0.41917 0.82568-0.31905 0.15042-0.65620
   2  11   4  105.61    9.66  76-0.45889 0.90783 0.82940-0.40240 0.13680 0.40737
   2  14  -4  614.93    9.50  75-0.45657 0.60623 0.82619-0.28038 0.14859-0.49325
   2  15   5   76.64   11.02  76-0.45828 0.94588 0.82856-0.24675 0.13993 0.51514
   3  17  -2   19.57    8.58  75-0.45735 0.83087 0.82728-0.16467 0.14467-0.21744
  -6  -3   4   44.64    9.86  77-0.46090-0.28007 0.83227-0.95409 0.12587 0.01814
  -5   4  -3  247.62   12.22  76-0.46002-0.39323 0.83107-0.67805 0.13053-0.71652
  -4  -4   2 2211.88   23.53  78-0.46498-0.05495 0.83775-0.99622 0.10352-0.08120
  -4  -4   4  159.25    7.57  77-0.46182 0.01709 0.83352-0.99248 0.12093 0.12299
  -4   0  -2  112.07    8.24  76-0.46083-0.20812 0.83217-0.83385 0.12626-0.54969
  -4   0   8  153.00    7.85  76-0.45931 0.16372 0.83010-0.83545 0.13423 0.55118
  -4   5  -4   98.75    9.47  77-0.46178-0.28104 0.83347-0.64100 0.12115-0.76576
  -3  -4   2  883.42   14.03  77-0.46226 0.09065 0.83411-0.99180 0.11859-0.04622
  -3  -4   3   37.79    6.10  77-0.46141 0.12786 0.83296-0.99115 0.12314 0.05992
  -3  -3   5  237.47    7.53  77-0.46144 0.20314 0.83300-0.95275 0.12299 0.28139
  -3  -2   6  448.80    8.72  77-0.46101 0.24021 0.83242-0.91394 0.12527 0.38989
  -3   4  -4  156.91    8.43  76-0.46027-0.13433 0.83142-0.67686 0.12919-0.72446
  -3   4   9   58.68   11.58  77-0.46118 0.35353 0.83265-0.68204 0.12437 0.72312
  -2  -2   5    2.20    5.42  76-0.46012 0.34992 0.83121-0.91052 0.12997 0.32327
  -2   1   7  265.78    8.26  77-0.46064 0.42593 0.83192-0.79629 0.12723 0.54819
  -2   7  -5   38.22    8.30  76-0.46027-0.02379 0.83141-0.55920 0.12921-0.78583
  -2  12  -6  196.43   11.77  76-0.46080-0.05929 0.83214-0.36528 0.12639-0.89300
  -1   0   5   17.26    5.80  77-0.46137 0.50138 0.83291-0.83457 0.12337 0.38021
  -1   4  -4  264.89    7.17  77-0.46150 0.16289 0.83309-0.67723 0.12265-0.61694
  -1  12  -6   54.14    8.98  77-0.46133 0.08917 0.83285-0.36592 0.12360-0.84006
   0   9  -5   96.13    5.27  76-0.45915 0.27316 0.82988-0.47864 0.13507-0.69040
   0  14  -6  883.32   11.60  77-0.46107 0.23787 0.83250-0.28725 0.12498-0.79129
   0  15  -6    3.89    7.15  76-0.45890 0.23476 0.82954-0.24543 0.13632-0.80451
   1   5   4  126.00    6.81  76-0.46038 0.75996 0.83156-0.63710 0.12863 0.36474
   1   7   5   33.86    7.15  76-0.46033 0.79752 0.83150-0.55984 0.12888 0.47547
   1   8  -4  742.08    9.00  77-0.46150 0.46096 0.83308-0.52039 0.12270-0.51721
   1  10   6   99.16    9.32  76-0.46028 0.83550 0.83143-0.44341 0.12913 0.58520
   1  12  -5  935.96   10.35  76-0.46018 0.42356 0.83129-0.36365 0.12967-0.63536
   2   7  -1  387.63   11.67  77-0.46312 0.72472 0.83527-0.56073 0.11387-0.12553
   2   8  -2  629.61   10.98  77-0.46227 0.68605 0.83413-0.52069 0.11850-0.24136
   2   9   3  576.00   10.45  77-0.46154 0.87371 0.83313-0.48260 0.12249 0.31031
   2  10  -3  516.31    9.04  76-0.46012 0.64703 0.83121-0.44023 0.12999-0.36346
   2  13  -4 1054.43   11.21  76-0.46071 0.61015 0.83201-0.32482 0.12690-0.47130
   2  16   5    4.04   12.36  77-0.46255 0.94933 0.83451-0.21276 0.11698 0.53615
   3  16  -2   42.10    9.38  77-0.46174 0.83498 0.83341-0.20895 0.12138-0.19443
   3  19   2   62.37   17.83  80-0.46965 0.99322 0.84387-0.10402 0.07597 0.29643
  -6  -2   6   12.53   11.21  78-0.46366-0.20461 0.83611-0.91898 0.11045 0.25384
  -6  -1   7   70.54   12.29  78-0.46388-0.16565 0.83640-0.88105 0.10921 0.36569
  -6   1  -1  125.92   14.98  78-0.46642-0.46174 0.83978-0.80471 0.09473-0.50831
  -5   0   8    3.93   10.35  78-0.46314 0.01913 0.83542-0.83801 0.11329 0.52273
  -4   2  -3  111.05    8.83  77-0.46314-0.24288 0.83542-0.76005 0.11329-0.64777
  -3   1  -3   11.62    7.84  78-0.46516-0.09357 0.83812-0.80051 0.10198-0.58624
  -3   7  -5   -2.02    9.71  78-0.46390-0.17129 0.83643-0.56606 0.10910-0.81516
  -2   1  -3  246.66    7.51  77-0.46376 0.05392 0.83625-0.79796 0.10986-0.54341
  -2   4   8  396.64    9.51  78-0.46478 0.46825 0.83761-0.68642 0.10416 0.68210
  -2  11  -6   81.52   10.88  78-0.46402-0.05642 0.83659-0.40876 0.10842-0.87491
  -1  -2   2   82.20    5.82  78-0.46425 0.39025 0.83691-0.91600 0.10711 0.06579
  -1  -1  -1 3603.14   28.65  77-0.46305 0.27517 0.83529-0.87504 0.11379-0.27592
  -1  -1   4 1980.05   12.52  77-0.46253 0.46401 0.83459-0.87490 0.11664 0.27786
  -1   4   7 1352.82   11.47  78-0.46361 0.57814 0.83604-0.68285 0.11071 0.61462
  -1   7  -5   35.56    5.20  77-0.46222 0.12712 0.83418-0.56184 0.11832-0.72385
  -1   7   8  828.66   11.37  77-0.46337 0.61580 0.83572-0.56582 0.11203 0.72366
   0   0   2  164.06    6.67  78-0.46368 0.53933 0.83613-0.83613 0.11034 0.11250
   0   3  -3   87.29    6.28  78-0.46438 0.35190 0.83708-0.71929 0.10638-0.44029
   0   3   5 1791.71   12.24  77-0.46330 0.65153 0.83562-0.71923 0.11243 0.44176
   0   5   6  208.86    6.34  77-0.46238 0.68861 0.83439-0.64165 0.11748 0.54757
   0   8   7  195.07    9.00  77-0.46294 0.72669 0.83514-0.52548 0.11441 0.66043
   0  13  -6  119.42    9.29  77-0.46385 0.24067 0.83636-0.32999 0.10939-0.77611
   1   3   2 2027.76   17.18  77-0.46331 0.68841 0.83564-0.71782 0.11237 0.15984
   1   4  -2  471.40    9.33  78-0.46383 0.53820 0.83634-0.67892 0.10945-0.28247
   1   4   3 1384.21   12.63  78-0.46490 0.72765 0.83777-0.68192 0.10344 0.27988
   1  11  -5  609.98    9.24  78-0.46413 0.42670 0.83674-0.40780 0.10779-0.61306
   1  11   6   78.75    8.71  78-0.46504 0.84105 0.83795-0.41132 0.10267 0.61236
   1  18  -6  100.44   10.50  78-0.46424 0.39021 0.83689-0.13649 0.10717-0.72431
   2  12   4  686.03   12.54  78-0.46610 0.91522 0.83936-0.37231 0.09659 0.44624
   2  17   5   43.63   13.20  78-0.46514 0.95278 0.83809-0.17742 0.10208 0.55176
   2  18  -5   75.52    9.44  78-0.46439 0.57693 0.83709-0.13583 0.10635-0.56209
   2  19  -5   86.98   10.72  77-0.46349 0.57646 0.83589-0.09650 0.11135-0.56815
   2  20  -5  105.21   10.87  77-0.46270 0.57555 0.83482-0.05613 0.11572-0.57291
   3  14  -1  405.16   13.57  78-0.46623 0.87702 0.83953-0.29297 0.09584-0.05800
   3  20  -3  407.37   13.08  78-0.46458 0.80099 0.83734-0.05814 0.10530-0.28949
   3  21  -3    3.96   11.40  77-0.46387 0.80060 0.83640-0.01726 0.10924-0.29293
   3  22  -3   12.34   12.49  78-0.46406 0.80127 0.83665 0.02150 0.10820-0.29210
  -5  -3   5  163.42    8.92  79-0.46722-0.08841 0.84121-0.96273 0.08847 0.21575
  -5  -1   7  292.51   10.85  79-0.46693-0.01345 0.84084-0.88587 0.09015 0.43535
  -5   1  -2  329.59   11.36  78-0.46597-0.35110 0.83956-0.80378 0.09581-0.57017
  -4  -4   3  247.28    8.58  79-0.46637-0.01632 0.84009-0.99898 0.09347 0.03946
  -4  -1   7  310.33    7.64  78-0.46478 0.13262 0.83799-0.88184 0.10264 0.47294
  -4   1   8  330.42   10.96  79-0.46636 0.17162 0.84008-0.80668 0.09353 0.59226
  -3   0   7   40.27    7.33  78-0.46578 0.28192 0.83932-0.84277 0.09690 0.52784
  -3   2   8   97.73    6.78  78-0.46500 0.31930 0.83828-0.76551 0.10138 0.63471
  -3   5   9   40.45   11.54  79-0.46625 0.35833 0.83994-0.64960 0.09418 0.75319
  -2  -3   3 6618.76   25.92  78-0.46595 0.28029 0.83954-0.95773 0.09593 0.13712
  -2  -2  -1   56.92    7.61  79-0.46832 0.13245 0.84266-0.92151 0.08183-0.29373
  -2   0   6    3.81    6.60  79-0.46695 0.39454 0.84086-0.84363 0.09005 0.47540
  -2   3  -4   28.79    6.89  78-0.46611 0.01941 0.83975-0.72338 0.09500-0.64006
  -2   6  -5   -0.15    8.33  79-0.46616-0.02053 0.83982-0.60801 0.09467-0.75155
  -1  -2   1   27.89    5.75  79-0.46609 0.35404 0.83973-0.91858 0.09508-0.03374
  -1   0  -2    1.44    3.98  78-0.46507 0.24110 0.83838-0.83842 0.10096-0.37341
  -1   2   6    3.28    4.64  78-0.46493 0.54153 0.83818-0.76268 0.10180 0.51377
  -1   8   8   32.16    9.40  79-0.46743 0.62078 0.84148-0.53333 0.08723 0.75027
  -1  11  -6   66.59    6.86  78-0.46456 0.09275 0.83769-0.40953 0.10390-0.82094
   0   5  -4  250.47    5.77  78-0.46493 0.31551 0.83818-0.64266 0.10180-0.54656
   0   8  -5  187.29    5.71  78-0.46456 0.27824 0.83769-0.52580 0.10390-0.65950
   0   9   7  239.62    9.41  79-0.46730 0.73182 0.84132-0.49424 0.08800 0.68762
   0  12  -6  147.45    9.05  79-0.46661 0.24341 0.84042-0.37286 0.09204-0.75841
   1   3  -1   28.77    5.79  79-0.46688 0.57926 0.84077-0.72197 0.09046-0.15256
   1   8   5  600.89    9.70  79-0.46713 0.80514 0.84110-0.53127 0.08899 0.51529
   1  16  -6   53.19    9.26  79-0.46683 0.39291 0.84070-0.21765 0.09078-0.70662
   1  17  -6  182.37   10.21  78-0.46538 0.39168 0.83878-0.17713 0.09922-0.71617
   2   7   1  493.17   14.37  79-0.46875 0.80552 0.84322-0.56913 0.07922 0.13198
   2  12  -4   41.37    6.84  78-0.46523 0.61434 0.83859-0.37021 0.10004-0.44508
   2  17  -5  208.99   10.29  78-0.46586 0.57865 0.83943-0.17722 0.09641-0.55219
   3  15  -2  497.87   12.09  79-0.46693 0.84043 0.84084-0.25556 0.09015-0.16249
   3  18  -3   59.77   10.33  79-0.46738 0.80378 0.84143-0.13993 0.08750-0.27088
   3  19  -3   34.33   10.11  78-0.46598 0.80325 0.83958-0.09982 0.09576-0.27991
   3  20   2   40.49   19.67  81-0.47332 0.99704 0.84904-0.07058 0.04992 0.32258
  -5  -2   6   36.71    8.83  80-0.46898-0.04918 0.84371-0.92663 0.07656 0.33823
  -5  -1  -1    3.71   11.40  80-0.47176-0.30985 0.84726-0.88938 0.05896-0.42152
  -5   1   8  148.18   11.64  80-0.46920 0.02672 0.84400-0.81162 0.07520 0.56112
  -5   3  -3    3.88   11.16  80-0.46930-0.38710 0.84413-0.73046 0.07456-0.65996
  -4  -3   5   57.31    6.95  79-0.46792 0.06014 0.84234-0.96289 0.08302 0.27059
  -4  -2   6  373.13    8.56  79-0.46810 0.09834 0.84257-0.92439 0.08193 0.38249
  -4   4  -4  279.46   10.83  79-0.46901-0.27371 0.84375-0.69007 0.07638-0.72172
  -3  -1  -2  236.87    8.37  79-0.46850-0.05256 0.84309-0.88363 0.07951-0.45259
  -3   3  -4   73.77    8.06  79-0.46848-0.12609 0.84306-0.72797 0.07964-0.67463
  -3   6  -5   67.93   10.05  79-0.46907-0.16266 0.84383-0.61146 0.07600-0.78195
  -2  -1  -2  289.76    8.80  80-0.47035 0.09756 0.84548-0.88517 0.06799-0.39072
  -2   2   7   10.39    5.40  79-0.46758 0.43333 0.84190-0.76718 0.08506 0.59135
  -2   5   8   60.06    8.42  80-0.46978 0.47378 0.84474-0.65479 0.07161 0.71455
  -2  10  -6   28.36    7.88  79-0.46744-0.05363 0.84171-0.45287 0.08590-0.85396
  -1   5   7    1.43    7.73  80-0.46917 0.58445 0.84396-0.65191 0.07540 0.65126
  -1   6  -5  698.08    9.21  79-0.46805 0.13305 0.84250-0.60912 0.08226-0.68781
  -1  10  -6   96.32    8.71  79-0.46807 0.09608 0.84254-0.45357 0.08209-0.79922
   0   2   4 2657.77   14.84  79-0.46845 0.61915 0.84302-0.76554 0.07983 0.36396
   0   6   6  133.68    7.78  80-0.46885 0.69525 0.84355-0.61179 0.07736 0.58741
   0  11  -6   73.49    8.08  80-0.46976 0.24613 0.84471-0.41652 0.07175-0.73805
   1   5  -3  235.84    7.08  80-0.46904 0.50599 0.84379-0.64733 0.07619-0.35993
   1   6   4   42.33    6.40  80-0.46969 0.77027 0.84463-0.61119 0.07215 0.42183
   1   7  -4  488.61    8.07  79-0.46877 0.46859 0.84344-0.56983 0.07785-0.47256
   1  10  -5    3.54    6.86  79-0.46854 0.43147 0.84314-0.45222 0.07927-0.58556
   1  12   6   58.98    9.74  80-0.46901 0.84558 0.84375-0.37842 0.07641 0.63800
   1  15  -6  172.89    9.90  79-0.46883 0.39499 0.84352-0.25961 0.07748-0.69398
   2   8   2   86.80    6.86  80-0.46896 0.84333 0.84368-0.53136 0.07670 0.24537
   2   9  -3   76.96    6.55  79-0.46818 0.65490 0.84267-0.49073 0.08147-0.31460
   2  15  -5  356.90    9.19  80-0.46994 0.58222 0.84495-0.26007 0.07058-0.52585
   2  16  -5   41.98    6.61  79-0.46758 0.58010 0.84190-0.21825 0.08506-0.54049
   3  17  -3    7.07   10.07  80-0.46973 0.80626 0.84468-0.18046 0.07189-0.25530
  -6  -2   5   31.27   10.26  81-0.47166-0.23250 0.84731-0.93063 0.05926 0.19427
  -6   0   7   -0.62   11.85  81-0.47175-0.15979 0.84743-0.85269 0.05866 0.41843
  -4  -3   0  173.64   15.86  82-0.47532-0.11989 0.85186-0.97074 0.03427-0.23529
  -4  -2  -1   42.33    9.24  80-0.47183-0.15997 0.84753-0.92761 0.05811-0.37037
  -4   0   7   -3.37    7.81  81-0.47204 0.13818 0.84779-0.85241 0.05676 0.52334
  -4   2   8   15.70    9.33  81-0.47239 0.17804 0.84823-0.77509 0.05445 0.63252
  -3  -3   4  700.79    9.61  81-0.47157 0.17458 0.84719-0.96685 0.05986 0.23365
  -3  -1   6  540.01    7.46  80-0.47044 0.24899 0.84577-0.88837 0.06707 0.44781
  -3   3   8    1.72    8.46  81-0.47120 0.32502 0.84673-0.73206 0.06223 0.67418
  -2  -3   2  119.62    6.61  81-0.47245 0.24910 0.84831-0.96700 0.05403 0.06797
  -2  -2   4   79.66    5.93  81-0.47148 0.32338 0.84709-0.92716 0.06039 0.28322
  -2  -1   5  247.32    6.67  80-0.47098 0.36067 0.84645-0.88735 0.06364 0.39031
  -2   5  -5  802.05   10.59  81-0.47172-0.01136 0.84739-0.65309 0.05886-0.71404
  -2   9  -6    9.67   10.10  80-0.47125-0.05025 0.84680-0.49694 0.06190-0.83056
  -1   1  -3  289.76    7.53  81-0.47179 0.21037 0.84748-0.80820 0.05840-0.44203
  -1   1   5  542.73    8.27  80-0.47128 0.51017 0.84683-0.80939 0.06171 0.44254
  -1   3  -4 1514.86   10.90  80-0.47051 0.17238 0.84585-0.72920 0.06665-0.56131
  -1   3   6  455.99    7.99  81-0.47225 0.54901 0.84806-0.73415 0.05534 0.55961
  -1   9  -6  644.41   10.27  80-0.47168 0.10017 0.84734-0.49692 0.05909-0.77520
  -1   9   8  104.10   10.76  81-0.47138 0.62458 0.84696-0.49990 0.06107 0.77529
   0   0   1    0.31    4.95  80-0.47176 0.50987 0.84744-0.84790 0.05861 0.05368
   0   1   3  759.69    9.06  80-0.46998 0.58324 0.84517-0.80661 0.07002 0.26349
   0   4   5   60.56    6.55  81-0.47143 0.65966 0.84703-0.69231 0.06071 0.49351
   0   7  -5 2117.96   11.88  80-0.47005 0.28372 0.84526-0.57219 0.06960-0.62506
   0  10   7    6.30    9.67  81-0.47147 0.73579 0.84708-0.45959 0.06045 0.71544
   1  13   6  375.72   10.83  81-0.47256 0.84879 0.84845-0.34470 0.05331 0.66220
   1  14  -6   28.74    9.26  80-0.47125 0.39772 0.84680-0.30060 0.06190-0.67950
   2  10   3  512.84   10.35  81-0.47153 0.88339 0.84715-0.45786 0.06007 0.37303
   2  11  -4    4.92    4.74  80-0.47005 0.61962 0.84526-0.41500 0.06960-0.41403
   2  13   4    0.86    8.30  81-0.47126 0.92084 0.84681-0.34095 0.06181 0.48279
   3  14  -2    4.36    8.72  81-0.47353 0.84788 0.84965-0.30247 0.04678-0.11910
   3  16  -3  412.19   11.02  81-0.47289 0.80963 0.84887-0.22481 0.05107-0.23397
  -6  -1   6  318.81   11.99  82-0.47389-0.19327 0.85021-0.89415 0.04451 0.31990
  -5  -3   4 1307.04   13.97  82-0.47463-0.11865 0.85113-0.97241 0.03934 0.15491
  -5   0   7   85.61   10.25  82-0.47455-0.00565 0.85103-0.85708 0.03991 0.48604
  -4   1  -3  582.34   11.11  81-0.47395-0.23173 0.85029-0.81374 0.04411-0.57861
  -3  -2   5  213.34    5.69  81-0.47295 0.21358 0.84905-0.93025 0.05086 0.35333
  -3   1   7  203.09    6.45  81-0.47258 0.28895 0.84858-0.81457 0.05339 0.57188
  -3   5  -5    8.16    8.83  82-0.47468-0.15807 0.85119-0.65762 0.03898-0.74490
  -2  -3   1   50.81    7.40  82-0.47493 0.21419 0.85150-0.96975 0.03722-0.02594
  -2   1   6  114.68    6.67  82-0.47479 0.40272 0.85133-0.81550 0.03823 0.52671
  -2   2  -4  400.57    8.08  82-0.47468 0.02825 0.85119-0.77370 0.03901-0.58316
  -2   3   7  740.65    9.61  82-0.47397 0.43945 0.85031-0.73710 0.04397 0.63154
  -2   6   8   57.09    9.35  82-0.47435 0.47885 0.85079-0.62171 0.04130 0.74530
  -2   8  -6   71.57    8.97  82-0.47479-0.04563 0.85132-0.54071 0.03823-0.80412
  -1  -1   3 2446.06   15.79  82-0.47457 0.43837 0.85106-0.89130 0.03975 0.24412
  -1   0   4    3.12    5.25  82-0.47477 0.47626 0.85129-0.85308 0.03841 0.35598
  -1   5  -5  281.81    8.15  81-0.47410 0.13935 0.85048-0.65579 0.04302-0.64827
  -1   6   7  621.28    9.90  82-0.47438 0.58956 0.85082-0.62077 0.04108 0.68471
  -1  10   8   30.30   10.05  82-0.47461 0.62832 0.85111-0.46555 0.03947 0.79856
   0   4  -4  436.91    7.74  81-0.47341 0.32409 0.84963-0.69295 0.04775-0.49251
   0   7   6   52.43    7.54  82-0.47432 0.70150 0.85074-0.58061 0.04155 0.62374
   0  10  -6  507.72    8.97  81-0.47336 0.25083 0.84956-0.46022 0.04813-0.71445
   0  11   7   76.78    9.30  82-0.47490 0.73990 0.85146-0.42668 0.03748 0.73840
   1   9  -5   38.45    5.09  81-0.47308 0.43622 0.84921-0.49775 0.05002-0.55496
   1   9   5   99.10    7.31  81-0.47338 0.81063 0.84959-0.50045 0.04796 0.55592
   1  13  -6  157.44    9.18  81-0.47374 0.40058 0.85003-0.34390 0.04555-0.66190
   2  14  -5   -0.88    5.84  81-0.47270 0.58445 0.84874-0.30249 0.05255-0.50891
   2  14   4  222.45   11.28  82-0.47612 0.92579 0.85293-0.30803 0.02875 0.51441
   3  21  -4  399.32   14.26  82-0.47479 0.77447 0.85133-0.03326 0.03821-0.33244
  -6  -2   4  432.84   13.04  83-0.47838-0.26335 0.85561-0.93791 0.01201 0.13155
  -5   2   8  126.07    8.84  82-0.47530 0.03229 0.85193-0.77985 0.03492 0.60177
  -4  -3   4  338.61    8.49  83-0.47714 0.03224 0.85415-0.97451 0.02148 0.22250
  -4  -1  -2  134.15    9.83  83-0.47747-0.19127 0.85454-0.89565 0.01899-0.44135
  -4  -1   6  347.61    9.02  83-0.47690 0.10729 0.85386-0.89707 0.02326 0.44175
  -4   3  -4    3.96    9.72  82-0.47643-0.26800 0.85330-0.73837 0.02673-0.67190
  -4   6  -5   52.76   12.48  83-0.47669-0.30488 0.85361-0.62216 0.02484-0.78072
  -3   0  -3  123.48    7.43  83-0.47676-0.08114 0.85370-0.85484 0.02430-0.50746
  -3   2  -4   -3.15    7.47  83-0.47661-0.12161 0.85351-0.77784 0.02544-0.61943
  -3   4   8   42.25    8.64  82-0.47617 0.33036 0.85298-0.70126 0.02868 0.70694
  -2   0  -3    3.30    6.16  82-0.47648 0.06646 0.85335-0.85395 0.02642-0.45989
  -1   8  -6   43.10    8.04  82-0.47583 0.10425 0.85258-0.54196 0.03113-0.74753
   0   1  -2  146.57    5.66  82-0.47542 0.39980 0.85208-0.81267 0.03408-0.25773
   0   2  -3  216.67    7.11  83-0.47679 0.36405 0.85373-0.77499 0.02408-0.35814
   0   6  -5  710.24    8.85  82-0.47589 0.28936 0.85265-0.61892 0.03068-0.58634
   0   9  -6  112.79    7.58  83-0.47682 0.25363 0.85376-0.50315 0.02391-0.68951
   0  15  -7  110.62   11.00  82-0.47592 0.21654 0.85269-0.26971 0.03046-0.80880
   1   5   3   25.77    5.81  83-0.47715 0.73975 0.85415-0.65924 0.02144 0.36150
   1   6  -4  577.34    8.47  82-0.47611 0.47566 0.85291-0.61821 0.02913-0.42409
   1  12  -6   69.85    8.39  82-0.47645 0.40253 0.85332-0.38571 0.02664-0.64327
   1  14   6    4.62    9.48  82-0.47584 0.85190 0.85259-0.30905 0.03103 0.68392
   2   7  -2   11.75    5.70  82-0.47628 0.70034 0.85312-0.57907 0.02784-0.14993
   2   8  -3  926.83   10.82  83-0.47660 0.66303 0.85350-0.54012 0.02552-0.25896
   2  10  -4 1602.43   11.61  82-0.47542 0.62445 0.85208-0.46144 0.03408-0.37859
   2  13  -5  403.01    8.96  82-0.47580 0.58814 0.85253-0.34599 0.03137-0.48697
   2  19  -6   -2.33   10.82  83-0.47678 0.55187 0.85372-0.11412 0.02417-0.59040
   3  13  -1  104.55   11.42  83-0.47848 0.88932 0.85572-0.34801 0.01125 0.02712
   3  15  -3  461.96   10.46  82-0.47649 0.81272 0.85336-0.26795 0.02636-0.20965
   3  16   1    4.72   15.33  86-0.48393 0.96945 0.86170-0.23823-0.03562 0.29570
   3  19  -4  281.76   11.70  82-0.47646 0.77577 0.85333-0.11301 0.02654-0.32127
   3  20  -4   22.78   10.48  82-0.47566 0.77547 0.85236-0.07263 0.03239-0.32776
  -6  -2   2  284.98   16.95  86-0.48247-0.33386 0.86028-0.94238-0.02214-0.05472
  -6   1   7   85.06   12.10  84-0.47886-0.15064 0.85626-0.82339 0.00827 0.46777
  -5  -3   3   69.05    9.38  85-0.48061-0.14990 0.85825-0.97866-0.00597 0.08927
  -5  -2   5  641.28   10.82  84-0.47874-0.07747 0.85613-0.93819 0.00921 0.29529
  -5  -1   6  127.42    8.59  83-0.47819-0.04049 0.85549-0.89830 0.01350 0.40136
  -5   0  -2    1.12   10.79  84-0.47981-0.34081 0.85735-0.86050 0.00068-0.47216
  -5   2  -3    7.89   11.16  83-0.47847-0.37753 0.85581-0.78106 0.01134-0.59579
  -4  -2   5  113.22    7.46  84-0.47882 0.07139 0.85622-0.93789 0.00859 0.34574
  -4   1   7  307.32    9.43  84-0.47898 0.14675 0.85640-0.82248 0.00731 0.56842
  -4   3   8  133.96    7.95  83-0.47770 0.18257 0.85492-0.74302 0.01726 0.66912
  -3   0   6    3.93    6.91  84-0.47858 0.25722 0.85594-0.85857 0.01048 0.50476
  -3   2   7  409.91    9.12  84-0.47871 0.29524 0.85609-0.78246 0.00946 0.61630
  -3   8  -6   14.85   10.98  83-0.47823-0.19206 0.85553-0.54555 0.01322-0.83158
  -2   4  -5   29.62    7.44  83-0.47787-0.00627 0.85511-0.70017 0.01600-0.67200
  -2   4   7  201.79    7.69  84-0.47915 0.44469 0.85660-0.70495 0.00594 0.66987
  -2   7  -6   10.69    9.38  83-0.47878-0.04221 0.85617-0.58418 0.00892-0.77551
  -2   7   8    6.76    9.48  83-0.47852 0.48180 0.85587-0.58613 0.01096 0.77568
  -1   2  -4   33.85    6.06  84-0.47897 0.18054 0.85639-0.77816 0.00744-0.50184
  -1   2   5 1238.36   10.42  84-0.47931 0.51849 0.85678-0.78093 0.00470 0.50006
  -1   4   6  369.30    8.01  84-0.47860 0.55538 0.85596-0.70242 0.01034 0.60473
  -1   7   7  112.09    8.33  84-0.47880 0.59389 0.85620-0.58702 0.00874 0.71733
  -1  11   8  195.84    9.06  83-0.47770 0.63092 0.85492-0.43030 0.01726 0.82010
  -1  12  -7  210.31   11.93  83-0.47851 0.07074 0.85586-0.39039 0.01100-0.83884
   0   3   4   85.74    5.98  83-0.47843 0.62897 0.85577-0.73918 0.01163 0.43250
   0   5   5  412.61    8.20  84-0.47856 0.66675 0.85591-0.66193 0.01067 0.54367
   0   8   6   40.75    8.09  84-0.47916 0.70571 0.85661-0.54746 0.00588 0.65937
   0  12   7   55.17    9.73  83-0.47826 0.74191 0.85557-0.39080 0.01295 0.76208
   0  14  -7    7.03    8.11  83-0.47759 0.21770 0.85478-0.30933 0.01811-0.79663
   1   3   1 4641.12   34.49  84-0.47863 0.66663 0.85600-0.73787 0.01006 0.15150
   1   7   4 1331.81   11.83  83-0.47796 0.77774 0.85522-0.58254 0.01530 0.47783
   1   8  -5  506.75    8.35  83-0.47801 0.44092 0.85528-0.54329 0.01491-0.52053
   1  10   5  668.28   10.28  83-0.47843 0.81604 0.85576-0.46715 0.01168 0.59220
   1  11  -6  445.03    8.78  84-0.47918 0.40502 0.85663-0.42796 0.00574-0.62158
   1  15   6  154.59   11.77  83-0.47846 0.85416 0.85580-0.27346 0.01145 0.70309
   2  11   3  363.52   10.50  84-0.47957 0.89119 0.85708-0.42863 0.00259 0.42983
   2  12  -5   62.74    7.65  84-0.47884 0.59102 0.85624-0.38792 0.00846-0.46365
   2  15   4  107.41   10.78  84-0.47987 0.92928 0.85742-0.27390 0.00012 0.54310
   2  17  -6   52.38   10.63  84-0.47899 0.55410 0.85641-0.19357 0.00725-0.57394
   2  18  -6   17.08   10.52  83-0.47813 0.55441 0.85542-0.15263 0.01396-0.58209
   3  13  -2 1385.28   16.61  84-0.48029 0.85402 0.85789-0.35019-0.00330-0.06937
   3  17  -4  320.64   11.42  84-0.47961 0.77895 0.85712-0.19449 0.00227-0.29657
   3  18  -4   13.81    9.12  83-0.47798 0.77780 0.85525-0.15250 0.01510-0.31013
  -6  -2   3   51.46   11.30  86-0.48225-0.29713 0.86021-0.94245-0.02135 0.05506
  -6  -1   0   23.10   20.90  87-0.48455-0.40737 0.86259-0.90582-0.04320-0.25770
  -6   0   6  119.61   11.74  85-0.48154-0.18512 0.85945-0.86497-0.01510 0.38088
  -5  -3   2  488.71   14.95  86-0.48318-0.18480 0.86120-0.98142-0.02996 0.00313
  -5   1   7  315.10   10.81  85-0.48078 0.00040 0.85862-0.82495-0.00856 0.53477
  -5   3   8  693.14   12.28  84-0.48030 0.03640 0.85808-0.74615-0.00447 0.64023
  -4   5  -5   26.45   11.13  85-0.48121-0.29935 0.85910-0.66655-0.01225-0.74293
  -3  -3   3   94.84    6.61  85-0.48063 0.14646 0.85846-0.97755-0.00730 0.19061
  -3   4  -5  176.27    9.84  84-0.48019-0.15059 0.85797-0.70447-0.00361-0.70220
  -3   5   8  640.28   10.42  84-0.48026 0.33407 0.85804-0.66711-0.00418 0.74007
  -2   0   5    1.04    4.03  84-0.47980 0.36911 0.85752-0.85909-0.00036 0.45687
  -2   2   6 1237.83   10.35  85-0.48114 0.40917 0.85902-0.78385-0.01163 0.57702
  -1   4  -5 1201.80   10.66  84-0.47989 0.14506 0.85762-0.70229-0.00110-0.60427
  -1   7  -6   22.95    5.87  84-0.47959 0.10804 0.85729-0.58527 0.00133-0.71784
  -1  11  -7    0.35   10.92  85-0.48059 0.07021 0.85840-0.43149-0.00690-0.82145
  -1  12   8    1.80   10.59  85-0.48036 0.63134 0.85815-0.39338-0.00500 0.84167
   0   3  -4   83.82    6.02  85-0.48113 0.33151 0.85900-0.74168-0.01151-0.43280
   0   5  -5  425.92    7.85  85-0.48102 0.29444 0.85888-0.66370-0.01059-0.54457
   0   8  -6   43.72    7.68  84-0.48050 0.25791 0.85830-0.54722-0.00615-0.66003
   0  13  -7  364.41    8.98  84-0.47933 0.21984 0.85699-0.35153 0.00343-0.78098
   0  13   7  445.74   12.00  85-0.48053 0.74519 0.85834-0.35472-0.00639 0.78194
   1   4  -3 3138.41   17.01  84-0.47980 0.51678 0.85752-0.70032-0.00036-0.28362
   1   4   2 1547.40   15.25  85-0.48124 0.70669 0.85912-0.70250-0.01244 0.28508
   1  16  -7    8.59   11.78  84-0.48062 0.36983 0.85844-0.23461-0.00714-0.72032
   1  16   6   30.41   11.88  84-0.48037 0.85619 0.85816-0.23656-0.00506 0.71996
   2   9  -4   23.70    6.28  84-0.48057 0.62969 0.85838-0.50673-0.00675-0.33777
   2   9   2   36.78    7.74  86-0.48234 0.85626 0.86032-0.50928-0.02223 0.34365
   2  16  -6  493.72   11.54  84-0.48045 0.55628 0.85825-0.23556-0.00576-0.56100
   3  14  -3   22.14    7.57  84-0.48046 0.81680 0.85826-0.31280-0.00580-0.17735
   3  16  -4  107.53    9.85  85-0.48161 0.78056 0.85952-0.23616-0.01565-0.27925
  -6  -1   5   89.53   10.36  85-0.48209-0.22253 0.86018-0.90346-0.02044 0.27517
  -6   0  -1    1.38   16.22  88-0.48588-0.44620 0.86398-0.86950-0.05762-0.35526
  -4   0  -3   -3.06    9.49  86-0.48347-0.22576 0.86163-0.86411-0.03319-0.49885
  -4   2  -4   26.05    9.05  86-0.48295-0.26065 0.86108-0.78529-0.02827-0.61577
  -4   4   8   85.52    7.68  85-0.48176 0.18703 0.85982-0.70910-0.01746 0.70443
  -3  -1   5    5.35    5.75  85-0.48215 0.22320 0.86024-0.90149-0.02094 0.42467
  -3   7  -6  369.85   10.20  85-0.48147-0.18676 0.85950-0.58907-0.01493-0.80192
  -2  -2   3  493.92    8.75  86-0.48233 0.29649 0.86042-0.93966-0.02253 0.25597
  -2  -1   4  426.49    7.79  86-0.48250 0.33472 0.86061-0.90162-0.02410 0.36850
  -2   1  -4  124.95    7.28  85-0.48255 0.03617 0.86066-0.82245-0.02455-0.51941
  -2   3  -5  130.79    7.66  86-0.48305-0.00024 0.86118-0.74530-0.02915-0.62542
  -2   6  -6  245.78   10.05  85-0.48246-0.03748 0.86057-0.62818-0.02378-0.74245
  -2   8   8   99.13    7.67  85-0.48143 0.48537 0.85945-0.55212-0.01450 0.80180
  -1   8   7   25.30    8.31  85-0.48237 0.59690 0.86047-0.55128-0.02292 0.74920
  -1  10  -7   53.78    9.89  86-0.48277 0.07425 0.86089-0.47246-0.02658-0.80009
   0   2   3  222.29    6.93  86-0.48256 0.59592 0.86068-0.78312-0.02470 0.35833
   0   9   6  112.14    8.46  86-0.48281 0.70955 0.86093-0.51307-0.02694 0.69213
   0  12  -7   53.40    7.69  85-0.48138 0.22154 0.85940-0.39347-0.01408-0.76361
   0  14   7    6.37   11.30  85-0.48240 0.74754 0.86050-0.31757-0.02320 0.80041
   1   3  -2 2718.84   19.11  85-0.48128 0.55579 0.85929-0.74099-0.01324-0.16005
   1   5  -4 1986.93   13.03  86-0.48257 0.48219 0.86068-0.66479-0.02472-0.36991
   1   7  -5    4.76    6.41  85-0.48234 0.44524 0.86043-0.58671-0.02261-0.48306
   1  10  -6  108.70    8.05  85-0.48207 0.40807 0.86015-0.47101-0.02026-0.59607
   1  11   5   73.96    8.12  85-0.48223 0.82000 0.86032-0.43321-0.02165 0.62565
   1  15  -7    1.47   10.30  86-0.48223 0.37118 0.86032-0.27511-0.02167-0.70839
   2  11  -5  299.52    8.47  85-0.48203 0.59425 0.86011-0.43142-0.01989-0.43558
   2  15  -6  107.90    9.09  85-0.48199 0.55756 0.86006-0.27597-0.01951-0.54730
   2  16   4  558.06   12.57  86-0.48244 0.93247 0.86055-0.23821-0.02360 0.56706
  -6   2   7   49.34   12.46  86-0.48399-0.14657 0.86222-0.78975-0.03919 0.51467
  -5   0   6   -2.01    8.83  87-0.48425-0.03671 0.86248-0.86644-0.04178 0.45929
  -5   4   8   11.88   11.56  87-0.48405 0.04052 0.86227-0.71112-0.03974 0.67639
  -4  -3   3   77.05    7.06  87-0.48448 0.00221 0.86271-0.98272-0.04413 0.17781
  -4   0   6 1226.27   10.25  86-0.48339 0.11333 0.86160-0.86571-0.03335 0.49883
  -4   2   7   22.03    8.30  86-0.48392 0.15120 0.86215-0.78785-0.03852 0.61443
  -3  -2  -2   17.61    7.84  87-0.48535-0.03663 0.86354-0.94363-0.05306-0.31972
  -3  -2   4   93.71    4.87  86-0.48317 0.18675 0.86138-0.94192-0.03125 0.32548
  -3   1  -4  544.77    9.83  86-0.48380-0.11065 0.86202-0.82521-0.03731-0.55707
  -3   1   6  576.74    9.00  87-0.48422 0.26307 0.86244-0.82692-0.04145 0.55693
  -3   3   7  187.02    6.37  86-0.48326 0.29972 0.86147-0.74877-0.03209 0.65803
  -3   6  -6   12.11   10.61  87-0.48459-0.18435 0.86281-0.63085-0.04518-0.77056
  -3   6   8    0.02    7.17  86-0.48334 0.33663 0.86156-0.63036-0.03293 0.77248
  -2   5   7 1572.65   10.60  86-0.48312 0.44892 0.86133-0.67052-0.03082 0.70696
  -2   9   8   27.24    9.91  87-0.48411 0.48764 0.86234-0.51512-0.04036 0.82783
  -1  -1  -2  205.41    7.28  87-0.48417 0.25962 0.86239-0.90175-0.04094-0.23187
  -1   0  -3 1822.56   13.74  86-0.48357 0.22216 0.86179-0.86235-0.03512-0.34883
  -1   1   4 2199.28   13.67  87-0.48405 0.48532 0.86227-0.82424-0.03974 0.43400
  -1   5   6   20.32    4.94  86-0.48321 0.56026 0.86142-0.66889-0.03167 0.64712
  -1   6  -6  448.59    7.76  86-0.48317 0.11151 0.86138-0.62844-0.03125-0.68485
   0   1   2  147.39    6.56  86-0.48382 0.55963 0.86205-0.82260-0.03754 0.26049
   0   6   5  680.93    9.00  86-0.48379 0.67198 0.86201-0.62886-0.03722 0.59139
   0   7  -6   56.45    7.64  86-0.48383 0.26131 0.86205-0.58990-0.03759-0.62848
   0  11  -7   76.19    7.64  86-0.48334 0.22360 0.86156-0.43397-0.03293-0.74445
   0  15   7  126.10   12.71  87-0.48412 0.74944 0.86235-0.28100-0.04046 0.81617
   1   8   4  102.13    6.71  86-0.48372 0.78359 0.86195-0.55054-0.03657 0.52954
   1  14  -7  674.31   11.64  86-0.48352 0.37336 0.86174-0.31796-0.03462-0.69302
   2   7  -3 1487.52   13.12  86-0.48412 0.67075 0.86235-0.58816-0.04047-0.19331
   2  12   3    4.26    8.67  87-0.48507 0.89625 0.86328-0.39624-0.05013 0.48217
   2  14  -6    2.65    8.45  87-0.48389 0.55965 0.86211-0.31543-0.03820-0.53078
   2  17   4   61.88   10.98  87-0.48438 0.93505 0.86260-0.20171-0.04306 0.58713
   3  13  -3  189.70    8.56  87-0.48428 0.82034 0.86251-0.35513-0.04207-0.14127
   3  15  -4  223.33    9.28  86-0.48381 0.78320 0.86204-0.27757-0.03744-0.25708
   3  19  -5   15.81   11.46  87-0.48429 0.74656 0.86252-0.12127-0.04222-0.36318
  -5  -2   4  182.45    8.85  88-0.48594-0.10735 0.86416-0.94671-0.06000 0.25420
  -5  -1   5  349.44    9.18  88-0.48628-0.06978 0.86447-0.90818-0.06387 0.36855
  -5   1  -3   29.62   12.56  88-0.48608-0.36944 0.86428-0.82838-0.06156-0.52192
  -5   2   7  318.89   10.08  87-0.48545 0.00422 0.86370-0.79052-0.05472 0.58039
  -4  -1   5 1820.19   13.10  88-0.48617 0.07850 0.86437-0.90731-0.06257 0.41723
  -4   4  -5   27.29   11.95  87-0.48560-0.29605 0.86385-0.71073-0.05635-0.70001
  -4   5   8   68.94    7.92  87-0.48496 0.19027 0.86324-0.67388-0.04956 0.73744
  -3   3  -5   55.60    6.97  87-0.48488-0.14615 0.86316-0.74873-0.04871-0.65657
  -3   7   8   91.07    9.06  88-0.48609 0.34063 0.86430-0.59735-0.06176 0.79879
  -2   1   5  240.86    6.93  88-0.48613 0.37580 0.86433-0.82818-0.06214 0.51691
  -2   3   6  408.21    8.10  88-0.48580 0.41335 0.86404-0.75052-0.05857 0.62404
  -2   5  -6   62.14    9.47  87-0.48576-0.03455 0.86400-0.67022-0.05808-0.70779
  -2  10   8  236.90   10.15  88-0.48620 0.48967 0.86440-0.48008-0.06298 0.85012
  -1  -1   2 3141.78   21.06  88-0.48587 0.41138 0.86409-0.90417-0.05927 0.23249
  -1   1  -4  292.41    7.47  88-0.48587 0.18775 0.86410-0.82488-0.05928-0.43490
  -1   3  -5  295.18    6.52  87-0.48488 0.14994 0.86316-0.74687-0.04871-0.55637
  -1   3   5    8.60    5.73  87-0.48528 0.52393 0.86355-0.74829-0.05291 0.55712
  -1   9  -7   28.20    9.27  87-0.48515 0.07609 0.86342-0.51392-0.05152-0.77711
  -1   9   7  175.60    7.03  87-0.48500 0.60025 0.86328-0.51619-0.04998 0.77651
   0   0  -1    2.96    5.86  87-0.48562 0.44798 0.86386-0.86381-0.05650-0.05517
   0   4  -5   58.93    6.59  87-0.48569 0.30024 0.86392-0.70746-0.05726-0.49751
   0   4   4  416.47    7.76  87-0.48540 0.63590 0.86366-0.70813-0.05419 0.49806
   0  10  -7    2.49    9.45  88-0.48556 0.22445 0.86381-0.47537-0.05587-0.72329
   0  10   6  517.06   10.01  88-0.48571 0.71224 0.86395-0.47697-0.05752 0.72302
   1   6   3   61.53    6.08  88-0.48560 0.74780 0.86385-0.63022-0.05635 0.43911
   1   9  -6    0.19    5.56  87-0.48476 0.40967 0.86304-0.51268-0.04745-0.56953
   1  12   5   85.47    8.03  87-0.48535 0.82267 0.86361-0.39740-0.05364 0.65717
   1  13  -7    4.32    7.57  87-0.48496 0.37431 0.86324-0.35609-0.04956-0.67824
   2   8  -4  735.81    9.50  87-0.48531 0.63469 0.86358-0.55104-0.05327-0.29149
   2  10  -5  288.03    7.82  87-0.48501 0.59717 0.86328-0.47302-0.05003-0.40520
   2  13  -6    3.69    8.64  87-0.48544 0.56111 0.86370-0.35597-0.05461-0.51221
   2  18   4    3.68   10.97  88-0.48602 0.93685 0.86423-0.16371-0.06092 0.60462
   3  12  -2  166.38    9.60  88-0.48644 0.86005 0.86461-0.39615-0.06566-0.00659
   3  14  -4    2.62    7.98  88-0.48597 0.78467 0.86419-0.31734-0.06042-0.23383
   3  17  -5    5.11   10.60  88-0.48661 0.75008 0.86476-0.20044-0.06766-0.33894
   3  18  -5  459.98   12.43  87-0.48534 0.74789 0.86360-0.16301-0.05356-0.35251
  -6  -1   4  270.87   12.00  89-0.48813-0.25400 0.86591-0.90975-0.08629 0.23004
  -6   1   6  333.06   11.81  89-0.48703-0.18078 0.86502-0.83166-0.07260 0.43752
  -5   5   8   -1.20   11.40  89-0.48704 0.04263 0.86503-0.67351-0.07271 0.71110
  -4  -2   4  566.23    9.36  89-0.48713 0.04124 0.86510-0.94655-0.07373 0.31739
  -4   3   7  460.05    9.57  89-0.48749 0.15467 0.86540-0.75437-0.07812 0.65419
  -3  -3   2  457.48   10.90  89-0.48817 0.11577 0.86594-0.98488-0.08677 0.15869
  -3  -1  -3   21.57    6.94  88-0.48670-0.07142 0.86473-0.90574-0.06867-0.41538
  -3   4   7  219.06    8.41  88-0.48700 0.30270 0.86499-0.71315-0.07220 0.69776
  -2  -2  -2   49.19    6.46  88-0.48719 0.11459 0.86515-0.94402-0.07447-0.24795
  -2  -1  -3  254.30    7.84  88-0.48673 0.07720 0.86476-0.90488-0.06901-0.36450
  -2   2  -5    7.30    7.13  89-0.48746 0.00438 0.86538-0.78792-0.07782-0.57586
  -2   6   7   14.86    5.66  88-0.48643 0.45196 0.86449-0.63388-0.06556 0.74279
  -2   8  -7   14.15   11.81  89-0.48723-0.07038 0.86518-0.55470-0.07495-0.80288
  -1   0   3 2670.09   15.98  88-0.48657 0.44993 0.86462-0.86580-0.06724 0.35109
  -1   5  -6 1125.49    9.76  88-0.48665 0.11573 0.86469-0.67106-0.06808-0.64798
  -1   6   6  518.64    8.64  89-0.48702 0.56316 0.86501-0.63369-0.07250 0.68753
  -1   8  -7  119.14   10.38  89-0.48725 0.07917 0.86521-0.55465-0.07526-0.75131
  -1  10   7  106.99    9.42  89-0.48733 0.60210 0.86527-0.47974-0.07624 0.80285
   0   1  -3  761.40    9.02  88-0.48665 0.37427 0.86469-0.82519-0.06808-0.26606
   0   2  -4 2769.98   15.00  89-0.48733 0.33810 0.86527-0.78629-0.07624-0.36805
   0   6  -6  139.23    7.80  88-0.48700 0.26460 0.86499-0.63184-0.07222-0.59378
   0   7   5 2177.33   13.32  89-0.48761 0.67571 0.86550-0.59485-0.07970 0.63458
   0   9  -7  243.62    9.26  89-0.48741 0.22803 0.86534-0.51479-0.07717-0.69909
   1   6  -5 1080.09    9.26  88-0.48632 0.44934 0.86440-0.62986-0.06430-0.44103
   1   8  -6   32.91    7.09  89-0.48741 0.41382 0.86534-0.55302-0.07718-0.53826
   1  12  -7   18.70    8.81  88-0.48665 0.37592 0.86469-0.39684-0.06808-0.65978
   1  13   5  104.94    8.88  89-0.48758 0.82545 0.86547-0.36112-0.07928 0.68403
   2   6  -2  564.50   10.42  89-0.48752 0.71181 0.86543-0.62987-0.07858-0.04360
   2   6  -1    3.41    7.24  89-0.48844 0.74956 0.86614-0.63097-0.09045 0.07838
   2  12  -6  878.38   11.00  89-0.48726 0.56298 0.86521-0.39704-0.07535-0.49018
   2  19   4    2.60   11.63  89-0.48732 0.93774 0.86526-0.12578-0.07607 0.61909
   3  16  -5    7.33    8.68  89-0.48755 0.74930 0.86545-0.24118-0.07893-0.32621
   3  17   1   81.15   15.64  91-0.49030 0.97642 0.86730-0.20413-0.11801 0.37878
  -6   0   5   -1.13    9.74  90-0.48844-0.21894 0.86618-0.87038-0.09048 0.34644
  -5   1   6  123.66    8.66  90-0.48894-0.02996 0.86653-0.83300-0.09740 0.51291
  -5   3   7  155.97    9.65  90-0.48875 0.00734 0.86640-0.75601-0.09474 0.62107
  -4   1  -4    1.28    9.85  89-0.48842-0.25543 0.86616-0.82927-0.09027-0.55362
  -4   1   6  352.35    8.86  89-0.48829 0.11733 0.86606-0.83113-0.08846 0.55296
  -4   6   8  107.92    8.12  89-0.48775 0.19221 0.86564-0.63781-0.08145 0.76811
  -3  -3  -1   64.01    9.18  90-0.48957 0.00570 0.86694-0.98556-0.10664-0.15421
  -3   0   5 5097.11   19.13  89-0.48818 0.22841 0.86599-0.86868-0.08710 0.49114
  -3   2  -5   37.47    8.54  90-0.48889-0.14231 0.86650-0.78990-0.09674-0.60813
  -3   2   6  444.85    8.48  90-0.48852 0.26643 0.86624-0.79243-0.09161 0.60680
  -3   5  -6   29.16    8.36  89-0.48781-0.18134 0.86570-0.67298-0.08229-0.73509
  -3   8   8   10.18   10.00  89-0.48834 0.34276 0.86610-0.55858-0.08911 0.82703
  -2   0  -4   33.45    6.50  90-0.48863 0.04206 0.86631-0.86695-0.09303-0.45047
  -2   4  -6  421.39    9.81  90-0.48886-0.03017 0.86647-0.71150-0.09624-0.66923
  -2  11   8  356.41   11.15  89-0.48810 0.49065 0.86592-0.44198-0.08597 0.87214
   0  11   6   66.99    8.05  89-0.48821 0.71363 0.86601-0.43985-0.08748 0.75196
   1   3  -3   24.02    5.62  89-0.48808 0.52509 0.86591-0.74751-0.08576-0.19922
   1   4  -4   50.47    5.82  89-0.48810 0.48852 0.86592-0.70911-0.08594-0.30877
   1   9   4   27.56    6.37  89-0.48798 0.78761 0.86583-0.51574-0.08445 0.57793
   1  11  -7    0.19    9.02  89-0.48830 0.37764 0.86607-0.43667-0.08859-0.63948
   2   9  -5 1561.31   11.90  89-0.48803 0.60083 0.86586-0.51423-0.08504-0.37002
   2  13   3  269.73    9.51  90-0.48857 0.90056 0.86627-0.36044-0.09225 0.52610
   2  16  -7   29.00   11.88  89-0.48839 0.52735 0.86614-0.24163-0.08979-0.58808
   3  12  -3 1784.61   15.48  89-0.48824 0.82524 0.86603-0.39707-0.08786-0.09515
   3  12  -1   61.71   11.62  91-0.49010 0.90084 0.86723-0.39820-0.11491 0.15234
   3  13  -4  189.62    8.60  89-0.48851 0.78798 0.86623-0.35878-0.09141-0.20206
   3  15  -5    8.67    9.67  90-0.48921 0.75253 0.86671-0.28020-0.10122-0.30535
  -5  -1  -2  338.48   13.25  91-0.49038-0.32676 0.86721-0.91038-0.11846-0.35224
  -4  -3   2  104.00    8.93  91-0.49051-0.02916 0.86727-0.98673-0.12064 0.14441
  -4  -2  -2  994.64   15.02  91-0.48996-0.17931 0.86699-0.94773-0.11162-0.30932
  -4   3  -5   93.29   11.04  90-0.48935-0.29111 0.86663-0.75203-0.10244-0.65449
  -4   7   8   10.24   10.55  91-0.48983 0.19565 0.86692-0.59908-0.10965 0.79798
  -3   0  -4    5.55    7.78  91-0.48960-0.10646 0.86679-0.86924-0.10607-0.48884
  -3   5   7   92.50    8.21  91-0.48969 0.30780 0.86684-0.67606-0.10748 0.73440
  -3   9   8  645.97   11.27  91-0.49005 0.34747 0.86704-0.52083-0.11310 0.85153
  -2   0   4 3286.85   16.37  91-0.48963 0.34220 0.86680-0.86833-0.10654 0.45142
  -2   4   6   57.67    6.33  90-0.48954 0.41737 0.86675-0.71303-0.10515 0.67030
  -2   7  -7  268.97   11.41  90-0.48939-0.06593 0.86666-0.59626-0.10307-0.77409
  -2   7   7   24.68    6.09  90-0.48902 0.45473 0.86642-0.59750-0.09762 0.77457
  -2  12   8   17.37   10.42  90-0.48950 0.49360 0.86673-0.40340-0.10459 0.89147
  -1   2  -5  210.30    6.06  90-0.48922 0.15479 0.86655-0.78902-0.10055-0.50436
  -1   2   4  334.25    7.15  91-0.48999 0.49271 0.86701-0.78962-0.11219 0.50686
  -1   4  -6   80.15    8.04  90-0.48962 0.11824 0.86680-0.71181-0.10648-0.60943
  -1   4   5  121.17    6.61  90-0.48956 0.52921 0.86676-0.71208-0.10548 0.61035
  -1   7  -7   10.19    9.91  90-0.48942 0.08019 0.86668-0.59455-0.10349-0.72434
  -1   7   6  256.08    8.18  91-0.48974 0.56826 0.86687-0.59625-0.10818 0.72382
  -1  11   7    0.53    6.74  90-0.48919 0.60354 0.86653-0.43965-0.10013 0.82865
   0   0  -2  164.02    6.99  91-0.48990 0.41397 0.86696-0.86690-0.11071-0.11274
   0   3  -5 1937.17   12.47  90-0.48969 0.30267 0.86684-0.75003-0.10746-0.44769
   0   5  -6  220.38    7.82  91-0.48973 0.26590 0.86686-0.67247-0.10813-0.55761
   0   8  -7  167.15    9.55  90-0.48951 0.23096 0.86673-0.55594-0.10481-0.67174
   0  12   6  166.28    9.09  91-0.48987 0.71856 0.86694-0.40121-0.11029 0.77521
   1   5  -5  415.19    8.00  91-0.48979 0.45131 0.86690-0.67169-0.10906-0.39669
   1   7  -6  262.39    7.67  91-0.48986 0.41419 0.86694-0.59442-0.11013-0.50610
   1  10  -7   96.08    8.60  91-0.48985 0.37707 0.86693-0.47829-0.10999-0.61742
   1  14   5  256.30    9.91  90-0.48954 0.82796 0.86675-0.32216-0.10527 0.70869
   2   6  -3   -0.71    5.72  91-0.48984 0.67425 0.86693-0.63309-0.10978-0.12339
   2   7  -4   32.43    6.06  90-0.48941 0.63937 0.86667-0.59217-0.10332-0.24092
   2   8   1   17.59    8.06  92-0.49067 0.82730 0.86733-0.55428-0.12334 0.33341
   2  10   2  417.91   10.20  91-0.48973 0.86448 0.86687-0.47629-0.10816 0.42942
   2  11  -6    3.56    7.49  90-0.48934 0.56521 0.86663-0.43638-0.10223-0.46597
   2  15  -7  163.65   10.59  90-0.48940 0.52864 0.86666-0.28311-0.10310-0.57392
  -6   2   6   16.26   11.00  92-0.49069-0.17653 0.86735-0.79496-0.12477 0.49070
  -5  -2  -1  227.94   15.26  92-0.49142-0.28868 0.86757-0.94934-0.13877-0.22248
  -5   0   5  146.69    8.09  92-0.49104-0.06521 0.86748-0.87271-0.13128 0.43680
  -4  -1  -3  585.14   11.35  91-0.49068-0.21555 0.86735-0.90964-0.12461-0.40724
  -4   0   5    0.85    6.65  91-0.49064 0.08072 0.86733-0.87295-0.12398 0.48187
  -4   4   7   35.44    6.12  91-0.49025 0.15826 0.86716-0.71558-0.11729 0.69508
  -3  -2   3 2279.00   16.21  92-0.49096 0.15627 0.86745-0.94813-0.12982 0.31303
  -3  -1   4  210.65    6.70  91-0.49039 0.19451 0.86722-0.90806-0.11965 0.41473
  -3   4  -6   34.12   10.54  91-0.49044-0.17927 0.86724-0.71420-0.12040-0.69644
  -2  -2   2 4314.21   25.22  92-0.49091 0.26708 0.86743-0.94730-0.12882 0.25119
  -2   2   5   -1.12    5.88  92-0.49057 0.37971 0.86730-0.79072-0.12273 0.57881
  -2   8   7   68.01    7.92  92-0.49083 0.45696 0.86741-0.55958-0.12735 0.80445
  -1  12   7   26.22    9.54  92-0.49059 0.60562 0.86731-0.40243-0.12315 0.84946
   0   3   3   77.67    4.57  91-0.49017 0.60442 0.86712-0.74976-0.11603 0.44991
   0   5   4  235.27    5.75  91-0.49010 0.64216 0.86708-0.67219-0.11478 0.55863
   0   8   5  207.50    7.55  91-0.49056 0.67949 0.86730-0.55612-0.12251 0.67659
   1   7   3   28.74    6.07  92-0.49084 0.75328 0.86741-0.59470-0.12749 0.51091
   1  10   4  119.14    7.30  92-0.49079 0.79123 0.86739-0.47878-0.12654 0.62042
   1  15   5  202.12   10.03  92-0.49069 0.82975 0.86735-0.28464-0.12487 0.72943
   2   8  -5  285.64    7.80  91-0.49059 0.60176 0.86731-0.55552-0.12306-0.33321
   2  10  -6  389.04    9.17  92-0.49077 0.56500 0.86738-0.47739-0.12619-0.44013
   2  14  -7    3.75    9.59  91-0.49030 0.52929 0.86718-0.32033-0.11813-0.55969
   2  14   3   24.56    8.76  92-0.49122 0.90274 0.86753-0.32275-0.13473 0.56690
   3  12  -4   38.46    7.03  91-0.49069 0.78883 0.86735-0.39885-0.12481-0.17018
   3  14  -5  571.38   10.80  91-0.49044 0.75099 0.86725-0.32222-0.12045-0.28690
   3  17  -6  157.22   10.86  92-0.49103 0.71580 0.86747-0.20601-0.13106-0.38572
   3  18  -6   15.95   12.11  91-0.49049 0.71662 0.86727-0.16418-0.12127-0.39584
  -6  -1   3   52.17   10.99  93-0.49201-0.28773 0.86758-0.91164-0.15402 0.18686
  -5  -2   3    7.96    7.79  92-0.49133-0.14030 0.86755-0.94958-0.13883 0.22198
  -5   0  -3  237.75   12.79  93-0.49171-0.36180 0.86759-0.87140-0.14706-0.43648
  -5   2   6   43.55    8.26  93-0.49172-0.02769 0.86759-0.79574-0.14721 0.56278
  -5   4   7   54.61    9.16  92-0.49114 0.01044 0.86751-0.71692-0.13510 0.66184
  -4   2   6  382.54    9.09  92-0.49130 0.12057 0.86755-0.79374-0.13838 0.60326
  -4   8   8   47.97   10.04  92-0.49129 0.19714 0.86755-0.56082-0.13802 0.82434
  -3   3   6  917.33    9.84  93-0.49137 0.26915 0.86756-0.75425-0.13974 0.65468
  -3   6   7  415.13    9.45  93-0.49145 0.30742 0.86757-0.63883-0.14140 0.76776
  -3  10   8    5.14    9.74  92-0.49129 0.34636 0.86755-0.48240-0.13816 0.87435
  -2  -1   3 3540.51   18.92  92-0.49121 0.30517 0.86753-0.90814-0.13658 0.36962
  -2   1  -5  454.92    8.97  92-0.49114 0.00812 0.86751-0.83015-0.13509-0.51992
  -2   3  -6  325.73   10.04  92-0.49135-0.02808 0.86756-0.75299-0.13927-0.62669
  -2   5   6    1.25    6.27  93-0.49152 0.41889 0.86758-0.67449-0.14283 0.71267
  -2   6  -7    6.63    8.29  92-0.49099-0.06665 0.86747-0.63525-0.13219-0.74558
  -1  -1  -3  285.99    7.50  92-0.49114 0.23000 0.86752-0.90714-0.13514-0.24874
  -1   0  -4    2.76    4.24  92-0.49103 0.19279 0.86749-0.86808-0.13302-0.36155
  -1   6  -7   22.89    6.90  92-0.49108 0.08245 0.86750-0.63452-0.13386-0.69387
  -1   8   6   41.90    7.30  93-0.49148 0.56840 0.86758-0.55957-0.14194 0.75781
  -1  13   7    3.00   10.12  93-0.49147 0.60717 0.86758-0.36368-0.14179 0.86879
   0   7  -7   94.26    6.98  92-0.49103 0.23123 0.86749-0.59570-0.13302-0.64399
   0  13   6  117.85    8.39  92-0.49112 0.71747 0.86751-0.36337-0.13475 0.79957
   1   5   2 2767.58   19.72  92-0.49115 0.71583 0.86752-0.67177-0.13534 0.40750
   1   9  -7  185.07    8.67  92-0.49118 0.38009 0.86752-0.51789-0.13594-0.59103
   1  16   5  133.47   10.30  93-0.49153 0.82998 0.86758-0.24661-0.14302 0.74874
   2  13  -7   88.88    9.41  92-0.49114 0.52942 0.86751-0.36198-0.13511-0.54209
   3  11  -3   15.14    6.65  92-0.49130 0.82792 0.86755-0.43745-0.13835-0.04509
   3  11  -2  268.74   10.15  92-0.49146 0.86521 0.86757-0.43718-0.14160 0.06972
   3  13  -5   39.09    8.35  93-0.49155 0.75318 0.86759-0.35937-0.14355-0.26181
   3  14   0   36.81   18.30 101-0.49295 0.94118 0.85983-0.31282-0.27430 0.42421
   3  16  -6   35.35   10.00  93-0.49154 0.71632 0.86758-0.24354-0.14323-0.37268
   3  18   1  343.59   17.57  95-0.49269 0.97890 0.86730-0.16499-0.17309 0.43552
  -6   1   5   90.38   10.34  94-0.49208-0.21293 0.86760-0.83405-0.15671 0.41156
  -5  -1   4  201.23    8.48  93-0.49190-0.10189 0.86763-0.91079-0.15237 0.34595
  -4  -3  -1   53.66   11.37  95-0.49284-0.13902 0.86716-0.98673-0.17943-0.13172
  -4  -1   4  247.09    7.91  94-0.49223 0.04693 0.86756-0.91020-0.16077 0.40489
  -4   0  -4  974.04   13.62  94-0.49220-0.24976 0.86757-0.87053-0.15999-0.48401
  -4   2  -5   40.07   11.81  93-0.49196-0.28858 0.86762-0.79350-0.15390-0.60206
  -4   5   7  115.74    8.96  93-0.49202 0.15874 0.86762-0.67720-0.15518 0.73079
  -4   9   8   -3.95   11.11  94-0.49215 0.19740 0.86759-0.51995-0.15854 0.84962
  -3   1  -5   21.34    9.10  93-0.49191-0.13979 0.86763-0.83110-0.15250-0.55310
  -3   1   5    8.00    4.65  93-0.49167 0.23270 0.86764-0.83173-0.14709 0.55281
  -3   3  -6  190.01   11.64  94-0.49218-0.17546 0.86758-0.75266-0.15944-0.65596
  -3  11   8   12.98   11.08  94-0.49210 0.34729 0.86760-0.44281-0.15728 0.89531
  -2   9   7  371.43    9.56  94-0.49205 0.45687 0.86761-0.52082-0.15615 0.83219
  -1   1  -5  136.11    7.49  93-0.49207 0.15789 0.86760-0.82942-0.15665-0.44819
  -1   3  -6  235.61    6.82  93-0.49173 0.12099 0.86764-0.75154-0.14834-0.56745
  -1   5   5  429.23    7.91  93-0.49202 0.53050 0.86762-0.67435-0.15531 0.65990
  -1  14   7  720.19   12.69  94-0.49214 0.60759 0.86759-0.32636-0.15843 0.88554
   0   1  -4  954.83    9.17  93-0.49171 0.34264 0.86764-0.82831-0.14792-0.29671
   0   2  -5   56.93    6.41  94-0.49225 0.30594 0.86756-0.78947-0.16122-0.39382
   0   4  -6  586.47    7.49  93-0.49175 0.26936 0.86764-0.71196-0.14875-0.51680
   0   9   5  101.38    7.32  94-0.49215 0.68059 0.86759-0.51900-0.15847 0.71338
   0  10  -8    5.02    8.60  93-0.49178 0.19388 0.86764-0.47954-0.14959-0.73903
   0  14   6  908.92   12.40  93-0.49202 0.71792 0.86762-0.32406-0.15525 0.82034
   1   2  -2   81.62    4.94  93-0.49184 0.56686 0.86764-0.78841-0.15084-0.02191
   1   3  -4    6.07    4.03  93-0.49178 0.49163 0.86764-0.75002-0.14959-0.24494
   1   4  -5  127.83    6.74  94-0.49213 0.45511 0.86759-0.71065-0.15803-0.34718
   1   6  -6  460.67    6.98  93-0.49167 0.41809 0.86764-0.63357-0.14709-0.46871
   1   8  -7   19.06    8.00  94-0.49230 0.38122 0.86754-0.55568-0.16250-0.56469
   1  12  -8    3.69   11.46  94-0.49208 0.34392 0.86760-0.40070-0.15687-0.68223
   1  17   5  104.89   10.94  94-0.49216 0.83113 0.86758-0.20759-0.15884 0.76399
   2   6  -4  166.59    6.84  94-0.49211 0.64145 0.86760-0.63239-0.15753-0.18661
   2   9  -6   37.30    7.66  93-0.49207 0.56788 0.86761-0.51580-0.15658-0.40935
   2  12  -7   10.97    9.61  94-0.49205 0.53104 0.86761-0.39911-0.15591-0.52282
   2  15   3  222.08   10.35  94-0.49251 0.90414 0.86743-0.28322-0.16861 0.60154
   3  11  -4  346.21    8.45  94-0.49232 0.79124 0.86753-0.43777-0.16313-0.13045
   3  15  -6   76.43   10.25  94-0.49217 0.71705 0.86758-0.28238-0.15908-0.35656
  -6   0   4  699.53   12.79  95-0.49269-0.24955 0.86734-0.87238-0.17235 0.31649
  -6   3   6   18.30   11.12  95-0.49269-0.17424 0.86733-0.75561-0.17262 0.53872
  -5   5   7   81.67   10.21  94-0.49266 0.01095 0.86736-0.67763-0.17150 0.69751
  -4  -2   3   63.40    6.89  94-0.49263 0.00950 0.86738-0.94836-0.17075 0.30356
  -3  -2  -3 1338.28   13.53  94-0.49258-0.06528 0.86742-0.94798-0.16893-0.31441
  -3  -1  -4  583.87   10.62  95-0.49283-0.10151 0.86721-0.90802-0.17734-0.41621
  -3   7   7   69.94    8.63  95-0.49271 0.30965 0.86732-0.59836-0.17330 0.79995
  -3  12   8   39.82   11.65  95-0.49276 0.34848 0.86728-0.40408-0.17487 0.91362
  -2  -2  -3   81.41    6.79  94-0.49267 0.08306 0.86735-0.94675-0.17190-0.26162
  -2  -1  -4  128.57    7.19  94-0.49262 0.04634 0.86739-0.90808-0.17022-0.37391
  -2   3   5   38.53    6.11  95-0.49281 0.38311 0.86724-0.75297-0.17635 0.63135
  -2   5  -7   38.29    8.39  94-0.49242-0.06483 0.86750-0.67482-0.16433-0.71300
  -1  -2  -1 9999.99   49.80  95-0.49289 0.30522 0.86715-0.94600-0.17945 0.01754
  -1   1   3 2544.48   15.88  94-0.49262 0.45602 0.86739-0.82897-0.17017 0.45362
  -1   5  -7  140.68    7.68  94-0.49248 0.08433 0.86747-0.67440-0.16599-0.66058
  -1   9   6   10.12    7.27  94-0.49272 0.57044 0.86731-0.51846-0.17353 0.79033
  -1  15   7   -4.37   11.19  95-0.49272 0.60756 0.86731-0.28408-0.17346 0.90220
   0   0  -3    3.95    4.08  94-0.49250 0.38035 0.86746-0.86744-0.16682-0.16663
   0   2   2  625.76   10.19  95-0.49287 0.56871 0.86717-0.78884-0.17860 0.40162
   0   6  -7  111.49    6.42  94-0.49239 0.23271 0.86752-0.63473-0.16350-0.61322
   0   6   4 1543.40   11.92  95-0.49270 0.64320 0.86733-0.63401-0.17269 0.61678
   0   9  -8   10.74   11.27  94-0.49267 0.19567 0.86735-0.51721-0.17201-0.71707
   0  15   6   12.61   10.10  95-0.49268 0.71946 0.86734-0.28434-0.17232 0.83758
   1   2  -3  966.45   10.89  95-0.49279 0.52974 0.86725-0.78811-0.17594-0.10798
   1  11  -8  217.88   11.60  94-0.49275 0.34506 0.86729-0.43965-0.17444-0.66293
   1  11   4  408.27    8.73  94-0.49254 0.79243 0.86744-0.43929-0.16791 0.66148
   1  18   5  110.15   11.50  95-0.49269 0.83130 0.86733-0.16774-0.17259 0.77756
   1  19   5    6.96   12.93  95-0.49289 0.83357 0.86715-0.12699-0.17940 0.78586
   2   7  -5   63.01    5.11  94-0.49239 0.60469 0.86752-0.59387-0.16350-0.29144
   2  11  -7   47.61    9.32  94-0.49276 0.53041 0.86728-0.43798-0.17463-0.50246
   2  11   2   16.63    7.82  95-0.49303 0.86749 0.86697-0.43746-0.18481 0.50683
   3  12  -5   -2.25    7.72  94-0.49268 0.75466 0.86734-0.39796-0.17222-0.23341
   3  14  -6   10.61    8.66  94-0.49279 0.71664 0.86725-0.32101-0.17594-0.33932
   3  19   1   17.64   15.40  97-0.49349 0.97979 0.86570-0.12537-0.21082 0.47217
  -5   1   5  353.85    9.53  96-0.49301-0.06287 0.86677-0.83237-0.19406 0.49952
  -5   3   6   10.01    7.97  96-0.49297-0.02688 0.86686-0.75475-0.19211 0.60986
  -4  -3   1 1680.31   25.52  98-0.49334-0.06472 0.86492-0.98436-0.22476 0.13639
  -4   1   5 1867.90   13.00  96-0.49294 0.08492 0.86692-0.83190-0.19067 0.54590
  -4   3   6  101.66    5.92  95-0.49277 0.12226 0.86720-0.75447-0.18340 0.64908
  -4   6   7    4.52    8.81  95-0.49285 0.16091 0.86708-0.63714-0.18671 0.76448
  -4  10   8  204.02    9.00  95-0.49275 0.19794 0.86723-0.48321-0.18257 0.87006
  -3  -3   1   78.59    9.41  97-0.49324 0.08355 0.86598-0.98477-0.20901 0.17059
  -3   4   6  166.17    5.79  95-0.49273 0.27129 0.86725-0.71512-0.18174 0.69768
  -2  -3  -1 4525.48   34.24  96-0.49317 0.15724 0.86628-0.98445-0.20392-0.00744
  -2   0  -5    0.96    7.57  96-0.49296 0.00669 0.86688-0.86871-0.19167-0.46243
  -2   1   4  416.18    6.65  95-0.49273 0.34474 0.86725-0.83040-0.18174 0.52622
  -2   2  -6  573.55   10.21  95-0.49278-0.02658 0.86719-0.79170-0.18360-0.58238
  -2   6   6  153.57    5.58  95-0.49277 0.42047 0.86720-0.63657-0.18340 0.74926
  -2  10   7   74.97    6.52  95-0.49269 0.45822 0.86731-0.48165-0.18008 0.85695
  -1   2  -6    4.58    7.77  96-0.49297 0.12071 0.86685-0.78949-0.19217-0.52377
  -1   3   4    6.88    3.89  95-0.49269 0.49414 0.86731-0.75155-0.18008 0.57462
  -1  16   7    6.13   11.80  95-0.49287 0.60892 0.86705-0.24586-0.18750 0.91441
   0   3  -6   18.80    6.90  96-0.49295 0.26951 0.86690-0.74997-0.19103-0.47505
   0   8  -8  298.28   10.71  96-0.49301 0.19676 0.86676-0.55610-0.19423-0.69251
   0  10   5   10.30    7.05  96-0.49298 0.68209 0.86684-0.47808-0.19258 0.74824
   0  16   6    3.83    9.57  96-0.49290 0.71920 0.86699-0.24653-0.18887 0.85262
   1   2  -1   29.83    5.99  95-0.49287 0.60510 0.86705-0.78826-0.18745 0.12570
   1   5  -6   17.34    6.41  95-0.49284 0.41886 0.86711-0.67204-0.18594-0.43052
   1   7  -7  105.27    8.44  95-0.49295 0.38201 0.86690-0.59421-0.19102-0.53528
   1   8   3   48.80    6.32  96-0.49298 0.75550 0.86683-0.55545-0.19268 0.57578
   1  10  -8   35.19    9.93  96-0.49301 0.34508 0.86677-0.47725-0.19404-0.64307
   2   5  -3   47.56    6.10  96-0.49295 0.67945 0.86690-0.67070-0.19104-0.04212
   2   5  -2   -0.78    6.40  96-0.49311 0.71701 0.86650-0.67071-0.19970 0.07766
   2   8  -6  634.74    9.52  95-0.49290 0.56818 0.86700-0.55524-0.18876-0.37709
   2  16   3   39.16   10.19  96-0.49303 0.90550 0.86673-0.24392-0.19505 0.62854
   3  10  -3  416.46    9.44  96-0.49299 0.82899 0.86683-0.47575-0.19283 0.01006
  -6  -1   2   38.89   12.49  98-0.49328-0.32320 0.86521-0.90868-0.22406 0.14724
  -6   2   5   46.87   10.80  97-0.49323-0.21110 0.86586-0.79280-0.21481 0.47033
  -5   6   7   26.29   10.31  96-0.49311 0.01241 0.86649-0.63694-0.20431 0.73120
  -4   1  -5    7.24   11.56  97-0.49316-0.28849 0.86627-0.83017-0.20824-0.54719
  -3  -3  -2  418.99   10.11  96-0.49313-0.02791 0.86641-0.98539-0.20572-0.16647
  -3   0  -5  575.95   11.11  97-0.49317-0.13822 0.86621-0.86814-0.20921-0.49497
  -3   0   4    1.79    4.02  96-0.49303 0.19633 0.86677-0.86913-0.19899 0.49330
  -3   2  -6    5.70   11.34  96-0.49312-0.17686 0.86644-0.79066-0.20518-0.61115
  -3   2   5  237.58    7.24  97-0.49313 0.23411 0.86641-0.79108-0.20582 0.61083
  -3   8   7  554.31    9.47  96-0.49309 0.30956 0.86657-0.55831-0.20288 0.82894
  -2   4  -7   15.66    8.20  96-0.49303-0.06529 0.86677-0.71264-0.19899-0.67871
  -2  11   7   40.08    8.43  97-0.49311 0.45938 0.86649-0.44101-0.20444 0.88017
  -1  -2  -2    8.92    4.22  96-0.49302 0.26949 0.86682-0.94530-0.19817-0.07357
  -1  -1  -4  302.43    7.60  97-0.49316 0.19481 0.86625-0.90543-0.20848-0.28557
  -1   4  -7    8.43    8.91  96-0.49309 0.08296 0.86659-0.71201-0.20245-0.62692
  -1   6   5 1021.01    9.03  96-0.49304 0.53223 0.86673-0.63455-0.19982 0.70503
  -1  10   6  115.62    7.61  96-0.49311 0.57035 0.86651-0.47878-0.20399 0.81929
   0   4   3  269.25    6.97  96-0.49309 0.60621 0.86659-0.71044-0.20251 0.53590
   0   5  -7  483.76    7.79  96-0.49299 0.23294 0.86690-0.67309-0.19652-0.58024
   0  17   6  197.61    8.89  96-0.49302 0.72071 0.86682-0.20744-0.19817 0.86466
   0  18   6  225.29   12.71  97-0.49316 0.72165 0.86627-0.16835-0.20816 0.87454
   1   3  -5   10.47    6.26  97-0.49318 0.45560 0.86617-0.74859-0.20981-0.29540
   1  12   4  172.52    7.85  96-0.49310 0.79333 0.86654-0.39943-0.20352 0.69689
   2   6  -5  305.12    7.87  97-0.49315 0.60481 0.86634-0.63164-0.20709-0.24812
   2  10  -7   72.65    6.88  96-0.49303 0.53116 0.86677-0.47758-0.19899-0.47764
   2  17   3  413.11   12.61  97-0.49326 0.90543 0.86549-0.20352-0.22020 0.65334
   3  10  -4  243.48    8.34  96-0.49314 0.79191 0.86640-0.47594-0.20605-0.08801
   3  11  -5  123.80    7.92  96-0.49309 0.75477 0.86659-0.43762-0.20256-0.20205
   3  13  -6  157.30    8.99  96-0.49303 0.71770 0.86677-0.36038-0.19899-0.31679
   3  20   1  159.04   17.30  99-0.49327 0.97976 0.86423-0.08470-0.23607 0.49825
  -6   4   6  116.47    8.61  97-0.49318-0.17378 0.86577-0.71512-0.21448 0.58126
  -5  -2   2    8.51    8.98  98-0.49324-0.17571 0.86472-0.94622-0.22881 0.20128
  -5   0   4   -0.19    8.24  98-0.49324-0.10309 0.86455-0.86727-0.23090 0.42627
  -4  -2  -3  119.81   10.49  98-0.49324-0.21233 0.86489-0.94566-0.22667-0.30600
  -4   4   6  615.64    9.88  98-0.49324 0.12301 0.86499-0.71359-0.22535 0.69129
  -4   7   7 1055.58   11.27  97-0.49321 0.16090 0.86551-0.59683-0.21822 0.79468
  -3   5   6  129.64    7.28  98-0.49323 0.27179 0.86519-0.67356-0.22265 0.73833
  -3   9   7  246.93    8.76  98-0.49324 0.30959 0.86483-0.51851-0.22739 0.85447
  -2   4   5  735.10    8.79  98-0.49324 0.38296 0.86482-0.71119-0.22749 0.68261
  -2   7   6  313.17    7.83  97-0.49322 0.42076 0.86535-0.59452-0.22046 0.78575
  -2  12   7    4.38    9.19  98-0.49323 0.45968 0.86519-0.40010-0.22271 0.90062
  -1   0  -5  225.25    6.12  97-0.49319 0.15797 0.86568-0.86706-0.21572-0.38913
  -1   0   2    5.01    4.99  97-0.49322 0.41886 0.86540-0.86641-0.21977 0.39107
  -1  11   6  460.69    8.81  98-0.49324 0.57037 0.86475-0.43895-0.22834 0.84435
   0   0  -4 2876.50   15.42  97-0.49323 0.34379 0.86519-0.86553-0.22265-0.22200
   0   1  -5  411.75    7.93  97-0.49321 0.30670 0.86547-0.82713-0.21877-0.33647
   0   7  -8   86.99   10.77  97-0.49322 0.19690 0.86526-0.59507-0.22171-0.66604
   0   7   4    3.31    5.79  97-0.49323 0.64439 0.86514-0.59293-0.22330 0.66815
   0  11   5  284.78    8.35  98-0.49323 0.68195 0.86514-0.43841-0.22330 0.77857
   1   2  -4  347.11    7.36  97-0.49321 0.49270 0.86551-0.78729-0.21820-0.17696
   1   4  -6  350.96    7.76  98-0.49324 0.41884 0.86500-0.70862-0.22525-0.39031
   1   4   1  832.42   15.24  98-0.49323 0.68099 0.86418-0.70690-0.23518 0.39644
   1   6  -7  642.98   10.03  97-0.49323 0.38195 0.86518-0.63216-0.22278-0.50381
   1   9  -8   95.77    9.82  97-0.49321 0.34518 0.86549-0.51698-0.21848-0.61982
   2   5  -4  134.02    6.33  97-0.49320 0.64221 0.86559-0.67008-0.21704-0.12776
   2   7  -6  303.21    8.26  97-0.49323 0.56803 0.86520-0.59230-0.22262-0.34337
   2   9  -7  353.07    9.92  98-0.49323 0.53109 0.86509-0.51470-0.22400-0.45259
   2  12  -8   17.43   10.56  98-0.49324 0.49469 0.86475-0.39696-0.22844-0.56001
   3  10  -2  321.77   10.89  98-0.49324 0.86692 0.86448-0.47346-0.23170 0.15958
   3  12  -6    0.68    8.83  97-0.49323 0.71767 0.86525-0.39671-0.22188-0.29472
   3  15  -7   59.71   11.60  97-0.49322 0.68097 0.86530-0.28201-0.22127-0.40580
   3  21   1   33.85   17.29  99-0.49311 0.97965 0.86270-0.04511-0.25084 0.51227
  -6   1   4  277.95   11.41  99-0.49306-0.24810 0.86314-0.82864-0.24606 0.39237
  -5  -1  -3   35.46   12.75  99-0.49304-0.36112 0.86291-0.90661-0.24839-0.33352
  -5  -1   3   46.72    9.05  99-0.49299-0.13808 0.86254-0.90449-0.25205 0.33631
  -5   4   6   17.48    9.00  99-0.49312-0.02585 0.86394-0.71160-0.23760 0.65357
  -5   7   7    1.82    9.72  99-0.49313 0.01180 0.86407-0.59338-0.23608 0.76267
  -4  -1  -4    5.76    9.80  98-0.49312-0.25163 0.86393-0.90637-0.23773-0.40661
  -4   0   4  283.81    7.82  99-0.49311 0.04778 0.86373-0.86636-0.23988 0.48482
  -4   8   7   12.76    8.53  99-0.49308 0.16056 0.86336-0.55514-0.24380 0.82268
  -3  -1   3  589.66    9.38  99-0.49310 0.15859 0.86361-0.90447-0.24120 0.42530
  -2  -3  -2  108.75    7.16  98-0.49313 0.12051 0.86408-0.98269-0.23597-0.08638
  -2   0   3    5.53    5.28  99-0.49310 0.30745 0.86367-0.86460-0.24058 0.47502
  -2   1  -6   16.93    6.48  98-0.49314-0.02828 0.86456-0.82791-0.23035-0.53638
  -2   3  -7  148.22   11.57  98-0.49313-0.06274 0.86407-0.75024-0.23611-0.64054
  -2  13   7  101.34   10.04  99-0.49311 0.46047 0.86369-0.36064-0.24028 0.91798
  -1  -2  -3  208.29    7.21  99-0.49311 0.23150 0.86373-0.94240-0.23983-0.14375
  -1  -1   1   28.39    5.73  99-0.49307 0.38058 0.86320-0.90301-0.24548 0.30725
  -1   1  -6  156.17    8.37  98-0.49311 0.12144 0.86374-0.82625-0.23974-0.47543
  -1   3  -7   34.89    9.49  98-0.49312 0.08485 0.86389-0.74919-0.23817-0.58888
  -1   4   4   44.05    5.76  99-0.49309 0.49465 0.86346-0.70855-0.24280 0.63728
  -1   7   5    7.89    6.21  99-0.49311 0.53266 0.86371-0.59212-0.24004 0.74639
   0   1   1 2745.74   26.62  99-0.49311 0.53172 0.86377-0.82387-0.23942 0.35221
   0   2  -6    4.42    6.94  99-0.49312 0.26969 0.86387-0.78713-0.23838-0.42900
   0   4  -7   62.71    6.49  98-0.49314 0.23403 0.86446-0.71003-0.23158-0.54485
   1   6   2   19.83    5.75  99-0.49310 0.71833 0.86361-0.62933-0.24117 0.51315
   1   8  -8   30.86   10.21  99-0.49311 0.34488 0.86369-0.55216-0.24031-0.59720
   1  13   4  210.70    7.97  98-0.49313 0.79320 0.86423-0.35794-0.23427 0.72780
   2  12   2   27.23    8.24  99-0.49302 0.86724 0.86276-0.39466-0.24984 0.57162
   2  18   3   16.71   10.00  99-0.49312 0.90595 0.86394-0.16249-0.23754 0.67069
   2  19   3   17.56   12.14  99-0.49300 0.90613 0.86262-0.12217-0.25120 0.68446
   3  10  -5  956.83   11.00  98-0.49313 0.75512 0.86400-0.47420-0.23685-0.16807
   3  14  -7    9.34   10.86  98-0.49312 0.68136 0.86396-0.31782-0.23735-0.39012
  -6  -1  -1  131.19   27.92 102-0.49157-0.43720 0.85672-0.90118-0.29727-0.11264
  -6   0   3    0.58    9.09 100-0.49272-0.29068 0.86208-0.86587-0.25606 0.29016
  -6   5   6  194.40   11.79 100-0.49275-0.17413 0.86227-0.67191-0.25432 0.62124
  -5  -2  -2   42.34   12.69 100-0.49245-0.32429 0.86050-0.94260-0.26970-0.20130
  -5   2   5  652.36    9.80  99-0.49279-0.06301 0.86261-0.78805-0.25110 0.55691
  -5   8   7   98.77   10.06 100-0.49265 0.01207 0.86162-0.55454-0.26023 0.78836
  -4  -3  -2    3.78   10.14 100-0.49246-0.17718 0.86054-0.98016-0.26937-0.15212
  -4   2   5  116.81    5.87  99-0.49284 0.08550 0.86303-0.78823-0.24690 0.60291
  -3  -2  -4   -5.71    8.08 100-0.49270-0.10548 0.86195-0.94221-0.25728-0.33570
  -3  -2   2  103.66    7.69 100-0.49255 0.12041 0.86105-0.94059-0.26519 0.33838
  -3   1  -6  101.29   11.56  99-0.49276-0.17510 0.86237-0.82741-0.25336-0.56209
  -3   3   5  243.16    7.39 100-0.49269 0.23397 0.86186-0.74731-0.25809 0.66353
  -3   6   6   54.14    7.20 100-0.49268 0.27206 0.86184-0.63094-0.25829 0.77504
  -3  10   7  426.05    9.54  99-0.49277 0.30983 0.86245-0.47556-0.25258 0.87902
  -2  -2  -4  425.87    8.88  99-0.49281 0.04598 0.86273-0.94285-0.24992-0.29383
  -2  -1  -5  483.66    9.64  99-0.49274 0.00932 0.86221-0.90362-0.25483-0.39929
  -2   2   4   81.84    5.88  99-0.49276 0.34470 0.86238-0.78536-0.25325 0.59789
  -2   8   6  656.77    8.95  99-0.49278 0.42089 0.86250-0.55255-0.25213 0.81767
  -2  14   7    9.75   10.25  99-0.49273 0.45937 0.86216-0.31898-0.25536 0.93440
  -1   5  -8   38.66   11.94  99-0.49273 0.04710 0.86217-0.66889-0.25528-0.68220
  -1  12   6   73.02    7.82  99-0.49278 0.57022 0.86249-0.39682-0.25218 0.86757
   0   6  -8  335.70    8.72  99-0.49283 0.19586 0.86295-0.63154-0.24771-0.63950
   0  12   5  202.36    7.86  99-0.49278 0.68189 0.86251-0.39555-0.25208 0.80637
   1   5  -7    4.12    7.69  99-0.49273 0.38171 0.86213-0.66740-0.25558-0.47149
   1   9   3   93.38    6.71  99-0.49277 0.75539 0.86246-0.51122-0.25253 0.63491
   1  14   4   17.71    8.12 100-0.49270 0.79404 0.86191-0.31684-0.25759 0.75273
   2   5  -5  265.25    7.60  99-0.49274 0.60435 0.86223-0.66760-0.25465-0.20113
   2   6  -6  175.73    7.23 100-0.49267 0.56696 0.86178-0.62847-0.25879-0.30718
   2   8  -7   62.45    8.27  99-0.49278 0.53053 0.86253-0.55197-0.25180-0.42502
   2  11  -8  311.91    9.40  99-0.49283 0.49396 0.86295-0.43692-0.24771-0.54045
   2  20   3  168.35   13.67 100-0.49264 0.90586 0.86155-0.08315-0.26085 0.69425
   2  21   3  113.80   14.14 100-0.49250 0.90583 0.86076-0.04257-0.26758 0.70049
   3   9  -4    5.90    6.58  99-0.49278 0.79215 0.86254-0.51047-0.25178-0.04222
   3   9  -3   20.05    6.55 100-0.49272 0.82885 0.86210-0.51023-0.25586 0.07270
   3  11  -6  507.26    9.54  99-0.49283 0.71720 0.86295-0.43507-0.24771-0.26864
   3  13  -7  207.26   11.28  99-0.49274 0.68015 0.86223-0.35706-0.25464-0.37251
   4  19  -4    2.81   13.55 101-0.49244 0.94309 0.86046-0.11891-0.27009 0.02600
  -6  -1   1  388.52   18.00 103-0.49133-0.36255 0.85582-0.89891-0.30359 0.11733
  -6   3   5  972.21   12.53 100-0.49257-0.21165 0.86100-0.74851-0.26632 0.52279
  -5   5   6 1232.90   12.67 101-0.49238-0.02659 0.86007-0.66990-0.27389 0.69059
  -4  -1   3  145.98    8.19 101-0.49226 0.00925 0.85953-0.90109-0.27804 0.41192
  -4   0  -5   -2.21   11.72 101-0.49249-0.29226 0.86059-0.86492-0.26972-0.48506
  -4   5   6  190.35    6.50 100-0.49262 0.12309 0.86132-0.67008-0.26364 0.73069
  -4   9   7   -0.54    9.41 101-0.49248 0.15897 0.86054-0.51102-0.27013 0.84893
  -3  -3  -3   81.37    8.62 101-0.49230-0.06534 0.85971-0.97876-0.27666-0.20604
  -3  -1  -5   15.67    8.99 100-0.49244-0.14010 0.86035-0.90182-0.27162-0.43314
  -3   1   4  206.54    6.90 101-0.49244 0.19538 0.86036-0.82350-0.27158 0.56617
  -3  11   7  107.05    9.74 101-0.49244 0.30926 0.86034-0.43532-0.27173 0.89966
  -2   2  -7  108.58   11.27 101-0.49239-0.06455 0.86013-0.78446-0.27337-0.60272
  -2   5   5  258.47    7.18 101-0.49240 0.38228 0.86017-0.66747-0.27309 0.72852
  -2  15   7  189.04   11.58 101-0.49246 0.45891 0.86047-0.27893-0.27068 0.94798
  -1  -1  -5  133.96    6.99 101-0.49231 0.15743 0.85973-0.89976-0.27651-0.32834
  -1   2  -7  596.70   10.39 101-0.49235 0.08418 0.85993-0.78358-0.27495-0.55071
  -1   2   3  983.32    9.98 100-0.49266 0.45650 0.86155-0.78387-0.26161 0.54563
  -1  13   6  163.07    8.99 101-0.49246 0.57015 0.86044-0.35628-0.27091 0.88737
   0  -1  -3  821.37   10.33 100-0.49248 0.38005 0.86057-0.90012-0.26988-0.06424
   0  -1  -2  145.85    5.73 100-0.49259 0.41712 0.86113-0.90056-0.26526 0.04199
   0   3  -7   58.61    8.30 100-0.49252 0.23265 0.86075-0.74588-0.26839-0.50814
   0   8   4 1060.58   10.44 101-0.49246 0.64334 0.86045-0.54907-0.27084 0.71522
   0  13   5  156.54    8.59 101-0.49238 0.68137 0.86007-0.35533-0.27383 0.82957
   1   1  -3 2556.04   16.24 101-0.49245 0.52938 0.86038-0.82092-0.27137-0.01303
   1   2  -5 1259.58    9.87 100-0.49261 0.45489 0.86122-0.78369-0.26445-0.24116
   1   3  -6  485.26    8.46 100-0.49249 0.41803 0.86058-0.74476-0.26975-0.34640
   1   7  -8  857.37   11.59 100-0.49255 0.34443 0.86090-0.59047-0.26714-0.57037
   2   4  -3  371.55    8.25 101-0.49237 0.67895 0.86001-0.70303-0.27434 0.04066
   2   9   1  182.46    9.47 101-0.49222 0.82900 0.85933-0.50726-0.27951 0.49071
   2  10  -8  215.37   11.32 100-0.49251 0.49379 0.86072-0.47413-0.26863-0.51927
   3   9  -5   13.06    7.12 101-0.49243 0.75421 0.86033-0.50862-0.27184-0.13330
   3  10  -6   36.30    7.75 101-0.49236 0.71696 0.85996-0.47019-0.27474-0.24085
   3  12  -7  434.79   11.34 101-0.49240 0.67971 0.86018-0.39283-0.27303-0.35322
   4  18  -4    5.17   12.82 101-0.49211 0.94209 0.85886-0.15642-0.28306 0.03910
   4  20  -3   36.56   15.60 101-0.49200 0.97883 0.85840-0.07974-0.28632 0.15284
  -6   6   6  164.84   11.91 102-0.49194-0.17501 0.85828-0.62997-0.28809 0.65538
  -5   9   7    4.07   11.05 102-0.49202 0.01013 0.85860-0.50960-0.28582 0.81432
  -4  -2   2  174.60    9.36 102-0.49168-0.02834 0.85725-0.93747-0.29514 0.31846
  -4  10   7   91.91    9.20 102-0.49179 0.15995 0.85768-0.47267-0.29225 0.87002
  -3   7   6 1173.14   10.53 102-0.49182 0.27077 0.85776-0.58822-0.29169 0.80816
  -3  12   7  444.30   10.10 102-0.49186 0.30925 0.85794-0.39477-0.29047 0.91841
  -2  -3  -3  312.68    8.37 101-0.49213 0.08250 0.85907-0.97781-0.28243-0.15078
  -2  -1   2 2120.65   17.50 102-0.49173 0.26815 0.85745-0.89765-0.29383 0.41672
  -2   0  -6  179.19    7.17 101-0.49221-0.02715 0.85943-0.86189-0.27977-0.48563
  -2   9   6   33.84    5.49 101-0.49223 0.41993 0.85948-0.51122-0.27936 0.84629
  -2  16   7   35.49   10.59 101-0.49212 0.45849 0.85902-0.23844-0.28278 0.95987
  -1  -2  -4   37.32    6.20 102-0.49193 0.19312 0.85823-0.93700-0.28844-0.20552
  -1   0  -6    0.42    7.91 101-0.49198 0.12000 0.85843-0.85849-0.28702-0.42770
  -1   4  -8   -2.85   11.61 102-0.49197 0.04400 0.85838-0.70555-0.28743-0.65075
  -1   8   5  508.54    7.24 101-0.49226 0.53153 0.85964-0.54970-0.27815 0.78359
  -1  14   6   21.28    9.11 102-0.49195 0.56983 0.85830-0.31426-0.28792 0.90552
   0   0  -5    5.44    4.65 101-0.49229 0.30597 0.85975-0.86012-0.27734-0.27793
   0   1  -6  272.88    7.98 101-0.49207 0.26937 0.85881-0.82071-0.28428-0.38145
   0   5  -8   -2.36    7.22 101-0.49229 0.19374 0.85975-0.66728-0.27734-0.61108
   0   5   3 2923.68   16.35 101-0.49227 0.60539 0.85969-0.66470-0.27775 0.61144
   1   1  -4 2290.21   14.03 102-0.49195 0.49160 0.85830-0.81878-0.28792-0.10695
   1   4  -7 1349.53   11.08 102-0.49188 0.38059 0.85801-0.70239-0.28996-0.43621
   1  15   4  494.93    9.90 101-0.49211 0.79242 0.85897-0.27521-0.28317 0.77682
   2   4  -4 1490.45   11.38 101-0.49226 0.64149 0.85964-0.70282-0.27815-0.06650
   2   7  -7   28.23    7.69 101-0.49216 0.53052 0.85918-0.58687-0.28162-0.39528
   2   9  -8   19.32    9.73 102-0.49188 0.49311 0.85801-0.50768-0.28996-0.49799
   3  11  -1  440.38   20.29 103-0.49074 0.90194 0.85389-0.42358-0.31606 0.35481
   4  17  -4    2.71   11.88 102-0.49144 0.94092 0.85635-0.19281-0.30106 0.05678
   4  18  -5   18.91   12.22 101-0.49201 0.90434 0.85856-0.15624-0.28613-0.06896
   4  19  -3  375.20   17.43 102-0.49146 0.97788 0.85641-0.11575-0.30069 0.16726
  -6   2   4  438.54   11.97 103-0.49090-0.25061 0.85484-0.78094-0.31092 0.45716
  -5   1   4  208.29    8.82 103-0.49131-0.10241 0.85627-0.82021-0.30206 0.49719
  -5   3   5  169.00    8.48 102-0.49135-0.06485 0.85641-0.74290-0.30113 0.60680
  -5   6   6  174.45    9.16 103-0.49102-0.02687 0.85525-0.62578-0.30841 0.72594
  -5  10   7  191.94   11.02 103-0.49110 0.01089 0.85552-0.47093-0.30673 0.83498
  -4   1   4  256.53    7.35 103-0.49096 0.04598 0.85502-0.81857-0.30978 0.55510
  -4   3   5   61.97    6.80 102-0.49146 0.08381 0.85681-0.74288-0.29855 0.65388
  -4   6   6  692.21    9.54 102-0.49138 0.12146 0.85653-0.62581-0.30037 0.76654
  -3   0  -6    2.86   11.10 103-0.49126-0.18128 0.85609-0.85927-0.30318-0.51234
  -3   4   5  217.65    7.27 103-0.49118 0.23289 0.85578-0.70224-0.30512 0.71123
  -3  13   7  219.37    9.74 103-0.49110 0.30922 0.85552-0.35303-0.30677 0.93525
  -2  10   6  421.97    8.84 103-0.49118 0.41998 0.85579-0.46899-0.30505 0.87192
  -1   5   4 2062.43   13.07 102-0.49135 0.49271 0.85642-0.66178-0.30110 0.69523
  -1  15   6  181.51    9.86 103-0.49125 0.56980 0.85605-0.27394-0.30342 0.92022
   0  -1  -4  960.51   10.13 102-0.49143 0.34197 0.85670-0.89627-0.29925-0.14533
   0   2  -7  107.72    7.96 103-0.49116 0.23103 0.85571-0.77848-0.30558-0.47023
   0   3   2   24.57    5.14 103-0.49112 0.56675 0.85558-0.73877-0.30639 0.52854
   0   4  -8   55.70    9.44 103-0.49110 0.19411 0.85551-0.70088-0.30682-0.58001
   0  14   5    7.84    6.00 102-0.49160 0.68080 0.85735-0.31268-0.29496 0.85099
   1   1  -2 3157.58   20.86 102-0.49165 0.56619 0.85753-0.81795-0.29376 0.12017
   1   6  -8  135.47    7.53 102-0.49162 0.34349 0.85741-0.62534-0.29456-0.54295
   1  10   3  424.44    8.72 103-0.49130 0.75408 0.85624-0.46636-0.30226 0.68518
   1  16   4   57.99    8.81 103-0.49133 0.79212 0.85634-0.23355-0.30160 0.79547
   2   4  -5  773.75    9.39 102-0.49127 0.60279 0.85613-0.70001-0.30293-0.15264
   2   5  -6    4.45    6.40 103-0.49133 0.56741 0.85633-0.66134-0.30169-0.26763
   2  13   2   87.82    7.80 103-0.49132 0.86574 0.85629-0.34951-0.30193 0.62392
   3   8  -4 1120.95   11.63 102-0.49134 0.79013 0.85637-0.54395-0.30141 0.00682
   3   9  -6  161.79    8.46 103-0.49121 0.71486 0.85591-0.50512-0.30435-0.21176
   3  11  -7  104.95    9.27 102-0.49153 0.67920 0.85707-0.42953-0.29686-0.33016
   4  17  -5   18.04   11.45 102-0.49136 0.90378 0.85644-0.19306-0.30098-0.05435
   4  18  -3    0.04   13.50 104-0.49043 0.97622 0.85325-0.15185-0.32015 0.18657
  -6   4   5   14.70    9.32 103-0.49068-0.21447 0.85468-0.70313-0.31225 0.56825
  -6   7   6   41.24   11.73 104-0.49032-0.17711 0.85351-0.58590-0.31910 0.68659
  -4  -2  -4   32.05   10.03 103-0.49032-0.25255 0.85350-0.93461-0.31912-0.32457
  -4  11   7  745.68    9.65 103-0.49071 0.15926 0.85478-0.43090-0.31166 0.89009
  -3   8   6  353.89    8.54 104-0.49022 0.26900 0.85318-0.54519-0.32094 0.83763
  -3  14   7    6.94   10.55 104-0.49026 0.30780 0.85329-0.31069-0.32032 0.95010
  -2  -2  -5    0.97    7.61 104-0.49032 0.00375 0.85348-0.93369-0.31924-0.33545
  -2   1  -7  311.91   11.80 103-0.49048-0.06596 0.85402-0.81845-0.31614-0.55983
  -2   3   4  460.64    7.82 103-0.49044 0.34238 0.85389-0.73771-0.31689 0.66129
  -2   6   5  310.12    7.19 103-0.49047 0.38034 0.85399-0.62160-0.31632 0.77137
  -1   1  -7   90.06    9.57 103-0.49039 0.08201 0.85372-0.81708-0.31789-0.50907
  -1   3  -8  181.43   11.96 103-0.49033 0.04551 0.85352-0.73877-0.31900-0.61755
  -1   9   5   32.47    5.01 103-0.49071 0.53012 0.85478-0.50605-0.31166 0.81710
  -1  16   6   62.74    9.92 103-0.49042 0.56801 0.85381-0.23241-0.31738 0.93360
   0   9   4  246.35    5.91 103-0.49069 0.64213 0.85471-0.50444-0.31206 0.75670
   0  15   5  332.77    9.33 103-0.49060 0.67986 0.85440-0.27126-0.31390 0.86869
   1   1  -5  556.42    8.53 104-0.49029 0.45273 0.85339-0.81405-0.31973-0.18549
   1   2  -6    2.92    6.23 103-0.49049 0.41632 0.85406-0.77657-0.31593-0.30211
   1   5  -8   82.71    9.01 104-0.49014 0.34219 0.85292-0.65895-0.32242-0.51430
   1  17   4  591.88   11.22 103-0.49044 0.79130 0.85388-0.19241-0.31696 0.81094
   1  18   4   -3.38   10.62 104-0.48988 0.79042 0.85208-0.15079-0.32705 0.82349
   2   4  -2 1130.00   14.02 104-0.49000 0.71423 0.85245-0.69510-0.32499 0.20245
   2   6  -7   23.23    5.76 103-0.49067 0.52843 0.85465-0.62141-0.31246-0.36464
   2   8  -8  102.93    9.68 103-0.49054 0.49198 0.85423-0.54454-0.31494-0.47275
   3   8  -5  285.14    6.86 103-0.49073 0.75189 0.85485-0.54327-0.31127-0.09408
   3   8  -3 1124.85   12.88 104-0.49014 0.82607 0.85291-0.54004-0.32248 0.13966
   3   9  -2 1436.23   18.02 104-0.48959 0.86346 0.85120-0.49897-0.33176 0.25978
   3  10  -7  389.58   10.64 103-0.49031 0.67753 0.85347-0.46436-0.31931-0.30719
   4  16  -5   62.80   10.88 103-0.49043 0.90199 0.85385-0.23153-0.31710-0.03792
   4  16  -4  362.33   13.22 103-0.49025 0.93876 0.85328-0.22945-0.32038 0.07689
  -6  -1   0   21.95   21.28 109-0.48344-0.40834 0.83443-0.87741-0.40472 0.10717
  -6   1   3   46.38   10.14 105-0.48877-0.29099 0.84866-0.81353-0.34516 0.37932
  -5  -2   1 1213.40   20.52 106-0.48815-0.21789 0.84689-0.92763-0.35361 0.21622
  -5   0   3  304.28   10.03 105-0.48878-0.14224 0.84869-0.85161-0.34500 0.42913
  -5   7   6    3.16    8.53 105-0.48915-0.02966 0.84980-0.58069-0.33946 0.75693
  -4  -3  -3  525.73   13.28 105-0.48904-0.21646 0.84948-0.96911-0.34111-0.19117
  -4  -1  -5    9.88   11.79 104-0.48957-0.29184 0.85107-0.89360-0.33295-0.42215
  -4   7   6    9.14    7.58 104-0.48964 0.12012 0.85127-0.58148-0.33192 0.79824
  -4  12   7   34.28    9.61 104-0.48975 0.15769 0.85162-0.38823-0.33004 0.90817
  -3  -3  -4   82.12    9.15 105-0.48895-0.10544 0.84920-0.96815-0.34247-0.25079
  -3  -2  -5   40.39    9.08 105-0.48933-0.14251 0.85033-0.93028-0.33679-0.36751
  -3   0   3   26.32    5.77 105-0.48916 0.15445 0.84983-0.85167-0.33935 0.52283
  -3   2   4   99.86    6.30 105-0.48932 0.19246 0.85031-0.77442-0.33690 0.63160
  -3  15   7   57.49   11.24 105-0.48948 0.30715 0.85078-0.26952-0.33443 0.96258
  -2  -3  -4   25.68    6.92 104-0.48956 0.04341 0.85103-0.96963-0.33317-0.21083
  -2  -2   1  536.00   12.85 105-0.48951 0.22766 0.85087-0.92999-0.33399 0.34530
  -2  -1  -6   22.50    9.14 104-0.48961-0.03169 0.85116-0.89253-0.33245-0.43423
  -2   1   3 3575.88   18.43 105-0.48947 0.30330 0.85076-0.81282-0.33456 0.56839
  -2  11   6   -1.39    5.49 104-0.48985 0.41704 0.85193-0.42370-0.32838 0.89660
  -1  17   6  187.79    8.23 104-0.48997 0.56793 0.85229-0.19288-0.32640 0.94375
  -1  18   6  105.73   11.43 105-0.48945 0.56764 0.85068-0.15194-0.33498 0.95223
  -1  19   6  213.67   11.49 105-0.48906 0.56751 0.84954-0.11248-0.34081 0.95843
   0  -1  -5  423.78    8.08 105-0.48929 0.30305 0.85022-0.88907-0.33736-0.21746
   0   0  -6  709.50    9.41 104-0.48953 0.26685 0.85095-0.85196-0.33359-0.33212
   0   3  -8   31.29    9.35 105-0.48920 0.19197 0.84994-0.73383-0.33874-0.54814
   0  16   5   15.67    6.67 104-0.48995 0.67960 0.85222-0.22983-0.32680 0.88330
   0  17   5  391.53   10.16 105-0.48918 0.67873 0.84987-0.18968-0.33910 0.89526
   1   3  -7    9.16    5.50 104-0.48988 0.37840 0.85200-0.73560-0.32799-0.39976
   1   7   2  360.99    8.68 105-0.48944 0.71447 0.85067-0.57715-0.33502 0.60768
   1  19   4   51.32   10.66 105-0.48937 0.79086 0.85045-0.11182-0.33618 0.83144
   1  20   4   16.82   11.68 105-0.48887 0.79001 0.84896-0.07089-0.34367 0.83826
   2   4  -6   58.15    7.14 105-0.48932 0.56384 0.85030-0.69372-0.33694-0.22871
   2   5  -1 1301.01   22.15 106-0.48822 0.75025 0.84709-0.65066-0.35266 0.34123
   2   7  -8    0.97    8.74 105-0.48928 0.48869 0.85019-0.57854-0.33749-0.44905
   2  14   2 1754.92   17.26 105-0.48875 0.86297 0.84860-0.30275-0.34544 0.66764
   3   8  -6  350.38    8.95 105-0.48937 0.71350 0.85045-0.53818-0.33617-0.17913
   3  12  -8   45.60   11.04 104-0.48982 0.64115 0.85183-0.38389-0.32891-0.40908
   4  15  -5  117.46   10.56 104-0.48940 0.90074 0.85053-0.26587-0.33573-0.01814
   4  16  -6   46.01   11.93 104-0.48951 0.86390 0.85088-0.22805-0.33392-0.13120
   4  17  -3  150.74   13.89 105-0.48856 0.97461 0.84805-0.18523-0.34808 0.21526
  -6   0   2   15.71   10.94 106-0.48774-0.32949 0.84653-0.85074-0.35533 0.27887
  -6   5   5   66.34   10.55 106-0.48797-0.21628 0.84720-0.65722-0.35221 0.60887
  -6   8   6  286.03   12.30 105-0.48825-0.17935 0.84801-0.54097-0.34838 0.71476
  -5  -2  -3   10.76   13.88 106-0.48716-0.36786 0.84492-0.92608-0.36263-0.21943
  -5   4   5  409.83    9.07 105-0.48846-0.06786 0.84861-0.69643-0.34544 0.65088
  -4   4   5  206.45    6.20 105-0.48864 0.08060 0.84912-0.69661-0.34296 0.69855
  -4  13   7   21.83   10.05 105-0.48843 0.15689 0.84852-0.34541-0.34589 0.92414
  -3  -1  -6   97.49   10.40 106-0.48778-0.18018 0.84664-0.88835-0.35484-0.45972
  -3   5   5  134.74    6.96 106-0.48817 0.22918 0.84777-0.65490-0.34949 0.75454
  -3   9   6  171.20    8.03 105-0.48822 0.26673 0.84789-0.50003-0.34891 0.86507
  -2   7   5   60.77    6.37 106-0.48800 0.37848 0.84728-0.57695-0.35181 0.80759
  -2  12   6  974.76   10.57 106-0.48816 0.41620 0.84774-0.38279-0.34967 0.91581
  -1  -3  -3   13.81    6.02 105-0.48819 0.22597 0.84783-0.96583-0.34920-0.03480
  -1  -2  -5  182.78    6.06 105-0.48874 0.15389 0.84944-0.92877-0.34138-0.26365
  -1  -1  -6  125.25    6.52 105-0.48874 0.11733 0.84944-0.89015-0.34138-0.37396
  -1   2  -8   89.63   10.71 106-0.48792 0.04280 0.84705-0.77098-0.35294-0.58372
  -1   3   3   24.67    4.00 105-0.48853 0.45248 0.84880-0.73175-0.34454 0.62909
  -1   6   4  603.15    8.35 106-0.48812 0.48961 0.84761-0.61448-0.35027 0.74489
  -1  10   5    4.37    4.85 105-0.48877 0.52842 0.84951-0.46096-0.34099 0.84740
   0   1  -7   18.81    8.10 105-0.48833 0.22846 0.84823-0.81056-0.34729-0.42946
   0   6   3   62.84    5.66 105-0.48842 0.60118 0.84849-0.61471-0.34607 0.67940
   0  10   4  120.43    6.91 106-0.48815 0.63893 0.84772-0.45874-0.34976 0.79391
   0  18   5   65.98   10.49 105-0.48816 0.67767 0.84774-0.14802-0.34963 0.90523
   0  19   5    5.06   10.14 106-0.48772 0.67779 0.84649-0.10749-0.35554 0.91208
   1   4  -8  101.01    8.93 106-0.48792 0.33979 0.84706-0.69233-0.35287-0.48373
   1  11   3  179.03    7.02 105-0.48837 0.75081 0.84835-0.41965-0.34673 0.72949
   1  21   4  292.46   13.38 105-0.48828 0.78957 0.84808-0.03103-0.34804 0.84196
   2   3  -5   40.06    6.26 106-0.48791 0.59952 0.84701-0.72932-0.35309-0.10282
   2   3  -4  455.19    7.07 105-0.48869 0.63791 0.84928-0.73175-0.34217-0.00241
   2   5  -7 1610.28   11.87 105-0.48846 0.52674 0.84861-0.65453-0.34547-0.33100
   3   7  -5   13.51    6.92 106-0.48802 0.74927 0.84735-0.57379-0.35152-0.05378
   3   7  -4  831.10   10.49 106-0.48798 0.78656 0.84721-0.57359-0.35215 0.05816
   3   9  -7  235.06    9.06 105-0.48846 0.67613 0.84861-0.49868-0.34544-0.28107
   3  11  -8   19.75   11.53 105-0.48833 0.63875 0.84823-0.41970-0.34732-0.39118
   4  14  -5   31.75   10.39 106-0.48744 0.89881 0.84568-0.30028-0.35921 0.00475
   4  15  -6  154.79   11.85 105-0.48811 0.86269 0.84760-0.26373-0.35032-0.11463
   4  15  -4   32.06    9.35 105-0.48824 0.93738 0.84797-0.26365-0.34857 0.10527
  -6   3   4   35.83    9.81 107-0.48672-0.25591 0.84395-0.73160-0.36615 0.51123
  -5  -1   2  204.47   10.35 107-0.48637-0.18202 0.84301-0.88565-0.37023 0.34360
  -5   2   4  199.16    8.33 106-0.48700-0.10682 0.84471-0.77013-0.36277 0.55753
  -5   8   6  122.35    9.87 107-0.48667-0.03222 0.84381-0.53712-0.36674 0.78355
  -4   0   3    2.73    6.09 107-0.48650 0.00265 0.84335-0.84645-0.36877 0.50272
  -4   2   4  594.50    8.96 107-0.48631 0.04038 0.84283-0.76830-0.37099 0.61532
  -4   8   6  233.92    6.95 106-0.48731 0.11718 0.84557-0.53755-0.35894 0.82576
  -4  14   7   -0.43    8.56 106-0.48731 0.15431 0.84557-0.30152-0.35894 0.93799
  -3  -4  -2  268.17   10.28 107-0.48581-0.03474 0.84149-0.99943-0.37660 0.00448
  -3  10   6   40.17    7.55 107-0.48628 0.26509 0.84276-0.45701-0.37128 0.88815
  -2   0  -7    3.98   10.36 107-0.48674-0.07452 0.84399-0.84960-0.36595-0.51728
  -2  13   6    5.07    8.23 107-0.48671 0.41525 0.84392-0.33927-0.36629 0.93366
  -1  -3  -4 1611.20   12.54 107-0.48642 0.18870 0.84313-0.96050-0.36968-0.12444
  -1  -3  -2 2136.80   17.74 106-0.48723 0.26257 0.84535-0.96346-0.35993 0.08697
  -1   0  -7   21.23    8.64 106-0.48724 0.07811 0.84540-0.84757-0.35972-0.46745
  -1   1   2 3125.43   20.19 106-0.48724 0.41297 0.84540-0.80659-0.35972 0.53299
  -1  11   5  642.87    9.24 107-0.48664 0.52587 0.84372-0.41731-0.36713 0.87313
   0  -1  -1 2729.09   26.43 106-0.48734 0.44892 0.84565-0.88539-0.35855 0.24569
   0  20   5   -2.12   10.56 107-0.48698 0.67461 0.84465-0.06737-0.36304 0.91841
   1   0  -4   17.16    4.25 106-0.48721 0.48661 0.84531-0.84530-0.36011-0.03455
   1   0  -3 3030.63   17.49 107-0.48666 0.52378 0.84378-0.84321-0.36687 0.08274
   1   1  -6  683.00    8.77 106-0.48714 0.41306 0.84510-0.80697-0.36103-0.25486
   1   2  -7   13.64    7.36 106-0.48674 0.37532 0.84401-0.76670-0.36588-0.36180
   2   3  -3 6660.42   25.94 106-0.48715 0.67409 0.84514-0.72735-0.36088 0.12672
   2   6  -8   59.46    9.89 106-0.48672 0.48787 0.84395-0.61075-0.36613-0.42136
   2  15   2   41.92    9.17 107-0.48564 0.85990 0.84103-0.25655-0.37851 0.70152
   3   7  -6 1134.45   10.99 107-0.48638 0.71102 0.84304-0.56974-0.37010-0.14460
   3   8  -7  503.44    9.83 107-0.48625 0.67415 0.84267-0.53089-0.37165-0.25398
   3  10  -8   -3.69   10.84 107-0.48667 0.63636 0.84381-0.45463-0.36675-0.37123
   3  15   0  491.87   18.61 109-0.48265 0.93154 0.83337-0.24766-0.40789 0.55864
   4  14  -6  250.40   11.43 107-0.48655 0.86111 0.84348-0.29776-0.36817-0.09623
   4  14  -4   74.84   10.48 107-0.48563 0.93493 0.84102-0.29533-0.37854 0.13571
   4  16  -3  154.12   13.61 107-0.48533 0.97177 0.84023-0.21621-0.38178 0.24941
  -6   6   5    2.90    9.74 108-0.48477-0.22055 0.83840-0.60949-0.38809 0.64473
  -5   5   5   12.36    8.32 108-0.48515-0.07160 0.83941-0.64850-0.38411 0.69056
  -4   5   5  417.61    8.79 108-0.48523 0.07806 0.83962-0.64818-0.38325 0.73965
  -4   9   6   16.66    8.48 108-0.48519 0.11535 0.83951-0.49204-0.38368 0.85143
  -3   6   5   12.96    6.22 108-0.48496 0.22702 0.83889-0.60797-0.38615 0.79205
  -2  -3  -5  142.33    7.82 108-0.48509 0.00204 0.83925-0.95803-0.38474-0.26906
  -2  -2  -6  578.08   10.50 108-0.48518-0.03451 0.83948-0.91932-0.38381-0.38107
  -2   4   4 1524.13   10.81 107-0.48628 0.33787 0.84239-0.68816-0.37180 0.71634
  -2   8   5  278.67    7.28 108-0.48503 0.37563 0.83910-0.52951-0.38535 0.84118
  -2  14   6    1.29    8.59 108-0.48542 0.41299 0.84010-0.29484-0.38132 0.94954
   0  -2  -4 2891.23   15.49 107-0.48577 0.33672 0.84104-0.91991-0.37748-0.06742
   0  -2  -3  228.60    6.03 107-0.48624 0.37395 0.84230-0.92055-0.37219 0.03790
   0  -1  -6  269.62    8.09 108-0.48532 0.26209 0.83985-0.87935-0.38234-0.28326
   0   2  -8  416.32    8.78 107-0.48607 0.19093 0.84184-0.76599-0.37414-0.51285
   0  11   4    7.70    6.52 108-0.48544 0.63652 0.84017-0.41184-0.38104 0.82552
   1   0  -5   27.94    6.04 107-0.48562 0.44851 0.84063-0.84121-0.37915-0.12698
   1   3  -8  246.54    9.27 108-0.48515 0.33675 0.83941-0.72334-0.38410-0.45269
   1  12   3   13.70    6.38 108-0.48539 0.74852 0.84002-0.37224-0.38164 0.76509
   2   3  -6  440.52    8.49 107-0.48551 0.56081 0.84033-0.72350-0.38037-0.18551
   2   4  -7  197.63    8.32 107-0.48558 0.52438 0.84054-0.68524-0.37954-0.29637
   2  10   1  523.39   12.43 108-0.48420 0.82111 0.83693-0.44586-0.39380 0.60519
   4  13  -6  200.12   11.66 108-0.48457 0.85858 0.83788-0.33234-0.39013-0.07593
   4  13  -5  234.88   10.49 108-0.48513 0.89642 0.83934-0.33247-0.38437 0.03005
  -5   9   6 1349.59   12.53 108-0.48431-0.03400 0.83743-0.49087-0.39225 0.80902
  -4  -3  -4    3.31   11.27 109-0.48305-0.25986 0.83422-0.95370-0.40425-0.23805
  -4  -2  -5   49.01   12.00 108-0.48363-0.29589 0.83567-0.91748-0.39890-0.35486
  -3  -4  -3    8.13    7.38 108-0.48395-0.07514 0.83651-0.99538-0.39574-0.08743
  -3   3   4  747.37    9.08 108-0.48396 0.18693 0.83653-0.72123-0.39567 0.69009
  -3  11   6  581.61    9.20 108-0.48419 0.26349 0.83712-0.41141-0.39345 0.90977
  -2  -4  -3  484.57    9.45 108-0.48401 0.07434 0.83664-0.99457-0.39525-0.03767
  -2  -4  -2 7977.01   35.11 109-0.48332 0.11046 0.83490-0.99222-0.40177 0.07957
  -2  -1  -7  317.30   10.94 109-0.48335-0.07261 0.83497-0.87603-0.40150-0.47408
  -2  15   6  111.33    9.34 108-0.48402 0.41263 0.83668-0.25435-0.39513 0.96176
  -1  -2  -6    9.80    7.96 108-0.48415 0.11167 0.83701-0.91669-0.39387-0.32245
  -1  -1  -7   92.88    8.86 109-0.48332 0.07524 0.83490-0.87535-0.40177-0.42387
  -1   1  -8   74.48    8.84 108-0.48458 0.03834 0.83812-0.80165-0.38958-0.54880
  -1   7   4  525.10    8.06 108-0.48401 0.48545 0.83666-0.56436-0.39520 0.78965
  -1  12   5  887.59    8.93 108-0.48454 0.52479 0.83802-0.37207-0.38997 0.89588
   0  -2  -5   63.14    6.66 109-0.48362 0.29718 0.83566-0.91371-0.39896-0.15605
   0   0  -7    0.02    5.98 108-0.48469 0.22228 0.83841-0.84062-0.38842-0.38868
   2   5  -8   69.24    9.50 108-0.48405 0.48537 0.83675-0.64367-0.39485-0.39189
   2   7   0    0.72   10.05 111-0.47911 0.77837 0.82456-0.55071-0.43701 0.53713
   2  16   2    4.36    8.98 109-0.48319 0.85871 0.83456-0.21053-0.40302 0.72588
   3   6  -5   21.97    6.78 108-0.48401 0.74551 0.83666-0.60237-0.39520-0.01019
   3   7  -7   64.33    8.27 109-0.48353 0.67055 0.83544-0.56269-0.39978-0.22649
   3   7  -3  593.38   10.17 108-0.48410 0.82045 0.83689-0.56292-0.39432 0.21063
   3   9  -8  588.32    9.93 108-0.48454 0.63471 0.83802-0.48951-0.38997-0.34778
  -6   2   3   50.52    9.79 110-0.48205-0.29649 0.83159-0.75758-0.41340 0.45055
  -6   4   4  518.16   11.51 110-0.48205-0.25896 0.83159-0.67941-0.41340 0.56140
  -5   1   3   50.12    8.34 110-0.48111-0.15030 0.82929-0.79313-0.42132 0.50674
  -5   3   4 1335.38   12.43 110-0.48196-0.11094 0.83137-0.71743-0.41419 0.61137
  -5  10   6   20.36   10.43 110-0.48212-0.03660 0.83178-0.44580-0.41275 0.83049
  -4  10   6   94.61    6.60 109-0.48288 0.11266 0.83367-0.44801-0.40604 0.87305
  -3  -3  -5   60.50    8.91 109-0.48279-0.14800 0.83346-0.95418-0.40680-0.29752
  -3  -2  -6    8.98   11.18 110-0.48222-0.18825 0.83203-0.91392-0.41186-0.40448
  -3  -1   2 1338.34   14.22 110-0.48233 0.10973 0.83229-0.87264-0.41096 0.48397
  -3  12   6    9.39    8.51 109-0.48232 0.26174 0.83226-0.36685-0.41105 0.92819
  -2  -4  -4   79.74    6.90 110-0.48172 0.03489 0.83079-0.98831-0.41618-0.12687
  -2   2   3  484.62    8.25 110-0.48181 0.29667 0.83101-0.75366-0.41544 0.64988
  -2   9   5 1656.79   11.69 110-0.48194 0.37321 0.83132-0.48212-0.41435 0.87061
  -2  16   6  519.36    8.64 109-0.48304 0.41145 0.83409-0.21431-0.40450 0.97198
  -2  17   6   60.23   10.40 110-0.48211 0.41247 0.83174-0.17142-0.41288 0.98074
  -1  -3  -5  311.08    8.00 109-0.48289 0.14854 0.83371-0.95219-0.40588-0.19896
  -1   4   3 3319.39   17.27 110-0.48170 0.44589 0.83073-0.67471-0.41642 0.70076
  -1  13   5  179.75    8.30 109-0.48235 0.52238 0.83236-0.32700-0.41073 0.91583
   0  -2  -2  654.05   10.53 110-0.48187 0.40616 0.83116-0.90959-0.41490 0.19153
   0   1  -8   20.10    9.26 109-0.48257 0.18485 0.83291-0.79585-0.40876-0.48003
   0   4   2  389.26    8.41 110-0.48185 0.55799 0.83111-0.67446-0.41508 0.63823
   0   7   3   62.46    4.50 109-0.48317 0.59627 0.83441-0.56147-0.40335 0.73720
   0  12   4  273.50    7.63 109-0.48260 0.63377 0.83298-0.36597-0.40849 0.85256
   1   0  -6    1.84    6.24 110-0.48219 0.40817 0.83195-0.83403-0.41215-0.20810
   1   1  -7    1.15    5.57 109-0.48304 0.36986 0.83409-0.79693-0.40450-0.32282
   1   4  -9   22.85   10.52 110-0.48194 0.29683 0.83132-0.67687-0.41436-0.53368
   1   8   2 3110.17   19.82 110-0.48221 0.70756 0.83199-0.51923-0.41202 0.68451
   1  13   3    9.24    6.74 110-0.48220 0.74539 0.83197-0.32502-0.41208 0.79586
   2   2  -5    3.76    4.07 109-0.48288 0.59510 0.83367-0.75556-0.40604-0.04973
   2   2  -4   83.74    6.07 109-0.48275 0.63239 0.83336-0.75469-0.40714 0.06254
   2   3  -7  742.65    9.88 110-0.48201 0.51869 0.83150-0.71540-0.41373-0.26310
   2  17   2  105.05    9.99 110-0.48078 0.85651 0.82847-0.16575-0.42408 0.74592
   3   6  -6   61.82    7.21 109-0.48285 0.70744 0.83361-0.59973-0.40624-0.10926
   3   6  -4  129.44    6.71 109-0.48282 0.78173 0.83353-0.59874-0.40653 0.11263
   3   8  -8    8.96   10.28 109-0.48220 0.63240 0.83197-0.52005-0.41207-0.32603
   4  12  -6   18.00    9.87 109-0.48222 0.85645 0.83203-0.36352-0.41188-0.05385
   4  12  -5   10.60    8.98 109-0.48219 0.89354 0.83194-0.36311-0.41219 0.05720
   4  13  -7   18.83   11.64 109-0.48236 0.81980 0.83238-0.32513-0.41062-0.16647
   4  13  -4   47.09    8.78 109-0.48232 0.93115 0.83226-0.32571-0.41105 0.16780
   4  15  -3  154.43   13.25 110-0.48125 0.96713 0.82963-0.24552-0.42015 0.28563
  -6   7   5  763.48   10.45 110-0.48145-0.22171 0.82952-0.56044-0.41976 0.67848
  -5   6   5  316.44    7.58 110-0.48150-0.07348 0.82963-0.59874-0.41938 0.72713
  -5  11   6   -4.32    9.54 111-0.48028-0.04105 0.82668-0.39907-0.42923 0.84947
  -4  -1   2  407.05    9.62 111-0.48035-0.04035 0.82686-0.86810-0.42864 0.45281
  -4   3   4  359.05    7.99 110-0.48066 0.03541 0.82760-0.71277-0.42619 0.67155
  -4   6   5    3.20    5.08 110-0.48150 0.07294 0.82963-0.59873-0.41938 0.77557
  -4  11   6  171.28    9.40 110-0.48067 0.11169 0.82761-0.40194-0.42615 0.89343
  -3  -4  -4  165.71    8.95 111-0.48022-0.11456 0.82654-0.98534-0.42969-0.16238
  -3  -4  -1  973.15   20.89 111-0.47862-0.00587 0.82273-0.98076-0.44179 0.18165
  -3   1   3  626.66    9.25 110-0.48093 0.14656 0.82826-0.79042-0.42399 0.60820
  -3   7   5   13.59    4.72 110-0.48145 0.22244 0.82952-0.55883-0.41976 0.82625
  -3  13   6  209.25    9.21 111-0.48058 0.26088 0.82742-0.32329-0.42681 0.94388
  -2   0   2  832.52   11.34 111-0.47995 0.25634 0.82590-0.82681-0.43177 0.55499
  -2   5   4  126.68    4.84 110-0.48127 0.33377 0.82907-0.63498-0.42127 0.76636
  -2  18   6   16.11    8.25 110-0.48154 0.41040 0.82974-0.13003-0.41900 0.98751
  -2  19   6   -2.47   10.82 111-0.48075 0.40813 0.82783-0.08874-0.42544 0.99253
  -1   0  -8   -6.62   11.35 111-0.48059 0.03220 0.82743-0.83158-0.42677-0.51177
  -1  14   5   71.33    8.20 111-0.48063 0.52108 0.82753-0.28313-0.42643 0.93201
   0  -1  -7   18.72    7.68 111-0.48015 0.22016 0.82638-0.86666-0.43021-0.34626
   0  13   4  369.24    8.44 111-0.48027 0.63230 0.82667-0.32109-0.42926 0.87427
   1  -1  -4 2315.45   14.03 111-0.48003 0.47918 0.82608-0.86511-0.43117 0.03628
   1   2  -8   65.01    6.70 110-0.48163 0.33210 0.82997-0.75507-0.41824-0.41954
   1   5   1   25.82    5.71 111-0.48050 0.66761 0.82722-0.63163-0.42744 0.58871
   2   2  -6 1311.12   10.71 110-0.48105 0.55491 0.82855-0.75189-0.42304-0.14377
   2   4  -8  385.40    9.55 110-0.48093 0.48029 0.82824-0.67529-0.42406-0.36394
   2   6  -9   -1.28    8.46 110-0.48127 0.44537 0.82907-0.59690-0.42127-0.47800
   2  18   2  616.81   13.19 111-0.47902 0.85433 0.82367-0.12202-0.43885 0.76070
   3   6  -7  411.54    9.60 111-0.48024 0.66622 0.82658-0.59389-0.42954-0.19769
   3   8  -2   94.28    8.22 111-0.47884 0.85254 0.82325-0.51051-0.44017 0.36700
   4  12  -7   25.06   11.22 110-0.48037 0.81750 0.82690-0.35828-0.42851-0.14812
  -6   1   2   37.65   10.83 112-0.47706-0.34025 0.81903-0.78359-0.45319 0.37836
  -6   8   5    1.71    9.96 111-0.47859-0.23020 0.82261-0.51474-0.44235 0.70190
  -5  12   6   21.49   10.27 112-0.47794-0.04110 0.82108-0.35654-0.44704 0.86587
  -4  -4  -2   82.86   11.37 112-0.47625-0.19243 0.81715-0.97620-0.45870 0.03826
  -4   1   3  141.54    6.68 112-0.47781-0.00496 0.82078-0.78365-0.44795 0.58341
  -4  12   6   15.06    9.53 112-0.47856 0.10859 0.82255-0.35735-0.44253 0.91020
  -3   4   4  371.98    7.60 112-0.47831 0.18208 0.82194-0.66736-0.44440 0.74025
  -3  14   6   19.23    8.51 111-0.47886 0.25824 0.82324-0.28026-0.44040 0.95714
  -2  -3  -6  313.74   10.25 111-0.47883-0.04089 0.82317-0.94381-0.44060-0.32383
  -2  -2  -7  115.38   10.40 112-0.47794-0.07930 0.82108-0.90212-0.44704-0.42755
  -2  10   5  321.60    7.78 111-0.47882 0.36941 0.82314-0.43485-0.44069 0.89626
  -1  -3  -6  259.20    8.39 112-0.47810 0.10600 0.82146-0.94017-0.44587-0.26869
  -1  -2  -7  605.04   10.69 112-0.47807 0.06894 0.82139-0.90158-0.44608-0.37924
  -1   8   4  768.68    8.02 111-0.47980 0.48140 0.82547-0.51417-0.43333 0.82788
  -1  15   5   10.16    8.22 112-0.47882 0.51815 0.82314-0.23938-0.44068 0.94616
   0  -2  -6   -0.27    5.26 111-0.47970 0.25457 0.82524-0.90549-0.43408-0.23201
   0   0  -8   38.42    9.99 111-0.47846 0.18176 0.82231-0.82390-0.44328-0.44425
   0  14   4  109.12    7.17 112-0.47767 0.62977 0.82046-0.27563-0.44890 0.89358
   1  -1  -5  562.74    7.20 111-0.47950 0.44190 0.82476-0.86464-0.43559-0.06988
   1   0  -7  401.02    8.95 112-0.47840 0.36637 0.82217-0.82351-0.44370-0.28274
   1   0  -2   -0.52    3.73 111-0.47990 0.55241 0.82570-0.82665-0.43257 0.26092
   1   3  -9  114.87   12.03 111-0.47860 0.29441 0.82264-0.70825-0.44226-0.50513
   1  14   3 1194.91   11.89 111-0.47912 0.74200 0.82386-0.27819-0.43844 0.82098
   2   2  -3  490.30    8.88 112-0.47837 0.66446 0.82209-0.74368-0.44393 0.20951
   2   5  -9    4.51   10.27 111-0.47852 0.44285 0.82244-0.62840-0.44288-0.45295
   2  19   2    1.99   10.81 112-0.47791 0.85327 0.82102-0.08012-0.44720 0.77005
   2  20   2   23.98   11.84 112-0.47695 0.85228 0.81878-0.03898-0.45392 0.77607
   2  21   2   -1.50   12.29 112-0.47736 0.85365 0.81974 0.00052-0.45107 0.77614
   2  22   2  125.50   13.65 112-0.47688 0.85219 0.81861 0.03831-0.45441 0.77691
   3   5  -6  132.30    7.81 111-0.47859 0.70231 0.82260-0.62856-0.44237-0.07392
   3   5  -5  128.57    7.01 111-0.47907 0.74022 0.82375-0.62899-0.43878 0.03314
   3   7  -8   85.50    9.54 111-0.47930 0.62942 0.82429-0.55368-0.43709-0.30065
   3  16   0   31.20   12.71 114-0.47405 0.92241 0.81212-0.18771-0.47289 0.62365
   4  11  -6  147.23    8.98 111-0.47930 0.85321 0.82429-0.39672-0.43709-0.02919
   4  11  -5  193.58    9.56 111-0.47859 0.88938 0.82260-0.39445-0.44237 0.08690
   4  12  -4 1318.51   15.55 112-0.47821 0.92606 0.82173-0.35428-0.44506 0.20014
  -6   0   1   -0.66   12.46 114-0.47421-0.38335 0.81267-0.81547-0.47121 0.28354
  -6   5   4   29.60    9.66 112-0.47654-0.26650 0.81802-0.62669-0.45601 0.60178
  -5  -3  -2  213.38   17.85 114-0.47329-0.34331 0.81060-0.93211-0.47688 0.00624
  -5   4   4  452.20    9.47 113-0.47589-0.11827 0.81651-0.66457-0.46038 0.65588
  -5   7   5    6.51    6.29 112-0.47751-0.07976 0.82026-0.55072-0.44935 0.75629
  -5  13   6  160.59   10.89 113-0.47587-0.04327 0.81646-0.31517-0.46052 0.87893
  -4  -4  -3   10.67   10.00 113-0.47504-0.23154 0.81456-0.97395-0.46593-0.06597
  -4   7   5  171.78    6.18 112-0.47735 0.07021 0.81989-0.54970-0.45046 0.80735
  -4  13   6  250.51   10.03 113-0.47645 0.10643 0.81780-0.31475-0.45664 0.92411
  -3   8   5  313.66    6.20 112-0.47751 0.21924 0.82026-0.51042-0.44935 0.85588
  -3  15   6   84.74    7.30 112-0.47741 0.25775 0.82001-0.23830-0.45009 0.96815
  -3  16   6   54.03   10.26 113-0.47617 0.25557 0.81715-0.19643-0.45854 0.97719
  -2  -4  -5   36.18    7.53 112-0.47683-0.00612 0.81868-0.97786-0.45406-0.20009
  -2  11   5  319.22    7.57 113-0.47573 0.36533 0.81614-0.39001-0.46146 0.91756
  -1  -4  -4  269.43    7.40 112-0.47707 0.17865 0.81923-0.97719-0.45242-0.04132
  -1  -4  -3 1599.26   13.73 112-0.47651 0.21515 0.81794-0.97543-0.45625 0.07286
  -1  -1  -8   79.32   10.63 113-0.47561 0.03127 0.81586-0.85736-0.46224-0.47421
  -1  16   5  890.10    9.50 112-0.47741 0.51837 0.82001-0.19814-0.45009 0.95648
  -1  17   5  143.79    9.60 113-0.47620 0.51615 0.81721-0.15726-0.45835 0.96539
   0  -3  -5 1955.98   12.81 113-0.47589 0.28983 0.81651-0.93392-0.46037-0.09457
   0  -3  -4   84.54    6.05 112-0.47696 0.32724 0.81897-0.93722-0.45319 0.00855
   0   8   3   81.20    5.91 112-0.47689 0.59008 0.81882-0.50663-0.45366 0.78681
   1  -1  -6  704.74    9.28 112-0.47654 0.40210 0.81800-0.85880-0.45606-0.16008
   1  -1  -3 2596.06   16.24 113-0.47602 0.51297 0.81680-0.85567-0.45955 0.17523
   1   1  -8  198.91    9.00 112-0.47719 0.32863 0.81950-0.78318-0.45162-0.38592
   1  15   3   34.04    7.39 113-0.47640 0.73890 0.81768-0.23411-0.45699 0.84082
   2   1  -5  261.09    7.14 112-0.47638 0.58814 0.81763-0.77888-0.45713 0.00138
   2   2  -7   13.35    5.53 112-0.47730 0.51605 0.81976-0.74222-0.45084-0.22667
   2   3  -8  159.56    9.42 112-0.47678 0.47730 0.81856-0.70432-0.45441-0.33317
   2   3  -2  128.09    6.80 112-0.47724 0.70152 0.81963-0.70190-0.45124 0.32796
   3   5  -7  101.97    8.08 113-0.47596 0.66297 0.81668-0.62201-0.45988-0.16672
   3   5  -4  244.78    7.63 113-0.47582 0.77459 0.81635-0.62081-0.46083 0.16644
   3   6  -8    4.53    9.05 113-0.47571 0.62626 0.81610-0.58251-0.46155-0.27609
   3   6  -3 1024.12   12.85 113-0.47516 0.81142 0.81484-0.58003-0.46514 0.28196
   4  10  -6   94.19    8.73 113-0.47553 0.84978 0.81568-0.42638-0.46277-0.00267
   4  11  -7  666.76   12.21 112-0.47741 0.81386 0.82001-0.39362-0.45009-0.12751
   4  14  -3   14.38   10.56 113-0.47552 0.96170 0.81567-0.26887-0.46281 0.33005
  -6  -1  -1  122.65   26.69 120-0.45458-0.47435 0.77064-0.81430-0.56853 0.16133
  -6   3   3  118.66    9.89 114-0.47389-0.30575 0.81260-0.69960-0.47213 0.50746
  -6   9   5  112.12   11.47 113-0.47409-0.23109 0.81305-0.46682-0.47090 0.72756
  -5   0   2    2.79    8.83 114-0.47236-0.19532 0.80914-0.81134-0.48149 0.45467
  -5   8   5  501.74    9.86 114-0.47339-0.08311 0.81147-0.50405-0.47523 0.78230
  -4  -3  -5  104.74   12.17 113-0.47411-0.30457 0.81310-0.93453-0.47076-0.28293
  -4  -3   0  173.23   16.10 117-0.46383-0.13132 0.79036-0.90886-0.52728 0.32982
  -4  -2   1   52.57    8.47 115-0.47181-0.08611 0.80791-0.88823-0.48474 0.39654
  -4   4   4  166.26    7.40 114-0.47400 0.02792 0.81285-0.65956-0.47144 0.71662
  -4  14   6  299.37   10.00 113-0.47439 0.10402 0.81373-0.27187-0.46901 0.93611
  -3  -4  -5  190.83   10.28 114-0.47357-0.15703 0.81188-0.97050-0.47410-0.22946
  -3  -3  -6  209.93   10.81 113-0.47464-0.19222 0.81431-0.93538-0.46739-0.34753
  -3   9   5    6.97    6.77 114-0.47349 0.21429 0.81169-0.46260-0.47462 0.88151
  -3  17   6  197.10    8.34 113-0.47495 0.25421 0.81501-0.15679-0.46541 0.98412
  -3  18   6   43.85   11.50 114-0.47399 0.25367 0.81282-0.11358-0.47153 0.98992
  -2   6   4  180.72    5.17 113-0.47529 0.32704 0.81580-0.58336-0.46319 0.80831
  -1  -4  -5 1284.14   11.75 113-0.47412 0.14010 0.81313-0.97087-0.47068-0.13400
  -1   2   2   85.23    6.00 114-0.47325 0.39873 0.81115-0.73336-0.47608 0.64911
  -1   9   4 4246.00   16.90 113-0.47489 0.47583 0.81488-0.46486-0.46578 0.86095
  -1  18   5    7.88    7.32 113-0.47501 0.51544 0.81514-0.11452-0.46504 0.97221
  -1  19   5  104.54   10.42 114-0.47412 0.51420 0.81312-0.07463-0.47068 0.97683
  -1  20   5  158.02   11.63 114-0.47393 0.51455 0.81268-0.03569-0.47192 0.97925
  -1  21   5    5.17   11.82 113-0.47391 0.51496 0.81264 0.00469-0.47202 0.97999
   0  -3  -3   87.55    6.31 113-0.47397 0.36207 0.81277-0.93020-0.47167 0.13789
   0  -2  -7  104.66    8.80 114-0.47376 0.21445 0.81231-0.89125-0.47294-0.30358
   0  15   4  275.50    6.80 113-0.47512 0.62598 0.81541-0.23208-0.46430 0.90974
   0  16   4  439.39    9.12 114-0.47323 0.62443 0.81111-0.18915-0.47620 0.92200
   1   1  -1   28.01    4.63 113-0.47512 0.58788 0.81541-0.77592-0.46430 0.40202
   1   2  -9  144.32   11.56 113-0.47407 0.29044 0.81301-0.73730-0.47099-0.47693
   1   9   2  601.28    9.94 114-0.47376 0.69855 0.81231-0.46094-0.47293 0.74612
   1  16   3  211.46    8.83 114-0.47388 0.73667 0.81258-0.18971-0.47220 0.85673
   2   1  -6  121.29    5.46 113-0.47489 0.55018 0.81488-0.77640-0.46578-0.10024
   2   1  -4  455.00    8.06 113-0.47412 0.62370 0.81312-0.77380-0.47069 0.12574
   2   4  -9    2.50   11.14 114-0.47402 0.43789 0.81290-0.65930-0.47131-0.42824
   2  11   1  930.45   14.67 114-0.47338 0.80967 0.81145-0.38176-0.47527 0.68708
   4  10  -7   96.90   10.56 113-0.47404 0.81147 0.81293-0.42408-0.47122-0.10436
   4  10  -5  184.47    9.05 113-0.47377 0.88480 0.81233-0.42237-0.47288 0.11862
  -6   6   4  183.62   10.75 115-0.47078-0.27164 0.80619-0.57778-0.48890 0.63498
  -6  10   5   12.63   10.62 115-0.47056-0.23455 0.80571-0.42009-0.49016 0.74794
  -5  -3  -3    6.36   15.04 115-0.46877-0.38623 0.80174-0.92296-0.50016-0.08158
  -5   2   3    5.29    7.33 115-0.47136-0.16061 0.80749-0.73242-0.48554 0.56997
  -4   8   5   74.18    5.83 114-0.47273 0.06463 0.81056-0.50207-0.47739 0.83367
  -4  15   6  206.87    8.32 114-0.47267 0.10315 0.81043-0.23012-0.47775 0.94614
  -4  16   6   72.20   11.31 115-0.47130 0.10148 0.80736-0.18761-0.48588 0.95443
  -3  -2   1  424.85   11.92 115-0.46961 0.05967 0.80360-0.88313-0.49551 0.45693
  -3   5   4  257.47    7.11 115-0.47105 0.17321 0.80680-0.61419-0.48733 0.78216
  -2   3   3 6992.06   24.35 114-0.47145 0.28491 0.80770-0.69160-0.48500 0.71852
  -2  12   5   61.98    5.71 114-0.47237 0.36224 0.80974-0.34469-0.47958 0.93617
  -1  -3  -7   51.74    8.79 115-0.47033 0.06300 0.80519-0.92400-0.49149-0.33469
  -1  -3  -1 4962.33   35.64 114-0.47148 0.28413 0.80777-0.92606-0.48482 0.32269
  -1   5   3  238.66    5.76 114-0.47273 0.43568 0.81056-0.61603-0.47739 0.76142
   0  -3  -6   22.17    7.23 114-0.47144 0.24901 0.80767-0.92601-0.48508-0.18121
   0  -1  -8   22.62    9.23 114-0.47224 0.17550 0.80947-0.85059-0.48032-0.40800
   0   2   1 4121.53   31.11 114-0.47160 0.50970 0.80803-0.72877-0.48413 0.59648
   0  17   4  297.54    9.31 115-0.47123 0.62213 0.80719-0.14622-0.48631 0.93207
   0  18   4  175.84    8.93 115-0.47013 0.62094 0.80475-0.10523-0.49261 0.93907
   1  -1  -7    3.94    7.57 115-0.47128 0.36039 0.80731-0.84831-0.48601-0.24223
   1   0  -8   -3.34    9.05 115-0.47129 0.32186 0.80732-0.81010-0.48597-0.35259
   1  17   3  363.01   10.00 115-0.47140 0.73379 0.80758-0.14558-0.48530 0.86969
   1  18   3  487.22   10.10 115-0.47022 0.73297 0.80495-0.10438-0.49209 0.87781
   2   1  -7  269.43    8.46 114-0.47117 0.50973 0.80706-0.76872-0.48665-0.18962
   2   2  -8  267.52    9.54 114-0.47139 0.47335 0.80757-0.73156-0.48534-0.30162
   3   4  -6  158.45    6.00 114-0.47243 0.69721 0.80988-0.65417-0.47922-0.03631
   3   4  -5  220.62    7.45 114-0.47183 0.73377 0.80854-0.65227-0.48277 0.07815
   3   5  -8  644.18   11.40 115-0.47104 0.62177 0.80678-0.61241-0.48738-0.24920
   3  17   0  595.62   16.88 116-0.46731 0.91656 0.79852-0.13509-0.50802 0.65925
   4   9  -6   13.06    8.51 115-0.47082 0.84454 0.80629-0.45517-0.48865 0.02263
   4  10  -8  192.49   11.63 115-0.47023 0.77109 0.80497-0.41524-0.49204-0.19447
   4  11  -4   38.32    8.03 114-0.47160 0.92051 0.80804-0.37950-0.48411 0.24061
  -5   5   4  281.12    8.76 116-0.46872-0.12537 0.80188-0.61007-0.49964 0.69523
  -5   9   5    0.92    9.07 115-0.46902-0.08724 0.80256-0.45469-0.49795 0.80594
  -4  -4  -4  295.75   11.60 115-0.46858-0.27314 0.80157-0.96194-0.50041-0.14228
  -4   9   5 1149.81   10.88 116-0.46854 0.06085 0.80149-0.45382-0.50059 0.85752
  -3   2   3 2481.49   14.80 115-0.46999 0.13493 0.80471-0.72853-0.49252 0.67638
  -3  10   5 1005.58    9.81 115-0.46913 0.20982 0.80278-0.41561-0.49739 0.90322
  -2  -5  -4    5.34    6.76 116-0.46843 0.02144 0.80124-0.99832-0.50121-0.04267
  -2  -5  -3  137.16    7.32 116-0.46795 0.05862 0.80019-0.99637-0.50380 0.07135
  -2  -4  -6  432.98   10.13 115-0.46941-0.04901 0.80342-0.96268-0.49581-0.26939
  -2  -3  -7  155.74   10.94 115-0.46951-0.08539 0.80364-0.92455-0.49525-0.38082
  -2   7   4   25.40    5.77 116-0.46860 0.32117 0.80162-0.52987-0.50028 0.84531
  -2  13   5  396.48    7.17 115-0.46954 0.35927 0.80371-0.29982-0.49506 0.95199
  -1  -4  -6   77.54    8.33 115-0.46859 0.09773 0.80159-0.95990-0.50035-0.21452
  -1  -2  -8   97.33   11.83 115-0.46853 0.02492 0.80145-0.88218-0.50069-0.43586
  -1  10   4  247.22    6.08 115-0.46986 0.47111 0.80443-0.41594-0.49325 0.88871
   0   5   2  202.59    6.90 116-0.46808 0.54377 0.80046-0.60482-0.50314 0.72638
   0   9   3  924.79    9.35 115-0.46986 0.58262 0.80443-0.45368-0.49325 0.82763
   0  19   4    0.42    9.42 116-0.46856 0.61924 0.80154-0.06269-0.50048 0.94423
   0  20   4  171.92   10.84 116-0.46868 0.62097 0.80180-0.02405-0.49983 0.94573
   0  21   4    6.10   11.23 116-0.46861 0.62100 0.80164 0.01561-0.50024 0.94613
   0  22   4   69.89   12.12 115-0.46884 0.62119 0.80216 0.05342-0.49895 0.94468
   1  -2  -6   10.56    6.83 116-0.46826 0.39394 0.80086-0.87964-0.50215-0.11429
   1  -2  -5 1314.23   10.05 115-0.47012 0.43341 0.80500-0.88333-0.49180-0.01372
   1  -2  -4  357.67    7.67 116-0.46846 0.46824 0.80130-0.87961-0.50106 0.10627
   1   1  -9   88.00   11.48 115-0.46870 0.28547 0.80183-0.76488-0.49975-0.44812
   1  19   3    0.71    9.10 116-0.46883 0.73132 0.80212-0.06154-0.49904 0.88407
   1  20   3   90.98   10.09 116-0.46852 0.73290 0.80144-0.02308-0.50071 0.88551
   1  21   3  198.63   11.34 116-0.46848 0.73273 0.80135 0.01586-0.50094 0.88608
   1  22   3  401.38   12.88 116-0.46876 0.73289 0.80196 0.05409-0.49943 0.88437
   2   3  -9  347.94   11.05 115-0.46919 0.43483 0.80294-0.68818-0.49701-0.40059
   3   4  -7  199.20    6.70 115-0.47006 0.65802 0.80486-0.64983-0.49216-0.13408
   4   9  -7    6.59    9.26 116-0.46898 0.80856 0.80247-0.45181-0.49818-0.08103
   4   9  -5 1027.82   12.93 116-0.46758 0.87833 0.79937-0.44915-0.50580 0.15092
   4  13  -3  373.05   14.02 116-0.46715 0.95303 0.79841-0.29179-0.50811 0.37488
  -6   2   2  300.80   12.26 117-0.46378-0.35208 0.79134-0.71590-0.52448 0.45177
  -6   4   3   22.13    9.52 117-0.46510-0.31459 0.79422-0.64209-0.51787 0.55440
  -6   7   4   25.79    9.44 117-0.46496-0.27699 0.79391-0.52478-0.51858 0.66629
  -5  -1   1  202.84   11.15 117-0.46345-0.24219 0.79062-0.83133-0.52611 0.39144
  -5  10   5  340.36   10.20 117-0.46526-0.08864 0.79456-0.40793-0.51709 0.82649
  -4   2   3   70.42    6.59 116-0.46615-0.01673 0.79652-0.72020-0.51250 0.64717
  -4   5   4    8.52    6.39 116-0.46630 0.02122 0.79684-0.60432-0.51173 0.75683
  -3  -5  -4  141.65   10.11 117-0.46504-0.13000 0.79409-0.99174-0.51818-0.07369
  -3  -5  -3  119.54    8.28 116-0.46593-0.09221 0.79604-0.99390-0.51362 0.03192
  -3  11   5  121.76    7.58 117-0.46567 0.20893 0.79547-0.36896-0.51495 0.92245
  -2  -5  -5  821.65   10.83 117-0.46494-0.01904 0.79388-0.99083-0.51867-0.13449
  -2  -4  -1 2250.38   27.17 117-0.46300 0.12655 0.78965-0.94675-0.52828 0.31783
  -2  14   5   -3.50    5.79 116-0.46694 0.35648 0.79825-0.25233-0.50836 0.96611
  -2  15   5  432.86    9.05 117-0.46497 0.35829 0.79394-0.21125-0.51852 0.97611
  -1  -4  -2 1740.30   16.17 116-0.46619 0.24132 0.79660-0.95406-0.51230 0.23974
  -1   0   1 5159.15   35.11 117-0.46525 0.35275 0.79455-0.79447-0.51711 0.57972
  -1  11   4  237.23    7.43 117-0.46523 0.46865 0.79449-0.36640-0.51724 0.91257
   0  -3  -7   62.44    8.72 117-0.46547 0.20517 0.79503-0.91374-0.51598-0.26048
   0  -2  -8  432.52   11.31 117-0.46548 0.16756 0.79504-0.87551-0.51595-0.37073
   1  10   2  278.92    8.55 117-0.46396 0.69005 0.79172-0.40115-0.52360 0.79539
   2   0  -6    4.01    4.79 116-0.46680 0.54201 0.79795-0.79866-0.50908-0.05775
   2   0  -5   -1.42    4.16 116-0.46694 0.57762 0.79825-0.79969-0.50836 0.05281
   2   1  -8  155.27    9.18 117-0.46552 0.46517 0.79514-0.75832-0.51574-0.27208
   3   3  -6  906.53   10.37 117-0.46551 0.68836 0.79511-0.67928-0.51579-0.00104
   3   4  -8   42.45    9.55 116-0.46571 0.61569 0.79556-0.64101-0.51474-0.22266
   3   4  -4  378.15    8.22 116-0.46572 0.76397 0.79558-0.64000-0.51470 0.21953
   3  18   0   57.30   12.86 118-0.46249 0.91217 0.78854-0.08708-0.53075 0.68102
   3  22   0    1.45   14.98 118-0.46107 0.91096 0.78546 0.06999-0.53749 0.68839
   4   8  -7   10.93    8.84 117-0.46522 0.80161 0.79448-0.48313-0.51726-0.05900
   4   8  -6  236.42    9.29 117-0.46523 0.83800 0.79450-0.48408-0.51721 0.05045
   4   9  -8   -2.50   11.59 117-0.46595 0.76672 0.79607-0.44676-0.51355-0.17513
   4  10  -4   22.94    9.12 117-0.46401 0.91226 0.79184-0.40366-0.52333 0.27786
  -5  -2   0   -0.66   12.35 120-0.45601-0.28761 0.77465-0.85524-0.55960 0.31191
  -5   6   4   71.56    8.32 118-0.46223-0.13045 0.78795-0.55667-0.53160 0.72938
  -5  11   5   58.29    9.09 118-0.46175-0.09290 0.78692-0.36169-0.53388 0.84306
  -4   0   2 3078.68   19.65 118-0.46255-0.05849 0.78863-0.78994-0.53010 0.55492
  -4  10   5  189.55    6.39 117-0.46452 0.05869 0.79290-0.40557-0.52046 0.87864
  -3  -4  -6   35.22   11.62 117-0.46350-0.20547 0.79069-0.95192-0.52549-0.28878
  -3   0   2    2.83    5.22 117-0.46372 0.09203 0.79118-0.79262-0.52439 0.59688
  -3   6   4  123.45    5.40 117-0.46387 0.16811 0.79150-0.55869-0.52365 0.82013
  -3  12   5    0.57    7.34 118-0.46260 0.20261 0.78875-0.32096-0.52983 0.93882
  -2   8   4  755.46    8.98 118-0.46254 0.31619 0.78862-0.47748-0.53012 0.87651
  -2  16   5   46.58    8.74 117-0.46302 0.35470 0.78964-0.16800-0.52784 0.98477
  -2  17   5  238.21    9.18 118-0.46193 0.35499 0.78729-0.12704-0.53307 0.99109
  -1  -5  -5  296.16    8.00 118-0.46204 0.12615 0.78754-0.98417-0.53252-0.07146
  -1  -5  -4  152.18    7.13 118-0.46264 0.16370 0.78882-0.98542-0.52968 0.03610
  -1   6   3  904.03    9.85 118-0.46292 0.42753 0.78943-0.55489-0.52831 0.81271
   0  -4  -5   62.04    5.14 117-0.46423 0.27705 0.79228-0.95028-0.52188-0.03301
   0  -4  -4  468.59    8.27 117-0.46322 0.31299 0.79010-0.94776-0.52683 0.08241
   0  10   3  232.28    7.07 118-0.46299 0.57742 0.78958-0.39941-0.52799 0.86154
   1  -2  -7   21.54    7.24 117-0.46351 0.35198 0.79070-0.87124-0.52546-0.20181
   1  -1  -8  170.87    7.20 117-0.46459 0.31491 0.79305-0.83546-0.52010-0.31782
   1   0  -9   48.93   11.45 117-0.46279 0.27775 0.78915-0.79155-0.52895-0.41968
   2   0  -7   -2.10    5.45 117-0.46387 0.50093 0.79150-0.79350-0.52365-0.15387
   2   0  -4 3405.07   16.68 118-0.46230 0.61036 0.78810-0.78852-0.53128 0.18569
   2   1  -3 3611.62   19.20 117-0.46363 0.64977 0.79098-0.75244-0.52483 0.28959
   2   2  -9    2.60   10.02 118-0.46330 0.42769 0.79025-0.71615-0.52648-0.37553
   2  12   1  211.04    9.53 118-0.46214 0.79968 0.78774-0.31942-0.53207 0.74289
   3   3  -7  200.89    8.13 117-0.46380 0.64961 0.79135-0.67706-0.52400-0.10362
   3   3  -5  243.60    7.49 117-0.46316 0.72360 0.78995-0.67443-0.52716 0.12067
   3   5  -9   19.74    8.93 117-0.46409 0.57851 0.79197-0.59873-0.52259-0.32689
   3   5  -3  538.15    9.73 118-0.46179 0.79754 0.78700-0.59220-0.53370 0.34920
   3  19   0   54.51   13.54 119-0.46023 0.90994 0.78364-0.04326-0.54097 0.69186
   3  20   0    6.34   13.39 119-0.45917 0.90878 0.78137-0.00250-0.54580 0.69653
   3  21   0  647.48   18.24 119-0.45987 0.91002 0.78287 0.03554-0.54261 0.69346
   4   8  -8   31.07   10.31 118-0.46221 0.76191 0.78790-0.47686-0.53171-0.15536
  -6   8   4   66.56   10.85 119-0.45963-0.28204 0.78223-0.47471-0.54372 0.69174
  -5   3   3   65.92    7.18 118-0.46115-0.16970 0.78547-0.67104-0.53678 0.62321
  -5  12   5  370.72   10.36 119-0.45872-0.09605 0.78029-0.31643-0.54781 0.85717
  -4  -4  -5   30.68   12.01 118-0.45966-0.32033 0.78229-0.94294-0.54360-0.20978
  -4   6   4 1031.87   10.52 119-0.45961 0.01487 0.78218-0.55031-0.54383 0.79078
  -4  11   5  203.41    6.60 118-0.46102 0.05450 0.78521-0.35903-0.53735 0.89570
  -3  -5  -5   14.86    9.61 119-0.45944-0.17269 0.78182-0.98015-0.54460-0.15975
  -3  -5  -2 2338.95   23.18 119-0.45686-0.06415 0.77636-0.97346-0.55590 0.18504
  -3  13   5   43.57    7.75 119-0.45959 0.20262 0.78214-0.27802-0.54392 0.95189
  -2  -4  -7   27.53   11.61 118-0.46002-0.09737 0.78305-0.94327-0.54198-0.33512
  -2   1   2 2263.81   16.83 118-0.46021 0.23675 0.78346-0.74448-0.54111 0.66447
  -2   4   3  387.98    7.64 118-0.46004 0.27470 0.78310-0.62694-0.54188 0.77638
  -2  18   5   86.25    7.47 118-0.46087 0.35320 0.78489-0.08475-0.53805 0.99581
  -2  19   5  113.31   10.55 118-0.46010 0.35244 0.78324-0.04475-0.54159 0.99860
  -2  20   5  119.83   11.36 119-0.46002 0.35252 0.78306-0.00580-0.54197 0.99975
  -1  -4  -7   12.22    8.93 118-0.46102 0.05262 0.78521-0.94429-0.53735-0.28989
  -1  -3  -8  171.14   12.02 118-0.46037 0.01570 0.78381-0.90561-0.54037-0.39602
  -1  12   4   55.28    5.16 118-0.46118 0.46383 0.78553-0.31829-0.53665 0.93255
   0  -4  -6  619.56    8.09 118-0.46148 0.23789 0.78618-0.94469-0.53525-0.13029
   1  -3  -5   22.86    6.01 119-0.45901 0.42141 0.78092-0.89862-0.54649 0.04076
   1  -2  -3 1027.53   10.93 119-0.45909 0.49549 0.78108-0.85968-0.54616 0.26151
   3   3  -8    0.18    9.33 119-0.45973 0.61015 0.78244-0.66757-0.54329-0.19527
   3   4  -9   47.07   10.68 118-0.45942 0.57337 0.78178-0.62762-0.54468-0.30307
   3   7  -2  255.32    9.90 118-0.45948 0.83316 0.78191-0.50864-0.54442 0.47122
   4   7  -7 1018.45   12.48 118-0.45970 0.79578 0.78237-0.51202-0.54343-0.03405
   4   7  -6    9.40    7.44 119-0.45872 0.83352 0.78029-0.50761-0.54781 0.08144
   4   8  -5   66.78    8.04 118-0.46042 0.87111 0.78391-0.47365-0.54015 0.18470
   4  12  -3    0.91   10.16 119-0.45737 0.94237 0.77743-0.30953-0.55373 0.42093
  -6   1   1  403.09   13.58 121-0.45366-0.40068 0.76969-0.73492-0.56927 0.38322
  -6   5   3  814.48   12.56 120-0.45657-0.32330 0.77580-0.58464-0.55716 0.59372
  -5   1   2  207.16    8.90 120-0.45678-0.21207 0.77624-0.73968-0.55627 0.53101
  -5   7   4  311.44    9.29 120-0.45603-0.13764 0.77466-0.50544-0.55947 0.75652
  -5  13   5  391.15   10.65 120-0.45589-0.10050 0.77436-0.27193-0.56006 0.86840
  -4  12   5   11.06    7.80 119-0.45753 0.04986 0.77782-0.31270-0.55305 0.91017
  -3   3   3  106.37    4.95 119-0.45809 0.12345 0.77902-0.66283-0.55059 0.73545
  -3   7   4  937.94    9.75 120-0.45680 0.15983 0.77629-0.50459-0.55617 0.85162
  -3  14   5  682.26   10.31 120-0.45689 0.19859 0.77648-0.23324-0.55580 0.96294
  -2  -5  -6   66.78    8.76 119-0.45805-0.06179 0.77892-0.97765-0.55079-0.21358
  -2  -5  -2   53.25    7.87 120-0.45526 0.08307 0.77304-0.96961-0.56270 0.24078
  -2   9   4   27.75    5.89 120-0.45662 0.30898 0.77591-0.42650-0.55696 0.90276
  -1  -5  -6 1276.41   12.13 119-0.45732 0.08614 0.77738-0.97579-0.55395-0.16095
  -1  -5  -3   28.91    6.07 119-0.45666 0.19601 0.77600-0.97261-0.55676 0.17344
  -1  13   4  348.85    7.79 119-0.45726 0.45918 0.77725-0.27119-0.55422 0.94929
   0  -4  -7   62.78    8.71 120-0.45619 0.19637 0.77501-0.93311-0.55876-0.21774
   0  -3  -8   38.94   10.30 119-0.45715 0.16083 0.77702-0.89781-0.55469-0.33326
   0  -3  -2   22.35    4.06 119-0.45786 0.38287 0.77851-0.89632-0.55163 0.32906
   0  11   3  378.88    7.87 120-0.45688 0.57029 0.77646-0.34728-0.55584 0.88987
   1  -3  -6  489.85    7.10 119-0.45825 0.38389 0.77935-0.89870-0.54990-0.06617
   1  -2  -8   74.21    9.37 119-0.45702 0.30979 0.77675-0.85787-0.55524-0.28215
   1  -1  -9   93.35   10.95 120-0.45615 0.27196 0.77492-0.81703-0.55894-0.38850
   1  -1  -2 3414.19   21.32 120-0.45665 0.53121 0.77597-0.81541-0.55682 0.38297
   1   6   1 3873.62   27.53 120-0.45513 0.64273 0.77278-0.53743-0.56321 0.72472
   1  11   2  381.70    8.62 120-0.45595 0.68119 0.77449-0.34537-0.55980 0.83311
   2  -1  -7  276.57    7.99 120-0.45593 0.49390 0.77447-0.81488-0.55986-0.11691
   2  -1  -6  126.82    5.46 119-0.45793 0.53251 0.77868-0.81919-0.55129-0.01524
   2  -1  -5  275.23    7.35 120-0.45646 0.56822 0.77557-0.81501-0.55763 0.10195
   2   0  -8  533.28    8.26 119-0.45865 0.45908 0.78018-0.78331-0.54817-0.23987
   2   1  -9    4.24    7.84 119-0.45786 0.42224 0.77851-0.74288-0.55163-0.34786
   3   2  -7  428.54    9.19 119-0.45674 0.64380 0.77616-0.70034-0.55644-0.07071
   3   2  -6  462.70    8.81 119-0.45723 0.68129 0.77719-0.70100-0.55434 0.03773
   4   7  -8   13.81   11.23 119-0.45706 0.75819 0.77683-0.50492-0.55509-0.13305
   4   9  -4    0.74    8.74 120-0.45527 0.90432 0.77307-0.42191-0.56265 0.31842
  -6   3   2   36.10   10.64 121-0.45082-0.36623 0.76430-0.65162-0.57976 0.50405
  -6   9   4   -5.82    9.72 121-0.45384-0.28884 0.77058-0.42157-0.56776 0.71351
  -5  14   5  135.59   11.48 121-0.45320-0.10404 0.76924-0.22812-0.57035 0.87738
  -4   3   3   83.26    4.98 120-0.45483-0.02897 0.77266-0.65784-0.56367 0.69830
  -4   7   4   60.71    7.40 121-0.45265 0.00591 0.76810-0.49809-0.57256 0.81814
  -4  13   5  267.63    7.38 120-0.45483 0.04724 0.77266-0.26976-0.56367 0.92167
  -4  14   5   44.90    8.61 121-0.45233 0.04474 0.76743-0.22488-0.57383 0.93188
  -3  15   5    8.39    6.21 120-0.45492 0.19614 0.77283-0.18978-0.56332 0.97169
  -3  16   5    9.37    9.04 121-0.45318 0.19480 0.76920-0.14720-0.57043 0.97864
  -3  17   5    3.98    9.00 121-0.45224 0.19395 0.76725-0.10564-0.57418 0.98375
  -2  -1   1   85.52    7.31 121-0.45067 0.18915 0.76399-0.80391-0.58034 0.59146
  -1   3   2 3011.81   18.85 120-0.45367 0.37900 0.77024-0.65288-0.56842 0.74137
  -1   7   3  409.65    7.63 121-0.45327 0.41625 0.76939-0.49671-0.57006 0.85437
  -1  14   4   38.24    6.62 120-0.45397 0.45546 0.77085-0.22654-0.56722 0.96248
   0  -4  -3  286.21    6.38 120-0.45467 0.34275 0.77232-0.92931-0.56435 0.23038
   0   6   2 1192.13   12.27 121-0.45279 0.52798 0.76840-0.53373-0.57197 0.79563
   1  -3  -7    9.60    5.71 120-0.45450 0.34412 0.77197-0.89064-0.56503-0.16255
   1  -3  -4    7.79    5.76 120-0.45384 0.45395 0.77058-0.88842-0.56776 0.17290
   2   2  -2 4605.97   25.97 120-0.45459 0.67938 0.77215-0.69344-0.56467 0.44187
   2  13   1  265.44    8.95 121-0.45296 0.78944 0.76875-0.26127-0.57131 0.78471
   3   2  -8   95.45    9.31 120-0.45313 0.60433 0.76910-0.69281-0.57063-0.16581
   3   2  -5  239.86    7.35 120-0.45318 0.71517 0.76921-0.69127-0.57042 0.16547
   3   3  -9   79.38   11.89 120-0.45335 0.56766 0.76955-0.65522-0.56975-0.27846
   3   3  -4  731.71    9.81 120-0.45385 0.75311 0.77061-0.65367-0.56771 0.27357
   4   6  -7    5.18    9.04 120-0.45344 0.79106 0.76976-0.53641-0.56936-0.00764
   4   7  -5  164.53    8.22 121-0.45236 0.86400 0.76751-0.49420-0.57369 0.22038
  -6   0   0 1172.69   21.19 123-0.44539-0.44588 0.75365-0.75799-0.59897 0.30187
  -6   6   3  243.82   10.00 122-0.44825-0.33204 0.75954-0.53090-0.58845 0.62427
  -6  10   4  269.98   11.80 122-0.44962-0.29349 0.76237-0.37822-0.58326 0.72966
  -5   4   3 1462.09   12.64 121-0.45032-0.18153 0.76382-0.61171-0.58057 0.66469
  -5   8   4   87.31    8.64 122-0.44956-0.14485 0.76223-0.45474-0.58351 0.77953
  -5  15   5   23.19    8.64 121-0.45140-0.10488 0.76606-0.18430-0.57635 0.88608
  -4  -5  -4  114.05   12.04 122-0.44645-0.29411 0.75583-0.95568-0.59513-0.04818
  -4  -5  -3  158.39   12.46 122-0.44572-0.25866 0.75432-0.95343-0.59780 0.06528
  -4  15   5  146.17    9.75 121-0.44984 0.04121 0.76281-0.18242-0.58244 0.93945
  -4  16   5   91.01    9.55 122-0.44861 0.04019 0.76028-0.14167-0.58711 0.94557
  -3  -5  -6   15.67   11.99 121-0.44984-0.21993 0.76281-0.96220-0.58244-0.23324
  -3   8   4 1207.04   10.44 121-0.44986 0.15185 0.76285-0.45332-0.58236 0.87725
  -3  18   5  545.48    9.17 121-0.45097 0.19148 0.76517-0.06807-0.57804 0.98674
  -3  19   5    7.80    9.83 121-0.45028 0.19277 0.76374-0.02566-0.58072 0.98898
  -3  20   5  213.37   11.29 121-0.45003 0.19089 0.76322 0.01313-0.58169 0.98906
  -2  -6  -5   -2.67    8.13 122-0.44914-0.03757 0.76137-0.99779-0.58510-0.06960
  -2  -6  -4  470.82    9.44 121-0.44964 0.00514 0.76240-0.99905-0.58321 0.03938
  -2  -5  -7   37.20   10.60 122-0.44863-0.10757 0.76031-0.95876-0.58704-0.28799
  -2   5   3   52.93    5.40 122-0.44846 0.26221 0.75996-0.56601-0.58769 0.82202
  -2  10   4 1559.42   10.49 121-0.45089 0.30204 0.76499-0.37716-0.57838 0.92459
  -1  -5  -7  151.72   10.47 121-0.44977 0.04448 0.76267-0.96120-0.58270-0.24331
  -1  -4  -8    1.22   10.57 122-0.45019 0.00073 0.76355-0.92533-0.58107-0.35937
  -1  15   4  229.75    6.55 121-0.45149 0.45251 0.76624-0.18383-0.57601 0.97262
  -1  16   4    4.39    7.99 121-0.44955 0.45208 0.76222-0.13907-0.58355 0.98068
  -1  22   4   10.89   10.35 122-0.44808 0.45169 0.75917 0.09726-0.58912 0.98715
   0  -5  -6  234.48    8.31 121-0.44943 0.22855 0.76197-0.95825-0.58401-0.08170
   0  -5  -5  462.89    8.30 121-0.45041 0.26601 0.76400-0.96038-0.58022 0.02490
   0  12   3    3.86    4.55 121-0.45123 0.56480 0.76570-0.29780-0.57703 0.91208
   1  12   2  101.58    7.45 122-0.44757 0.67185 0.75812-0.29047-0.59102 0.86423
   2  -1  -8  162.62    8.66 121-0.45051 0.45376 0.76420-0.80479-0.57984-0.20671
   2   0  -9   -6.39    9.92 122-0.45015 0.41427 0.76346-0.76804-0.58124-0.32097
   3   1  -7  206.37    7.98 122-0.44839 0.63662 0.75982-0.72135-0.58794-0.03826
   4   6  -8   96.57    8.15 121-0.45123 0.75267 0.76570-0.53335-0.57703-0.10923
   4   6  -6  616.18    8.49 121-0.45140 0.82634 0.76606-0.53197-0.57635 0.11194
  -6  11   4   24.10   11.77 123-0.44582-0.29668 0.75421-0.32928-0.59800 0.74629
  -4   8   4  434.55    8.65 123-0.44614-0.00015 0.75488-0.44633-0.59682 0.84276
  -4  17   5   19.07    7.76 122-0.44765 0.04099 0.75800-0.09768-0.59125 0.95107
  -4  18   5    9.97   10.30 123-0.44634 0.04061 0.75530-0.05816-0.59608 0.95397
  -3  -6  -4  174.27   10.32 123-0.44380-0.14912 0.75007-0.98718-0.60521 0.01242
  -3   4   3   34.60    5.90 123-0.44596 0.11106 0.75451-0.60061-0.59746 0.78183
  -2  11   4    3.29    6.54 123-0.44607 0.29851 0.75473-0.32689-0.59707 0.94365
  -1  -6  -5  752.42   10.19 122-0.44645 0.11331 0.75551-0.99187-0.59570-0.00899
  -1  17   4   76.41    6.35 122-0.44819 0.45011 0.75911-0.09877-0.58925 0.98624
  -1  18   4   71.02    8.16 122-0.44693 0.44876 0.75651-0.05718-0.59392 0.99007
  -1  19   4  675.39   11.26 122-0.44650 0.44801 0.75561-0.01727-0.59552 0.99193
  -1  20   4   96.79   10.22 123-0.44648 0.44826 0.75557 0.02151-0.59559 0.99198
  -1  21   4   22.57    9.72 122-0.44702 0.45026 0.75670 0.05971-0.59358 0.99024
   0  -5  -7  583.18    9.99 123-0.44520 0.18715 0.75293-0.94898-0.60024-0.17591
   0  -5  -4  274.07    7.33 122-0.44635 0.29819 0.75531-0.95129-0.59605 0.15136
   0  -4  -8   56.53    7.83 122-0.44774 0.15296 0.75819-0.91712-0.59092-0.29651
   0  13   3 1824.44   12.98 123-0.44638 0.55892 0.75537-0.24905-0.59594 0.93048
   1  -4  -6  391.58    8.34 122-0.44663 0.37389 0.75589-0.91311-0.59502-0.02087
   1  -4  -5  140.52    6.70 123-0.44534 0.40898 0.75323-0.90954-0.59973 0.09399
   1  -3  -8  237.35    7.64 122-0.44810 0.30188 0.75892-0.87835-0.58958-0.24770
   1  -2  -9  133.37    9.34 122-0.44810 0.26541 0.75892-0.83955-0.58958-0.35840
   2  -2  -7   16.73    7.56 122-0.44618 0.48440 0.75495-0.83437-0.59669-0.08147
   2  -2  -6 1349.94   10.70 122-0.44713 0.52317 0.75691-0.83562-0.59321 0.02700
   2  -1  -4  452.76    6.90 122-0.44792 0.59765 0.75855-0.79719-0.59025 0.24522
   2   0  -3    1.26    5.52 122-0.44612 0.63196 0.75483-0.75436-0.59690 0.36314
   2   4  -1  244.65   11.23 123-0.44382 0.70595 0.75010-0.59294-0.60514 0.59384
   2  14   1  189.07    9.43 123-0.44477 0.78103 0.75207-0.20593-0.60175 0.81416
   3   1  -8  255.41    9.70 123-0.44575 0.59702 0.75407-0.71591-0.59825-0.13873
   3   1  -6  609.42    7.77 122-0.44783 0.67291 0.75837-0.71968-0.59058 0.07481
   3   2  -9  210.76   11.00 122-0.44697 0.56182 0.75658-0.68075-0.59379-0.25399
   3   4  -3   37.49    6.26 123-0.44564 0.78213 0.75384-0.59688-0.59865 0.41507
   4   5  -8   62.94   10.56 123-0.44543 0.74549 0.75342-0.55995-0.59939-0.08866
   4   5  -7  102.40    9.24 122-0.44644 0.78448 0.75549-0.56172-0.59574 0.01993
   4   8  -4  387.81   10.69 123-0.44500 0.89346 0.75253-0.44001-0.60094 0.35784
   4  11  -3  189.64   11.62 123-0.44343 0.92940 0.74931-0.32006-0.60650 0.47421
  -6   7   3  174.33    9.81 124-0.44078-0.33854 0.74382-0.47449-0.61580 0.65322
  -6  12   4  163.23   12.17 124-0.44241-0.29931 0.74714-0.28421-0.61024 0.75898
  -5   2   2    5.03    8.14 124-0.44114-0.22891 0.74454-0.66947-0.61459 0.58947
  -5   5   3   16.57    7.08 124-0.44117-0.19000 0.74460-0.55220-0.61450 0.70142
  -5   9   4   26.12    6.34 123-0.44455-0.14933 0.75154-0.40420-0.60271 0.80052
  -4  -5  -5   33.09   14.12 124-0.44042-0.33963 0.74307-0.94185-0.61703-0.13641
  -4   1   2  421.53    9.10 123-0.44305-0.07785 0.74846-0.71108-0.60799 0.63160
  -4   4   3  266.97    7.54 123-0.44317-0.04019 0.74871-0.59483-0.60756 0.74233
  -3  -6  -5   67.49   11.39 124-0.44171-0.18898 0.74572-0.98248-0.61263-0.09065
  -3   1   2 1359.71   13.16 124-0.44281 0.06997 0.74798-0.70987-0.60881 0.68210
  -3   9   4    3.24    4.66 123-0.44436 0.14780 0.75116-0.40160-0.60337 0.90018
  -2  -6  -6  258.23    9.79 123-0.44382-0.07415 0.75005-0.98763-0.60527-0.15963
  -2  -6  -3  672.80   10.66 123-0.44253 0.03350 0.74739-0.98318-0.60982 0.17716
  -2  12   4   47.96    6.77 124-0.44190 0.29460 0.74610-0.27987-0.61199 0.95858
  -1  -6  -6  482.95    9.58 123-0.44392 0.07417 0.75025-0.98693-0.60494-0.11033
  -1  -6  -4   44.40    6.26 123-0.44397 0.14665 0.75036-0.98619-0.60474 0.11016
  -1   8   3  632.01    7.69 123-0.44436 0.40758 0.75116-0.43972-0.60337 0.88828
   0  -2  -1 4305.32   31.83 123-0.44291 0.40476 0.74817-0.82755-0.60849 0.49571
   0  14   3   17.18    6.81 124-0.44258 0.55596 0.74750-0.20243-0.60963 0.94414
   1  -4  -7 1419.79   10.43 123-0.44408 0.33467 0.75059-0.90836-0.60436-0.12195
   1  13   2  276.86    8.11 124-0.44190 0.66724 0.74610-0.23942-0.61198 0.88559
   2  -2  -8  265.56    9.75 124-0.44221 0.44365 0.74673-0.82646-0.61092-0.17656
   2  -2  -5    4.81    5.93 123-0.44362 0.55571 0.74963-0.82807-0.60600 0.14990
   2  -1  -9   -0.73   10.01 123-0.44343 0.40796 0.74925-0.79081-0.60666-0.29332
   2  15   1  299.09   10.40 124-0.43903 0.77562 0.74024-0.15528-0.62167 0.83382
   3   1  -5    6.11    6.47 124-0.44190 0.70319 0.74610-0.70720-0.61198 0.20598
   4   5  -6  191.07    8.49 123-0.44342 0.81793 0.74922-0.55493-0.60670 0.14149
   4   6  -5    2.73    7.08 124-0.44270 0.85469 0.74774-0.51422-0.60922 0.25328
  -6   4   2   34.74    9.83 125-0.43859-0.37786 0.73940-0.58751-0.62309 0.54881
  -5   0   1    1.48    9.34 125-0.43698-0.26974 0.73611-0.73902-0.62836 0.49181
  -5  10   4    6.18    8.20 125-0.43913-0.15367 0.74050-0.35389-0.62130 0.81817
  -4  -1   1 1302.06   16.34 125-0.43712-0.12102 0.73640-0.77737-0.62790 0.54047
  -4   9   4    6.61    5.05 124-0.44058-0.00500 0.74347-0.39453-0.61643 0.86381
  -3  -6  -3 1013.71   14.83 125-0.43741-0.11961 0.73699-0.97329-0.62695 0.14494
  -3  10   4  288.17    7.68 125-0.43881 0.14182 0.73986-0.35215-0.62234 0.91846
  -2   2   2 4797.83   23.06 125-0.43872 0.21449 0.73966-0.66203-0.62265 0.74604
  -2   6   3   -1.64    5.30 125-0.43821 0.25159 0.73862-0.50417-0.62435 0.86084
  -2  13   4 1161.49   10.40 125-0.43835 0.29042 0.73891-0.23446-0.62388 0.97058
  -1  -6  -7   18.30   10.08 124-0.43840 0.03041 0.73901-0.97430-0.62371-0.20222
  -1  -5  -8   44.81    9.09 124-0.44048-0.00345 0.74327-0.94214-0.61676-0.31966
   0  -5  -8   10.02    9.58 124-0.43804 0.14221 0.73827-0.93453-0.62491-0.26094
   0   7   2   30.91    5.50 125-0.43790 0.51281 0.73800-0.46513-0.62534 0.84853
   0  15   3  757.92    9.97 124-0.43929 0.55255 0.74083-0.15679-0.62076 0.95498
   0  16   3  394.34    8.52 125-0.43754 0.55057 0.73725-0.11494-0.62654 0.96232
   0  22   3  154.44   10.44 125-0.43771 0.55183 0.73760 0.11784-0.62598 0.96281
   0  23   3  504.55   13.14 124-0.43913 0.55385 0.74050 0.15401-0.62130 0.95676
   1  -4  -8  107.08    9.77 124-0.43859 0.29153 0.73940-0.89738-0.62308-0.21424
   1  -3  -9  158.02   11.31 124-0.43951 0.25570 0.74128-0.86177-0.62003-0.32811
   1  -3  -3   24.23    5.91 125-0.43809 0.47540 0.73837-0.85564-0.62474 0.34040
   1  14   2    6.53    7.39 125-0.43709 0.66275 0.73633-0.19005-0.62801 0.90239
   2  22   1  128.08   12.34 125-0.43572 0.77259 0.73356 0.12335-0.63238 0.84539
   2  23   1   56.98   12.14 124-0.43895 0.77689 0.74014 0.15545-0.62188 0.83515
   3   0  -8   -3.03    8.38 125-0.43796 0.58666 0.73812-0.73963-0.62515-0.11201
   3   0  -7   45.96    7.85 124-0.43934 0.62670 0.74093-0.74303-0.62059-0.00620
   3   0  -6    0.09    6.39 125-0.43806 0.66015 0.73832-0.73925-0.62483 0.10895
   3   1  -9  267.42   10.83 124-0.43996 0.55325 0.74219-0.70653-0.61853-0.23000
   3   2  -4   97.30    5.01 124-0.44039 0.73892 0.74307-0.66541-0.61708 0.32209
   4   4  -8   97.01   10.30 124-0.43875 0.73817 0.73973-0.58617-0.62255-0.06515
   4   4  -7   31.78    8.69 124-0.43900 0.77587 0.74023-0.58576-0.62174 0.04412
   5  13  -6  126.85   12.79 124-0.43911 0.96316 0.74045-0.23588-0.62137 0.20591
  -6   2   1   22.24    9.95 126-0.43443-0.41972 0.73065-0.65617-0.63659 0.45155
  -6   8   3   55.62   10.42 126-0.43416-0.34537 0.73009-0.42257-0.63745 0.67474
  -5  11   4  432.18   10.37 125-0.43504-0.15922 0.73190-0.30676-0.63466 0.83123
  -4  10   4   30.65    7.40 126-0.43509-0.01024 0.73199-0.34362-0.63452 0.88113
  -3  -6  -6   13.59   11.79 126-0.43418-0.23425 0.73014-0.96777-0.63738-0.17727
  -3   5   3  585.46    8.50 126-0.43466 0.09979 0.73112-0.53739-0.63587 0.82103
  -3  11   4  407.47    8.17 126-0.43438 0.13780 0.73054-0.30393-0.63676 0.93372
  -2  -6  -7    8.82   11.35 125-0.43503-0.12216 0.73186-0.97045-0.63471-0.24205
  -2  14   4  724.81    9.57 125-0.43508 0.28717 0.73197-0.18803-0.63454 0.98047
  -1   4   2  499.12    8.70 126-0.43441 0.36003 0.73062-0.57423-0.63665 0.81031
  -1   9   3  187.13    6.30 125-0.43562 0.39860 0.73308-0.38208-0.63282 0.91697
   0  -6  -6  155.54    7.50 125-0.43585 0.21454 0.73354-0.96978-0.63210-0.03357
   0  -6  -5  778.45    9.68 125-0.43484 0.24978 0.73149-0.96723-0.63530 0.08027
   0  17   3    2.33    7.01 126-0.43471 0.54679 0.73122-0.07169-0.63570 0.96817
   0  18   3  203.48    8.85 126-0.43489 0.54846 0.73159-0.03104-0.63514 0.97028
   0  19   3  508.07   10.40 126-0.43484 0.54863 0.73148 0.00758-0.63531 0.97096
   0  20   3   -0.53    9.21 126-0.43502 0.54736 0.73184 0.04793-0.63475 0.97029
   0  21   3    7.84    9.23 125-0.43588 0.54990 0.73360 0.08319-0.63201 0.96714
   1  -5  -6   19.33    6.75 126-0.43384 0.36007 0.72946-0.92595-0.63843 0.02229
   1  -4  -4   50.09    4.47 125-0.43671 0.43716 0.73530-0.89232-0.62933 0.23374
   1  15   2  488.05    9.12 126-0.43309 0.65848 0.72793-0.14326-0.64076 0.91486
   1  23   2  154.02   12.09 126-0.43451 0.66059 0.73081 0.16402-0.63634 0.91172
   2  -3  -7  783.68    9.53 125-0.43575 0.47498 0.73334-0.85208-0.63241-0.04430
   2  -3  -6  453.67    8.43 125-0.43530 0.51125 0.73241-0.85069-0.63386 0.06773
   2  -2  -9    0.48   10.84 126-0.43491 0.39874 0.73163-0.81399-0.63507-0.26500
   2  16   1  303.29    9.73 126-0.43501 0.77142 0.73182-0.10818-0.63478 0.84711
   2  17   1  345.17   11.00 126-0.43242 0.76929 0.72657-0.06411-0.64283 0.85488
   2  20   1  282.65   11.51 126-0.43189 0.76917 0.72549 0.05344-0.64445 0.85683
   2  21   1  267.74   11.54 126-0.43425 0.77182 0.73029 0.08761-0.63715 0.85136
   3   6  -2   95.23    8.19 126-0.43337 0.80679 0.72850-0.49413-0.63990 0.56738
   4   4  -6  614.15   10.00 125-0.43459 0.80860 0.73098-0.57586-0.63608 0.17039
   4   5  -5  414.45    9.85 126-0.43272 0.84369 0.72717-0.53315-0.64192 0.28687
   4   7  -4   50.52    8.27 126-0.43326 0.88145 0.72827-0.45550-0.64025 0.39565
   5  12  -6   15.96   11.54 125-0.43441 0.95783 0.73060-0.26398-0.63667 0.22035
  -5   6   3  208.51    7.99 126-0.43202-0.19930 0.72530-0.49397-0.64459 0.73053
  -5  12   4   63.58    8.76 126-0.43167-0.16196 0.72459-0.26000-0.64566 0.84301
  -4   5   3 1002.50    9.58 126-0.43286-0.05022 0.72700-0.53397-0.64203 0.77753
  -4  11   4   43.49    7.72 127-0.43097-0.01476 0.72317-0.29630-0.64778 0.89462
  -3  12   4   40.55    7.02 127-0.43044 0.13448 0.72210-0.25631-0.64938 0.94637
  -2  -7  -5   31.14    8.36 126-0.43082-0.05195 0.72286-0.99874-0.64825-0.00611
  -2  15   4   22.27    5.57 126-0.43327 0.28602 0.72783-0.14460-0.64077 0.98778
  -2  16   4   59.28    7.85 126-0.43129 0.28396 0.72382-0.10145-0.64681 0.99314
  -2  17   4   92.26    8.68 127-0.43058 0.28437 0.72237-0.06194-0.64897 0.99652
  -2  18   4 1022.06   11.47 127-0.43025 0.28431 0.72171-0.02267-0.64995 0.99833
  -2  19   4   11.38    9.51 127-0.43017 0.28359 0.72155 0.01833-0.65018 0.99856
  -2  20   4  177.03   10.63 127-0.43057 0.28496 0.72236 0.05437-0.64899 0.99750
  -2  21   4  130.65   10.91 127-0.43110 0.28515 0.72344 0.09266-0.64739 0.99490
  -2  22   4  159.85    9.06 126-0.43265 0.28684 0.72658 0.12847-0.64266 0.99122
  -1  -7  -5   33.03    6.96 127-0.42934 0.09487 0.71988-0.99486-0.65264 0.04827
  -1  -6  -3   75.39    6.39 126-0.43108 0.16994 0.72339-0.95912-0.64745 0.26397
  -1  -5  -2 2988.50   20.65 126-0.43193 0.20772 0.72511-0.92192-0.64489 0.37217
   0  -6  -7  144.91    7.16 126-0.43265 0.17403 0.72658-0.96357-0.64266-0.13327
   0  -5  -3 3272.71   17.80 126-0.43105 0.31889 0.72334-0.91983-0.64753 0.31351
   0   3   1 1748.19   19.26 126-0.43153 0.46966 0.72430-0.60590-0.64610 0.75814
   1  -5  -7    5.12    6.04 126-0.43265 0.32212 0.72658-0.92379-0.64266-0.08502
   1  -5  -5  457.75    8.24 127-0.43028 0.39301 0.72177-0.91770-0.64986 0.14433
   1  -4  -9   41.04   12.14 126-0.43055 0.24620 0.72233-0.88099-0.64904-0.29964
   1   7   1  610.06   11.33 127-0.43007 0.61775 0.72134-0.44731-0.65049 0.81240
   1  16   2   32.28    7.07 127-0.43053 0.65595 0.72229-0.09874-0.64909 0.92336
   1  21   2  159.88   10.38 127-0.43048 0.65696 0.72218 0.09520-0.64925 0.92459
   1  22   2  398.29   11.21 126-0.43171 0.65776 0.72467 0.13165-0.64554 0.91921
   2  -3  -8  166.71    7.03 126-0.43255 0.43418 0.72638-0.84622-0.64298-0.14458
   2  -3  -5   43.90    6.12 127-0.42972 0.54171 0.72065-0.83805-0.65151 0.19600
   2  -2  -4   89.77    6.23 126-0.43150 0.58080 0.72425-0.80315-0.64617 0.30105
   2  18   1   93.83    8.66 126-0.43145 0.76851 0.72414-0.02262-0.64633 0.85866
   2  19   1   83.99    9.38 126-0.43127 0.76839 0.72377 0.01664-0.64688 0.85924
   3  -1  -7  214.10    7.99 127-0.42983 0.61669 0.72087-0.76146-0.65118 0.02428
   3   0  -9  134.21   10.45 126-0.43224 0.54623 0.72575-0.72964-0.64392-0.20449
   4   3  -8  132.09   10.44 126-0.43137 0.73124 0.72398-0.60982-0.64657-0.04074
   4   3  -7  455.49   10.33 126-0.43090 0.76739 0.72302-0.60808-0.64801 0.07123
   5  10  -7  159.62   11.81 126-0.43204 0.91873 0.72533-0.33804-0.64455 0.11855
  -5  13   4  181.09    7.91 127-0.42851-0.16462 0.71912-0.21603-0.65369 0.85211
  -1  -7  -6   19.99    6.14 127-0.42830 0.05697 0.71869-0.99470-0.65431-0.06197
  -1  10   3 1465.00   10.59 127-0.42872 0.39305 0.71954-0.33013-0.65307 0.93837
   3  -1  -8  260.73    7.63 127-0.42809 0.57823 0.71826-0.76016-0.65493-0.08283
   3   0  -5 5028.98   18.57 127-0.42872 0.68990 0.71954-0.72042-0.65307 0.24726
;
_shelx_hkl_checksum              40836
_shelx_res_file
;
TITL shelxt_a.res in P2(1)/n
    shelx.res
    created by SHELXL-2018/3 at 13:45:59 on 01-Aug-2019
CELL  0.71073   5.0710  18.2390   6.8383   90.000  109.780   90.000
ZERR     2.00   0.0009   0.0027   0.0017    0.000    0.016    0.000
LATT   1
SYMM  1/2 - X, 1/2 + Y, 1/2 - Z
SFAC  C    H    N    NI   O    S
UNIT  16 16 4 2 12 4
MERG   2
EQIV $1 x-1, y, z
HTAB C2 O3_$1
EQIV $2 x-1/2, -y+3/2, z+1/2
HTAB C1 S1_$2
HTAB C1 O2_$2
EQIV $3 x, y, z+1
HTAB O3 O2_$3
EQIV $4 -x+2, -y+1, -z+1
HTAB O3 O1_$4
HTAB C2 O3_$1
HTAB C1 S1_$2
HTAB C1 O2_$2
HTAB O3 O2_$3
HTAB O3 O1_$4
FMAP   2
PLAN   20
SIZE     0.100   0.110   0.460
ACTA    52.00
BOND   $H
LIST   6
L.S.  10
TEMP  -123.00
WGHT    0.037200
FVAR       0.86054
NI1   4    0.500000    0.500000    0.500000    10.50000    0.01260    0.01343 =
         0.01475    0.00072    0.00782    0.00166
S1    6    0.317389    0.714608    0.183859    11.00000    0.02421    0.01679 =
         0.02135    0.00453    0.01470    0.00458
O3    5    0.840807    0.549917    0.721033    11.00000    0.01411    0.02218 =
         0.01723   -0.00257    0.00843    0.00192
O1    5    0.677446    0.520454    0.268382    11.00000    0.01598    0.01625 =
         0.01870    0.00047    0.01016    0.00159
O2    5    0.673822    0.607018    0.030027    11.00000    0.02355    0.01922 =
         0.01963   -0.00097    0.01426   -0.00047
N1    3    0.341279    0.603382    0.413181    11.00000    0.01353    0.01548 =
         0.01514    0.00005    0.00684    0.00092
C4    1    0.606581    0.581734    0.175797    11.00000    0.01127    0.01543 =
         0.01547   -0.00320    0.00574   -0.00143
C3    1    0.423171    0.627564    0.260885    11.00000    0.01291    0.01514 =
         0.01501   -0.00003    0.00565    0.00005
C2    1    0.188944    0.655080    0.474888    11.00000    0.01610    0.01745 =
         0.01755   -0.00069    0.00954    0.00112
AFIX  44
H2    2    0.112049    0.646693    0.584479    11.00000   -1.20000
AFIX   0
C1    1    0.155996    0.719490    0.367146    11.00000    0.02001    0.01876 =
         0.02231    0.00001    0.01325    0.00346
AFIX  44
H1    2    0.060211    0.759994    0.389839    11.00000   -1.20000
AFIX   0
H3A   2    0.810655    0.560090    0.818151    11.00000    0.03585
H3B   2    0.987720    0.530406    0.742361    11.00000    0.03685
HKLF 4
REM  shelxt_a.res in P2(1)/n
REM wR2 = 0.0571, GooF = S = 0.949, Restrained GooF = 0.949 for all data
REM R1 = 0.0223 for 1367 Fo > 4sig(Fo) and 0.0276 for all 1594 data
REM 98 parameters refined using 0 restraints
END
WGHT      0.0372      0.0000
REM Highest difference peak  0.495,  deepest hole -0.289,  1-sigma level  0.075
Q1    1   0.6651  0.5005  0.4978  11.00000  0.05    0.50
Q2    1   0.4218  0.5291  0.3822  11.00000  0.05    0.47
Q3    1   0.5183  0.5293  0.5863  11.00000  0.05    0.43
Q4    1   0.3736  0.6596  0.2016  11.00000  0.05    0.38
Q5    1   0.3462  0.5598  0.4345  11.00000  0.05    0.37
Q6    1   0.2465  0.7127  0.2956  11.00000  0.05    0.34
Q7    1   0.4975  0.6059  0.2074  11.00000  0.05    0.34
Q8    1   0.3458  0.6140  0.3193  11.00000  0.05    0.32
Q9    1   0.1710  0.6854  0.4256  11.00000  0.05    0.30
Q10   1   0.6673  0.5524  0.2367  11.00000  0.05    0.30
Q11   1   0.4306  0.5798  0.4880  11.00000  0.05    0.30
Q12   1   0.6304  0.5316  0.6358  11.00000  0.05    0.29
Q13   1   0.6667  0.5881  0.0977  11.00000  0.05    0.28
Q14   1   0.6934  0.5407  0.6156  11.00000  0.05    0.27
Q15   1   0.5592  0.5003  0.3343  11.00000  0.05    0.26
Q16   1   0.8835  0.5018  0.7086  11.00000  0.05    0.24
Q17   1   0.2822  0.7439  0.0977  11.00000  0.05    0.23
Q18   1   0.5832  0.5517  0.4772  11.00000  0.05    0.23
Q19   1   0.6401  0.5002  0.2204  11.00000  0.05    0.22
Q20   1   0.3095  0.6372  0.4606  11.00000  0.05    0.22
;
_shelx_res_checksum              14653
loop_
_space_group_symop_operation_xyz
'x, y, z'
'-x+1/2, y+1/2, -z+1/2'
'-x, -y, -z'
'x-1/2, -y-1/2, z-1/2'
loop_
_atom_site_type_symbol
_atom_site_label
_atom_site_fract_x
_atom_site_fract_y
_atom_site_fract_z
_atom_site_U_iso_or_equiv
_atom_site_adp_type
_atom_site_calc_flag
_atom_site_occupancy
Ni Ni1 0.500000 0.500000 0.500000 0.01278(9) Uani d 1
S S1 0.31739(8) 0.71461(2) 0.18386(5) 0.01900(10) Uani d 1
O O3 0.8408(2) 0.54992(7) 0.72103(16) 0.0170(2) Uani d 1
O O1 0.6774(2) 0.52045(6) 0.26838(15) 0.0159(2) Uani d 1
O O2 0.6738(2) 0.60702(6) 0.03003(15) 0.0190(2) Uani d 1
N N1 0.3413(3) 0.60338(7) 0.41318(17) 0.0142(2) Uani d 1
C C4 0.6066(3) 0.58173(8) 0.1758(2) 0.0137(3) Uani d 1
C C3 0.4232(3) 0.62756(8) 0.2609(2) 0.0141(3) Uani d 1
C C2 0.1889(3) 0.65508(9) 0.4749(2) 0.0161(3) Uani d 1
H H2 0.1120(14) 0.64669(18) 0.584(2) 0.019 Uiso calc 1
C C1 0.1560(3) 0.71949(9) 0.3671(2) 0.0188(3) Uani d 1
H H1 0.060(2) 0.7600(10) 0.3898(6) 0.023 Uiso calc 1
H H3A 0.811(5) 0.5601(13) 0.818(3) 0.036(6) Uiso d 1
H H3B 0.988(6) 0.5304(14) 0.742(3) 0.037(6) Uiso d 1
loop_
_atom_site_aniso_label
_atom_site_aniso_U_11
_atom_site_aniso_U_22
_atom_site_aniso_U_33
_atom_site_aniso_U_12
_atom_site_aniso_U_13
_atom_site_aniso_U_23
Ni1 0.01260(14) 0.01343(14) 0.01475(12) 0.00166(10) 0.00782(9) 0.00072(9)
S1 0.0242(2) 0.0168(2) 0.02135(17) 0.00458(15) 0.01470(15) 0.00453(13)
O3 0.0141(5) 0.0222(6) 0.0172(5) 0.0019(5) 0.0084(4) -0.0026(4)
O1 0.0160(5) 0.0162(5) 0.0187(5) 0.0016(4) 0.0102(4) 0.0005(4)
O2 0.0235(6) 0.0192(5) 0.0196(5) -0.0005(5) 0.0143(4) -0.0010(4)
N1 0.0135(6) 0.0155(6) 0.0151(5) 0.0009(5) 0.0068(4) 0.0000(4)
C4 0.0113(7) 0.0154(7) 0.0155(5) -0.0014(5) 0.0057(5) -0.0032(5)
C3 0.0129(7) 0.0151(7) 0.0150(5) 0.0000(5) 0.0057(5) 0.0000(5)
C2 0.0161(7) 0.0175(7) 0.0175(6) 0.0011(6) 0.0095(5) -0.0007(5)
C1 0.0200(7) 0.0188(7) 0.0223(6) 0.0035(6) 0.0132(6) 0.0000(5)
loop_
_atom_type_symbol
_atom_type_description
_atom_type_scat_dispersion_real
_atom_type_scat_dispersion_imag
_atom_type_scat_source
C C 0.0033 0.0016 'International Tables Vol C Tables 4.2.6.8 and 6.1.1.4'
H H 0.0000 0.0000 'International Tables Vol C Tables 4.2.6.8 and 6.1.1.4'
N N 0.0061 0.0033 'International Tables Vol C Tables 4.2.6.8 and 6.1.1.4'
Ni Ni 0.3393 1.1124 'International Tables Vol C Tables 4.2.6.8 and 6.1.1.4'
O O 0.0106 0.0060 'International Tables Vol C Tables 4.2.6.8 and 6.1.1.4'
S S 0.1246 0.1234 'International Tables Vol C Tables 4.2.6.8 and 6.1.1.4'
loop_
_geom_angle_atom_site_label_1
_geom_angle_atom_site_label_2
_geom_angle_atom_site_label_3
_geom_angle_site_symmetry_1
_geom_angle_site_symmetry_3
_geom_angle
N1 Ni1 N1 3_666 . 180.0
N1 Ni1 O3 3_666 . 92.51(5)
N1 Ni1 O3 . . 87.49(5)
N1 Ni1 O3 3_666 3_666 87.49(5)
N1 Ni1 O3 . 3_666 92.51(5)
O3 Ni1 O3 . 3_666 180.00(5)
N1 Ni1 O1 3_666 . 98.90(4)
N1 Ni1 O1 . . 81.11(4)
O3 Ni1 O1 . . 90.43(5)
O3 Ni1 O1 3_666 . 89.57(5)
N1 Ni1 O1 3_666 3_666 81.10(4)
N1 Ni1 O1 . 3_666 98.89(4)
O3 Ni1 O1 . 3_666 89.57(5)
O3 Ni1 O1 3_666 3_666 90.43(5)
O1 Ni1 O1 . 3_666 180.00(6)
C3 S1 C1 . . 90.04(7)
Ni1 O3 H3A . . 112.4(18)
Ni1 O3 H3B . . 115.8(18)
H3A O3 H3B . . 114(2)
C4 O1 Ni1 . . 114.14(9)
C3 N1 C2 . . 111.89(13)
C3 N1 Ni1 . . 109.69(10)
C2 N1 Ni1 . . 138.31(10)
O2 C4 O1 . . 127.90(14)
O2 C4 C3 . . 118.40(13)
O1 C4 C3 . . 113.69(12)
N1 C3 C4 . . 121.29(13)
N1 C3 S1 . . 113.92(11)
C4 C3 S1 . . 124.72(11)
C1 C2 N1 . . 113.80(13)
C1 C2 H2 . . 123.1
N1 C2 H2 . . 123.1
C2 C1 S1 . . 110.35(12)
C2 C1 H1 . . 124.8
S1 C1 H1 . . 124.8
loop_
_geom_bond_atom_site_label_1
_geom_bond_atom_site_label_2
_geom_bond_site_symmetry_2
_geom_bond_distance
Ni1 N1 3_666 2.0572(13)
Ni1 N1 . 2.0573(13)
Ni1 O3 . 2.0814(12)
Ni1 O3 3_666 2.0814(12)
Ni1 O1 . 2.1029(11)
Ni1 O1 3_666 2.1029(11)
S1 C3 . 1.7013(15)
S1 C1 . 1.7155(15)
O3 H3A . 0.75(2)
O3 H3B . 0.79(3)
O1 C4 . 1.2748(18)
O2 C4 . 1.2460(17)
N1 C3 . 1.3207(18)
N1 C2 . 1.3728(19)
C4 C3 . 1.506(2)
C2 C1 . 1.367(2)
C2 H2 . 0.967(18)
C1 H1 . 0.93(2)
loop_
_geom_hbond_atom_site_label_D
_geom_hbond_atom_site_label_H
_geom_hbond_atom_site_label_A
_geom_hbond_site_symmetry_A
_geom_hbond_distance_DH
_geom_hbond_distance_HA
_geom_hbond_distance_DA
_geom_hbond_angle_DHA
_geom_hbond_publ_flag
C2 H2 O3 1_455 0.97 2.60 3.4117(19) 142.0 yes
C1 H1 S1 4_576 0.93 2.73 3.4060(16) 130.7 yes
C1 H1 O2 4_576 0.93 2.60 3.346(2) 138.0 yes
O3 H3A O2 1_556 0.75(2) 2.00(2) 2.7345(16) 166(2) yes
O3 H3B O1 3_766 0.79(3) 1.96(3) 2.7388(17) 168(2) yes

_cod_database_fobs_code 2021755
