#------------------------------------------------------------------------------
#$Date: 2018-07-20 09:56:00 +0300 (Fri, 20 Jul 2018) $
#$Revision: 209162 $
#$URL: file:///home/coder/svn-repositories/cod/cif/2/02/11/2021185.cif $
#------------------------------------------------------------------------------
#
# This file is available in the Crystallography Open Database (COD),
# http://www.crystallography.net/. The original data for this entry
# were provided by IUCr Journals, http://journals.iucr.org/.
#
# The file may be used within the scientific community so long as
# proper attribution is given to the journal article from which the
# data were obtained.
#
data_2021185
loop_
_publ_author_name
'Kiriukhina, Galina V.'
'Yakubovich, Olga V.'
'Kochetkova, Ekaterina M.'
'Dimitrova, Olga V.'
'Volkov, Anatoliy S.'
_publ_section_title
;
 A first Mn member in the struvite morphotropic series,
 CsMn(H~2~O)~6~(PO~4~): hydrothermal synthesis, crystal structure and
 interconnections within the family of related phosphates
;
_journal_coeditor_code           FN3263
_journal_issue                   8
_journal_name_full               'Acta Crystallographica Section C'
_journal_page_first
;
;
_journal_paper_doi               10.1107/S2053229618009798
_journal_volume                  74
_journal_year                    2018
_chemical_formula_iupac          'Cs Mn (H2 O)6 (P O4)'
_chemical_formula_moiety         'H12 Mn O6, O4 P, Cs'
_chemical_formula_sum            'Cs H12 Mn O10 P'
_chemical_formula_weight         390.92
_chemical_name_common            'Caesium manganese hexahydrate phosphate'
_chemical_name_systematic        'Caesium manganese hexahydrate phosphate'
_space_group_crystal_system      hexagonal
_space_group_IT_number           186
_space_group_name_Hall           'P 6c -2c'
_space_group_name_H-M_alt        'P 63 m c'
_symmetry_space_group_name_Hall  'P 6c -2c'
_symmetry_space_group_name_H-M   'P 63 m c'
_atom_sites_solution_hydrogens   difmap
_atom_sites_solution_primary     direct
_atom_sites_solution_secondary   difmap
_audit_creation_method           SHELXL-2016/6
_cell_angle_alpha                90
_cell_angle_beta                 90
_cell_angle_gamma                120
_cell_formula_units_Z            2
_cell_length_a                   6.9809(7)
_cell_length_b                   6.9809(7)
_cell_length_c                   12.0270(9)
_cell_measurement_reflns_used    3866
_cell_measurement_temperature    293(2)
_cell_measurement_theta_max      32.4917
_cell_measurement_theta_min      3.3630
_cell_volume                     507.59(8)
_computing_cell_refinement
;
CrysAlis PRO (Agilent, 2012)
;
_computing_data_collection
;
CrysAlis PRO (Agilent, 2012)
;
_computing_data_reduction
;
CrysAlis PRO (Agilent, 2012)
;
_computing_molecular_graphics
;
DIAMOND (Brandenburg, 2006)
;
_computing_publication_material
;
SHELXT (Sheldrick, 2015a) within WinGX (Farrugia, 2012)
;
_computing_structure_refinement
;
SHELXL2016 (Sheldrick, 2015b) within WinGX (Farrugia, 2012)
;
_computing_structure_solution
;
SHELXT (Sheldrick, 2015a) within WinGX (Farrugia, 2012)
;
_diffrn_ambient_temperature      293(2)
_diffrn_detector_area_resol_mean 16.0630
_diffrn_measured_fraction_theta_full 1.000
_diffrn_measured_fraction_theta_max 0.995
_diffrn_measurement_device_type  'Agilent Xcalibur Sapphire3'
_diffrn_measurement_method       '\w scans'
_diffrn_radiation_type           MoK\a
_diffrn_radiation_wavelength     0.71073
_diffrn_reflns_av_R_equivalents  0.0449
_diffrn_reflns_limit_h_max       10
_diffrn_reflns_limit_h_min       -10
_diffrn_reflns_limit_k_max       10
_diffrn_reflns_limit_k_min       -10
_diffrn_reflns_limit_l_max       17
_diffrn_reflns_limit_l_min       -18
_diffrn_reflns_number            9705
_diffrn_reflns_theta_full        25.242
_diffrn_reflns_theta_max         32.529
_diffrn_reflns_theta_min         3.370
_exptl_absorpt_coefficient_mu    5.021
_exptl_absorpt_correction_T_max  0.658
_exptl_absorpt_correction_T_min  0.380
_exptl_absorpt_correction_type   gaussian
_exptl_absorpt_process_details
;
Numerical absorption correction based on gaussian
integration over a multifaceted crystal model
;
_exptl_crystal_colour            colourless
_exptl_crystal_density_diffrn    2.558
_exptl_crystal_density_method    'not measured'
_exptl_crystal_description       'hexagonal prism'
_exptl_crystal_F_000             374
_exptl_crystal_size_max          0.123
_exptl_crystal_size_mid          0.082
_exptl_crystal_size_min          0.064
_refine_diff_density_max         0.762
_refine_diff_density_min         -0.792
_refine_ls_abs_structure_details
;
Flack <i>x</i> determined using 283 quotients [(I+)-(I-)]/[(I+)+(I-)]
(Parsons <i>et al.</i>,  2013)
;
_refine_ls_abs_structure_Flack   -0.015(18)
_refine_ls_extinction_method     none
_refine_ls_goodness_of_fit_ref   1.157
_refine_ls_hydrogen_treatment    refall
_refine_ls_matrix_type           full
_refine_ls_number_parameters     41
_refine_ls_number_reflns         737
_refine_ls_number_restraints     4
_refine_ls_restrained_S_all      1.153
_refine_ls_R_factor_all          0.0378
_refine_ls_R_factor_gt           0.0328
_refine_ls_shift/su_max          0.000
_refine_ls_shift/su_mean         0.000
_refine_ls_structure_factor_coef Fsqd
_refine_ls_weighting_details
'w=1/[\s^2^(Fo^2^)+(0.0200P)^2^+0.8000P] where P=(Fo^2^+2Fc^2^)/3'
_refine_ls_weighting_scheme      calc
_refine_ls_wR_factor_gt          0.0639
_refine_ls_wR_factor_ref         0.0656
_reflns_number_gt                687
_reflns_number_total             737
_reflns_threshold_expression     'I > 2\s(I)'
_cod_data_source_file            fn3263sup1.cif
_cod_data_source_block           I
_cod_original_cell_volume        507.59(11)
_cod_database_code               2021185
_shelx_space_group_comment
;
The symmetry employed for this shelxl refinement is uniquely defined
by the following loop, which should always be used as a source of
symmetry information in preference to the above space-group names.
They are only intended as comments.
;
_shelx_estimated_absorpt_t_min   0.577
_shelx_estimated_absorpt_t_max   0.739
_shelx_hkl_file
;
   0   0 -17-1062.69 788.377   3
   0   0 -17-111.438 582.509  12
   0   0 -16 2213.24 1042.96   3
   0   0 -16 2439.75 907.320  12
   0   0 -15 953.615 775.545  12
   0   0 -15-416.771 682.455   3
   0   0 -14 6203.44 1280.36  12
   0   0 -14 7574.45 1552.48   3
   0   0 -13 7.90112 504.504   3
   0   0 -13 601.220 579.070  12
   0   0 -12 171.605 508.963  12
   0   0 -12 1011.62 666.359   3
   0   0 -11 21.8322 389.920  12
   0   0 -11 297.390 496.977   3
   0   0 -10 113438. 4816.04  12
   0   0  -9 253.447 430.904  12
   0   0  -8 204186. 6355.95  12
   0   0  -7 461.810 430.687  12
   0   0  -6 327018. 8260.74  12
   0   0  -5 73.8919 288.618  12
   0   0  -4 633892. 13359.2   7
   0   0  -4 653610. 13730.3  12
   0   0  -3 565.983 242.703  12
   0   0  -3 296.433 196.987   7
   0   0  -3 283.040 177.900   9
   0   0  -3 364.488 225.634  10
   0   0  -2 174776. 4261.66  12
   0   0  -2 209395. 4378.58   4
   0   0  -2 199621. 4075.37   9
   0   0  -2 195326. 4181.21  10
   0   0  -2 177329. 4127.71   7
   0   0   2 172250. 3610.25   7
   0   0   2 148205. 3544.06  10
   0   0   2 174187. 3773.47  12
   0   0   2 158409. 3475.12   9
   0   0   2 154665. 3711.44   4
   0   0   3 610.018 204.484   7
   0   0   3 156.019 232.037   4
   0   0   3 155.868 192.171  10
   0   0   4 628097. 13415.7   4
   0   0   4 633627. 13079.7  10
   0   0   5 170.335 237.970  10
   0   0   5 1091.79 396.779   4
   0   0   6 328134. 8302.45   4
   0   0   6 334320. 7898.39  10
   0   0   7 312.345 316.909  10
   0   0   7 23.4105 308.413   4
   0   0   8 203168. 6045.74   1
   0   0   8 194779. 5659.96  10
   0   0   8 184864. 6055.30   4
   0   0   9 481.401 472.229   4
   0   0   9 494.037 411.483  10
   0   0   9 540.113 418.773   1
   0   0  10 105306. 4117.99  10
   0   0  10 105324. 4375.59   1
   0   0  11 1021.01 555.567   1
   0   0  11 101.024 318.626  10
   0   0  12 956.699 500.031  10
   0   0  12 244.435 550.368   8
   0   0  12 104.563 310.612   1
   0   0  13 47.3934 680.242   8
   0   0  13 792.490 563.544   1
   0   0  14 11680.7 1914.98   8
   0   0  14 6052.98 1144.33   1
   0   0  15 2394.27 1197.07   8
   0   0  16 3982.44 1455.97   8
   0   0  17 1630.64 1146.09   8
   0  -1 -18 2079.27 1063.84  12
  -1   0 -17-471.703 667.429  12
   1   0 -17 2042.68 1158.60   3
   0  -1 -17-314.649 547.958  12
  -1   0 -17 1819.76 1123.10   3
   0   1 -17 1558.25 1069.15   3
   1  -1 -17 379.456 680.061   3
  -1   1 -17 1916.75 1045.79   3
   0  -1 -17 1667.21 1084.74   3
   1  -1 -16 8688.11 1804.85   3
  -1   1 -16 9530.71 1939.55   3
   1   0 -16 12253.4 2116.86   3
   0  -1 -16 12772.6 2102.03  12
   0   1 -16 10913.1 2073.27   3
  -1   0 -16 11499.8 1966.63  12
  -1   0 -16 10944.6 2010.54   3
   0  -1 -16 13203.9 2161.22   3
   0   1 -15 2250.52 954.005   3
  -1   1 -15 1869.01 775.467  12
   1  -1 -15 1692.32 842.709  12
  -1   0 -15 3190.67 1073.44  12
  -1   0 -15 3822.56 1150.26   3
   1   0 -15 3104.07 1176.92   3
   0  -1 -15 2274.73 1053.31   3
  -1   1 -15 3233.32 1120.72   3
   1  -1 -15 2013.08 951.478   3
   0  -1 -15 1911.55 998.765  12
   0  -1 -14 833.961 764.617  12
  -1   1 -14 934.896 870.667   3
   0  -1 -14 884.483 670.252   3
  -1   1 -14 1334.76 645.340  12
   1  -1 -14 224.789 542.335  12
   1   0 -14 1219.61 801.499   3
   0   1 -14 978.536 569.542  12
   0   1 -14 830.929 794.941   3
  -1   0 -14 949.710 639.971  12
   1  -1 -14 1637.19 893.577   3
   1   0 -13 36211.2 3245.13   3
   0   1 -13 26825.9 2411.39  12
  -1   1 -13 27974.1 2804.00   3
   1  -1 -13 26920.3 2755.41   3
   0  -1 -13 25341.2 2624.16   3
   0  -1 -13 31889.4 2889.28  12
   0   1 -13 26472.7 2769.19   3
   1  -1 -13 35041.1 3012.86  12
  -1   1 -13 29427.8 2552.00  12
  -1   0 -13 27158.4 2633.16  12
  -1   0 -12 824.961 571.085  12
   0   1 -12-39.9615 581.226   3
   1   0 -12 2037.21 764.266  12
  -1   1 -12 1524.59 642.705  12
   0  -1 -12 1914.67 841.722  12
   1  -1 -12 2418.97 852.869  12
   1  -1 -12 1582.37 846.361   3
   0   1 -12 2002.33 706.921  12
   1   0 -12 574.074 589.688   3
   1  -1 -11 55826.4 3584.18   3
   0   1 -11 58395.0 3762.74   3
   1   0 -11 57306.7 3730.14   3
   0  -1 -11 54477.7 3527.07  12
  -1   1 -11 58065.7 3315.79  12
   1  -1 -11 54642.6 3477.50  12
   1   0 -11 55244.0 3356.26  12
  -1   0 -11 50334.2 3319.24  12
   0   1 -11 55174.5 3180.23  12
  -1   1 -10 27335.7 2001.72   7
   1   0 -10 26033.4 2142.30  12
   0  -1 -10 23224.7 2179.20  12
   1   0 -10 23546.9 2257.11   3
   1  -1 -10 27012.6 2329.11  12
  -1   0 -10 24806.9 2161.14  12
   0   1 -10 26756.3 2344.67   3
  -1   1 -10 24867.8 2016.36  12
   1  -1 -10 25544.1 2241.93   3
   0   1 -10 25297.1 1982.98  12
  -1   1  -9 34640.1 2277.95  12
   1   0  -9 32807.7 2301.38  12
  -1   1  -9 31706.1 2107.97   7
   0   1  -9 33676.5 2539.50   3
   1  -1  -9 30805.0 2376.03   3
   0  -1  -9 35816.6 2571.26  12
   1   0  -9 34571.9 2603.70   3
  -1   0  -9 36836.2 2517.55  12
   0   1  -9 34190.1 2179.49  12
   1  -1  -9 30067.7 2328.68  12
  -1   0  -8 95956.7 4133.32  12
  -1   1  -8 101574. 3914.46  12
   1  -1  -8 101322. 4228.83  12
   0   1  -8 102180. 3374.93   7
   0   1  -8 102704. 3786.67  12
   0  -1  -8 98587.1 4278.22  12
  -1   0  -8 107163. 4139.33   7
   0   1  -8 105636. 4438.87   3
   1   0  -8 103168. 4099.65  12
  -1   0  -8 91957.8 2509.42   9
  -1   1  -8 108730. 3924.14   7
   1   0  -8 101433. 4409.07   3
   1  -1  -8 98410.6 4210.72   3
   1   0  -7 52770.7 2624.16  12
  -1   0  -7 46281.8 2464.17   7
  -1   0  -7 44057.9 1374.08   9
   0   1  -7 47726.2 2670.81   3
   1  -1  -7 48854.2 2611.07   3
  -1   0  -7 49725.1 2641.31  12
  -1   1  -7 46898.9 2361.81  12
  -1   1  -7 46705.6 2311.97   7
   0  -1  -7 48078.6 2683.87  12
   0   1  -7 49238.9 2286.14  12
   1  -1  -7 47382.7 2597.94  12
   0   1  -7 49253.7 1995.04   7
   1   0  -7 47436.7 2724.21   3
  -1   0  -6 18265.3 1464.23  12
  -1   0  -6 18150.4 1420.51   7
  -1   1  -6 20292.5 1379.37   7
   1  -1  -6 19751.2 1527.74  12
  -1   0  -6 18918.5 712.295   9
   0   1  -6 19501.0 1540.89   3
   1  -1  -6 19745.5 1488.15   3
   0  -1  -6 20199.8 916.002   9
   0   1  -6 20928.6 1129.30   7
  -1   1  -6 19718.9 1357.94  12
   0   1  -6 18429.1 1231.10  12
   1   0  -6 20537.9 1596.76   3
   1   0  -6 20464.6 1471.51  12
   0  -1  -6 22639.0 1660.47  12
   1  -1  -5 235399. 6501.03  12
   1   0  -5 245558. 6674.36   3
  -1   1  -5 238544. 6150.72   7
  -1   1  -5 235382. 6051.03  12
   0  -1  -5 245778. 5274.73   9
  -1   0  -5 261127. 5537.19  10
  -1   0  -5 232794. 6344.78   7
   1  -1  -5 240602. 6405.43   3
  -1   0  -5 232082. 6431.36  12
   0   1  -5 229401. 6492.03   3
   0  -1  -5 228676. 6526.02  12
   0   1  -5 232709. 5553.70   7
   0   1  -5 235704. 5815.82  12
   0  -1  -4 79639.2 2929.10  12
  -1   0  -4 77319.9 2867.15  12
   0   1  -4 76582.5 2841.58   3
   0   1  -4 78820.5 2227.02   7
  -1   1  -4 79351.4 2697.79   7
  -1   0  -4 85888.8 2196.53  10
   0  -1  -4 84363.4 2117.49   9
   1  -1  -4 78391.3 2756.79   3
   1  -1  -4 78773.1 2937.10  12
   1   0  -4 78015.9 2922.71   3
   0   1  -4 79343.6 2362.70  12
  -1   0  -4 78693.5 2853.00   7
  -1   1  -4 76205.6 2550.41  12
   0  -1  -3 468034. 9296.31   4
   1   0  -3 462456. 9381.97   6
  -1   0  -3 435973. 9874.26  12
  -1   0  -3 431487. 9843.45   7
   1   0  -3 434934. 9945.10   3
  -1   1  -3 426748. 9451.69  12
   1  -1  -3 444348. 9951.89  12
   1  -1  -3 438200. 9625.02   3
   0  -1  -3 438594. 9917.47  12
   0   1  -3 451149. 9101.96  12
   0   1  -3 438245. 9807.61   3
  -1   0  -2 290110. 6936.43  12
  -1   0  -2 315033. 6807.36   1
   1  -1  -2 291819. 6606.87   3
  -1   0  -2 292302. 6930.90   7
   0   1  -2 280703. 6753.44   3
   0  -1  -2 301259. 6659.91   2
   0  -1  -2 297470. 6915.13  12
  -1   0  -2 325437. 6710.78   8
  -1   0  -2 336707. 6303.62  11
   0  -1  -2 313819. 6391.40   4
  -1   1  -2 329096. 6854.99  11
   1   0  -2 325537. 6614.01   6
   1  -1  -2 310300. 6792.00   9
  -1   1  -2 313705. 6660.71   2
   1   0  -2 294917. 7028.48   3
   0   1  -1 133726. 3256.18  10
  -1   0  -1 134579. 3293.02   4
   0   1  -1 115219. 2997.65   3
  -1   1  -1 128793. 3138.05   4
  -1   1  -1 135278. 3235.28  11
   0   1  -1 131069. 2996.77   8
   0   1  -1 137213. 3314.74   6
   0   1  -1 118968. 3159.98   2
  -1   0  -1 123366. 3142.45   1
   1   0  -1 114050. 3259.92   3
   1  -1  -1 119126. 2854.01   3
   0  -1  -1 125986. 3082.12   2
   1   0  -1 133775. 3252.95   9
  -1   0  -1 117710. 3165.78   7
  -1   0  -1 132040. 2960.35   8
   0  -1  -1 115049. 3056.44  12
  -1   0  -1 116600. 2829.09   9
   0  -1  -1 117290. 2788.06  11
   0  -1  -1 135410. 3292.49   5
   0   1  -1 123878. 2919.65   1
  -1   1  -1 112468. 3060.81   9
   0  -1  -1 123311. 3168.57   1
   1  -1  -1 128201. 3161.93   9
  -1   0  -1 130172. 2866.32   5
  -1   1  -1 126209. 3043.14   2
   0  -1   0 19843.2 766.726   3
   1  -1   0 20599.3 735.787   5
  -1   0   0 18562.1 843.123   9
  -1   0   0 20924.4 1017.71   3
  -1   1   0 20545.0 774.710   4
   0   1   0 20268.0 891.625   2
   0   1   0 22250.0 874.955  10
   0  -1   0 21741.6 956.604   5
   1   0   0 18936.3 961.808   3
  -1   1   0 19443.4 870.586   2
   1   0   0 21907.6 841.995   7
  -1   1   0 18040.1 873.753   9
   0   1   0 18192.7 900.475   5
   0  -1   0 17528.2 679.689  12
   1   0   0 19614.0 850.812   9
   1  -1   0 17971.5 736.877   4
   0   1   0 19804.1 777.710   3
   1  -1   0 21825.4 925.830   9
  -1   1   0 19530.4 699.585   3
   0  -1   0 18836.8 865.757   2
   1  -1   0 17949.1 851.938   2
   0   1   0 20642.1 723.316  12
  -1   0   0 18229.5 797.499   7
   0   1   0 18301.1 826.505   1
   0  -1   0 20393.2 853.036   1
   0  -1   1 129399. 3358.74  10
  -1   0   1 140927. 3571.86   3
   0  -1   1 131588. 3360.96   2
   0   1   1 138209. 3276.22   2
   0   1   1 120270. 3351.09   5
   1  -1   1 124590. 3228.02   4
   1  -1   1 130771. 3194.74   2
   0  -1   1 135530. 3087.69   1
   0  -1   1 122740. 3377.03   6
   0  -1   1 126166. 3112.29   8
   0   1   1 139732. 2988.97  11
   1   0   1 127535. 3392.09   4
   0   1   1 145141. 3316.19  12
   0  -1   1 148339. 3258.79   3
  -1   1   1 136815. 3041.50   3
   1   0   1 131550. 3303.19   1
   1   0   1 152206. 3450.81   7
  -1   0   1 122602. 3346.11   9
  -1   1   1 124227. 3285.72   9
   1   0   1 135950. 3019.47   9
   1   0   1 130324. 3013.05   5
   1  -1   1 129495. 3350.30  11
   0   1   1 135950. 3372.59   1
   0  -1   2 279395. 6411.30   8
  -1   1   2 271055. 6382.73   9
   0  -1   2 281641. 6577.99  10
   1  -1   2 289166. 6461.03  11
   1   0   2 301041. 6448.23   1
  -1   0   2 280708. 6160.33   6
   0   1   2 307418. 5844.18  11
   1  -1   2 299681. 6286.89   2
   1   0   2 288612. 6329.80   8
   1  -1   2 289102. 6556.49   4
  -1   1   2 305606. 6312.56   3
   1  -1   2 278793. 6611.29   8
   1   0   2 273367. 6489.01   4
   0   1   2 280478. 6030.93   9
  -1   0   2 284696. 6575.61   9
   0  -1   2 282614. 6561.20   6
   0   1   2 309056. 6672.48   1
   0   1   2 285127. 5988.54   4
   0  -1   2 299972. 6510.23   3
   1  -1   3 466539. 9007.95   1
   0   1   3 460357. 10024.4   1
   0  -1   3 437794. 9898.17  10
   0   1   3 449352. 9108.02   9
  -1   1   3 428911. 9620.67   9
  -1   0   3 434770. 9860.36   9
   1   0   3 442734. 9746.16   8
   1   0   3 432716. 9818.89   4
   1  -1   3 441478. 9973.81   4
   1   0   3 469065. 9082.09  11
   1   0   3 442961. 9689.41   1
   0   1   3 439815. 9349.76   4
   0  -1   3 441162. 9854.25   8
   0  -1   3 479792. 9180.91  12
   1  -1   3 442380. 9710.54  11
   1  -1   3 444295. 10010.0   8
   0   1   4 87139.8 3035.75   1
   0   1   4 85605.7 2586.38   4
  -1   0   4 87925.9 2111.99   7
  -1   1   4 81525.0 2638.72   9
   1  -1   4 83777.9 2261.33   1
   1   0   4 83726.2 2884.25   4
   1  -1   4 85411.9 3037.18   8
   0   1   4 84292.4 2177.26   9
  -1   0   4 82288.3 2858.41   9
   0  -1   4 82166.8 2909.27  10
   1   0   4 84394.8 2251.93  11
  -1   0   4 81025.4 2908.07  10
   1  -1   4 82398.4 2996.26   4
   1   0   4 83188.5 2836.47   8
   1   0   4 85686.4 2747.51   1
   0  -1   4 87677.8 2445.57  12
   1  -1   4 83198.5 2719.58  11
   0   1   5 235700. 5379.46   9
   1   0   5 239875. 6150.36   1
  -1   0   5 270185. 5464.80   7
   1   0   5 243964. 5539.65  11
   0  -1   5 238642. 6404.52  10
   1  -1   5 249508. 6700.32   4
   0   1   5 242066. 6059.00   4
  -1   1   5 246840. 6055.14   9
   1  -1   5 248892. 6675.03   8
   1   0   5 242705. 6458.95   4
   1  -1   5 243198. 5636.84   1
  -1   0   5 244075. 6456.02  10
  -1   0   5 247651. 6362.31   9
   0   1   5 248906. 6616.21   1
   0   1   5 231457. 5488.14  10
   1   0   5 248616. 6476.56   8
   0   1   6 13693.2 786.203   9
   1   0   6 14533.6 1271.83   8
   0   1   6 14039.6 872.860  10
   0   1   6 15272.6 1145.96   4
   0   1   6 13477.9 1246.38   1
  -1   1   6 14318.2 1068.16   9
   0  -1   6 15899.6 1271.58  10
  -1   0   6 15575.5 853.909   7
   1   0   6 12159.4 1172.38   4
  -1   0   6 13267.0 1219.68  10
   1  -1   6 14553.6 953.117   1
   1   0   6 14462.6 1126.83   1
   1  -1   6 14573.8 1353.46   4
   1  -1   6 14259.2 1341.89   8
   0   1   7 49089.1 2568.94   1
   1  -1   7 44778.7 1965.21   1
  -1   0   7 45561.6 2407.92  10
   0   1   7 45435.5 2268.71   4
   1   0   7 42611.5 2431.13   8
   1  -1   7 47739.3 2676.79   4
   0  -1   7 49303.1 2476.59  10
   1   0   7 44250.3 2419.50   4
  -1   1   7 44478.8 2083.43   9
   0   1   7 44991.3 1661.93   9
  -1   1   7 41887.2 2155.63  10
   1  -1   7 47060.5 2627.48   8
   1   0   7 45603.0 2236.54   1
   0   1   7 47723.0 1885.28  10
   0   1   8 117352. 4458.52   1
   0   1   8 109033. 4026.77   4
  -1   1   8 107666. 3728.44   9
  -1   0   8 111535. 4235.20  10
   1  -1   8 116464. 4629.05   4
  -1   1   8 113179. 3990.76  10
   0   1   8 114208. 3496.97  10
   0  -1   8 107023. 4149.13  10
   0  -1   8 102324. 4419.50   8
   1  -1   8 106534. 4472.74   8
   1   0   8 104748. 3946.76   1
   1  -1   8 102403. 3557.52   1
   1   0   8 109792. 4385.82   8
   1   0   8 109873. 4337.17   4
   1  -1   9 33181.1 2480.78   8
   1  -1   9 36434.9 2537.63   4
  -1   1   9 34148.1 2096.35  10
   0   1   9 33855.4 2351.61   1
  -1   1   9 35422.3 1993.01   9
   1   0   9 30982.8 2055.12   1
   1   0   9 36729.0 2476.75   4
   0  -1   9 31520.4 2417.58   8
   1  -1   9 34939.7 1949.30   1
   1   0   9 32729.8 2399.77   8
   0   1   9 32219.7 1763.62  10
   0   1   9 31281.2 2105.97   4
   0  -1   9 36620.3 2345.20  10
  -1   0   9 33312.9 2232.96  10
   1  -1  10 26210.3 2298.22   4
  -1   1  10 25987.3 2181.76   1
   0   1  10 25056.1 1992.26   4
   0   1  10 21701.2 1981.25   1
   1  -1  10 24613.8 1703.43   1
   1  -1  10 24269.2 2222.48   8
  -1   1  10 24193.9 1835.28  10
   0  -1  10 27897.2 2373.99   8
   0  -1  10 24381.0 2013.92  10
   1   0  10 22172.7 2096.24   8
   0   1  10 26506.3 1661.47  10
  -1   0  10 24844.2 2021.04  10
   1   0  10 24354.5 1580.98  11
   1   0  10 24034.0 2070.07   4
   1   0  10 23716.1 1876.00   1
   1  -1  11 55343.1 3481.16   4
  -1   0  11 59980.3 3344.38  10
  -1   1  11 57594.9 3458.06   1
   0  -1  11 57029.6 3009.56   1
   1   0  11 52437.9 3434.38   8
   0   1  11 52920.2 3272.36   1
   1   0  11 61384.5 3221.96   1
  -1   1  11 57223.6 3040.00  10
   1   0  11 55394.2 2613.07  11
   1  -1  11 52582.5 3509.17   8
   0  -1  11 50423.1 3484.00   8
   1   0  11 53864.8 3350.17   4
   0   1  11 55046.4 3170.11   4
   0   1  11 57274.8 2693.16  10
   0  -1  11 54921.9 3226.15  10
   1  -1  11 57598.7 2861.39   1
   1   0  12 1566.31 815.218   8
   1   0  12 1421.22 787.355   4
  -1   0  12 1144.58 668.337  10
  -1   1  12 1154.79 644.680   1
   1  -1  12 237.160 669.010   4
   0   1  12 1705.17 704.658   1
   0  -1  12 1812.33 565.430   1
   1  -1  12 3493.62 1099.63   8
  -1   1  12 1111.62 563.165  10
   1  -1  12 425.854 391.502  11
   1   0  12 1179.16 499.840   1
   1  -1  12 1452.72 488.764   1
   0  -1  12 2002.44 901.854   8
   1   0  13 29619.3 2380.43   1
   1  -1  13 26954.6 2181.31  11
   0  -1  13 22152.1 2543.62   8
   0   1  13 27005.3 2460.34   1
   0   1  13 28817.6 2809.79   8
   1   0  13 27157.9 2738.44   8
  -1   0  13 27329.5 2408.39  10
  -1   1  13 27625.6 2552.79   1
   1   0  13 27692.1 2582.37   4
  -1   0  13 27676.3 2457.69   1
   1  -1  13 30448.1 2876.59   8
   1   0  14-216.988 663.471   8
  -1   0  14 389.266 432.545  10
  -1   1  14 1143.70 707.662   1
   0   1  14 1578.24 978.296   8
   0  -1  14 508.456 718.180   8
  -1   0  14 2418.26 991.594   8
   1  -1  14 161.649 631.726   8
  -1   0  14 278.626 512.341   1
   0   1  14 888.767 571.367   1
   1   0  15 2433.09 1128.90   8
  -1   1  15 1192.65 662.882   1
  -1   1  15 3558.52 1325.54   8
   0  -1  15 4432.02 1349.11   8
   1  -1  15 2083.83 958.377   8
  -1   0  15 2336.60 995.878   8
   0   1  15 2415.99 879.789   1
   0   1  15 2578.59 1146.52   8
  -1   1  16 14752.0 2360.56   8
  -1   0  16 12140.5 2186.57   8
   1   0  16 14002.0 2280.11   8
   1  -1  16 14674.8 2386.02   8
   0   1  16 13853.8 2265.99   8
   0  -1  16 13017.1 2216.15   8
   0   1  17 269.983 746.436   8
   1   0  17 270.369 745.658   8
  -1   1  17 2144.62 1245.01   8
  -1   0  17 1402.67 1148.03   8
   0  -1  17 834.403 967.126   8
   1  -1  17 828.595 886.160   8
  -1  -1 -17 1289.61 833.543  12
   2  -1 -17-655.751 711.622   3
  -1  -1 -17 1059.17 959.302   3
   1  -2 -17 959.403 800.830   3
   1  -2 -16 3716.49 1203.93   3
   1  -2 -16 2497.45 1117.30  12
  -2   1 -16 2978.24 1032.30  12
   1   1 -16 2535.57 1142.82   3
  -1  -1 -16 3599.56 1234.03  12
  -1   2 -16 4791.19 1417.16   3
   2  -1 -16 1724.26 865.889   3
  -2   1 -16 4360.87 1343.89   3
   1   1 -15 542.573 943.582   3
   2  -1 -15 1182.73 832.163   3
  -1   2 -15 41.2547 515.177   3
  -1  -1 -15 889.624 882.649  12
   1  -2 -15 1653.77 770.554  12
  -2   1 -15-80.1535 543.533  12
   1  -2 -15-518.533 713.013   3
  -2   1 -14 33104.9 2952.90  12
   1  -2 -14 31403.4 3073.59   3
   2  -1 -14 36449.8 3386.20   3
   1   1 -14 29253.7 3168.58   3
  -1  -1 -14 33353.7 3211.55  12
   1  -2 -14 31830.9 3179.24  12
  -1   2 -14 27431.0 2947.33   3
  -1   2 -13 213.853 545.793   3
  -1  -1 -13 346.944 717.091  12
   2  -1 -13 2385.33 1002.02   3
   1   1 -13-36.4159 547.692   3
  -2   1 -13-188.496 443.585  12
  -1   2 -13 111.315 315.486  12
   1  -2 -13 281.757 612.083   3
   1  -2 -13 58.9522 534.681  12
   2  -1 -12 1808.38 778.333   3
   1  -2 -12 1924.57 753.930   3
  -1   2 -12 1549.43 633.759  12
  -1   2 -12 1970.69 810.908   3
   1  -2 -12 2833.54 999.099  12
   1   1 -12 1929.04 949.027   3
  -1  -1 -12 3046.63 981.865  12
  -2   1 -12 1765.51 757.564  12
  -1   2 -11 271.702 476.741   3
   1  -2 -11 169.984 422.183   3
   2  -1 -11 206.913 535.295   3
   1   1 -11 518.603 754.093   3
  -2   1 -11-34.1170 323.976  12
  -1  -1 -11 1056.60 666.710  12
   1  -2 -11-340.167 530.603  12
  -2   1 -11 744.464 549.224   7
  -1   2 -11 475.489 435.497   7
  -1   2 -11 242.836 496.381  12
   1  -2 -10 36773.1 2862.32  12
   1  -2 -10 37085.3 2690.78   3
  -1   2 -10 36115.4 2770.49   3
  -2   1 -10 36846.5 2620.91   7
   1   1 -10 36414.4 2885.64   3
  -2   1 -10 34596.5 2569.93  12
   2  -1 -10 36816.4 2832.42   3
  -1  -1 -10 35210.8 2777.90  12
  -1   2 -10 36205.6 2279.00  12
  -1   2 -10 41270.6 2369.25   7
  -2   1  -9 303.627 446.906   7
  -2   1  -9 198.839 150.540   9
  -2   1  -9 353.514 433.489  12
   1  -2  -9 351.364 503.400  12
  -1   2  -9 474.801 410.908   7
   2  -1  -9 706.640 679.669   3
  -1  -1  -9 387.041 511.537  12
   1   1  -9 366.932 550.025   3
  -1   2  -9 72.6887 350.341  12
   2  -1  -8 223927. 7211.65   3
   1  -2  -8 217130. 7255.04  12
  -2   1  -8 217259. 6955.12   7
   1   1  -8 220273. 7365.95   3
  -1   2  -8 227517. 6361.41   7
  -2   1  -8 208548. 6793.61  12
  -2   1  -8 223060. 5256.68   9
  -1   2  -8 215566. 6135.81  12
  -1  -1  -8 222355. 7327.62  12
  -1   2  -7-87.5023 222.832  12
   1  -2  -7 261.944 472.385  12
  -1   2  -7 101.916 235.010   7
   1   1  -7 903.513 663.635   3
   2  -1  -7 107.651 410.149   3
  -2   1  -7 260.722 363.838  12
  -2   1  -7-82.3739 136.372   9
  -2   1  -7 537.028 462.156   7
  -1  -1  -7 371.765 445.058  12
  -2   1  -6 257015. 7255.04  12
   2  -1  -6 276195. 7567.43   3
  -1   2  -6 263739. 6798.89   7
  -2   1  -6 254353. 5942.01   9
   1   1  -6 260074. 7637.14   3
  -1   2  -6 269659. 6444.08  12
  -1  -1  -6 263485. 7631.66  12
   1  -2  -6 261196. 7633.04  12
  -2   1  -6 264310. 7410.99   7
  -1  -1  -5-23.1969 154.351   2
  -2   1  -5-95.6953 319.341   7
   2  -1  -5 155.796 169.495   6
  -1  -1  -5-101.426 380.163  12
   1   1  -5 190.275 343.393   3
  -1   2  -5 144.084 184.804  12
   2  -1  -5 283.960 296.886   3
  -2   1  -5-103.488 287.508  12
   1  -2  -5 1005.44 497.869  12
  -2   1  -5 57.0648 141.151   9
   1  -2  -4 37655.1 1200.95   4
   2  -1  -4 33669.1 1850.63   3
   1   1  -4 33153.0 1906.02   3
   2  -1  -4 34300.8 1181.59   6
  -2   1  -4 34776.4 1894.76   7
  -1   2  -4 31365.3 1231.49  12
  -2   1  -4 35442.9 1295.78   2
   1  -2  -4 32791.3 1890.72  12
  -2   1  -4 29774.0 1280.84   9
  -2   1  -4 36359.6 1870.81  12
  -1  -1  -4 35220.0 1350.13   2
  -1  -1  -4 32123.9 1885.33  12
   1  -2  -3 141.981 314.599   2
  -1  -1  -3 167.305 164.223   2
   2  -1  -3 114.153 264.367   3
  -2   1  -3-101.690 188.333   9
  -2   1  -3-66.2083 325.328   7
  -2   1  -3 184.606 124.512   2
   1   1  -3 86.2151 308.135   3
  -1   2  -3 164.220 108.208  12
   1  -2  -3 16.1660 260.162  12
  -1  -1  -3 19.5785 288.479  12
  -1  -1  -2 251653. 5333.45  10
   1  -2  -2 261452. 6358.68  12
   1  -2  -2 250925. 6352.17   2
   1   1  -2 259905. 6538.13   3
  -2   1  -2 267544. 5570.97   2
  -1  -1  -2 259746. 5619.55   2
  -2   1  -2 236949. 5859.35   9
   1   1  -2 262028. 5431.41   7
   2  -1  -2 253767. 6370.33   3
  -1  -1  -2 263587. 6438.68  12
  -1   2  -2 266818. 5308.94   1
  -1  -1  -1 60.8952 168.489  10
  -1  -1  -1 1393.75 251.017   2
   1  -2  -1 237.652 301.677   2
  -1  -1  -1 203.502 258.597  12
   1  -2  -1 143.610 276.262   6
  -1   2  -1 429.346 291.941   5
   1   1  -1 333.693 174.040   7
  -1   2  -1 234.057 150.721   1
   1  -2  -1-10.4306 212.415  12
   1   1  -1 219.943 339.210   3
   2  -1  -1 87.3230 314.173   3
  -1   2  -1 55.0061 124.641   3
  -2   1  -1 136.534 253.780   9
   1  -2   0 834314. 16856.9   2
   1   1   0 850717. 16849.0   1
  -1   2   0 861664. 16368.2   1
  -1  -1   0 818219. 16354.6   2
  -2   1   0 813995. 16635.2   9
   1   1   0 802079. 16881.0   3
   2  -1   0 819965. 16737.9   4
  -1   2   0 810461. 16674.2   5
  -1  -1   0 752841. 16294.8  10
   1  -2   0 780700. 16447.5   6
   2  -1   0 788563. 16650.8   3
   1   1   0 785996. 16693.1   5
   1  -2   0 836354. 15991.8   4
   1  -2   0 813968. 16697.2  11
   2  -1   1 1126.31 263.884   2
  -1   2   1 414.930 298.080   5
   1  -2   1-76.6672 318.175   6
   1  -2   1 210.360 208.814   4
  -1  -1   1 21.9894 285.096  10
  -1   2   1 442.255 258.797   1
   1   1   1 146.157 300.643   1
  -2   1   1 438.342 308.007   9
   1   1   1 399.240 208.739   2
   1   1   1 269.496 287.524   5
   1  -2   1 422.174 300.600   2
   1  -2   1-11.3015 252.071  11
  -1   2   1 329.914 271.672   9
   2  -1   1 525.182 368.067   4
   1   1   2 253682. 5273.58   8
   1  -2   2 256059. 6228.06   2
   1   1   2 243819. 6028.08   4
  -2   1   2 241032. 5119.42   6
   1  -2   2 240902. 6001.55   4
   1   1   2 268940. 5536.17   2
  -1  -1   2 235260. 6106.69  10
   1   1   2 245629. 6263.86   1
   1   1   2 248710. 6123.65   5
   1  -2   2 247360. 5100.14   1
   2  -1   2 247475. 6238.99   4
  -1  -1   2 247151. 6267.60   6
  -2   1   2 245160. 6242.53   9
   2  -1   2 246398. 5371.37   2
  -1   2   2 238933. 5982.36   9
   1  -2   2 250336. 6244.14  11
  -1   2   2 248109. 6246.42   1
  -1  -1   3 549.080 371.220   6
  -1   2   3 180.342 195.989   9
   2  -1   3 687.846 235.799   1
   1  -2   3 314.792 313.599   2
  -1   2   3 343.195 338.696   1
   1   1   3 553.337 401.842   1
   2  -1   3 508.523 185.462   2
   1   1   3 319.185 210.833   8
   2  -1   3 321.055 339.188   4
   1  -2   3 332.153 343.014   8
   1  -2   3 100.952 275.136   4
  -1  -1   3 110.614 292.363  10
   1  -2   3 174.657 306.605  11
  -2   1   3-26.7459 285.014   9
   1   1   3-231.084 302.942   4
   1   1   4 32710.8 1834.18   1
   1  -2   4 35219.6 1919.71   8
  -1   2   4 34505.3 1956.03   1
   2  -1   4 34460.6 1474.04   1
   2  -1   4 33005.3 1546.09  11
  -1  -1   4 33608.6 1784.46   6
   2  -1   4 34757.6 1926.01   4
  -1   2   4 36837.3 1655.26   9
   1   1   4 33801.5 1671.04   4
   1  -2   4 33145.9 1821.98  11
  -2   1   4 33180.4 1811.33   9
   2  -1   4 35997.4 1925.07   8
   1  -2   4 34209.7 1871.71   4
  -1  -1   4 33894.7 1889.67  10
   1   1   4 34819.5 1572.10   8
  -1  -1   5 165.971 391.632  10
   2  -1   5 8.44046 403.551   4
   2  -1   5-56.1020 156.959   1
  -1   2   5 398.995 305.955   9
  -1   2   5-148.668 314.298   1
   1  -2   5 10.8998 318.034   4
   2  -1   5 440.215 282.146  11
   1   1   5 3.62647 259.227   4
  -2   1   5 270.278 302.887   9
   2  -1   5 427.032 368.115   8
   1  -2   5 535.225 443.868   8
   1   1   5 175.581 270.647   8
   1   1   5 138.972 326.044   1
   1  -2   6 263465. 7876.65   4
   1  -2   6 273864. 7878.16   8
   1   1   6 286221. 7463.46   4
  -1   2   6 297656. 8110.29   1
   2  -1   6 287558. 6902.44   1
   1   1   6 284276. 7685.37   1
  -1  -1   6 274750. 7767.05  10
  -2   1   6 275716. 7537.39   9
   1   1   6 271927. 7309.00   8
  -1   2   6 274951. 6926.76   9
   2  -1   6 278971. 7869.94   4
   2  -1   6 288309. 7904.76   8
   2  -1   6 290705. 7071.36  11
  -1   2   7 597.539 541.309   1
   1  -2   7 232.849 425.683   8
   2  -1   7 194.277 249.055   1
   1   1   7 110.838 332.191   1
   1   1   7 71.3451 91.5163  11
   1   1   7 177.519 400.643   4
  -2   1   7 818.091 486.082   9
   2  -1   7 444.382 530.879   8
   2  -1   7 746.369 505.379   4
   1  -2   7 280.208 205.826   1
  -1   2   7 351.393 330.223   9
   1   1   7 200.883 360.267   8
   2  -1   7 440.377 327.103  11
   1  -2   7 564.198 551.364   4
  -1  -1   7 172.960 376.737  10
  -1   2   8 205065. 5656.74   9
   1  -2   8 196918. 6817.44   4
   1  -2   8 200865. 6871.25   8
   1   1   8 207038. 6461.20   8
   2  -1   8 198998. 5690.91   1
   2  -1   8 196798. 6724.73   8
   1   1   8 216733. 6447.02   4
   2  -1   8 217094. 5835.53  11
  -1   2   8 205482. 5748.53  10
  -2   1   8 202208. 6324.18   9
   2  -1   8 220978. 7025.84   4
  -1   2   8 201716. 6826.08   1
   1   1   8 196034. 4659.77  11
  -2   1   8 213703. 6566.10  10
   1  -2   8 207567. 5265.46   1
  -1  -1   8 203072. 6681.03  10
   1   1   8 191873. 6377.61   1
  -2   1   9 643.364 538.007  10
   1  -2   9-281.470 630.282   4
  -1   2   9 710.416 553.973   1
  -1   2   9 148.297 291.216   9
   1   1   9 195.396 169.793  11
   1   1   9 229.632 465.412   4
   2  -1   9 177.089 337.535   1
   2  -1   9 981.200 689.954   8
   2  -1   9 603.155 357.843  11
   1  -2   9 148.863 216.641   1
   1   1   9 759.785 649.663   8
   1  -2   9 639.086 628.414   8
  -1   2   9 828.888 435.428  10
   1   1   9 340.005 358.718   1
  -1  -1   9 551.476 486.270  10
  -2   1   9 466.768 512.954   9
   2  -1   9 1312.03 610.955   4
   2  -1  10 41902.6 2318.80   1
   1  -2  10 40813.4 2018.52   1
  -2   1  10 44584.6 2695.37   9
   1  -2  10 37288.1 2903.99   8
   2  -1  10 40410.7 2247.84  11
  -1   2  10 42118.2 2944.42   1
  -2   1  10 38846.7 2656.86  10
  -1   2  10 44241.4 2216.19   9
  -1   2  10 44384.1 2351.77  10
  -1  -1  10 40044.0 2795.42  10
   2  -1  10 41646.1 2981.08   4
   1  -2  10 43608.6 3107.59   4
   2  -1  10 44224.5 3054.97   8
   1   1  10 42849.6 2716.69   4
   1   1  10 42924.0 2875.52   8
   1   1  10 42259.2 2773.95   1
  -2   1  11 289.330 509.407  10
   1   1  11 461.929 412.449   1
   2  -1  11 358.623 601.407   4
   1  -2  11 1217.95 826.272   8
   2  -1  11 224.096 330.896   1
  -1  -1  11 439.376 522.380  10
   1   1  11 118.522 434.313   4
  -1   2  11-418.812 378.156  10
   1   1  11 679.733 628.427   8
   2  -1  11 228.170 607.614   8
  -1   2  11 412.670 499.389   1
   2  -1  11 284.468 346.383  11
  -1  -1  12 1416.59 860.847   8
  -2   1  12 2370.38 804.299  10
   1   1  12 1425.80 547.057   1
   2  -1  12 2842.11 944.081   4
   2  -1  12 1871.28 878.610   8
  -1   2  12 1329.02 630.440   1
  -1  -1  12 3059.55 937.419  10
   1  -2  12 2005.15 726.516  11
   1   1  12 1389.32 626.513   4
   1   1  12 2488.68 911.054   8
   1  -2  12 1912.65 948.944   8
   2  -1  13 1204.68 864.823   8
  -1  -1  13 801.868 800.254   8
   1   1  13 305.538 724.505   8
  -1   2  13 122.430 417.617   1
  -2   1  13 578.830 525.744  10
   1   1  13 786.863 558.236   4
  -1  -1  13 36.0543 582.979  10
   1  -2  13-599.211 554.493   8
   1  -2  13 36.6716 460.982  11
   2  -1  13 289.005 614.157   4
   1   1  13-472.802 468.799   1
  -1  -1  14 35404.2 3060.43  10
   1   1  14 28904.5 2688.37   1
   1  -2  14 27461.4 2500.48  11
  -1   2  14 31181.0 2921.23   1
  -2   1  14 30794.5 2730.92  10
  -1  -1  14 30028.2 3110.95   8
   2  -1  14 33120.6 3175.71   8
   1  -2  14 29868.5 3136.49   8
  -2   1  14 29172.5 2822.02   1
   1   1  14 29486.4 2932.00   8
   2  -1  14 31651.8 3048.36   4
   1   1  14 33985.5 2857.39   4
  -2   1  15 142.303 623.718   1
   1  -2  15-163.219 643.288   8
   1   1  15 1014.02 814.680   8
   1   1  15-768.918 594.165   1
  -1  -1  15-323.502 752.454   8
  -1   2  15 447.624 654.596   1
   2  -1  15 945.111 890.163   4
   2  -1  15 1288.76 927.319   8
  -1  -1  15-909.815 751.247  10
   1   1  16 2342.00 1123.99   8
   2  -1  16 2905.23 1198.19   8
  -1  -1  16 3968.42 1321.38   8
  -1   2  16 3813.38 1309.26   8
  -2   1  16 1576.60 781.388   1
   1  -2  16 2524.67 1242.01   8
  -1   2  16 3780.21 1134.68   1
   1   1  17 62.0248 645.800   8
   2  -1  17-951.618 1158.98   8
  -1   2  17-807.237 910.176   8
  -2   0 -17 1475.37 822.267  12
   0  -2 -17 783.146 767.895   3
   2  -2 -17 689.197 775.416   3
   0  -2 -17 1362.67 652.361  12
   0  -2 -16 10268.1 1929.76   3
   2   0 -16 13307.8 2311.82   3
  -2   2 -16 11801.8 2132.04   3
   2  -2 -16 12729.3 2167.94   3
   0  -2 -16 12783.7 2175.42  12
   0   2 -16 12810.5 2250.13   3
  -2   0 -16 11965.8 2091.04  12
   0  -2 -15 4993.67 1370.55  12
   2  -2 -15 7433.89 1682.43   3
  -2   0 -15 5366.12 1316.74  12
   0  -2 -15 6118.70 1431.28   3
  -2   2 -15 4693.16 1316.57   3
   0   2 -15 6976.61 1614.70   3
   2   0 -15 5446.55 1504.06   3
   2   0 -14 3722.02 1276.51   3
  -2   0 -14 4327.99 1208.44  12
  -2   2 -14 4160.40 1199.60   3
   0  -2 -14 4393.21 1283.96  12
  -2   2 -14 4159.26 1084.83  12
   0   2 -14 3902.62 1184.80   3
   2  -2 -14 3962.94 1173.93   3
   0   2 -13 9548.94 1700.05   3
   2  -2 -13 13035.1 1893.23   3
  -2   0 -13 10754.2 1733.06  12
  -2   2 -13 11208.5 1548.28  12
   0  -2 -13 10445.7 1801.92  12
   2   0 -13 9872.28 1823.37   3
  -2   2 -13 10126.2 1476.68   7
  -2   2 -12 2604.54 783.254   7
  -2   2 -12 1945.20 677.701  12
   0  -2 -12 1457.18 906.659  12
   2   0 -12 2809.36 1047.39   3
  -2   0 -12 2441.67 948.391  12
   0   2 -12 2867.05 993.065   3
   2  -2 -12 1750.17 784.252   3
   0   2 -11 39351.5 3147.16   3
  -2   2 -11 45708.0 2930.79   7
  -2   0 -11 39072.0 3051.06  12
   2   0 -11 43060.6 3360.51   3
   0  -2 -11 43035.3 3305.83  12
  -2   2 -11 44205.7 2819.45  12
   2  -2 -11 40271.1 3019.59   3
   2  -2 -10 33204.8 2566.41   3
  -2   0 -10 34521.4 2717.35  12
  -2   2 -10 34655.2 2466.20   7
  -2   2 -10 37582.2 2465.93  12
   2   0 -10 34251.0 2863.15   3
   0  -2 -10 35444.6 2865.37  12
   0   2 -10 32595.2 2728.55   3
   2   0  -9 4319.14 1037.60   3
   0   2  -9 3960.12 576.622   7
   0  -2  -9 5560.78 1131.19  12
   0   2  -9 4687.61 1085.99   3
   2  -2  -9 5713.61 1036.57   3
  -2   2  -9 4292.71 815.902  12
   2  -2  -9 4172.36 959.596  12
  -2   0  -9 4103.84 949.778  12
  -2   2  -9 4581.07 896.448   7
  -2   0  -9 5794.59 1156.21   7
  -2   0  -8 20232.2 1877.27  12
   0  -2  -8 23073.8 2073.26  12
   0   2  -8 21595.7 1955.67   3
   2   0  -8 20447.9 1978.95   3
  -2   2  -8 23338.2 1704.99  12
   0   2  -8 23077.9 1304.59   7
  -2   0  -8 21211.2 1906.42   7
  -2   2  -8 20897.1 1727.36   7
   2  -2  -8 19043.1 1714.88   3
  -2   2  -7 50412.1 2685.85   7
   0   2  -7 53781.2 2952.68   3
   0   2  -7 51775.8 1996.09   7
  -2   0  -7 49928.1 2860.52   7
   2   0  -7 56649.0 3156.82   3
  -2   0  -7 52268.5 2935.59  12
   2  -2  -7 50826.9 2712.70   3
   0  -2  -7 54114.5 3061.14  12
  -2   2  -7 49644.2 2450.98  12
  -2   0  -6 107762. 2866.57  10
   0   2  -6 105090. 4119.52   3
  -2   2  -6 106813. 3981.21   7
   0   2  -6 106332. 3068.67   7
  -2   0  -6 101317. 4106.14   7
  -2   2  -6 105150. 3645.75  12
   0  -2  -6 105028. 4245.76  12
   2  -2  -6 106701. 3882.47   3
   0  -2  -6 98458.5 3575.33   2
   2   0  -6 106874. 4334.09   3
  -2   0  -6 103445. 4205.40  12
   2   0  -5 519777. 12457.8   3
  -2   2  -5 518907. 11494.6  12
  -2   0  -5 511564. 12285.2  12
   0  -2  -5 512880. 12307.0  12
   0  -2  -5 497021. 11462.2   2
  -2   0  -5 496603. 12224.6   7
  -2   0  -5 480182. 10093.8   2
   2  -2  -5 505105. 11625.7   3
   0   2  -5 503737. 12020.8   3
   2  -2  -4 28501.6 1527.80   3
   0  -2  -4 34609.3 1935.53  12
   0  -2  -4 31707.0 1610.08   2
  -2   2  -4 26349.5 855.708   1
  -2   0  -4 32060.2 1174.40  11
  -2   0  -4 32729.3 1936.16  12
   2   0  -4 31514.8 1938.78   3
  -2   2  -4 29176.6 1514.33  12
  -2   0  -4 28153.0 987.141   9
   0   2  -4 29214.8 1710.11   3
  -2   0  -4 30089.4 1856.30   7
   2   0  -3 377380. 9228.12   3
   0  -2  -3 357021. 8469.56   2
  -2   0  -3 363917. 7762.66   9
  -2   0  -3 368739. 9018.17  12
   0  -2  -3 369692. 8854.38  12
   0   2  -3 360081. 8610.42   3
  -2   2  -3 354558. 7370.26   1
  -2   2  -3 379932. 8667.73   9
   2  -2  -3 367933. 8291.49   3
  -2   0  -3 368621. 9009.58   7
   0  -2  -2 494278. 11076.8  12
  -2   0  -2 493643. 10535.9   9
   2   0  -2 523064. 11717.4   3
   0  -2  -2 502607. 11008.4   2
   0   2  -2 480968. 10905.2   3
  -2   0  -2 501618. 11355.1   7
   0   2  -2 509561. 10722.1   1
   0  -2  -2 483534. 10404.3  11
  -2   2  -2 511765. 11163.4   9
  -2   2  -2 478557. 10296.4   5
  -2   0  -2 546883. 10564.3   5
   2  -2  -2 507479. 10607.4   3
  -2   0  -1 439618. 9712.84   9
   2  -2  -1 438495. 9354.11   3
   0   2  -1 460208. 9800.02   1
   0   2  -1 447393. 10258.6   5
   0  -2  -1 430464. 9679.56  12
   0   2  -1 421169. 9627.44   3
   0  -2  -1 450427. 9976.91   2
   0  -2  -1 473486. 9608.90   3
   0  -2  -1 430052. 9552.46  11
   2  -2  -1 453043. 10150.0   2
  -2   2  -1 438374. 10026.1   9
   2  -2  -1 445280. 9373.94   4
  -2   0  -1 442490. 10034.1   7
  -2   2  -1 429386. 9253.95   5
   2   0  -1 449504. 10509.0   3
   0   2   0 23265.2 996.247  12
   0  -2   0 19006.5 1280.13   6
   0  -2   0 19655.2 1219.35   2
  -2   2   0 18441.2 1205.69   9
   0  -2   0 19065.4 1096.98  11
  -2   2   0 19466.2 919.767   3
   2  -2   0 22246.1 1023.60   5
   0  -2   0 20096.5 1008.02   3
   0   2   0 22971.5 910.833   8
   2   0   0 18942.0 1361.14   3
   0  -2   0 18705.7 916.769  12
   0   2   0 18833.9 1147.06   1
  -2   0   0 18032.3 1140.14   9
   2  -2   0 19303.6 1195.24   2
   0   2   0 18415.2 993.173   3
  -2   0   0 20404.4 1121.64   7
   0   2   0 17239.4 1211.04   5
   2  -2   0 17850.8 973.491   4
   0   2   1 449217. 10262.6   1
   2  -2   1 489028. 9537.82   5
   0  -2   1 451473. 10332.7   2
   2  -2   1 455724. 10163.4   2
   0  -2   1 456686. 10512.9   6
   2   0   1 440630. 9648.86   5
   0   2   1 452351. 10513.1   5
  -2   2   1 492411. 9588.04   3
   2   0   1 442899. 10483.8   4
   0  -2   1 439722. 9200.53  12
  -2   0   1 450801. 10323.3   9
  -2   0   1 445031. 9698.62   7
   2  -2   1 455338. 9996.37   4
  -2   2   1 475545. 9365.97   6
  -2   2   1 444177. 10329.3   9
   0   2   2 525056. 11880.9   5
   0  -2   2 545527. 11777.8  10
   0  -2   2 507514. 11171.3   8
   2  -2   2 522807. 11477.9   4
   0   2   2 489695. 10755.3   4
   2   0   2 507590. 11546.6   1
   0  -2   2 528611. 11720.6   2
   2  -2   2 525483. 11658.7  11
  -2   2   2 517473. 11635.9   9
   2   0   2 512861. 11784.1   4
  -2   2   2 540875. 10922.3   3
  -2   0   2 526700. 10687.3   7
   2  -2   2 528679. 11364.3   2
  -2   0   2 519166. 11756.7   9
   2   0   2 510999. 10881.4   5
   0  -2   2 511409. 11822.1   6
   2   0   2 538778. 10876.2   9
   0   2   2 523613. 11699.9   1
   2   0   3 364226. 8852.38   4
   0  -2   3 355975. 8902.98   6
   0  -2   3 359796. 8480.79   8
  -2   0   3 360470. 8895.29   9
   2   0   3 359404. 8609.65   1
   2  -2   3 374258. 8754.40  11
  -2   2   3 357540. 8718.23   9
  -2   0   3 351474. 7451.91   7
   0   2   3 353409. 8855.91   1
   2   0   3 380192. 7671.58   9
   0   2   3 349215. 7769.91   4
   0  -2   3 353595. 8855.68  10
   2  -2   3 355584. 8360.68   2
  -2   0   3 358303. 8216.52   6
   2  -2   3 346389. 8694.33   4
  -2   0   4 25506.6 1687.18   9
   2   0   4 26003.2 909.619   9
   2   0   4 25607.0 1487.58   8
   2  -2   4 28251.1 1743.98   4
   0   2   4 23242.9 1174.87   9
   0   2   4 25456.0 1181.51   4
   2   0   4 28303.6 1724.20   4
   0  -2   4 25585.9 1568.60   8
   0  -2   4 23744.7 824.341  12
   0   2   4 28594.1 1028.04  11
  -2   0   4 25007.3 1339.93   6
   2  -2   4 26889.3 1625.44  11
   2  -2   4 25762.4 1744.40   8
   2   0   4 27069.3 1579.61   1
   0   2   4 24730.9 1682.28   1
   2  -2   4 25226.0 1401.56   2
  -2   2   4 26305.4 1607.50   9
   0  -2   4 27671.4 1739.95  10
   2  -2   5 525434. 11713.5  11
   0   2   5 502572. 10546.8   9
   2   0   5 499695. 11527.3   1
   0  -2   5 503538. 12022.9  10
   2  -2   5 479837. 12047.8   8
   2   0   5 508461. 11559.8   8
   0  -2   5 499349. 10198.2  12
   0   2   5 495973. 10101.5  11
   0   2   5 508419. 12087.2   1
  -2   2   5 501428. 11601.6   9
   0   2   5 491396. 10714.5   4
  -2   0   5 481185. 11890.6  10
   2  -2   5 510819. 12029.9   4
   2   0   5 487154. 11802.4   4
   2  -2   5 483443. 9944.92   1
   0  -2   5 486314. 11703.6   8
  -2   0   5 495856. 11968.9   9
   2   0   6 99415.4 3800.36   8
   2  -2   6 98759.0 2615.00   1
   2  -2   6 98729.1 4101.64   8
  -2   0   6 107735. 4074.92   9
   0   2   6 103134. 4121.19   1
   0  -2   6 107936. 4144.87  10
   2  -2   6 99883.5 3708.03  11
  -2   2   6 100836. 3691.29   9
   0   2   6 97103.2 3211.92   4
   0   2   6 100727. 2852.05   9
   2  -2   6 104002. 4104.74   4
   2   0   6 101397. 3935.67   4
  -2   0   6 97403.3 3953.86  10
   0  -2   6 101541. 3993.10   8
   2   0   6 105400. 3765.85   1
   2  -2   7 48877.6 2505.94  11
  -2   0   7 49630.9 2777.86  10
   0  -2   7 46931.9 2705.87  10
   2   0   7 47470.0 2465.37   1
   0   2   7 46437.7 2171.28   4
   0   2   7 48448.0 2810.19   1
   0  -2   7 47796.7 2717.75   8
  -2   2   7 50790.7 2511.20   9
   0   2   7 46386.7 1621.15  10
   2  -2   7 49267.0 2836.75   4
   0   2   7 45468.3 1677.11   9
   2  -2   7 47149.1 1690.65   1
   2   0   7 48055.2 2627.36   8
   2   0   7 49717.2 2735.45   4
  -2   0   7 46072.6 1329.82   7
   2  -2   7 47577.7 2854.09   8
   0  -2   8 21519.3 1910.06  10
   2  -2   8 23729.6 1760.48  11
  -2   2   8 22610.1 1705.10   9
   2  -2   8 22703.3 1193.55   1
   0   2   8 21237.0 1504.59   4
   0   2   8 22111.6 1925.28   1
   2  -2   8 21370.0 1970.03   8
   2   0   8 20514.9 1861.53   4
   2   0   8 23187.7 1175.91  11
  -2   0   8 22011.9 1917.36  10
   0   2   8 21564.2 1085.61  10
   2   0   8 22227.7 1710.02   1
   0  -2   8 22255.9 1994.21   8
   2   0   8 21678.3 1850.80   8
   2  -2   8 23474.4 2045.02   4
   0   2   8 21319.3 1073.91   9
   2   0   9 3058.25 465.855  11
   2   0   9 3204.28 878.963   8
   0  -2   9 2662.10 863.567   8
   0  -2   9 3807.37 914.397  10
   2  -2   9 2515.82 661.426  11
  -2   2   9 1741.09 597.034  10
   2   0   9 1892.85 634.213   1
   0   2   9 2134.15 736.411   1
  -2   0   9 3101.03 857.294  10
   2   0   9 3809.39 914.879   4
   0   2   9 2057.72 341.595   9
   2  -2   9 2247.57 754.763   4
  -2   2   9 2557.57 644.138   9
   2  -2   9 2139.60 417.604   1
   0   2   9 2231.31 372.416  10
   0   2   9 2542.45 633.473   4
   2  -2   9 2557.22 891.211   8
  -2   2  10 34447.8 2244.13   9
   0  -2  10 28394.8 2495.21   8
   2   0  10 32206.1 2268.19   1
   2   0  10 31550.0 2519.90   8
   0   2  10 36258.8 2268.17   4
   2  -2  10 30897.7 2219.74  11
   0   2  10 31448.2 2550.44   1
  -2   2  10 33199.4 2314.92  10
   2  -2  10 30968.1 2590.61   4
   0  -2  10 30022.9 2473.71  10
  -2   0  10 33186.4 2538.05  10
   2  -2  10 30497.9 1649.79   1
   2   0  10 37901.3 2741.61   4
   2  -2  10 29473.4 2555.47   8
   2   0  11 42537.6 3080.12   8
   2  -2  11 35985.4 2494.52  11
   0  -2  11 33266.0 2840.00   8
  -2   2  11 40313.8 2669.11  10
   2   0  11 41618.1 3023.08   4
   0   2  11 37552.7 2919.24   1
   2  -2  11 34284.5 2903.50   8
  -2   2  11 40163.1 2509.95   9
   0   2  11 39427.5 2495.70   4
   2  -2  11 37038.8 3015.89   4
  -2   0  11 35185.4 2775.74  10
   2   0  11 37488.7 2568.68   1
   0  -2  12 2455.70 959.542   8
   2   0  12 3150.04 960.478   4
   0   2  12 3398.09 966.017   1
  -2   2  12 2143.25 732.848  10
   2  -2  12 1583.06 628.574  11
   2  -2  12 3178.96 1010.84   4
  -2   2  12 2007.28 758.077   1
  -2   0  12 1309.35 786.269  10
   2   0  12 3044.90 805.004   1
   2  -2  12 1091.78 782.798   8
   2   0  12 2106.90 847.247   8
   2  -2  13 8433.57 1626.06   8
   0  -2  13 7393.97 1537.79   8
   2   0  13 9995.67 1416.28   1
   2   0  13 8997.52 1579.33   8
   2  -2  13 10790.5 1432.26  11
   2  -2  13 12864.5 1977.55   4
  -2   2  13 8944.67 1603.73   1
  -2   0  13 8783.66 1500.85  10
   0   2  13 9974.03 1605.13   1
   2   0  13 10108.4 1626.18   4
   2   0  14 5595.66 1265.15   4
   0  -2  14 2853.15 1091.01   8
   2   0  14 6273.20 1456.87   8
   2  -2  14 7315.75 1624.22   8
  -2   2  14 3866.80 1109.63   1
   2  -2  14 5076.90 1403.78   4
  -2   0  14 6301.32 1350.28  10
   0   2  14 5031.40 1216.72   1
   0   2  14 5185.24 1324.08   8
   0   2  15 4593.21 1175.32   1
   2   0  15 5198.14 1316.73   4
  -2   2  15 3938.04 1153.03   1
  -2   0  15 5791.63 1397.34  10
   0   2  15 3761.29 1225.06   8
   2   0  15 6393.28 1461.05   8
   0  -2  15 6783.88 1660.87   8
   2  -2  15 5596.64 1458.97   8
   0   2  16 13870.8 2216.98   8
   2   0  16 10596.5 1905.58   4
   0   2  16 9544.76 1750.85   1
  -2   0  16 12638.2 2263.01   8
   2   0  16 10146.8 1900.70   8
   0  -2  16 11131.9 2108.29   8
  -2   2  16 11328.8 1901.17   1
   2  -2  16 10224.8 2024.40   8
  -2   2  17 691.935 681.682   1
   0   2  17 3210.15 1341.65   8
   2   0  17 1770.07 1025.78   8
   2  -3 -17 1307.85 840.310   3
   1  -3 -17-217.267 559.479   3
  -1   3 -16 16154.7 2473.83   3
   3  -1 -16 12873.6 2337.93   3
   3  -2 -16 9887.20 1975.21   3
  -3   1 -16 13400.8 2123.96  12
  -1  -2 -16 12127.1 2187.58  12
   1   2 -16 15187.8 2491.70   3
   2  -3 -16 10353.5 1915.75   3
   1  -3 -16 13369.9 2333.28  12
  -2  -1 -16 14158.0 2292.54  12
   1  -3 -16 12323.6 2103.58   3
  -2   3 -16 12033.2 2204.06   3
   2   1 -16 9915.99 2060.74   3
   3  -1 -15 277.775 616.636   3
  -3   1 -15-223.374 503.647  12
   3  -2 -15 1627.90 880.418   3
   2   1 -15 776.596 1035.02   3
  -2   3 -15 1180.44 763.835   3
   2  -3 -15 252.160 634.933   3
  -2  -1 -15 1667.37 1049.95  12
  -1  -2 -15 527.597 607.770  12
   1  -3 -15-276.717 578.994   3
  -1   3 -15 1484.81 806.579   3
   1   2 -15 1208.34 816.797   3
   1  -3 -15 792.906 854.824  12
   1   2 -14 2347.42 1229.72   3
   1  -3 -14 1280.37 614.946   2
   1  -3 -14 1034.58 775.775  12
  -2  -1 -14 740.889 721.680  12
   2   1 -14 1696.33 1080.89   3
  -1   3 -14 2939.00 1199.66   3
  -1  -2 -14 1728.23 979.070  12
  -2   3 -14 1386.84 902.557   3
   2  -3 -14 2248.01 910.811   3
   1  -3 -14 1839.99 827.359   3
   3  -2 -14 2106.78 992.262   3
  -3   2 -14 629.422 626.553   7
  -3   2 -14 420.615 568.022  12
   3  -1 -14 2276.06 1079.34   3
  -3   1 -14 3009.88 1040.20  12
  -3   1 -13 27266.1 2743.02  12
  -1  -2 -13 20899.7 2569.50  12
   2   1 -13 29308.7 3127.94   3
   1   2 -13 21134.2 2652.23   3
  -2   3 -13 22923.3 2578.27   3
  -3   2 -13 21997.5 2315.59  12
  -1   3 -13 21805.9 2558.72   3
  -2  -1 -13 25396.5 2808.84  12
   1  -3 -13 24071.5 2771.03  12
   1  -3 -13 26426.1 2635.41   3
   2  -3 -13 28407.1 2750.32   3
   3  -1 -13 21403.7 2614.32   3
   3  -2 -13 27071.4 2798.23   3
   1  -3 -13 23400.5 2271.36   2
  -3   2 -13 25296.9 2542.22   7
   3  -1 -12 8222.62 1519.37   3
   2   1 -12 7799.19 1630.51   3
   1  -3 -12 9104.92 1777.02  12
   1  -3 -12 6144.21 1251.61   3
  -3   2 -12 9470.68 1570.88   7
  -3   2 -12 7408.14 1331.21  12
  -2  -1 -12 9853.36 1721.60  12
  -2   3 -12 7619.74 1441.49   3
  -1  -2 -12 10443.1 1801.47  12
   2  -3 -12 8326.29 1460.28   3
   2  -3 -12 7030.28 1475.20  12
   1   2 -12 6099.62 1346.10   3
  -1   3 -12 6458.56 1312.69   3
  -3   1 -12 7474.00 1394.59  12
  -2   3 -12 7338.20 1187.18   7
   3  -2 -12 6229.61 1329.42   3
  -3   1 -12 6420.91 1350.86   7
  -2   3 -11 27775.9 2561.17   3
   2   1 -11 25608.7 2666.45   3
   3  -1 -11 27830.0 2716.12   3
  -3   2 -11 24851.9 2281.35  12
   1   2 -11 23893.8 2511.89   3
  -2   3 -11 27443.8 2200.80   7
   1  -3 -11 22805.6 2508.70  12
  -2   3 -11 24560.4 1909.33  12
  -3   1 -11 24994.4 2443.68   7
  -1   3 -11 24039.2 2407.26   3
  -1  -2 -11 26699.3 1897.91   2
   3  -2 -11 23864.4 2400.47   3
   2  -3 -11 31055.8 2528.56   3
  -3   2 -11 22717.7 2277.68   7
   2  -3 -11 28808.1 2753.18  12
  -3   1 -11 27997.3 2544.66  12
  -1  -2 -11 26107.2 2650.22  12
  -2  -1 -11 27914.3 2698.65  12
  -3   1 -10 29512.9 2582.11   7
   1   2 -10 33665.4 2856.20   3
  -1  -2 -10 32379.2 2860.97  12
  -3   1 -10 29251.1 2550.47  12
  -1   3 -10 33883.8 2745.20   3
   3  -2 -10 32003.4 2639.91   3
  -2  -1 -10 27651.2 2596.84  12
  -2   3 -10 33458.8 2362.96   7
   2   1 -10 32125.2 2840.04   3
  -3   2 -10 35266.1 2588.84  12
  -3   2 -10 30954.6 2559.08   7
  -1  -2 -10 33911.9 2073.73   2
  -2   3 -10 32877.5 2091.49  12
   2  -3 -10 29570.0 2683.11  12
  -1   3 -10 31112.7 2028.25   7
   2  -3 -10 30740.5 2408.54   3
   1  -3 -10 35786.2 2926.77  12
   1  -3 -10 30737.7 2364.51   2
   3  -1 -10 31469.3 2755.34   3
   3  -2  -9 21799.3 2080.96   3
  -2   3  -9 24362.4 1963.54   7
   2   1  -9 26265.5 2490.83   3
   1  -3  -9 21743.4 1910.41   2
  -2  -1  -9 23389.9 1383.12   2
  -3   2  -9 25474.2 2096.70  12
  -2  -1  -9 19905.6 2085.79  12
  -3   2  -9 24193.1 2196.21   7
  -1   3  -9 23797.6 1454.23  12
  -1   3  -9 25049.5 1730.62   7
   2  -3  -9 24055.7 1995.97   3
   3  -1  -9 21000.7 2158.92   3
   1   2  -9 23417.5 2281.86   3
  -2   3  -9 26099.4 1726.88  12
  -3   2  -9 21843.5 1379.97   9
  -1  -2  -9 22712.3 2245.26  12
   1  -3  -9 26567.7 2392.59  12
  -1   3  -9 26518.4 2306.10   3
  -1  -2  -9 25759.7 1706.04   2
  -3   1  -9 27164.4 2355.33   7
   2  -3  -9 21514.7 2221.01  12
  -3   1  -9 22650.1 2163.81  12
   2  -3  -8 49953.3 2759.18   3
  -3   2  -8 50540.6 3091.83   7
  -1   3  -8 51550.1 2058.23  12
  -2  -1  -8 53830.3 2024.92   2
   3  -1  -8 47019.6 3134.71   3
  -2   3  -8 50624.4 2829.79   7
  -3   2  -8 54997.5 2289.25   9
   1  -3  -8 49097.6 2824.87   2
   1   2  -8 46829.4 3121.08   3
   2  -3  -8 50699.2 3261.96  12
  -2   3  -8 52875.6 2394.95  12
   2   1  -8 52445.6 3385.67   3
  -1  -2  -8 61832.1 3551.49  12
  -3   2  -8 53241.3 2973.57  12
  -3   1  -8 52361.6 3169.46  12
  -1   3  -8 50291.8 2495.60   7
   1  -3  -8 47606.4 3146.34  12
  -2  -1  -8 49335.6 3214.21  12
   3  -2  -8 49590.8 3006.78   3
  -3   1  -8 49452.6 3142.55   7
  -1  -2  -8 51836.2 2403.41   2
  -1   3  -8 48331.7 2994.54   3
   3  -2  -7 31923.6 2274.50   3
  -3   1  -7 34480.5 1358.50   2
  -3   2  -7 36924.4 1810.93   9
   2  -3  -7 34423.4 2090.21   3
  -2   3  -7 37735.7 1834.98  12
  -3   1  -7 37563.1 2543.49  12
  -1  -2  -7 37169.2 1891.76   2
   1  -3  -7 34051.1 2234.08   2
  -1  -2  -7 34191.0 2495.61  12
  -2  -1  -7 35167.3 2571.43  12
   1  -3  -7 35121.2 2517.78  12
   3  -1  -7 34677.1 2473.89   3
  -1   3  -7 34927.4 1446.83  12
   1   2  -7 36163.3 2550.33   3
  -2  -1  -7 33581.1 1424.40   2
   3  -2  -7 31910.3 1269.23   6
  -1   3  -7 35536.4 2364.87   3
  -3   2  -7 34942.9 2278.87  12
  -3   1  -7 37758.8 2572.21   7
   2   1  -7 38605.4 2696.14   3
   2  -3  -7 35877.5 2593.08  12
  -3   1  -7 34877.4 1300.76   9
  -3   2  -7 35508.3 2436.77   7
  -3   1  -6 25973.0 2045.79   7
  -2  -1  -6 26427.0 1107.09   2
   1  -3  -6 25762.7 2026.18  12
  -3   2  -6 25433.6 1848.70  12
  -1   3  -6 24209.1 1004.34  12
   2  -3  -6 25810.5 1622.64   3
   3  -2  -6 24561.2 1853.33   3
  -3   1  -6 24457.1 1129.01   9
   2  -3  -6 24805.8 2019.19  12
   1  -3  -6 24324.4 1103.01   4
   1   2  -6 26111.7 2024.80   3
  -1   3  -6 25605.9 1846.34   3
  -1  -2  -6 26299.7 1495.78   2
  -3   2  -6 24992.1 1465.88   9
  -2   3  -6 25455.2 1380.14  12
  -2  -1  -6 28065.7 2146.29  12
  -3   2  -6 21477.3 1845.47   7
   2  -3  -6 25064.1 1110.14   4
   2   1  -6 24230.3 2050.36   3
   3  -1  -6 26821.2 2054.24   3
   1  -3  -6 24632.4 1819.06   2
  -1  -2  -6 24685.6 1999.27  12
  -3   1  -6 22318.5 950.009   2
  -3   1  -6 23721.2 1919.31  12
   2  -3  -5 151735. 3257.56   4
  -3   1  -5 158487. 5254.32   7
  -3   2  -5 150510. 4873.17  12
  -1   3  -5 148469. 4680.21   3
  -2   3  -5 153165. 3922.45  12
   1  -3  -5 141763. 4735.02   2
   2  -3  -5 147674. 5005.95   2
  -3   2  -5 146718. 5059.51   7
  -2  -1  -5 149087. 3308.20   2
   3  -1  -5 149889. 5144.86   3
   1   2  -5 144000. 5047.47   3
   3  -2  -5 153744. 4872.87   3
   2  -3  -5 150425. 5194.55  12
  -3   1  -5 151994. 5165.32  12
   2  -3  -5 150790. 4242.63   3
   2   1  -5 152058. 5303.33   3
   1  -3  -5 149764. 5110.73  12
  -2  -1  -5 143883. 5148.17  12
  -3   1  -5 143948. 3715.78   9
  -3   2  -5 150495. 4273.46   9
  -1  -2  -5 150878. 5169.16  12
  -1  -2  -5 157085. 4200.44   2
  -1  -2  -4 2525.78 613.094  12
  -2  -1  -4 2518.69 705.532   7
  -2  -1  -4 3468.29 734.927  12
  -3   1  -4 2711.58 668.248   7
  -2  -1  -4 2094.21 208.984  10
  -1   3  -4 2489.12 530.489   3
  -2  -1  -4 2200.71 213.985  11
   1  -3  -4 2444.28 605.191  12
  -2  -1  -4 2439.18 270.644   2
   3  -2  -4 2793.73 602.054   3
  -3   1  -4 2574.00 416.786   9
   1   2  -4 2736.97 675.656   3
   2  -3  -4 1080.95 523.424   2
  -3   1  -4 2344.27 318.529   5
   2   1  -4 2920.59 757.733   3
  -3   2  -4 2993.46 535.899   9
  -3   1  -4 1627.24 546.499  12
   3  -1  -4 2286.27 716.757   3
   1  -3  -4 2982.98 656.386   2
   2  -3  -4 2994.47 450.604   3
  -1  -2  -4 2607.40 452.139   2
  -1   3  -3 335026. 7921.74   3
  -1  -2  -3 340108. 7845.54   2
  -3   1  -3 329215. 7800.85   9
  -3   1  -3 329095. 6934.76   5
  -1  -2  -3 355114. 8690.57  12
  -2  -1  -3 344626. 7069.74   2
  -2  -1  -3 343498. 8766.59   7
  -2   3  -3 328459. 8038.12   5
   1   2  -3 334183. 8661.06   3
  -3   1  -3 339322. 8717.60   7
   2  -3  -3 341646. 7338.46   3
  -2  -1  -3 328406. 7155.96  10
   2  -3  -3 327339. 7513.62   6
   3  -1  -3 341587. 8868.88   3
  -3   2  -3 337157. 8161.58   9
  -2  -1  -3 344981. 8835.57  12
   2   1  -3 323849. 8913.18   3
   1  -3  -3 350587. 8602.70  12
  -1  -2  -3 327839. 7080.30  11
   1  -3  -3 343661. 8615.59   2
   3  -2  -3 362121. 8506.72   3
   2  -3  -3 327114. 8649.35   2
  -2  -1  -2 44749.9 2221.25   7
  -1  -2  -2 40742.5 1798.86   2
   1   2  -2 40988.9 2138.76   3
  -1   3  -2 39896.4 1654.96   3
   3  -1  -2 44422.9 2348.47   3
   2   1  -2 42526.1 2365.03   3
   2  -3  -2 40823.5 1139.49   4
   2  -3  -2 40203.7 2169.57   2
   2  -3  -2 38973.8 1617.41   6
  -2   3  -2 43367.1 1416.13   1
  -2   3  -2 38964.1 1841.99   5
  -1   3  -2 44794.6 1668.38   1
  -2  -1  -2 41109.5 2160.89  12
  -1  -2  -2 44199.1 2112.20  12
   1  -3  -2 46397.8 2084.11  12
  -3   1  -2 44042.7 2214.85   7
  -2  -1  -2 41332.8 1609.49  10
   2  -3  -2 41945.5 1279.94   3
  -3   2  -2 44930.9 2078.17   9
  -1   3  -2 52419.2 2347.99   5
  -2  -1  -2 47018.8 1413.54   8
  -3   1  -2 41852.1 1890.83   9
   1  -3  -2 45327.6 1441.23   3
  -1   3  -2 42971.6 1229.18  12
   1  -3  -2 42593.8 2185.84   2
   3  -2  -2 46364.8 2132.67   3
  -1   3  -1 41542.5 1495.35   3
   1   2  -1 42295.0 2143.64   3
   2  -3  -1 40550.8 1728.86   6
  -1   3  -1 49360.9 1560.96  12
   2   1  -1 44501.6 2394.27   3
  -2  -1  -1 42270.0 1765.00  10
   1  -3  -1 43293.7 1864.88  12
  -1   3  -1 42547.7 2144.85   5
  -3   2  -1 44949.4 2110.01   9
   3  -2  -1 43809.1 2021.25   3
  -2  -1  -1 43122.7 2051.04   7
   1  -3  -1 41858.9 1963.28  11
   1   2  -1 43249.3 2254.83   5
   1  -3  -1 45039.1 1287.72   3
  -1  -2  -1 43649.2 1975.15  12
   1  -3  -1 42782.1 2051.86   6
  -1  -2  -1 42454.2 1775.41  10
   2  -3  -1 43714.7 2240.89   2
  -1  -2  -1 41780.7 1874.31   2
   1   2  -1 41325.5 2074.27   1
   2  -3  -1 46645.3 1444.75   4
  -1   3  -1 44378.6 1799.33   1
  -3   1  -1 42879.4 2003.97   9
   1  -3  -1 44915.1 2202.63   2
  -2   3  -1 43819.1 1964.59   5
   3  -1  -1 45086.3 2305.09   3
  -2   3  -1 43428.1 2222.61   9
  -2   3  -1 44912.6 1669.23   1
   3  -2  -1 42323.9 1955.84   4
   1  -3   0 58115.0 2461.82  11
  -3   1   0 58924.2 2485.76   9
  -1   3   0 54183.8 1570.69   3
   3  -1   0 59611.2 2660.62   3
   3  -2   0 59540.7 2351.24   2
  -1  -2   0 54401.9 2281.39   2
  -2   3   0 57004.5 2300.84   5
  -1  -2   0 56639.2 2256.55  10
  -1   3   0 59778.8 2296.40   1
   1  -3   0 55341.7 2420.35   6
   2  -3   0 57003.1 1939.55   4
   1   2   0 62725.1 2604.69   3
  -1  -2   0 56943.4 2155.82  12
   1  -3   0 55251.4 1995.35  12
   1  -3   0 56933.2 1545.10   3
   1   2   0 58626.7 2551.75   1
   3  -1   0 55994.6 2578.60   4
   2   1   0 59630.7 2802.61   3
   2   1   0 57520.6 2457.69   5
   1   2   0 57548.2 2592.08   5
  -2  -1   0 54916.6 2233.16  10
  -3   2   0 56640.6 2485.66   9
  -1   3   0 54738.0 2527.61   5
   1  -3   0 58247.3 2595.56   2
  -2   3   0 60987.4 2646.82   9
   2  -3   0 61757.2 2624.88   2
   3  -2   0 56092.8 2354.51   4
  -2   3   0 59321.4 2203.22   1
  -2   3   1 44888.9 1422.41   4
   2   1   1 40958.1 2173.26   1
   1  -3   1 36783.3 2065.24   2
   2   1   1 42047.0 1997.31   5
  -1  -2   1 39771.6 1362.29   8
  -2   3   1 40621.9 2103.49   9
   1   2   1 45227.5 2216.71   1
   3  -1   1 39905.1 2162.54   4
   3  -1   1 38225.0 1229.00   5
  -1  -2   1 39987.8 2207.71   6
  -1  -2   1 39516.6 1610.17  12
  -3   2   1 40182.6 2125.35   9
   1  -3   1 36496.8 1991.92   6
  -1  -2   1 38280.8 1935.83   2
   1  -3   1 40375.0 2063.44  11
  -1   3   1 40431.8 2120.51   5
   1   2   1 40418.4 2153.71   5
   2  -3   1 40419.4 2097.02  11
  -2  -1   1 37086.9 1909.29  10
   2  -3   1 42557.1 2166.08   2
  -3   1   1 38938.7 2061.69   9
  -1   3   1 40091.2 1955.23   1
   2  -3   1 42677.6 1778.94   4
  -1  -2   1 41884.0 2006.34  10
  -1   3   1 43740.5 1355.61   4
   3  -2   1 44564.3 2104.70   4
   3  -2   1 40327.6 1817.20   2
   1  -3   2 46157.0 2329.29   2
   2   1   2 47324.5 2183.75   5
  -1   3   2 46577.7 2372.32   5
  -2  -1   2 42250.7 2192.53  10
   3  -1   2 44210.1 1512.58   2
   2   1   2 46502.7 1579.63   2
   2   1   2 45159.2 2341.68   1
   2  -3   2 44723.5 2244.94   2
   2   1   2 44253.8 2307.54   4
   3  -2   2 46093.3 1909.82   2
   1  -3   2 44312.5 2273.37  11
  -1   3   2 47428.9 2249.72   1
  -1  -2   2 47768.5 2454.64   6
  -1  -2   2 43284.6 1709.39   8
  -2  -1   2 43332.0 2249.89   6
   2  -3   2 43978.9 2292.08  11
   1   2   2 47932.6 2381.73   5
   1   2   2 47604.0 2368.00   1
  -1   3   2 47806.2 2232.75   9
  -2   3   2 50792.9 2365.16   9
   3  -2   2 43329.7 2196.04   4
  -3   2   2 45235.3 2344.41   9
   2  -3   2 50183.2 2143.66   4
  -3   1   2 44394.8 2331.44   9
  -1  -2   2 47386.0 2269.92  10
   1  -3   2 43653.1 2288.24   6
   3  -1   2 46703.7 2397.96   4
   1  -3   3 353701. 7631.22   1
   1   2   3 349360. 9142.82   5
  -1  -2   3 337949. 9032.90  10
   2  -3   3 350350. 8936.00   2
   3  -2   3 367453. 8175.96   2
  -1  -2   3 366069. 9286.24   6
   1   2   3 365509. 8637.41   4
   3  -1   3 356519. 9247.38   4
  -1   3   3 364946. 8779.26   9
   3  -1   3 349547. 7337.34   2
   1   2   3 352470. 7508.52   8
   2  -3   3 353423. 9174.94  11
   2  -3   3 364664. 8891.07   4
  -3   2   3 364287. 9198.17   9
   1  -3   3 357836. 9122.97  11
  -2  -1   3 358491. 9039.57   6
   1   2   3 359417. 7509.73  10
   2   1   3 377685. 8805.00   5
   3  -2   3 364256. 9097.85   4
  -1   3   3 350459. 9023.80   1
  -2   3   3 356025. 8932.02   9
  -2  -1   3 355936. 9089.09  10
   1  -3   3 349304. 9090.82   2
  -3   1   3 358197. 7850.58   6
  -1  -2   3 351920. 8314.48   8
   2   1   3 345424. 9121.94   1
  -3   1   3 359839. 9242.29   9
   2   1   3 371488. 9140.35   4
   2   1   3 365553. 7541.65   2
   1   2   3 349091. 9179.17   1
  -3   1   4 2898.94 682.513   9
  -2  -1   4 2466.34 588.101   6
   1  -3   4 2571.36 616.458   2
   3  -2   4 3514.86 490.717   2
   2  -3   4 3901.43 757.176  11
  -1  -2   4 3639.06 749.048  10
  -2   3   4 3861.15 671.498   9
   3  -1   4 2502.11 697.462   4
   2  -3   4 3476.96 700.748   4
  -3   2   4 3148.31 690.263   9
  -1  -2   4 3817.76 643.408   8
   1  -3   4 3343.33 333.929   1
   2   1   4 3108.22 486.803   8
   2   1   4 2858.87 644.184   1
   3  -1   4 2900.07 548.430   1
   3  -2   4 4221.74 780.702   4
  -2  -1   4 3772.25 787.804  10
  -3   1   4 3245.67 400.997   6
   1   2   4 4320.81 788.532   1
   1  -3   4 4002.54 775.907   8
   1   2   4 3844.85 653.668   4
  -1   3   4 3407.35 585.931   9
   2   1   4 3022.58 659.169   4
   2   1   4 2909.08 341.649   9
   2  -3   4 2676.06 607.860   2
   1  -3   4 3889.49 743.084  11
  -1  -2   4 3992.98 776.133   6
  -1   3   4 3075.06 725.988   1
   1   2   5 156433. 5308.34   1
   1  -3   5 145825. 5024.71   8
   2  -3   5 145296. 5060.22   4
   2  -3   5 149085. 4897.07   2
   1   2   5 148494. 3711.80   9
   2   1   5 155510. 4405.32   8
   3  -2   5 151813. 4073.93   2
   2   1   5 153178. 5119.30   1
  -2  -1   5 149059. 4792.90   6
  -3   2   5 154678. 5140.98   9
   1  -3   5 135628. 3355.46   1
  -1  -2   5 149038. 5187.96  10
  -2   3   5 158098. 4887.34   9
  -1   3   5 152245. 5251.87   1
  -1   3   5 151142. 4482.86   9
  -2  -1   5 146692. 5136.97  10
   2  -3   5 149787. 5271.91   8
   3  -2   5 152670. 5220.62   4
   3  -1   5 152086. 4523.54   1
   1  -3   5 154366. 5145.18  11
  -1  -2   5 142197. 5044.99   6
   3  -1   5 149561. 5170.87   4
   2   1   5 147952. 4885.55   4
   2  -3   5 153465. 5137.36  11
  -3   1   5 151769. 5209.40   9
   1   2   5 147849. 4501.57   4
   3  -2   6 23623.4 1242.69   1
  -3   1   6 25170.3 1957.79   9
  -1  -2   6 24277.3 2008.46  10
   2  -3   6 29064.7 2117.00   4
   3  -2   6 25680.6 1735.93  11
  -2   3   6 26986.8 1809.58   9
   1  -3   6 26402.2 2015.52   8
   1  -3   6 23536.8 1851.47  11
  -1   3   6 21651.4 1878.74   1
   2  -3   6 22410.3 1814.32  11
   2   1   6 24282.2 1886.52   1
   1  -3   6 21496.9 943.610   1
   3  -2   6 25096.8 1970.77   4
   2   1   6 24763.9 1610.95   8
   3  -1   6 25634.9 1612.45   1
  -2  -1   6 23639.1 1950.55  10
   1   2   6 23921.2 1904.36   1
   1   2   6 25746.2 1643.27   4
  -1   3   6 26279.8 1597.08   9
   1   2   6 22924.4 965.620   9
   2  -3   6 22112.0 1916.00   8
   2   1   6 25920.6 1882.29   4
  -3   2   6 24362.2 1896.59   9
   3  -1   6 25535.5 1993.87   4
   3  -1   6 25757.0 1934.98   8
   3  -2   7 38313.7 2184.10  11
   3  -1   7 33556.6 1941.83   1
  -1   3   7 34776.6 2456.38   1
   2   1   7 35567.6 2111.63   8
  -3   2   7 32984.6 2277.60   9
   3  -2   7 34858.7 1607.89   1
   1   2   7 31491.1 2313.17   1
  -1  -2   7 34127.6 2327.35   8
  -2   3   7 34596.1 2489.78   1
   1   2   7 33430.2 1989.18   4
   2  -3   7 34080.2 2460.90   4
  -1  -2   7 32294.8 2392.81  10
   2  -3   7 34080.4 2483.22   8
   2   1   7 31283.7 2252.76   1
   1  -3   7 29937.8 1227.35   1
  -1   3   7 35664.9 1903.27   9
   3  -2   7 33452.5 2467.59   8
   3  -2   7 31567.6 2403.70   4
  -3   1   7 29145.9 2221.53   9
  -2  -1   7 32609.4 2404.77  10
   3  -1   7 32972.3 2399.04   4
   2  -3   7 32959.6 2301.03  11
   3  -1   7 33923.7 2352.27   8
   2   1   7 36045.0 2318.02   4
  -2   3   7 37184.6 2193.38   9
   1  -3   7 35559.2 2474.48   8
  -1   3   8 65680.9 2679.20   9
   3  -1   8 58770.9 3363.04   8
   2   1   8 63010.9 3089.84   8
   1  -3   8 58476.5 3441.20   8
   1   2   8 57371.9 3322.67   1
  -1   3   8 51914.3 3262.98   1
   3  -2   8 58759.5 3455.66   4
  -2   3   8 58281.1 3488.54   1
  -2  -1   8 54858.0 3301.78  10
  -3   1   8 54945.5 3187.61   9
   3  -1   8 56051.6 2697.93   1
   3  -2   8 61246.2 2345.51   1
   2  -3   8 59140.5 3218.10  11
  -3   1   8 60886.6 3400.52  10
   3  -1   8 65443.7 3564.49   4
  -2   3   8 61069.7 2958.35   9
  -1  -2   8 56605.1 3250.87   8
   3  -2   8 59783.0 3503.36   8
   2   1   8 58933.1 3189.26   4
   1   2   8 59750.3 2892.93   4
   3  -2   8 60296.2 2917.57  11
   2  -3   8 57608.0 3385.12   4
  -1  -2   8 58316.4 3390.71  10
   2  -3   8 55336.9 3395.93   8
   2   1   8 60553.8 3264.15   1
   1   2   8 61383.3 3000.38   8
  -3   2   8 53894.2 3107.31   9
  -1   3   9 25423.6 1571.46  10
  -1  -2   9 23412.3 2168.14   8
  -2   3   9 22564.1 1770.44   9
   1  -3   9 23578.7 2237.89   8
   1   2   9 25602.7 2246.86   1
  -3   2   9 25932.3 2097.42   9
   3  -2   9 26209.3 1899.76  11
   2  -3   9 21186.8 2132.43   4
  -2   3   9 25402.3 2329.04   1
  -2  -1   9 22824.3 2146.74  10
   1   2   9 24892.7 1990.33   8
   3  -1   9 23022.1 1709.95   1
  -3   1   9 24428.3 2174.63  10
   3  -1   9 23205.5 2161.98   8
   3  -2   9 24459.6 1462.03   1
   3  -1   9 24130.6 2317.11   4
  -1  -2   9 21624.6 2142.73  10
   1   2   9 22833.4 1821.63   4
   3  -2   9 24254.8 2269.02   4
   3  -2   9 23601.3 2300.74   8
   2   1   9 23291.3 2054.48   1
   2   1   9 27385.5 2210.07   4
  -1   3   9 23338.1 2200.57   1
  -3   1   9 23761.7 2089.89   9
   2  -3   9 25007.0 2145.70  11
   2   1   9 22880.0 1961.86   8
  -1   3   9 26819.3 1644.93   9
   2  -3   9 22941.0 2249.10   8
  -1  -2  10 31388.3 2622.79  10
   3  -2  10 29622.4 2687.56   4
   2  -3  10 29934.4 2629.37   4
  -1   3  10 25639.2 2434.63   1
  -2   3  10 27195.7 2537.95   1
   3  -1  10 31972.3 2691.42   4
   1  -3  10 25869.1 2487.54   8
   3  -2  10 28044.3 2628.00   8
   2   1  10 31325.2 2467.66   1
  -3   1  10 28233.7 2367.37   9
   1   2  10 32146.7 2412.88   8
   2   1  10 33379.2 2499.07   8
   3  -1  10 27689.4 1971.30   1
   2   1  10 33490.6 2528.24   4
  -1  -2  10 29249.0 2572.52   8
   3  -1  10 30469.1 2581.59   8
   1   2  10 30254.1 2542.67   1
  -2  -1  10 30013.0 2590.24  10
   2  -3  10 31551.1 2460.35  11
  -2   3  10 33106.4 2186.71   9
  -3   2  10 27743.6 2378.56  10
   1   2  10 31477.4 2242.44   4
  -3   2  10 27683.5 2258.80   9
   1  -3  10 30725.4 2484.27  11
   3  -2  10 29394.8 2093.16  11
   2  -3  10 27410.1 2580.58   8
  -3   1  10 27371.1 2411.55  10
   3  -2  11 30609.3 2736.44   4
  -2   3  11 25346.0 2549.59   1
  -1  -2  11 23383.2 2391.95  10
   1   2  11 28660.6 2393.50   8
  -2  -1  11 27221.7 2563.25  10
   1   2  11 27948.1 2202.05   4
   1   2  11 29067.7 2586.80   1
   2  -3  11 30894.3 2826.32   8
   3  -2  11 25729.6 2586.88   8
   2  -3  11 24266.6 2492.80   4
   2   1  11 21716.2 2154.07   8
  -1  -2  11 31570.6 2789.94   8
   1  -3  11 25859.5 2356.28  11
  -2   3  11 27650.2 2020.27   9
   3  -2  11 27564.4 2081.64  11
  -3   2  11 23746.2 2147.47   9
   2   1  11 35009.2 2679.71   4
  -2   3  11 27303.6 2083.54  10
   3  -1  11 24474.0 2471.24   8
  -3   2  11 23457.3 2244.79  10
   3  -1  11 25053.6 2476.71   4
   2   1  11 24029.9 2265.93   1
   3  -1  11 28180.0 2041.92   1
   2  -3  11 24709.7 2258.20  11
   1  -3  11 27211.9 2619.31   8
  -3   1  11 26014.8 2427.08  10
  -1   3  11 27905.2 2583.11   1
  -1   3  12 7007.00 1351.84   1
   1   2  12 7398.28 1355.13   8
   2   1  12 9095.05 1495.25   4
   2  -3  12 8940.53 1625.90   8
   3  -2  12 7516.44 1471.04   4
  -3   2  12 6205.33 1189.79   9
  -3   1  12 6056.75 1264.61  10
  -2   3  12 6000.67 1303.11   1
   2  -3  12 7489.92 1550.17   4
   2   1  12 10046.0 1584.97   8
   1  -3  12 8695.22 1626.58   8
   3  -1  12 7014.47 1446.12   4
   3  -1  12 6696.47 1413.93   8
  -3   2  12 9066.42 1459.90  10
  -1  -2  12 5909.77 1307.03  10
   2  -3  12 6313.19 1226.18  11
   3  -2  12 6050.39 1412.38   8
  -1  -2  12 8484.37 1688.70   8
   2   1  12 6569.13 1247.60   1
   1   2  12 8610.37 1302.60   4
  -2  -1  12 6605.26 1367.84  10
   1   2  12 8823.43 1499.21   1
   1  -3  12 7874.35 1346.61  11
   2  -3  13 23643.3 2705.71   8
  -1   3  13 21959.7 2485.53   1
  -3   2  13 23239.5 2362.05  10
  -3   1  13 22235.0 2404.93  10
   1  -3  13 22160.3 2644.28   8
   2   1  13 25593.2 2577.54   8
   2   1  13 22300.1 2332.74   4
  -2  -1  13 25559.3 2662.74  10
   3  -2  13 26490.2 2824.50   8
  -1  -2  13 25715.0 2675.30  10
   1   2  13 27240.8 2622.25   8
   3  -2  13 25897.8 2749.18   4
   1   2  13 25855.3 2320.07   4
   1  -3  13 25689.1 2550.93  11
  -2   3  13 19909.8 2401.71   1
   2  -3  13 23986.7 2337.04  11
   1   2  13 21670.8 2411.48   1
   2   1  13 23629.1 2388.51   1
   3  -1  13 24735.9 2674.63   4
  -1  -2  13 25482.9 2759.71   8
   3  -1  13 24458.2 2640.14   8
   1  -3  14 643.046 642.053   8
   3  -2  14 1675.10 887.355   4
  -2  -1  14 1541.38 948.443   8
  -1   3  14 1056.90 719.557   1
   3  -1  14 2442.28 1022.34   8
  -1  -2  14 2181.67 1020.67   8
   1   2  14 812.485 723.943   1
   2   1  14 1546.18 748.435   4
   2   1  14 1009.32 609.296   1
   3  -2  14 2356.10 1101.38   8
  -3   2  14 1528.29 764.801  10
  -3   1  14 1743.04 761.487  10
   1  -3  14 1249.65 701.283  11
   2   1  14 1193.74 778.012   8
   3  -1  14 1951.10 1008.53   4
  -2  -1  14 1655.25 932.782  10
   2  -3  14 1626.24 720.036  11
   1   2  14 1542.53 745.489   8
  -2   3  14 1275.44 758.117   1
   2  -3  14 355.265 735.811   8
   1   2  15 992.217 770.679   8
   3  -1  15 1303.35 721.390   8
   1  -3  15 3484.78 1274.62   8
   1   2  15 1228.88 744.741   1
   2  -3  15 1853.63 965.924   8
   3  -2  15 64.8443 744.397   8
  -2  -1  15 757.831 809.220   8
  -3   2  15 2071.18 901.330   1
  -2   3  15 175.372 418.994   1
  -1   3  15 697.745 618.771   1
  -2  -1  15 1207.42 879.404  10
   3  -2  15 1007.80 885.484   4
   1  -3  15 1536.59 779.222  11
  -1  -2  15 1583.70 973.794   8
   2   1  15 1648.90 825.750   4
   3  -1  15 957.218 785.802   4
  -3   1  15 1799.06 900.468  10
   2   1  15 1160.65 979.551   8
  -2   3  16 14925.1 2267.69   1
   3  -2  16 10340.9 2012.15   4
  -3   2  16 13930.0 2245.29   1
   1   2  16 12208.4 2082.40   8
  -2  -1  16 14519.7 2208.63  10
   2  -3  16 13292.3 2310.33   8
  -2  -1  16 12784.9 2313.34   8
  -1   3  16 13566.5 2251.88   8
   2   1  16 12623.9 2073.82   8
   3  -1  16 12200.5 2101.39   4
   1  -3  16 16581.8 2565.90   8
  -3   1  16 9907.13 1832.44   1
   3  -2  16 8348.90 1855.06   8
   3  -1  16 9852.64 1987.15   8
  -1  -2  16 15579.4 2464.23   8
  -1   3  16 9834.91 1858.37   1
   1   2  16 10773.8 1879.41   1
  -3   2  17 491.216 598.173   1
  -1   3  17 1176.52 996.693   8
   1   2  17 1044.57 1051.19   8
  -2   3  17 1441.25 938.208   1
   3  -1  17 1420.29 934.117   4
  -1   3  17 570.332 598.583   1
   2   1  17 1044.06 640.876   8
   3   0 -16 2070.69 1147.99   3
   3  -3 -16 1139.95 856.936   3
  -3   0 -16 1762.99 969.752  12
   0  -3 -16 245.405 569.466   3
  -3   3 -16 2115.15 1027.48   3
   0   3 -16 822.452 811.484   3
   0  -3 -16 506.190 679.919  12
  -3   0 -15 1835.26 1198.12  12
  -3   3 -15-293.234 639.092   3
   0  -3 -15 1585.42 940.100  12
   0   3 -15 1826.23 1083.67   3
   3  -3 -15 167.232 659.956   3
   3   0 -15 364.509 718.823   3
   0  -3 -14 23663.3 2861.71  12
  -3   0 -14 25736.9 2896.21  12
   3  -3 -14 28837.0 2966.66   3
   0   3 -14 27081.2 3017.60   3
   3   0 -14 22444.9 2904.50   3
   3   0 -13 2603.54 1112.09   3
   3  -3 -13 1811.09 787.720   3
  -3   3 -13 1518.47 744.881   7
   0  -3 -13 2220.35 935.324  12
   0   3 -13 911.133 721.650   3
  -3   0 -13 1243.07 759.137  12
   3   0 -12 4485.36 1290.53   3
  -3   0 -12 4641.90 1225.09  12
  -3   3 -12 5763.89 1188.23   7
  -3   3 -12 4914.95 1024.14  12
   3  -3 -12 3264.75 963.059   3
   0   3 -12 2843.67 953.846   3
   0  -3 -12 3095.59 980.398  12
   0  -3 -12 4055.54 889.408   2
   0  -3 -11 3297.53 1096.27  12
   0   3 -11 3008.67 1003.55   3
   3   0 -11 3921.30 1125.53   3
  -3   3 -11 2913.89 880.626   7
   0  -3 -11 2251.42 716.388   2
   3  -3 -11 4289.50 1071.41   3
  -3   3 -11 3500.49 849.308  12
  -3   0 -11 2138.11 803.636  12
   3   0 -10 24972.7 2582.60   3
  -3   0 -10 20786.4 2238.12  12
  -3   0 -10 22554.8 2331.67   7
  -3   3 -10 22588.4 1735.64   9
   0   3 -10 21300.3 2263.95   3
  -3   3 -10 23952.9 2222.79   7
   3  -3 -10 24306.0 2190.28   3
   0  -3 -10 20506.0 1802.57   2
  -3   3 -10 21217.3 1848.44  12
   0  -3 -10 21814.6 2345.94  12
   0   3  -9 1435.55 701.086   3
  -3   3  -9 1486.79 641.286   7
  -3   3  -9 3051.61 674.018  12
   0  -3  -9 1847.94 714.866  12
  -3   0  -9 2176.56 825.610   7
   0  -3  -9 3483.43 732.077   2
  -3   3  -9 1802.22 530.113   9
  -3   0  -9 3893.19 978.614  12
   3   0  -9 2071.56 843.664   3
   3  -3  -9 1854.81 653.967   3
  -3   0  -8 172521. 6682.64  12
  -3   3  -8 188792. 5799.38   9
   3  -3  -8 182422. 6183.99   3
   0  -3  -8 174533. 5789.32   2
  -3   0  -8 178537. 6761.02   7
   0   3  -8 184833. 4887.01   7
   0   3  -8 178650. 6606.46   3
   3   0  -8 176260. 6868.39   3
  -3   3  -8 182660. 5865.67  12
   0  -3  -8 168744. 6694.22  12
  -3   3  -8 181521. 6518.59   7
  -3   0  -7 21474.1 2047.23   7
   3   0  -7 23181.6 2142.51   3
   0   3  -7 18522.6 1810.43   3
  -3   3  -7 20404.8 1879.76   7
   3  -3  -7 22251.0 1753.23   3
  -3   3  -7 21087.6 1610.81   9
   0  -3  -7 18394.4 1541.78   2
  -3   3  -7 21150.9 1657.81  12
  -3   0  -7 22629.6 2116.82  12
   0  -3  -7 26007.4 2182.38  12
   3   0  -6 127636. 5243.65   3
  -3   0  -6 129562. 5203.12  12
   3  -3  -6 135492. 4550.07   3
   0   3  -6 123033. 4821.51   3
  -3   0  -6 125369. 5161.76   7
  -3   3  -6 128426. 4416.89  12
  -3   3  -6 130959. 4551.58   9
   0  -3  -6 137950. 5217.31  12
   0  -3  -6 126774. 4445.97   2
   3  -3  -5 11582.4 1084.17   3
   3   0  -5 15511.1 1605.22   3
   0  -3  -5 12777.2 1205.12   2
   0   3  -5 12555.0 1295.47   3
  -3   3  -5 12187.7 1213.34   9
   0  -3  -5 12063.0 1343.50  12
  -3   0  -5 13063.5 1451.67  12
  -3   0  -5 11772.8 749.376   9
  -3   3  -5 12619.9 1137.00  12
  -3   0  -5 12717.8 1423.72   7
  -3   0  -4 31298.1 2160.36  12
   3  -3  -4 29757.9 1616.66   3
  -3   3  -4 24625.6 891.821   1
   3   0  -4 27719.5 2118.34   3
   0   3  -4 28944.0 1833.50   3
  -3   0  -4 27400.5 1318.43   9
  -3   3  -4 26616.7 1790.32   9
   0  -3  -4 26835.5 1704.16   2
   0  -3  -4 29285.4 1951.39  12
  -3   3  -4 27273.0 1342.69   5
  -3   0  -4 28487.8 2038.75   7
   3   0  -3 39011.4 2477.26   3
   3  -3  -3 34876.9 1661.89   3
  -3   3  -3 36004.2 1482.14   5
   3  -3  -3 31616.0 2046.39   2
   0  -3  -3 34211.4 1536.28  11
   0   3  -3 35042.8 1923.65   3
  -3   0  -3 41662.7 2355.92   7
  -3   0  -3 34032.5 1628.88   9
   3  -3  -3 31993.6 1425.93   4
  -3   3  -3 36785.1 2078.35   9
   0  -3  -3 36580.3 2053.48  12
   0  -3  -3 34535.6 1945.31   2
   3  -3  -2 194740. 4881.45   4
   3  -3  -2 198868. 4953.04   3
   0  -3  -2 197703. 5534.07  12
   0   3  -2 190285. 5404.18   3
   3   0  -2 202408. 6416.99   3
  -3   0  -2 202730. 5965.88   7
   0   3  -2 199525. 5439.63   1
  -3   3  -2 203182. 5903.69   9
   0   3  -2 196143. 6069.99   5
   0  -3  -2 203168. 5744.82   2
  -3   0  -2 191601. 5297.18   9
   0  -3  -2 191367. 5156.69  11
  -3   3  -2 190391. 4748.21   5
   3  -3  -2 197462. 5915.87   2
   0  -3  -1 5536.19 809.768   2
  -3   3  -1 6775.04 893.442   9
   3  -3  -1 7057.11 668.889   4
   0  -3  -1 5491.70 688.524  11
   0  -3  -1 5730.08 667.088  12
   0   3  -1 6770.86 755.837   3
   3  -3  -1 6092.45 571.797   3
   3  -3  -1 5538.64 847.683   2
  -3   0  -1 6879.19 875.672   7
   3   0  -1 6766.49 1034.39   3
   0   3  -1 6166.29 883.917   5
  -3   0  -1 6644.70 817.276   9
   0   3  -1 5805.99 740.827   1
   0  -3   0 406171. 8968.23  12
   3  -3   0 422301. 10034.3   2
   0  -3   0 399004. 10140.2   6
   0  -3   0 408725. 9912.06   2
   0   3   0 387039. 9173.98   3
   3   0   0 427591. 10695.8   3
  -3   0   0 402194. 9581.26   7
   0   3   0 417411. 9796.62   1
  -3   3   0 414422. 10097.0   9
  -3   0   0 402454. 9806.45   9
   0   3   0 400963. 10258.3   5
   0  -3   0 392286. 9538.60  11
   3  -3   0 398999. 9214.56   4
  -3   3   1 5782.63 850.656   9
   3   0   1 7052.58 1030.37   4
   0   3   1 6806.26 1004.27   5
  -3   0   1 8011.95 788.319   7
   0   3   1 5654.21 808.826   1
   0  -3   1 6620.22 532.411  12
   3   0   1 6163.64 676.286   5
   0  -3   1 7688.32 1031.48   6
   0  -3   1 7080.13 916.630   2
  -3   0   1 8363.98 990.663   9
   3  -3   1 6392.30 779.093   4
   3  -3   1 6737.24 860.201   2
  -3   0   2 187628. 5789.60   9
   0   3   2 191900. 5711.59   1
   3  -3   2 191544. 5496.51   2
   0  -3   2 168977. 3974.12  12
   3   0   2 192947. 5959.08   4
   3   0   2 195484. 4899.91   5
  -3   0   2 195370. 4890.80   7
   0  -3   2 186054. 5843.37   6
   0   3   2 178556. 5810.28   5
  -3   3   2 186468. 5743.27   9
   3   0   2 182600. 4108.32   2
   0  -3   2 181076. 5673.83   2
   3  -3   2 198739. 5443.29   4
   3   0   3 38142.2 2167.07   1
   3   0   3 34869.5 2243.88   4
  -3   0   3 34026.4 2177.19   9
  -3   3   3 36585.5 2184.79   9
   0  -3   3 35733.3 1852.33   8
   0   3   3 36163.5 2204.03   1
   0  -3   3 36853.5 2213.90   2
  -3   0   3 34238.0 1468.87   7
   0   3   3 34041.6 1536.12   4
  -3   0   3 38338.5 1972.45   6
   3  -3   3 36317.4 2063.43   4
   0  -3   3 36904.5 2300.79   6
   0   3   3 34825.7 2234.84   5
   3  -3   3 34742.9 1924.06   2
   0   3   4 30687.3 2124.64   1
  -3   3   4 29093.7 2019.57   9
  -3   0   4 27955.8 2082.06   9
   3  -3   4 30737.1 1815.96   2
  -3   0   4 30707.5 1724.54   6
   3  -3   4 32219.4 2053.23  11
   0  -3   4 33652.5 2277.88   6
   3   0   4 29314.4 1958.61   1
  -3   0   4 29617.4 1199.59   7
   3  -3   4 29251.9 1962.47   4
   0  -3   4 28721.0 1794.61   8
   0   3   4 29845.0 1369.32   4
   3   0   4 32345.9 2176.82   4
   0   3   5 12094.7 1027.61   9
   0   3   5 11332.1 1379.86   1
   0  -3   5 10880.2 1168.72   8
   3  -3   5 11770.2 1291.57  11
  -3   0   5 10355.0 532.215   7
  -3   0   5 10234.3 984.289   6
   3   0   5 14122.7 1347.68   1
  -3   0   5 10702.6 1334.71   9
  -3   3   5 12788.3 1366.07   9
   3   0   5 12300.8 745.320   9
   0   3   5 11736.7 836.378   4
   3   0   5 12319.0 1368.37   4
   3  -3   5 12446.4 1356.72   4
   3  -3   5 12161.8 1153.84   2
  -3   3   6 148999. 5286.23   9
   0   3   6 136908. 5382.31   1
   3   0   6 138134. 5262.16   4
  -3   0   6 130471. 5281.62  10
   0   3   6 134555. 3441.36  11
   3   0   6 148492. 4954.17   8
   0  -3   6 142887. 5123.44   8
   0   3   6 148478. 4216.21   9
   0   3   6 147608. 4066.56   4
   3  -3   6 145764. 5197.69  11
  -3   0   6 142390. 5437.32   9
   3  -3   6 139775. 4687.96   2
   3   0   6 139703. 5007.60   1
   3  -3   6 140067. 5290.35   4
   0   3   7 23174.0 1343.97   9
  -3   0   7 22108.7 2008.63   9
   3   0   7 21932.9 1789.35   8
   3   0   7 18110.7 1647.58   1
  -3   3   7 19462.0 1791.84   9
   3  -3   7 20630.2 2035.44   8
  -3   0   7 23074.7 2082.35  10
   3  -3   7 24198.8 2095.29   4
   3  -3   7 24634.5 1964.81  11
   3   0   7 21512.5 1928.63   4
   0   3   7 22411.8 2050.35   1
   0   3   7 21791.2 1365.27   4
   0  -3   7 20601.3 1875.08   8
   0  -3   8 173458. 6338.72   8
   0   3   8 171017. 4571.30   9
   3   0   8 170912. 6017.26   8
  -3   0   8 162790. 6339.77  10
  -3   3   8 160563. 5905.19   9
   0   3   8 174872. 5056.17   4
   3   0   8 164216. 5818.34   1
   3  -3   8 159055. 6454.97   8
   3  -3   8 176022. 6062.80  11
   3   0   8 175852. 6422.52   4
   3  -3   8 165935. 6409.02   4
   0   3   8 168311. 6496.82   1
   0   3   9 2948.74 612.389   4
   3   0   9 4857.94 1069.33   4
   0  -3   9 3761.35 1053.22   8
   3   0   9 3149.61 816.810   1
   3  -3   9 4083.71 1134.99   8
  -3   0   9 2242.46 794.815  10
   3  -3   9 3718.98 917.086  11
   3   0   9 3327.45 853.365   8
   0   3   9 1231.25 675.840   1
   3  -3   9 1758.39 745.944   4
  -3   3   9 1076.50 555.256   9
  -3   3  10 25644.8 2184.92   9
   3  -3  10 31701.6 2703.03   4
   3   0  10 26682.2 2379.34   8
   0  -3  10 22735.4 2360.75   8
   3   0  10 25737.9 2132.84   1
   3  -3  10 28165.4 2289.75  11
   3  -3  10 21828.0 2350.70   8
   3   0  10 28235.3 2527.07   4
   0   3  10 25330.8 1806.51   4
   0   3  10 26639.2 2505.48   1
  -3   0  10 26825.2 2491.08  10
  -3   3  11 2603.34 736.926   9
   3  -3  11 1953.34 869.162   8
   0   3  11 666.074 529.810   1
   0  -3  11 1178.80 796.472   8
  -3   0  11 1369.37 750.779  10
  -3   3  11 3130.91 895.623  10
   3   0  11 3546.08 1043.85   4
   3  -3  11 1651.37 885.862   4
   3  -3  11 3029.51 877.436  11
   3   0  11 2852.14 774.824   1
   3   0  11 1536.95 758.617   8
   3   0  12 2809.43 825.706   1
   3   0  12 4665.07 1155.18   4
  -3   3  12 4785.16 1231.40   1
   0   3  12 2761.18 1036.00   1
   3   0  12 3765.50 1028.07   8
   0  -3  12 5533.27 1387.92   8
  -3   0  12 2294.12 936.100  10
   3  -3  12 3105.99 843.033  11
  -3   3  12 3797.60 946.601   9
  -3   3  12 4018.98 1018.42  10
   3  -3  12 4423.39 1222.68   8
   3  -3  12 3056.22 1044.75   4
   3  -3  13 1101.13 887.555   8
   0  -3  13 1174.74 840.439   8
   0   3  13 3720.10 1111.04   1
   3   0  13 2596.66 969.226   8
   3  -3  13 1431.87 798.333   4
  -3   3  13 1458.86 798.541   1
   3  -3  13 1542.21 742.260  11
   3   0  13 3364.46 1085.79   4
  -3   0  13 1374.46 750.879  10
   0   3  14 25952.1 2754.97   8
   0   3  14 22287.2 2680.31   1
   3  -3  14 23542.7 2894.70   8
   3   0  14 24340.9 2748.90   8
   3  -3  14 24713.4 2879.84   4
  -3   3  14 19536.2 2536.07   1
   3   0  14 24402.4 2706.27   4
  -3   0  14 23443.4 2672.54  10
   0  -3  14 22519.5 2726.61   8
   0   3  15 580.010 744.273   1
   3  -3  15 2524.29 1249.67   4
   0   3  15-279.784 582.306   8
   3  -3  15 1254.01 768.436   8
   0  -3  15 760.793 871.957   8
   3   0  15-115.916 693.702   4
  -3   3  15 1162.77 731.722   1
   0  -3  15 1293.88 731.988  11
  -3   0  15 290.261 640.386  10
   3   0  15 2327.09 1066.76   8
   0   3  16 1880.64 958.932   8
   3   0  16 2343.25 1123.92   8
  -3   0  16 236.992 734.192  10
   0   3  16 754.304 693.442   1
  -3   3  16 1213.60 820.217   1
   3   0  16 1969.93 997.622   4
   3  -3  16 1329.58 941.774   8
   0  -3  16 311.846 632.699  11
   0  -3  16 1994.58 1087.01   8
   3   0  17 1319.81 928.898   8
   0   3  17 787.566 720.226   8
   3   0  17 1429.41 859.449   4
   0   3  17 1648.00 1001.51   1
   2  -4 -16 27.3235 682.782   3
  -2   4 -16-553.852 768.531   3
   4  -2 -16 2106.15 955.177   3
  -2  -2 -16-299.214 663.578  12
   2  -4 -15 1079.19 705.114   2
  -4   2 -15 1648.19 857.097  12
   4  -2 -15 329.933 683.324   3
   2   2 -15-751.870 784.758   3
  -2   4 -15 106.686 586.956   3
  -2  -2 -15-933.199 848.429  12
   2  -4 -15-188.367 591.568   3
  -4   2 -14 10802.8 1812.53  12
   2  -4 -14 9816.26 1701.63   3
  -2   4 -14 9074.94 1759.59   3
  -4   2 -14 10448.2 1868.93   7
   4  -2 -14 7111.69 1681.07   3
  -2  -2 -14 9578.92 1914.13  12
   2   2 -14 5816.98 1604.75   3
   2  -4 -14 5769.95 1283.87   2
   4  -2 -13-425.954 740.215   3
   2  -4 -13 1085.61 697.260   2
  -2   4 -13 514.855 694.285   3
  -2  -2 -13-64.4177 435.706  12
   2  -4 -13-241.284 646.484  12
  -4   2 -13 86.9180 549.524   7
   2   2 -13-261.626 807.897   3
  -4   2 -13 2069.89 918.007  12
   2  -4 -13-340.310 490.478   3
   4  -2 -12 3270.81 1078.32   3
  -2  -2 -12 6077.01 1487.51  12
   2  -4 -12 3154.67 966.909   2
  -4   2 -12 4652.26 1241.79   7
  -2   4 -12 3592.93 1129.79   3
   2  -4 -12 4781.97 1059.82   3
   2  -4 -12 4638.49 1412.56  12
   2   2 -12 5623.23 1460.27   3
  -4   2 -12 3743.15 1062.32  12
   2  -4 -11-186.486 595.171   2
  -2  -2 -11 1720.37 875.456  12
  -4   2 -11-146.791 474.326   7
  -2   4 -11 799.327 572.018   3
   4  -2 -11 71.4849 680.008   3
   2   2 -11 185.002 701.524   3
  -4   2 -11 1135.38 605.078  12
   2  -4 -11 124.009 405.951   3
   2  -4 -11 155.807 517.673  12
  -2  -2 -10 27523.7 2746.08  12
   2  -4 -10 34203.8 2995.44  12
   4  -2 -10 30161.8 2709.34   3
   2   2 -10 30840.7 2895.66   3
   2  -4 -10 32886.7 2653.21   2
  -2   4 -10 34986.3 2457.17   7
  -2   4 -10 33942.0 2762.53   3
  -4   2 -10 33613.4 2791.11  12
   2  -4 -10 36896.1 2586.47   3
  -4   2 -10 33519.9 2910.65   7
  -2   4  -9-42.1933 497.786   3
   2  -4  -9-146.131 355.769   3
   2  -4  -9 112.921 469.271   2
  -4   2  -9 644.502 515.833  12
  -4   2  -9 1734.89 832.903   7
  -2   4  -9 541.330 561.024   7
   2  -4  -9 1288.86 688.001  12
   4  -2  -9 464.421 600.218   3
   2   2  -9 1064.12 738.228   3
  -2  -2  -9 441.119 657.928  12
   2   2  -8 119893. 5531.16   3
   2  -4  -8 125312. 4572.11   3
  -4   2  -8 118717. 5300.50  12
  -4   2  -8 120205. 3733.53   9
  -4   2  -8 114772. 5330.75   7
  -2   4  -8 120699. 4982.39   3
   2  -4  -8 124464. 5568.72  12
   2  -4  -8 117019. 5052.78   2
   4  -2  -8 116823. 5214.74   3
  -2  -2  -8 124212. 5590.00  12
  -2  -2  -8 124327. 3718.28   2
   2  -4  -7 646.310 613.819  12
   2   2  -7 252.354 609.617   3
   2  -4  -7 129.669 329.248   3
  -4   2  -7-21.5427 440.398   7
  -2  -2  -7 497.426 646.823  12
  -2  -2  -7 463.631 257.167   2
  -4   2  -7 412.406 316.580   9
   4  -2  -7 511.678 592.658   3
  -2   4  -7 380.163 196.772  12
   2  -4  -7 850.283 650.293   2
  -2   4  -7 273.383 384.740   3
  -4   2  -7 472.642 508.336  12
  -4   2  -6 78721.9 2952.99   9
  -2   4  -6 73902.9 2171.75  12
  -2  -2  -6 77060.5 3968.53  12
  -4   2  -6 78193.8 3862.03  12
   4  -2  -6 78690.1 3807.62   3
   2   2  -6 76738.0 4001.12   3
  -4   2  -6 78623.9 3936.82   7
  -2   4  -6 81760.2 3497.27   3
   2  -4  -6 76999.0 3933.67  12
  -2  -2  -6 80866.1 2606.50   2
   2  -4  -6 68063.2 3554.59   2
   2  -4  -6 79284.1 2986.73   3
  -2  -2  -5 228.125 199.458   2
   2  -4  -5-35.1372 369.292   2
   2   2  -5 992.387 634.014   3
  -4   2  -5-198.985 412.798   7
  -2  -2  -5 205.614 444.804  12
  -2   4  -5 50.5813 83.3052  12
   2  -4  -5 536.886 512.542  12
  -2   4  -5-93.6319 257.203   3
   4  -2  -5 147.674 470.926   3
  -4   2  -5 84.1808 78.3035   5
   2  -4  -5 334.737 227.824   3
  -4   2  -5 256.104 329.208   9
   2  -4  -4 105645. 3031.89   3
  -2   4  -4 108083. 2785.69  12
   2  -4  -4 113757. 4420.11  12
   4  -2  -4 114647. 4460.67   3
   2   2  -4 112226. 4627.46   3
   2   2  -4 112619. 2939.95   7
  -4   2  -4 116030. 4597.01   7
  -2   4  -4 114385. 3698.37   3
   2  -4  -4 104211. 3612.53   6
  -2  -2  -4 113264. 4538.63  12
  -2   4  -4 105354. 4053.82   5
  -4   2  -4 109857. 3810.09   9
   2  -4  -4 100318. 4269.74   2
  -2  -2  -4 106195. 2683.78  11
  -2  -2  -4 112256. 3296.07   2
  -2   4  -3 259.216 223.235   3
  -4   2  -3 584.952 381.565   9
   2  -4  -3 92.0656 97.4512   3
   2  -4  -3 755.390 525.813   2
  -2  -2  -3 375.265 267.320   2
  -2   4  -3 114.756 145.188   1
   4  -2  -3 272.751 399.503   3
   2  -4  -3 805.966 419.829   6
   2   2  -3 78.5709 420.024   3
  -2  -2  -3 72.4513 174.573  10
  -2   4  -3 246.633 280.395   5
  -2   4  -3 291.544 150.438  12
  -2  -2  -3 604.671 453.465  12
   2  -4  -2 119545. 4614.41   2
  -2  -2  -2 122770. 3748.81   2
   4  -2  -2 124849. 4543.10   3
  -2   4  -2 120218. 4347.51   5
   2   2  -2 122506. 4774.42   3
  -2   4  -2 123236. 3332.37   3
   2  -4  -2 121830. 4006.40   6
  -2   4  -2 132912. 3592.71   1
  -2  -2  -2 137153. 4611.03  12
  -4   2  -2 120428. 4251.53   9
  -2  -2  -2 124281. 3666.98  10
  -2   4  -1 296.706 407.971   5
   2  -4  -1 1120.03 617.968   2
  -2   4  -1 710.785 363.259   1
   4  -2  -1 890.756 437.021   3
  -2  -2  -1 587.376 398.682  12
  -2   4  -1 158.461 116.441   3
   2   2  -1 695.586 563.696   3
   4  -2  -1 399.222 480.257   4
   2   2  -1 985.173 611.534   5
  -2  -2  -1 889.509 377.316  10
  -4   2  -1 746.039 477.054   9
   2  -4  -1 1769.47 540.714   6
   4  -2   0 987890. 21140.6   4
   2  -4   0 964044. 21317.0   2
   2   2   0 961967. 21462.5   3
   2  -4   0 965779. 21085.1  11
  -2   4   0 951151. 21003.8   5
  -2  -2   0 987101. 20657.1  12
   2   2   0 999999. 21462.6   1
   2   2   0 979009. 21355.2   5
   2  -4   0 949025. 20655.7   6
   4  -2   0 949067. 20333.6   2
  -4   2   0 951081. 21146.3   9
  -2   4   0 970448. 20333.1   1
  -2  -2   0 967378. 20523.9  10
   2  -4   1 377.426 476.555   2
   4  -2   1 237.856 541.022   4
  -2   4   1 561.358 505.568   9
   4  -2   1 407.913 343.539   2
   2  -4   1 353.439 369.942   6
  -2   4   1 549.918 390.097   1
   2   2   1 692.279 522.589   1
  -2   4   1 620.953 196.405   4
   2   2   1 581.238 486.871   5
  -4   2   1 633.360 523.787   9
  -2   4   1 285.870 395.653   5
   2  -4   1 591.574 567.662  11
  -2  -2   1 1088.54 489.600  10
   2   2   2 116128. 4372.88   5
   2  -4   2 113760. 4415.15   2
  -2  -2   2 104676. 4094.83  10
   4  -2   2 113071. 4395.48   4
  -2  -2   2 118300. 4577.53   6
   2   2   2 108892. 4425.36   1
  -2   4   2 118350. 4381.29   9
  -2   4   2 115956. 4140.94   1
   4  -2   2 114629. 3550.06   2
   2  -4   2 118053. 4509.02  11
   2  -4   2 114310. 3815.89   4
  -4   2   2 110685. 4389.48   9
  -2  -2   3 31.7305 516.463   6
   2   2   3-105.668 501.744   4
  -4   2   3 542.041 534.382   9
   2  -4   3 201.621 410.616   2
  -4   2   3 243.798 177.320   6
   4  -2   3 272.387 246.898   2
   2   2   3 49.9544 344.279   1
  -2   4   3 104.446 417.330   1
  -2  -2   3 152.261 432.618  10
   2  -4   3 155.515 409.337   4
   2  -4   3 934.961 589.449  11
   2   2   3 131.026 433.062   5
  -2   4   3 444.357 476.204   9
   4  -2   3 589.898 471.825   4
  -2   4   4 105946. 4363.80   1
  -4   2   4 110958. 4616.79   9
  -2  -2   4 111936. 4486.25  10
   2  -4   4 107504. 4397.98   2
   4  -2   4 116737. 3231.80   2
   2   2   4 109647. 4536.87   1
  -2  -2   4 117229. 4582.08   6
   2   2   4 114319. 4319.35   4
   4  -2   4 107204. 4486.93   4
  -2   4   4 107247. 4215.55   9
   2  -4   4 109039. 4523.99  11
   2  -4   4 104482. 4174.69   4
   4  -2   5 181.068 188.725   2
  -4   2   5 1286.81 717.123   9
  -2   4   5 14.6508 407.991   1
   2   2   5 1045.75 563.684   1
   2  -4   5 10.0792 402.174   4
   4  -2   5-65.6928 450.397   4
  -2   4   5-132.162 342.182   9
  -2  -2   5 277.076 574.607   6
   2  -4   5 1098.78 494.879   2
   2  -4   5-283.066 441.552  11
   2   2   5 723.254 495.500   4
   2   2   5 329.555 241.716   8
  -2  -2   5 535.424 615.126  10
  -2   4   6 80896.2 3571.16   9
  -2   4   6 81754.5 4031.15   1
   2   2   6 82933.2 2988.62   8
   2   2   6 75737.7 3876.25   1
  -2  -2   6 81190.1 3872.56   6
   2  -4   6 75062.4 3759.22   2
  -4   2   6 80298.1 4033.00   9
   4  -2   6 77614.5 3942.69   4
   2   2   6 86074.0 3713.47   4
   2  -4   6 80148.8 3856.88   4
   2  -4   6 80956.7 3946.14  11
  -2  -2   6 82833.6 4045.97  10
  -4   2   7 925.090 707.695   9
  -2   4   7-83.9713 375.482   9
  -2   4   7 265.011 378.391   1
   4  -2   7 743.354 651.539   4
   2  -4   7 340.800 604.122   4
   2   2   7 396.490 495.612   4
   2   2   7-60.2013 401.388   1
   2  -4   7 765.159 619.499  11
  -2  -2   7 476.703 662.539  10
   2   2   7 297.898 408.988   8
   2  -4   7 1164.47 846.498   8
  -2  -2   8 120526. 5374.57  10
  -2   4   8 117038. 4583.02   9
  -2   4   8 113192. 5239.30   1
   2   2   8 113919. 4657.58   4
   2  -4   8 110060. 4982.82  11
   2  -4   8 112928. 5249.81   8
   2  -4   8 104110. 4951.00   4
   2   2   8 117477. 5185.98   1
   4  -2   8 109982. 3911.72   1
  -4   2   8 112045. 5134.12   9
   4  -2   8 115531. 5260.30   4
   2   2   8 120107. 4360.12   8
  -4   2   9 1505.00 763.851   9
   2  -4   9 635.836 511.202  11
  -2   4   9 43.4433 508.513   9
   2   2   9 569.360 568.099   4
   2  -4   9-200.777 549.693   8
   4  -2   9 129.782 262.452   1
   2   2   9 1573.81 738.603   1
   2   2   9 526.094 444.989   8
  -2  -2   9 640.003 700.072  10
  -2   4   9-257.536 444.834   1
   4  -2   9 1038.84 748.342   4
  -2   4  10 28503.6 2677.87   1
  -2   4  10 33697.9 2307.84   9
   2  -4  10 31616.0 2863.32   8
   2   2  10 35834.6 2525.09   8
  -4   2  10 32426.4 2774.62  10
   2   2  10 36706.8 2622.03   4
  -4   2  10 30243.2 2635.30   9
   4  -2  10 35838.5 3010.52   4
   2  -4  10 33689.0 2761.65  11
  -2  -2  10 35028.0 3007.07  10
   2   2  10 30163.8 2667.33   1
  -4   2  11 284.883 444.892   9
   4  -2  11 804.788 731.818   4
  -2  -2  11-162.765 500.223   8
   4  -2  11-401.874 617.019   8
   2  -4  11-122.791 447.525  11
   2   2  11-83.1100 402.645   8
   2   2  11-773.064 527.071   4
   2  -4  11 301.085 778.766   8
   2   2  11 741.800 641.878   1
  -2  -2  11 97.5660 677.615  10
  -2   4  11 93.0522 522.355   1
  -4   2  11 1336.26 854.816  10
   2   2  12 4317.47 1025.83   4
  -4   2  12 3917.73 1061.82   9
   4  -2  12 4359.56 1253.01   4
   2  -4  12 4602.58 1137.46  11
   2  -4  12 4466.21 1210.76   8
   2   2  12 4534.46 1092.72   8
  -2   4  12 2067.12 855.881   1
   4  -2  12 5397.24 1447.88   8
   2   2  12 4700.22 1149.21   1
  -2  -2  12 5167.57 1267.40   8
  -2  -2  12 3522.87 1111.79  10
  -4   2  12 5480.18 1325.19  10
   2  -4  13 1053.92 760.991  11
  -2  -2  13 1325.81 997.266   8
  -4   2  13 142.380 542.046  10
   4  -2  13-335.624 664.026   4
  -2  -2  13-529.985 740.051  10
  -2   4  13 708.304 625.605   1
   2  -4  13 329.700 729.038   8
   4  -2  13 1162.34 915.004   8
   2   2  13-214.435 500.296   1
   2   2  13 443.230 719.872   8
   2   2  13-212.319 489.917   4
   4  -2  14 9968.36 1897.36   4
  -4   2  14 9751.85 1740.65  10
   4  -2  14 9350.31 1884.32   8
  -2  -2  14 9034.97 1797.03   8
   2  -4  14 11039.8 1795.85  11
  -2  -2  14 8713.53 1744.85  10
   2   2  14 8980.98 1621.52   8
   2   2  14 6916.18 1474.96   1
  -2   4  14 8796.12 1745.85   1
   2  -4  14 9791.76 1923.24   8
  -4   2  15 186.597 602.385  10
   2  -4  15-305.006 717.383  11
   4  -2  15 114.188 595.522   8
   2  -4  15 613.854 856.066   8
  -2  -2  15 260.397 563.372   8
   4  -2  15 369.917 686.474   4
  -2   4  15 803.991 965.207   1
   2   2  15-231.869 645.084   1
  -2  -2  15-257.097 775.923  10
   4  -2  16 409.079 647.412   4
  -2   4  16 13.6812 467.431   1
  -2  -2  16 1399.42 1170.09   8
   4  -2  16 515.329 784.799   8
  -3   4 -16 10383.4 2002.42   3
  -4   1 -16 6283.73 1548.02  12
   4  -3 -16 4835.79 1360.47   3
  -3  -1 -16 8447.95 1862.28  12
   1  -4 -16 6450.05 1573.06   3
   3  -4 -16 5079.77 1344.72   2
  -1   4 -15 3089.13 1100.71   3
  -3  -1 -15 1444.37 949.563  12
   1   3 -15 1284.36 971.273   3
   4  -3 -15 1971.82 1062.44   3
   3  -4 -15 1699.95 784.656   3
  -1  -3 -15 2665.50 1182.68  12
   1  -4 -15 3238.34 1118.06   3
   4  -1 -15 3623.48 1324.26   3
   3   1 -15 2355.54 1087.97   3
   3  -4 -15 2268.79 960.689   2
  -3   4 -15 4327.09 1385.65   3
   1  -4 -15 1788.66 1008.88  12
  -4   1 -15 1480.99 899.771  12
  -1  -3 -14 474.839 826.355  12
  -4   1 -14 224.588 515.397  12
  -3  -1 -14 271.532 460.467  12
   3  -4 -14 62.9354 543.648   2
   1  -4 -14 1068.63 837.950  12
   4  -1 -14 473.026 609.770   3
  -4   3 -14 1754.09 910.958   7
  -1   4 -14 897.570 699.104   3
  -3   4 -14 1544.93 837.904   3
   1  -4 -14 816.213 608.863   3
   3  -4 -14 1000.39 714.534   3
   3   1 -14 1717.80 937.965   3
   1   3 -14 2062.82 1001.31   3
   4  -3 -14 814.679 799.971   3
  -3  -1 -13 10045.2 1870.58  12
   4  -1 -13 14646.9 2232.49   3
  -3   4 -13 13072.7 1982.30   3
  -1   4 -13 14252.6 2099.34   3
   1  -4 -13 11309.5 1971.48  12
   3   1 -13 10019.6 1965.36   3
   1  -4 -13 12282.5 1694.74   2
  -1  -3 -13 13652.4 2186.87  12
   4  -3 -13 11161.6 1834.38   3
  -4   3 -13 10586.9 1617.81  12
   1   3 -13 10749.0 1975.24   3
  -4   1 -13 11661.0 1968.96   7
  -4   1 -13 10561.6 1868.59  12
   3  -4 -13 10418.3 1666.00   3
   1  -4 -13 12516.6 1810.44   3
  -4   3 -13 9567.90 1719.43   7
   3  -4 -13 12579.2 1912.19   2
   1   3 -12 954.842 746.514   3
  -3  -1 -12 2144.95 1007.33  12
  -1   4 -12 1706.74 758.983   3
  -1  -3 -12 1245.63 882.081  12
   1  -4 -12 2451.19 817.036   2
  -3   4 -12 1963.00 789.475   7
   4  -3 -12 896.926 653.366   3
  -4   1 -12 2420.38 911.007   7
   3  -4 -12 3977.94 1005.19   3
   3   1 -12 2390.48 1152.20   3
  -4   1 -12 3186.10 1063.99  12
  -4   3 -12 152.291 386.301  12
   1  -4 -12 1422.41 756.879  12
   4  -1 -12 1059.09 731.672   3
  -3   4 -12 940.405 646.423   3
   3  -4 -12 1203.54 767.589   2
  -4   3 -12 1681.75 802.864   7
   4  -3 -11 35048.2 2963.41   3
  -3  -1 -11 31991.9 3077.78  12
  -4   1 -11 35167.0 3119.57   7
   4  -1 -11 24964.6 2702.50   3
   3   1 -11 32900.0 3188.51   3
  -3   4 -11 31918.6 2688.14   7
   3  -4 -11 29253.6 2507.42   3
  -1   4 -11 36422.7 3049.34   3
   1   3 -11 35641.9 3212.27   3
  -4   1 -11 34064.7 3076.19  12
   3  -4 -11 27928.4 2670.82   2
   1  -4 -11 33304.0 3113.59  12
  -4   3 -11 37554.6 3140.55   7
  -4   3 -11 35600.3 2761.14  12
  -1  -3 -11 37700.7 3336.51  12
   1  -4 -11 30463.8 2532.15   2
   4  -1 -10 19743.2 2339.32   3
   1  -4 -10 23186.5 2102.07   2
  -4   1 -10 22230.5 2420.80   7
   3   1 -10 25240.9 2682.48   3
  -4   3 -10 20376.7 2289.06   7
   4  -3 -10 22736.4 2264.55   3
   1   3 -10 21458.9 2397.79   3
   3  -4 -10 21870.8 2033.61   3
  -1   4 -10 23722.3 2353.77   3
   1  -4 -10 23061.0 2486.93  12
  -3   4 -10 23553.2 2232.41   7
  -3  -1 -10 25113.1 2598.88  12
  -4   3 -10 21932.7 2103.26  12
  -4   1 -10 22390.5 2394.44  12
   3  -4 -10 21620.9 2289.07   2
  -1  -3 -10 23549.9 2526.97  12
   3  -4  -9 5119.54 1123.03   2
  -1   4  -9 5655.96 1143.14   3
  -4   3  -9 7445.17 948.246   9
   1  -4  -9 5051.08 983.409   2
  -1  -3  -9 6526.40 938.615   2
  -4   3  -9 5646.90 1065.66  12
  -4   3  -9 5869.11 1180.18   7
  -4   1  -9 5623.75 1225.37  12
  -1   4  -9 6113.72 901.162   7
  -3   4  -9 5131.11 1087.02   7
   1  -4  -9 7081.54 1320.64  12
  -3  -1  -9 5630.80 1303.52  12
   4  -1  -9 3573.43 1038.60   3
   3   1  -9 5667.32 1311.57   3
   4  -3  -9 6225.30 1191.23   3
  -1  -3  -9 6389.17 1358.28  12
   1   3  -9 4975.56 1173.71   3
   3  -4  -9 5451.06 962.763   3
  -4   1  -9 5948.51 1226.97   7
  -4   1  -8 29335.0 2604.03   7
  -3  -1  -8 30039.9 2624.02  12
  -1  -3  -8 27729.3 2512.15  12
  -3   4  -8 30899.7 1839.29  12
   1  -4  -8 28262.0 2514.70  12
   4  -3  -8 25583.6 2178.68   3
  -1   4  -8 31860.6 2454.43   3
   4  -1  -8 31868.9 2695.04   3
  -1  -3  -8 31807.8 1990.70   2
   3   1  -8 31307.4 2782.02   3
   1   3  -8 30906.9 2596.02   3
  -4   3  -8 28998.7 2535.98   7
   3  -4  -8 34813.2 2225.55   3
   3  -4  -8 27226.8 2390.90   2
  -4   1  -8 29707.9 2599.47  12
  -4   3  -8 31784.0 2397.80  12
  -4   3  -8 32546.0 2007.55   9
   1  -4  -8 29525.8 2254.78   2
  -4   1  -7 12523.3 1625.57  12
   3   1  -7 14597.8 1826.82   3
  -4   1  -7 13330.8 1678.16   7
  -4   3  -7 11160.9 1168.96   9
   4  -3  -7 12712.1 1450.89   3
  -4   3  -7 12215.5 1593.20   7
   3  -4  -7 13499.5 1271.59   3
  -1   4  -7 13539.4 1492.70   3
   3  -4  -7 11650.1 1567.79   2
   1  -4  -7 10434.3 1307.11   2
   1   3  -7 10967.0 1511.93   3
   1  -4  -7 13830.4 1676.33  12
   4  -1  -7 9776.30 1489.44   3
  -4   3  -7 13249.3 1485.55  12
  -1  -3  -7 11573.0 1579.88  12
  -3   4  -7 11731.3 1053.79  12
  -1  -3  -7 12424.0 1170.32   2
  -4   1  -7 12952.1 853.481   9
  -3  -1  -7 12889.2 1705.92  12
  -4   1  -6 21848.7 1231.25   9
   3   1  -6 20855.7 2118.59   3
  -1   4  -6 22908.6 1822.90   3
  -3  -1  -6 18918.5 1992.35  12
   4  -1  -6 19110.8 1948.73   3
   4  -3  -6 19223.8 1693.87   3
   1   3  -6 20767.5 1932.13   3
  -4   1  -6 20685.1 1988.52   7
   3  -4  -6 23269.5 1530.10   3
  -4   3  -6 21852.3 2002.94   7
  -4   3  -6 20732.9 1590.55   9
  -4   3  -6 18122.8 1698.27  12
   3  -4  -6 20673.6 1079.80   6
   3  -4  -6 16070.0 1728.89   2
  -1  -3  -6 21291.9 1991.34  12
   1  -4  -6 19628.2 1867.28  12
  -3   4  -6 20585.8 1371.87  12
   1  -4  -6 21496.4 1838.66   2
  -4   1  -6 19235.0 1948.36  12
  -1  -3  -6 20565.7 1477.76   2
   1  -4  -5 123416. 4783.81   2
   4  -1  -5 126850. 5213.30   3
   3   1  -5 128788. 5379.60   3
   4  -3  -5 125627. 4589.43   3
  -4   1  -5 124279. 5100.28   7
  -1   4  -5 133196. 4591.61   3
  -4   3  -5 120022. 3122.93   5
   3  -4  -5 123178. 5001.61   2
   3  -4  -5 122775. 3348.50   6
   1   3  -5 127567. 4972.35   3
   1  -4  -5 136314. 5069.85  12
  -1  -3  -5 128239. 4228.81   2
  -3  -1  -5 123942. 5127.99  12
  -3  -1  -5 119467. 3067.88  11
   3  -4  -5 129753. 3906.42   3
  -3   4  -5 122296. 4192.65   5
  -4   3  -5 131043. 4547.96   9
  -3  -1  -5 129098. 5200.10   7
  -3  -1  -5 123268. 3062.26  10
  -4   1  -5 125608. 5230.95  12
  -4   1  -5 129489. 3878.78   9
  -1  -3  -5 126431. 5016.13  12
  -4   1  -4 3516.26 830.045   7
  -4   1  -4 3897.65 608.875   9
  -1  -3  -4 3680.07 417.884  11
  -3  -1  -4 3908.64 932.593  12
  -4   3  -4 3406.13 710.271   9
  -1   4  -4 3458.09 648.814   3
  -3   4  -4 3474.02 763.095   9
   3  -4  -4 4898.16 957.323   2
  -3  -1  -4 2996.33 817.418   7
   1  -4  -4 2694.96 680.881   2
  -1  -3  -4 3850.29 643.553   2
   3  -4  -4 3236.49 437.429   6
  -3  -1  -4 3959.55 483.450  10
  -1   4  -4 3252.85 784.345   5
   4  -1  -4 3383.45 869.208   3
  -1  -3  -4 1998.35 606.283  12
   4  -3  -4 3230.89 694.671   3
   3   1  -4 3557.30 910.533   3
   3  -4  -4 3033.29 472.514   3
  -3   4  -4 4086.89 659.699   5
   1  -4  -4 3823.61 768.303  12
   1   3  -4 3010.00 751.258   3
  -4   1  -3 99996.3 3553.63   9
  -3  -1  -3 102345. 4188.58   7
  -1  -3  -3 101086. 3936.01  12
  -3  -1  -3 103289. 3143.66  10
  -3  -1  -3 103150. 4253.59  12
  -1   4  -3 97545.9 3390.00   3
  -4   1  -3 97413.0 4111.84   7
   4  -1  -3 104061. 4497.85   3
   3  -4  -3 96365.7 2682.13   3
   3   1  -3 95672.7 4455.53   3
  -1  -3  -3 101078. 3036.96  11
   1   3  -3 96915.6 3982.24   3
  -1   4  -3 97759.1 4102.29   5
  -3   4  -3 98939.8 4102.07   9
   1  -4  -3 97735.6 3986.27   2
   3  -4  -3 97211.8 2947.02   6
  -4   3  -3 100326. 3917.02   9
   3  -4  -3 93270.1 4060.58   2
  -1   4  -3 104372. 3256.22   1
  -3   4  -3 95044.0 3428.36   5
  -3   4  -3 95344.1 2547.61   1
  -1  -3  -3 100449. 3605.61   2
   3  -4  -3 93773.9 2339.47   4
   4  -3  -3 98788.6 3485.83   4
   1  -4  -3 105170. 3915.81  12
   4  -3  -3 99408.6 3698.52   3
  -3  -1  -2 74859.5 3430.93  12
  -4   1  -2 74272.0 3075.95   9
  -4   3  -2 75633.6 3302.53   9
   1  -4  -2 71604.0 3285.03   2
  -3   4  -2 73087.5 3408.69   9
  -3   4  -2 74782.9 2381.90   1
  -3  -1  -2 71517.8 2693.72  10
  -1  -3  -2 75859.6 3041.64   2
   1  -4  -2 74824.4 2998.94  11
  -3   4  -2 73662.6 2903.72   5
  -1  -3  -2 73802.8 3111.88  12
   3   1  -2 79099.0 3817.69   3
   4  -1  -2 77071.5 3674.23   3
   1   3  -2 76609.9 3350.39   3
   1  -4  -2 72598.6 2243.61   3
  -3  -1  -2 75030.6 3355.04   7
  -4   1  -2 71563.1 3292.33   7
  -1   4  -2 68974.7 1953.39  12
  -1   4  -2 78331.7 2826.89   1
   1  -4  -2 70430.7 3196.57   6
   1  -4  -2 74972.6 3018.57  12
   1   3  -2 76931.1 3628.97   5
   4  -3  -2 68309.8 2885.70   3
  -1   4  -2 73998.3 2634.80   3
  -1   4  -2 73318.9 3402.21   5
   4  -3  -2 71502.4 3243.02   2
   3  -4  -2 70538.6 3388.94   2
  -1  -3  -2 70879.2 2622.95  11
   3  -4  -2 74166.4 2131.05   4
   4  -3  -2 71004.1 2858.18   4
   3  -4  -1 67610.6 3250.71   2
  -3  -1  -1 62525.6 2631.65  10
   1  -4  -1 62422.7 1937.98   3
  -4   3  -1 63117.5 3028.62   9
   1  -4  -1 56736.4 2942.47   2
   1  -4  -1 62544.5 3012.52   6
  -1  -3  -1 62561.5 2801.30   2
  -1   4  -1 64929.6 3202.46   5
   4  -3  -1 57635.7 2792.44   2
   4  -3  -1 65678.7 2696.94   3
  -3   4  -1 58568.7 1886.73   3
   4  -1  -1 67376.1 3351.34   3
   3   1  -1 63302.7 3346.14   3
  -1   4  -1 65658.1 2257.31   3
  -3  -1  -1 61868.4 2875.25   7
  -1   4  -1 67782.9 2706.96   1
   1   3  -1 65008.1 3039.00   1
  -4   1  -1 65926.0 2980.44   7
   3  -4  -1 61726.8 2124.71   4
   4  -3  -1 65551.3 2741.32   4
   1  -4  -1 60069.5 2525.99  12
   1   3  -1 61671.4 2897.11   3
  -3   4  -1 64405.3 2650.44   5
  -1  -3  -1 62715.6 2665.07  12
  -4   1  -1 64409.9 2928.70   9
  -3   4  -1 61874.5 3105.10   9
   1   3  -1 62093.0 3232.44   5
   1  -4  -1 62697.0 2826.32  11
  -3   4  -1 66848.7 2443.91   1
   1  -4   0 24829.8 1362.48  12
  -4   1   0 24200.6 1773.11   9
   3  -4   0 24533.0 1830.92   2
  -3  -1   0 26639.1 1690.24  10
  -3   4   0 25183.5 1912.77   9
   1  -4   0 20461.4 1726.93   2
  -1  -3   0 23685.4 1662.85   2
   4  -1   0 23522.9 1902.81   4
  -1  -3   0 26121.1 1491.69  12
   4  -1   0 24547.6 1989.59   3
   3   1   0 25654.1 2078.81   3
   1   3   0 27128.1 1810.38   3
  -3  -1   0 23642.9 1586.17   7
  -4   1   0 23208.5 1616.39   7
   1  -4   0 24318.0 1059.78   3
  -1   4   0 23047.2 1583.72   1
   4  -3   0 21537.8 1592.39   2
   1  -4   0 24415.4 1836.51   6
   1   3   0 26951.6 1881.41   1
  -1   4   0 22989.9 1863.72   5
   1   3   0 26559.4 1997.87   5
   3   1   0 21768.7 1630.80   5
  -4   3   0 22393.3 1773.65   9
   3  -4   0 23041.7 1301.23   4
   1  -4   0 24183.4 1722.29  11
  -3   4   0 19629.9 746.955   3
   4  -3   0 21843.7 1552.19   4
   4  -3   1 72998.4 3043.71   2
  -4   1   1 73722.6 3352.01   9
  -3   4   1 68960.7 3298.26   9
   3   1   1 73720.1 3087.21   5
   4  -1   1 70087.3 2233.43   5
  -1  -3   1 71293.6 3142.39   2
  -3  -1   1 68456.8 2736.07   7
  -4   1   1 65787.9 2827.04   7
   1  -4   1 66743.3 3194.18   6
   1   3   1 71461.6 3300.82   1
  -1  -3   1 67471.5 3393.74   6
   3  -4   1 68991.0 2677.92   4
  -1   4   1 72233.2 3120.65   1
   3  -4   1 72025.5 3279.65   2
  -1   4   1 65205.0 3274.03   5
   4  -3   1 68753.2 1982.86   5
   1  -4   1 69877.4 3308.19   2
   1  -4   1 68600.9 3160.67  11
  -1  -3   1 69279.7 3075.29  10
   1   3   1 76053.1 3560.62   5
  -3  -1   1 65180.7 3015.42  10
   4  -3   1 68780.9 3030.97   4
  -1  -3   1 66790.8 2458.05  12
   4  -1   1 70156.4 3401.64   4
  -4   3   1 70564.2 3337.50   9
  -4   3   2 75639.0 3549.59   9
  -1   4   2 82111.3 3433.61   1
   1  -4   2 71301.2 3420.05   2
   4  -1   2 74607.0 2340.14   2
   3   1   2 77087.6 3658.25   4
  -1  -3   2 71820.7 2475.79   8
   1  -4   2 75105.0 3431.23  11
   1   3   2 70177.3 3385.53   1
   4  -3   2 77204.1 3063.68   2
   3  -4   2 68962.8 3351.24  11
  -4   3   2 70501.9 2008.91   6
   1  -4   2 72115.5 3419.75   6
   4  -1   2 69545.4 2067.59   5
  -1   4   2 73320.0 3526.29   5
   3   1   2 75127.4 3518.79   1
   1   3   2 75485.4 3570.69   5
  -1  -3   2 78206.4 3701.06   6
   3   1   2 82450.7 3286.83   5
  -1  -3   2 76784.8 2455.34  12
  -3  -1   2 72437.0 3323.25  10
  -4   1   2 80212.9 3603.48   9
  -3   4   2 77601.7 3521.01   9
  -1   4   2 73148.6 2088.15   4
   3  -4   2 76959.4 3047.70   4
   3  -4   2 74362.3 3393.55   2
  -1  -3   2 76080.7 3376.26  10
   4  -3   2 75847.5 3297.78   4
   4  -1   2 72501.9 3556.88   4
   3   1   3 96891.3 2663.96   2
  -4   1   3 110163. 4462.04   9
   4  -1   3 106455. 2566.07   2
  -4   3   3 108426. 4417.12   9
   4  -3   3 109038. 3712.11   2
   1   3   3 104127. 4275.36   1
  -1   4   3 103624. 3958.30   9
  -1  -3   3 103408. 4187.11  10
  -1   4   3 99636.2 4090.53   1
   3  -4   3 105233. 3894.01   4
   1  -4   3 107871. 4341.66   2
   3  -4   3 101463. 4218.58  11
   1   3   3 107229. 4416.93   5
  -1  -3   3 103173. 3345.96   8
   1   3   3 90894.5 2293.41   8
  -3   4   3 106244. 4223.97   9
   1  -4   3 102614. 4300.00   6
  -1  -3   3 105226. 4380.67   6
  -3  -1   3 105444. 4135.44   6
   3   1   3 104704. 4298.95   1
  -1  -3   3 102298. 2799.48  12
   4  -1   3 107993. 4455.24   4
   1   3   3 108375. 3813.77   4
   1  -4   3 104671. 4209.88  11
   4  -3   3 104626. 4121.20   4
  -3  -1   3 95966.8 4102.27  10
  -1   4   3 94526.7 2339.49   4
   3   1   3 103844. 4324.39   4
   3  -4   3 106424. 4165.33   2
   3   1   3 110321. 3876.25   5
  -4   1   4 5620.15 1094.17   9
   4  -1   4 5707.58 1079.51   4
  -1   4   4 4398.66 867.670   1
  -3   4   4 3974.64 809.588   9
  -1   4   4 4245.48 775.916   9
  -1  -3   4 3553.40 658.957   8
  -1  -3   4 3917.04 395.161  12
   3  -4   4 4455.09 881.989   4
  -1  -3   4 4317.63 891.095  10
  -1  -3   4 5223.58 1131.30   6
   3   1   4 6159.09 1060.46   1
  -4   1   4 3747.86 569.852   6
  -3  -1   4 3165.33 836.741   6
   1   3   4 5567.79 1048.74   1
   4  -3   4 4560.29 678.398   2
   3  -4   4 4431.04 817.515   2
  -4   3   4 5418.76 1049.66   9
   3   1   4 3571.16 881.888   4
   3  -4   4 4440.85 906.233  11
   4  -3   4 3440.39 842.691   4
   1  -4   4 5149.96 994.302  11
   1  -4   4 3596.80 845.596   2
   1   3   4 2527.87 584.338   4
  -3  -1   4 5057.73 1006.80  10
  -1  -3   5 130151. 5156.54  10
  -4   1   5 127227. 3665.70   6
   3  -4   5 131482. 5135.31  11
  -4   3   5 130349. 5171.57   9
  -1   4   5 116938. 4898.89   1
   3  -4   5 130300. 4807.35   2
   1  -4   5 120704. 4954.89   2
   1  -4   5 125685. 4809.75   8
  -1  -3   5 131681. 4494.83   8
  -1   4   5 133785. 4561.56   9
  -1  -3   5 134967. 5316.35   6
   3   1   5 124070. 4980.08   4
   3   1   5 122838. 4955.19   1
   4  -3   5 128014. 4107.79   2
   1   3   5 130843. 4246.35   4
   4  -3   5 133231. 5078.11   4
  -4   1   5 139484. 5341.94   9
   1   3   5 130648. 5193.22   1
   1  -4   5 136146. 5120.17  11
   3  -4   5 130924. 4926.10   4
  -3  -1   5 125157. 4658.35   6
  -3   4   5 129569. 4902.03   9
  -3  -1   5 127384. 5123.11  10
   4  -1   5 126519. 5143.95   4
  -1  -3   6 19114.7 1652.19   8
  -4   3   6 19399.8 1917.77   9
  -1   4   6 19351.5 1543.75   9
   1   3   6 18881.4 1207.29   9
  -1   4   6 19032.8 1886.79   1
   3  -4   6 17471.9 1653.36   2
   4  -3   6 18998.7 1395.61   2
  -3  -1   6 19165.1 1684.01   6
   1   3   6 22121.4 2063.05   1
   3   1   6 17533.6 1797.33   1
  -3   4   6 23046.5 1925.17   9
  -4   1   6 19447.8 1942.01   9
   4  -1   6 17363.6 1529.40   1
   1  -4   6 16098.9 1695.58   8
   3  -4   6 19313.8 1908.19  11
   1  -4   6 15333.9 1664.55  11
   1   3   6 18952.1 1446.65   4
   4  -3   6 20266.5 1932.82   4
  -1  -3   6 19203.0 1912.03  10
   4  -1   6 17044.8 1863.77   4
  -3  -1   6 16965.4 1822.22  10
   3   1   6 18939.1 1826.78   4
   3  -4   6 17615.9 1800.38   4
  -4   3   7 14829.8 1720.49   9
  -3  -1   7 9895.78 1462.20  10
  -4   1   7 13752.0 1715.12   9
   3   1   7 14220.2 1636.26   4
  -1   4   7 12754.3 1606.74   1
   1  -4   7 12688.3 1608.73  11
   3   1   7 9858.91 1358.03   1
   3   1   7 14729.7 1375.87   8
  -1  -3   7 16789.7 1665.20   8
   1   3   7 12749.0 1609.13   1
   1  -4   7 12183.1 1553.73   8
  -1   4   7 15652.5 1369.70   9
   1   3   7 13828.0 923.650   9
  -3   4   7 12623.7 1494.18   9
   3  -4   7 15553.0 1716.47  11
   4  -1   7 12626.2 1329.01   1
   3  -4   7 11697.0 1560.60   4
   4  -3   7 13317.7 1638.00   4
   1   3   7 12907.7 1252.53   4
  -1  -3   7 13836.6 1744.45  10
   4  -1   7 12681.1 1686.28   4
  -1  -3   8 35216.0 2798.90  10
  -1   4   8 32263.8 2683.45   1
  -3   4   8 31772.9 2681.21   1
  -4   1   8 35599.4 2792.80   9
   1   3   8 38700.1 2258.26   8
   3   1   8 35431.6 2309.73   8
   1  -4   8 39385.7 2856.08   8
   1   3   8 32856.5 2702.64   1
  -1  -3   8 35891.7 2584.60   8
   3   1   8 37025.3 2686.81   1
  -1   4   8 40106.2 2232.19   9
  -3  -1   8 35107.9 2812.39  10
   4  -1   8 34983.9 2311.91   1
   3  -4   8 32869.7 2700.95   4
   1   3   8 34206.2 2122.22   4
   3  -4   8 32322.1 2575.69  11
   1  -4   8 32104.9 2570.25  11
   4  -3   8 38704.6 2946.68   4
  -4   3   8 38381.5 2870.23   9
   4  -1   8 35504.0 2806.11   4
   3   1   8 35421.5 2676.02   4
  -3   4   8 38675.1 2661.79   9
   3  -4   9 5487.06 1228.44   4
   1   3   9 8002.83 1031.00   4
   3   1   9 7309.72 1276.19   4
   4  -3   9 6103.91 1287.83   4
  -4   3   9 5696.42 1191.70   9
  -1   4   9 7305.89 1341.29   1
  -1  -3   9 5491.14 1149.18   8
   1   3   9 5742.80 964.196   8
  -3   4   9 6578.85 1338.89   1
   3   1   9 4817.60 948.927   8
   1  -4   9 7542.60 1397.23   8
   1   3   9 8974.61 1491.83   1
   4  -1   9 8487.34 1487.09   4
  -3  -1   9 6692.02 1314.53  10
  -4   1   9 4729.98 1225.02  10
   3  -4   9 3291.83 1082.41   8
  -3   4   9 7060.28 1182.77   9
   3   1   9 5970.07 1156.53   1
   3  -4   9 6473.61 1248.01  11
  -4   1   9 7643.68 1343.81   9
   4  -1   9 4449.99 860.258   1
   1  -4   9 6376.95 1240.95  11
  -1  -3   9 4973.52 1185.02  10
  -3   4  10 23323.0 2444.12   1
  -3   4  10 24927.1 2185.74   9
  -1   4  10 19106.4 2202.11   1
   3  -4  10 22625.9 2468.52   8
   3   1  10 21551.6 2023.31   8
   1  -4  10 22040.9 2374.36   8
   1   3  10 19003.5 2200.69   1
   1   3  10 19694.6 1847.21   8
   3   1  10 23730.4 2269.02   1
   3  -4  10 23235.2 2271.50  11
   4  -1  10 19054.6 1768.71   1
  -4   1  10 20157.0 2248.08  10
   3   1  10 21689.2 2234.45   4
   3  -4  10 22428.8 2401.64   4
   1  -4  10 21176.1 2231.85  11
   4  -3  10 22067.6 2399.41   4
   1   3  10 19810.9 1734.54   4
   4  -1  10 23047.6 2409.47   4
  -1  -3  10 21361.6 2241.38   8
  -4   1  10 23314.2 2333.84   9
   4  -3  10 20200.8 1906.49  11
  -1  -3  10 20841.2 2318.80  10
  -3  -1  10 23760.0 2425.70  10
  -4   3  10 19963.1 2125.53   9
  -4   3  11 33318.5 2812.65   9
  -3   4  11 28732.5 2868.74   1
  -3   4  11 37608.8 2758.68   9
   4  -1  11 29766.2 2760.37   8
  -1   4  11 31667.1 2971.48   1
  -4   1  11 30973.7 2889.06  10
   4  -3  11 31717.0 2464.86  11
   3  -4  11 35812.9 3218.47   8
   1  -4  11 30809.3 2919.06   8
   1   3  11 34044.8 3045.52   1
  -1  -3  11 34351.4 2960.36   8
   1   3  11 33827.8 2584.09   8
   4  -1  11 40942.5 3317.06   4
   3   1  11 33631.4 2812.88   1
   4  -3  11 34241.2 3085.68   4
   3   1  11 32442.3 2639.11   8
   3   1  11 38824.9 3046.86   4
   3  -4  11 29575.6 2660.86  11
   3  -4  11 33319.3 2983.01   4
   1  -4  11 30597.9 2763.49  11
  -1  -3  11 31140.5 2969.65  10
  -3  -1  11 29515.0 2856.80  10
  -4   3  12 1481.02 845.493  10
   4  -1  12 2366.39 1036.31   4
  -4   3  12 542.308 590.012   9
  -3  -1  12 2987.90 1012.88  10
   3  -4  12 3782.95 997.003  11
   3   1  12 1754.44 756.726   1
   3   1  12 3299.08 1073.77   4
   3  -4  12 2201.12 1052.35   8
  -1   4  12 1864.22 844.616   1
   4  -1  12 2388.03 962.791   8
   1  -4  12 3445.12 1177.57   8
  -1  -3  12 2565.47 921.166   8
   4  -3  12 2289.56 1031.63   4
   1  -4  12 1587.61 801.787  11
   1   3  12 2776.59 1040.92   1
  -4   1  12 3566.05 1118.07  10
  -3   4  12 1224.85 787.170   1
   3   1  12 1680.83 841.194   8
   3  -4  12 1907.28 932.454   4
  -1  -3  12 1722.39 1001.96  10
   1   3  12 2601.62 862.505   8
   4  -1  13 11389.6 1913.29   4
   1  -4  13 12992.8 2085.79   8
  -4   3  13 9640.50 1595.82   9
   1   3  13 12484.1 1776.50   8
  -1   4  13 12399.3 1970.51   1
   3   1  13 12386.1 1825.54   8
   1  -4  13 10182.0 1702.12  11
  -4   3  13 10842.8 1761.89  10
  -1  -3  13 15763.3 2172.79   8
   1   3  13 10188.7 1800.89   1
   3  -4  13 16019.0 2281.64   4
   3   1  13 10897.9 1686.67   1
   3   1  13 13007.7 1859.97   4
   3  -4  13 12267.3 2085.07   8
  -3  -1  13 11830.3 1971.50  10
   3  -4  13 14126.3 1953.40  11
   4  -1  13 13192.3 2003.29   8
  -3   4  13 13352.5 2085.83   1
   4  -3  13 11559.5 1967.02   4
  -4   1  13 11860.1 1927.56  10
   4  -1  14 127.603 669.522   4
  -1   4  14 189.137 616.141   1
   4  -3  14 1758.60 1087.50   8
   1  -4  14 1223.69 738.593  11
   3  -4  14 938.689 943.335   8
   1  -4  14 377.421 677.881   8
   4  -1  14 1678.91 1042.59   8
  -1  -3  14 1449.61 784.351   8
  -4   1  14 977.846 777.367  10
   4  -3  14 1000.69 821.183   4
   3   1  14 1218.84 773.765   8
   1   3  14 1352.63 767.248   1
  -3  -1  14 643.167 789.606  10
   3  -4  14 613.058 642.529  11
  -3   4  14 2035.73 976.132   1
   3   1  14-196.559 520.643   4
   3   1  15 4841.18 1379.65   4
   1   3  15 3593.97 1159.17   1
  -3   4  15 2677.59 1054.07   1
   4  -1  15 1104.71 828.896   8
  -1   4  15 3823.42 1334.88   1
   3  -4  15 3758.31 1305.83   8
  -1  -3  15 2324.57 1119.81   8
  -3  -1  15 3505.14 1268.37   8
   4  -1  15 1901.59 1018.97   4
  -4   3  15 3403.85 1176.53   1
   4  -3  15 4563.75 1370.81   4
   1  -4  15 4401.16 1270.68  11
  -4   1  15 308.773 656.671  10
  -3  -1  15 387.845 671.890  10
   1  -4  15 3524.15 1266.98   8
   4  -1  16 7950.03 1888.13   4
  -4   3  16 7524.81 1829.66   1
   1   3  16 6844.78 1714.80   1
  -3   4  16 7087.21 1730.07   1
  -1   4  16 5271.34 1472.04   1
  -1   4  16 9774.33 1916.05   8
   4  -1  16 7016.93 1667.67   8
   1  -4  16 7045.45 1574.88  11
  -4   1  16 7477.17 1742.46  10
  -3  -1  16 5859.44 1666.58  10
   0  -4 -16 6509.75 1548.69   3
   0   4 -15 630.687 703.925   3
  -4   0 -15 3129.35 1248.06  12
   4   0 -15 2143.55 1236.38   3
   0  -4 -15 2798.42 1264.21  12
   4  -4 -15 1167.81 943.969   3
  -4   4 -15-150.415 635.522   3
   4   0 -14 3617.55 1304.18   3
  -4   0 -14 2141.47 1068.18  12
   0  -4 -14 3628.89 1240.88  12
   4  -4 -14 2603.39 1084.04   3
   0   4 -14 3325.24 1179.11   3
   0   4 -13 10606.6 1936.24   3
  -4   0 -13 11937.0 2100.87  12
  -4   4 -13 12423.9 1905.04   7
   4   0 -13 7374.07 1728.43   3
   4  -4 -13 9360.81 1679.73   3
   0  -4 -13 15628.6 2403.36  12
  -4   4 -12 1051.47 737.738   7
   4  -4 -12 1685.00 740.347   3
  -4   0 -12 2032.23 931.161  12
   0   4 -12 959.447 678.039   3
   4   0 -12 1984.91 1173.51   3
   0  -4 -12 1227.92 803.834  12
   0  -4 -11 12101.9 1521.23   2
   4   0 -11 17169.0 2321.86   3
  -4   4 -11 13435.1 1900.43   7
   0   4 -11 15635.2 2107.55   3
   0  -4 -11 11881.2 1883.97  12
   4  -4 -11 12241.0 1702.66   3
  -4   0 -11 12615.0 1934.25  12
   0  -4 -10 15680.5 1697.93   2
  -4   4 -10 20011.8 1827.72   9
  -4   4 -10 17191.6 1726.26  12
  -4   0 -10 18610.5 2275.05  12
  -4   0 -10 18485.3 2290.01   7
   4   0 -10 17442.2 2280.09   3
   4  -4 -10 17381.8 1867.11   3
  -4   4 -10 20421.9 2271.55   7
   0   4 -10 15364.4 2047.53   3
   0  -4 -10 16479.7 2132.80  12
   0   4  -9 2611.10 883.008   3
  -4   4  -9 3233.17 771.667   9
  -4   4  -9 4786.83 910.147  12
  -4   0  -9 6091.50 1293.47  12
  -4   4  -9 4124.68 1051.64   7
  -4   0  -9 5205.25 1324.95   7
   4   0  -9 6046.61 1424.56   3
   0  -4  -9 6629.18 1335.43  12
   0  -4  -9 3914.75 870.146   2
   4  -4  -9 3936.09 880.361   3
  -4   4  -8 12260.8 1419.34   9
   0   4  -8 9840.06 1485.12   3
  -4   4  -8 12084.3 1341.77  12
   4  -4  -8 10717.5 1322.18   3
  -4   0  -8 12830.7 1813.48   7
   4   0  -8 12961.2 1800.38   3
  -4   4  -8 11392.1 1618.24   7
   0  -4  -8 11226.8 1637.15  12
  -4   0  -8 13355.8 1794.55  12
   0  -4  -8 12467.7 1431.49   2
   0  -4  -7 26161.1 2031.54   2
  -4   4  -7 31234.3 2278.34   9
  -4   0  -7 28641.2 2620.00  12
   4   0  -7 23468.7 2417.28   3
  -4   0  -7 27669.4 2542.64   7
  -4   4  -7 31021.3 2130.24  12
   4  -4  -7 30133.2 2071.38   3
   0   4  -7 31207.8 2438.78   3
   0  -4  -7 33943.9 2642.56  12
  -4   0  -6 29540.1 2516.38   7
   0  -4  -6 30462.1 2431.09  12
  -4   4  -6 31877.0 2113.81  12
   4   0  -6 29664.3 2609.13   3
   4  -4  -6 29097.2 1939.60   3
   0   4  -6 30801.6 2310.45   3
   0  -4  -6 31221.3 2158.19   2
  -4   4  -6 35153.9 2426.63   9
  -4   4  -6 30130.7 1651.89   5
  -4   0  -6 31034.4 2609.55  12
   4  -4  -6 33973.1 2594.08   2
  -4   4  -5 130870. 4973.07   9
   4   0  -5 118580. 5384.97   3
   4  -4  -5 123486. 4153.66   3
   0   4  -5 111006. 4547.41   3
   0  -4  -5 113443. 4431.26   2
  -4   0  -5 122534. 5320.84  12
   0  -4  -5 119039. 4888.82  12
  -4   4  -5 119252. 3622.41   5
  -4   0  -5 113421. 5035.64   7
   4  -4  -5 115714. 4981.27   2
   4  -4  -5 115805. 3486.59   4
  -4   0  -4 4485.66 679.448   9
  -4   4  -4 6378.61 1045.02   9
  -4   0  -4 8304.25 1364.52  12
  -4   4  -4 6779.85 678.581   5
   4  -4  -4 5653.98 1082.39   2
   4  -4  -4 6343.88 798.253   3
  -4   0  -4 5863.65 1102.83   7
  -4   4  -4 5228.78 482.362   1
   0  -4  -4 8167.36 1069.31   2
   4   0  -4 8068.11 1362.78   3
   0   4  -4 5115.90 896.422   3
   0  -4  -4 6117.77 983.920  12
   0   4  -4 5388.83 1053.98   5
   4  -4  -4 6436.65 691.192   4
   0  -4  -3 183517. 5856.96  12
  -4   4  -3 182391. 4735.42   5
   0  -4  -3 183320. 5942.46   2
   0   4  -3 170758. 6319.27   5
   4  -4  -3 176361. 4954.11   3
   4   0  -3 182758. 6827.65   3
   0   4  -3 179818. 5686.86   3
  -4   0  -3 183921. 6269.22   7
  -4   4  -3 193778. 6324.16   9
   4  -4  -3 187311. 4897.05   4
  -4   0  -3 194916. 5554.12   9
   0  -4  -3 182727. 5214.68  11
   4  -4  -3 168649. 6057.46   2
   0  -4  -2 128347. 4336.07  12
   0  -4  -2 118773. 4554.09   2
  -4   4  -2 120741. 4757.95   9
   4  -4  -2 117652. 4659.87   2
   4  -4  -2 114606. 3521.10   3
   4  -4  -2 121972. 3700.35   4
   0   4  -2 115977. 4182.96   3
  -4   0  -2 125538. 4750.58   7
  -4   0  -2 127048. 4354.91   9
   4   0  -2 115294. 5115.31   3
   0   4  -2 121331. 4318.01   1
   0   4  -2 115550. 4829.70   5
   0  -4  -2 121485. 4120.59  11
   4  -4  -1 57322.5 3033.00   2
  -4   0  -1 59441.8 2903.19   9
  -4   4  -1 58766.1 3129.11   9
   0  -4  -1 55003.2 2914.34   2
  -4   0  -1 64304.7 3035.46   7
   4  -4  -1 59002.1 2438.25   4
   4   0  -1 61161.1 3477.54   3
   0   4  -1 60876.5 2875.04   1
   0  -4  -1 59119.0 2720.41  11
   0  -4  -1 57115.7 3162.58   6
   0   4  -1 61735.8 2663.64   3
   0  -4  -1 59241.6 2546.61  12
   0   4  -1 53884.9 3188.15   5
  -4   0   0 11191.8 1266.27   9
   4  -4   0 12617.2 1396.91   2
  -4   4   0 13615.5 1448.18   9
   4   0   0 12363.2 1130.80   5
   0  -4   0 11577.7 1312.81   2
   0   4   0 11602.5 1031.56   3
  -4   0   0 12037.8 1215.56   7
   0   4   0 12396.8 1275.75   1
   4   0   0 12312.7 1573.69   3
   0   4   0 12828.1 1526.94   5
   0  -4   0 11810.2 1206.66  11
   0  -4   0 12662.3 1502.96   6
   0  -4   0 12332.7 986.950  12
   4  -4   0 13184.6 1109.22   4
  -4   0   1 60579.9 3109.80   9
   4  -4   1 57323.2 2947.07   2
  -4   4   1 60692.7 3215.51   9
   0  -4   1 55797.1 2995.72   2
   4   0   1 60763.3 2574.64   5
   0   4   1 52406.8 3139.17   5
   0   4   1 56139.4 2937.33   1
  -4   0   1 60286.0 2722.15   7
   4   0   1 59568.0 3375.30   4
   0  -4   1 56721.5 3179.10   6
   0  -4   1 53621.9 2815.19  11
   0  -4   1 58770.5 2089.80  12
   4  -4   1 55937.2 2619.62   4
  -4   0   2 131375. 5073.62   9
   4  -4   2 121531. 4613.83   2
  -4   4   2 128591. 5041.68   9
   0  -4   2 122283. 4860.56   2
   0   4   2 127743. 4894.90   1
  -4   0   2 131476. 4175.62   7
   4  -4   2 131025. 4499.10   4
   0  -4   2 119267. 3141.68  12
   0  -4   2 122602. 5022.50   6
   0   4   2 128644. 5157.52   5
   4   0   2 136923. 4158.33   5
   0  -4   2 129584. 4774.14  11
   4   0   2 125608. 5194.42   4
  -4   0   3 194482. 6643.32   9
  -4   4   3 182348. 6425.84   9
   0  -4   3 174738. 6300.58   2
   0   4   3 185102. 6433.58   1
  -4   0   3 187362. 5179.69   7
   4  -4   3 188490. 6027.73   4
   4  -4   3 193658. 6133.21   2
   0  -4   3 178678. 6503.81   6
  -4   0   3 194318. 5957.07   6
   4   0   3 183699. 5179.74   5
   0   4   3 187527. 6667.01   5
   4   0   3 181539. 6579.50   4
   0   4   3 198616. 5251.25   4
  -4   4   4 6740.54 1116.74   9
  -4   0   4 7949.06 1303.65   9
   0   4   4 5213.82 625.737   4
   4   0   4 6589.96 1185.81   4
   4  -4   4 6788.66 964.715   2
   4   0   4 5351.52 965.220   1
   0  -4   4 3883.26 793.346   8
  -4   0   4 5423.57 623.958   7
   0  -4   4 6441.33 1265.47   6
  -4   0   4 5829.89 970.416   6
   0   4   4 4675.67 946.698   1
   4  -4   4 5481.08 1020.40   4
  -4   0   5 129655. 5379.09   9
  -4   4   5 115132. 5024.91   9
   0   4   5 118161. 5156.66   1
   0  -4   5 116838. 4493.48   8
  -4   0   5 115018. 3198.05   7
   0   4   5 123426. 4320.73   9
   0  -4   5 122135. 5331.63   6
  -4   0   5 121055. 4300.61   6
   4  -4   5 117782. 4489.70   2
   4   0   5 117990. 4847.23   1
   4  -4   5 120950. 4925.80   4
   0   4   5 120652. 3525.40   4
   4   0   5 119026. 5210.12   4
  -4   0   6 29178.5 2508.82   9
   0   4   6 33425.6 1984.28   9
  -4   4   6 32887.7 2541.32   9
   4  -4   6 30368.1 2098.57   2
   0   4   6 35705.5 2718.09   1
   4   0   6 33855.6 2656.97   4
   0  -4   6 29738.9 2219.85   8
  -4   0   6 31146.9 1980.30   6
   4   0   6 28761.8 2281.23   1
   4  -4   6 30211.6 2362.57  11
   4  -4   6 33320.3 2502.47   4
  -4   0   6 29107.9 2469.68  10
   0   4   6 30705.0 1518.38   4
   0   4   7 28683.6 1791.27   9
   4  -4   7 25371.4 2207.46  11
   4  -4   7 28743.3 2453.89   4
   4  -4   7 28752.8 2079.11   2
   0   4   7 28868.3 2556.40   1
   0  -4   7 29897.8 2308.10   8
   4   0   7 28084.8 2267.50   1
  -4   0   7 29820.7 2559.07  10
  -4   0   7 27448.0 2510.56   9
   4   0   7 28033.8 2431.87   4
  -4   4   7 29083.6 2488.50   9
  -4   4   8 13595.9 1737.47   9
   0  -4   8 14088.4 1702.39   8
   0   4   8 11981.7 1723.84   1
   4   0   8 14046.7 1619.95   1
   4   0   8 14345.1 1818.00   4
   4  -4   8 13704.1 1677.36  11
   4  -4   8 14050.3 1770.16   4
  -4   0   8 10631.4 1613.41  10
   4  -4   9 3402.99 984.817   4
   4   0   9 4782.40 1180.60   4
  -4   4   9 3001.84 929.853   9
   4   0   9 5352.17 1057.47   1
   0   4   9 4236.36 1114.72   1
  -4   0   9 3113.29 1114.17  10
   4  -4   9 4620.21 1023.23  11
   0  -4   9 3586.63 982.403   8
  -4   4  10 16057.9 1946.23   9
   0   4  10 15491.3 2053.51   1
   0  -4  10 16111.6 2000.88   8
  -4   0  10 14204.7 1984.03  10
   4   0  10 15572.1 1786.23   1
   4   0  10 14236.6 1973.70   4
   4  -4  10 16712.3 2112.22   4
   4  -4  10 14565.6 1783.34  11
   4  -4  11 13761.5 2024.04   4
   0  -4  11 12622.5 1893.79   8
   4   0  11 13730.4 1995.29   4
  -4   4  11 12791.4 1776.70   9
   0   4  11 12104.8 1889.71   1
   4   0  11 15903.0 1852.68   1
   4  -4  11 11673.4 1649.05  11
  -4   0  11 14517.7 2047.83  10
   4   0  12 984.167 774.116   4
  -4   4  12 3343.51 1008.08   9
   4   0  12 1599.35 766.184   8
   0  -4  12 674.125 586.570   8
   0   4  12 1679.13 832.859   1
   4   0  12 1164.06 695.628   1
   4  -4  12 561.404 625.259   4
  -4   0  12 265.824 688.854  10
   4  -4  12 916.598 618.768  11
  -4   4  12 1210.36 787.049   1
   4   0  13 10734.3 1853.02   4
   4  -4  13 8728.95 1772.54   4
   0  -4  13 10378.0 1875.93   8
   0   4  13 9775.56 1832.59   1
   4   0  13 11135.8 1798.34   8
  -4   4  13 11769.7 2026.25   1
  -4   0  13 9564.41 1811.94  10
   0  -4  14 3502.67 1190.42  11
   4   0  14 4905.22 1233.26   8
   0  -4  14 2700.66 1073.64   8
   0   4  14 6077.44 1465.40   1
   4  -4  14 3691.11 1311.07   4
  -4   4  14 2566.71 1018.50   1
   4   0  14 2089.35 1032.10   4
  -4   0  14 5386.08 1453.42  10
   4   0  15 2786.01 1119.07   4
   0  -4  15 1395.05 811.656   8
   0   4  15 1245.12 830.183   1
   0  -4  15 656.577 629.868  11
   4  -4  15 2345.77 1138.70   4
  -4   4  15 335.976 551.926   1
  -4   0  15 1859.97 886.441  10
   4   0  16 6214.03 1566.02   4
  -4   0  16 6127.20 1563.86  10
   0  -4  16 7573.01 1657.84  11
  -5   2 -15 2384.82 1016.64  12
  -2   5 -15 1190.40 801.160   3
   3  -5 -15 866.120 721.947   2
   5  -3 -15 2457.91 1141.35   3
  -5   3 -15 1482.48 1024.88   7
   5  -2 -15 290.838 746.770   3
  -3   5 -15 2002.05 932.344   3
   3   2 -14 63.1023 697.172   3
   5  -2 -14 589.438 815.435   3
   3  -5 -14 17.8735 589.761   2
  -5   2 -14-207.750 570.791   7
  -5   3 -14 1381.20 940.268   7
  -3  -2 -14-2074.31 1038.01  12
   2   3 -14-104.126 595.673   3
  -3   5 -14 39.9196 561.115   3
  -5   2 -14 1373.72 808.899  12
  -2  -3 -14 1204.03 861.622  12
  -2   5 -14 399.584 495.664   3
   5  -3 -14 132.318 655.654   3
  -5   3 -13 10156.8 1739.67  12
   5  -2 -13 7515.30 1670.31   3
   3  -5 -13 9904.12 1727.25   2
   2  -5 -13 9271.02 1574.03   2
  -5   2 -13 10907.4 2001.52   7
  -5   3 -13 8482.36 1733.24   7
  -2   5 -13 7311.78 1540.60   3
   3   2 -13 7572.48 1817.07   3
   2  -5 -13 13363.4 2234.79  12
   2   3 -13 8389.14 1843.56   3
  -3  -2 -13 9535.69 1915.58  12
  -2  -3 -13 11425.4 2089.16  12
  -3   5 -13 8977.38 1645.13   3
   5  -3 -13 7292.36 1609.14   3
  -5   2 -13 8864.55 1717.43  12
  -5   2 -12 753.561 741.840  12
   5  -2 -12 2176.01 1008.08   3
   3  -5 -12 332.565 490.030   2
   2  -5 -12 21.9113 502.629   2
  -5   2 -12 267.185 625.946   7
  -5   3 -12 2961.48 1176.30   7
   2   3 -12 526.425 607.315   3
  -2  -3 -12-522.132 631.869  12
  -3   5 -12 720.918 694.308   3
  -3  -2 -12 295.623 737.588  12
  -5   3 -12 545.741 626.811  12
   3   2 -12 1800.03 1142.36   3
   2  -5 -12 2322.03 1005.96  12
  -2   5 -12 631.270 458.828   3
   5  -3 -12-383.623 631.368   3
   2  -5 -11 20724.3 2224.49   2
  -2   5 -11 23927.4 2435.84   3
   2   3 -11 21692.0 2666.33   3
   5  -2 -11 18398.8 2369.61   3
   5  -3 -11 20256.3 2356.44   3
   3   2 -11 20029.6 2589.73   3
  -5   3 -11 19301.9 2455.74   7
  -3   5 -11 18860.2 2153.71   3
  -3   5 -11 22447.8 2278.51   7
  -2  -3 -11 18764.0 2468.96  12
   2  -5 -11 19055.5 2503.30  12
  -3  -2 -11 19132.6 2461.98  12
  -5   2 -11 18021.3 2296.69  12
  -5   3 -11 18660.8 2200.46  12
   3  -5 -11 18073.6 2203.75   2
  -5   2 -11 20672.6 2538.23   7
   2  -5 -10 10328.8 1735.70  12
  -5   2 -10 11333.7 1773.29  12
   3  -5 -10 10285.1 1627.82   2
   2  -5 -10 8396.22 1412.46   2
  -3   5 -10 10832.4 1541.01   3
   5  -2 -10 14354.8 2023.43   3
  -3   5 -10 12377.4 1721.39   7
  -5   2 -10 13405.3 2005.32   7
  -5   3 -10 11753.0 1868.84   7
   3   2 -10 11561.6 1890.81   3
  -2  -3 -10 15030.6 2109.04  12
   5  -3 -10 9949.17 1567.74   3
  -3  -2 -10 11418.5 1844.06  12
  -2   5 -10 13221.1 1722.29   3
  -5   3 -10 12269.1 1729.84  12
   2   3 -10 9881.78 1734.79   3
   2  -5  -9 6116.32 1177.28   2
   2  -5  -9 7589.09 1503.79  12
  -5   3  -9 7503.07 1363.03  12
   3  -5  -9 5056.21 1152.03   2
  -5   2  -9 8306.34 1511.51   7
  -5   3  -9 6916.84 1458.64   7
  -3   5  -9 6749.17 1203.53   3
  -5   2  -9 4131.85 1179.39  12
   5  -2  -9 7123.42 1387.65   3
   5  -3  -9 4786.59 1125.62   3
   3   2  -9 8384.42 1602.26   3
  -3  -2  -9 8489.86 1527.17  12
  -2  -3  -9 5701.65 1271.83  12
   2   3  -9 6772.98 1439.14   3
   2  -5  -9 6563.50 980.088   3
  -2   5  -9 6513.15 1172.17   3
   5  -3  -8 29353.0 2507.62   3
   3   2  -8 25442.1 2622.91   3
   2   3  -8 27397.6 2618.96   3
  -5   2  -8 32203.9 2836.40   7
  -5   3  -8 29240.7 2699.75   7
  -5   3  -8 32604.5 2686.86  12
   3  -5  -8 31707.0 2008.79   3
  -2   5  -8 29766.8 2338.75   3
  -3   5  -8 30652.9 2310.03   3
   2  -5  -8 31581.7 2021.57   3
   2  -5  -8 32009.9 2780.41  12
   5  -2  -8 26595.2 2559.99   3
  -2  -3  -8 28172.6 2698.42  12
  -5   2  -8 37109.5 3021.84  12
  -5   3  -8 28979.1 1961.11   9
   2  -5  -8 27378.2 2417.13   2
  -3  -2  -8 33603.5 2933.71  12
   3  -5  -8 32139.3 2658.34   2
  -5   2  -7 15963.7 1285.37   9
  -2  -3  -7 15076.4 1209.93   2
  -5   3  -7 15958.4 1934.39   7
   5  -2  -7 15983.5 1894.77   3
   5  -3  -7 16271.2 1782.64   3
   3   2  -7 15485.5 2001.34   3
   2   3  -7 16979.1 1984.90   3
  -5   2  -7 17585.1 2030.74   7
  -3  -2  -7 14184.6 1849.65  12
   3  -5  -7 14675.1 1237.48   3
  -2   5  -7 15518.4 1585.50   3
   2  -5  -7 13521.2 1736.46  12
  -3   5  -7 14708.4 1495.45   3
   2  -5  -7 16724.8 1326.50   3
   2  -5  -7 14719.1 1741.44   2
  -5   3  -7 15970.6 1455.71   9
  -5   3  -7 12574.4 1662.47  12
  -2  -3  -7 15625.6 1913.93  12
  -5   2  -7 12562.6 1741.51  12
  -3   5  -7 15253.6 1577.75   5
   3  -5  -7 12748.6 1649.11   2
   2  -5  -6 14308.8 1673.13   2
  -5   2  -6 12622.3 1177.85   9
  -3  -2  -6 12632.4 1717.21  12
   2   3  -6 13250.2 1699.54   3
  -2  -3  -6 11877.9 1065.97   2
   5  -3  -6 12814.5 1565.52   3
  -5   3  -6 12733.0 1727.98   7
   3  -5  -6 12578.7 1004.62   3
  -2   5  -6 11836.8 1286.17   3
  -5   2  -6 11193.2 1570.39   7
  -3   5  -6 13572.0 1319.18   3
   2  -5  -6 12601.6 1032.95   3
   3  -5  -6 12678.4 1098.44   6
   3   2  -6 10947.4 1653.13   3
   5  -2  -6 11208.0 1555.46   3
   2  -5  -6 10541.8 1510.84  12
  -3   5  -6 11064.2 1303.90   5
  -5   2  -6 14481.6 1767.76  12
  -5   3  -6 13423.4 1654.39  12
  -2   5  -6 12904.1 1543.92   5
  -2  -3  -6 10136.9 1470.44  12
  -5   3  -6 10421.3 1220.02   9
   3  -5  -6 14044.1 1686.10   2
   2  -5  -5 55315.4 3352.02   2
   3  -5  -5 59342.0 3469.10   2
   5  -3  -5 56816.9 3260.52   3
   5  -2  -5 62951.8 3635.57   3
   3   2  -5 54607.3 3576.29   3
   2   3  -5 54750.3 3412.91   3
   3  -5  -5 54823.9 2027.06   3
  -5   2  -5 57273.0 3484.87   7
  -5   3  -5 57355.4 3545.31   7
  -2   5  -5 60846.8 2811.51   3
  -3   5  -5 56396.1 2110.82  12
  -3   5  -5 59646.1 2713.23   3
   2  -5  -5 63850.9 2210.02   3
   3  -5  -5 55627.2 2437.35   6
   2  -5  -5 55947.2 2837.71   6
  -2  -3  -5 61488.8 2582.84   2
   2  -5  -5 58522.9 3351.62  12
  -3   5  -5 54804.7 2938.87   5
  -2  -3  -5 56292.7 3356.58  12
  -2   5  -5 57810.9 3235.13   5
  -3  -2  -5 57083.0 3478.80  12
  -5   3  -5 57975.1 2975.49   9
  -5   2  -5 59245.5 2775.19   9
   3  -5  -4 13647.8 1632.64   2
   2  -5  -4 13540.7 1588.33   2
  -5   2  -4 13319.1 1327.73   9
  -5   3  -4 12419.5 1384.57   9
  -2  -3  -4 15017.9 1219.13   2
  -3   5  -4 13965.0 1405.93   5
   3  -5  -4 11511.2 1054.76   6
   5  -3  -4 10447.8 1330.50   3
   5  -2  -4 14729.8 1720.73   3
  -2   5  -4 15070.2 1228.50   3
  -5   2  -4 12947.0 1581.66   7
  -3   5  -4 14745.9 1147.52   3
   2  -5  -4 11403.2 705.924   3
  -2   5  -4 12650.8 1480.13   5
   2  -5  -4 14534.6 1394.73   6
  -3  -2  -4 13625.1 1650.42  12
  -2  -3  -4 14033.5 887.831  11
   2  -5  -4 12627.1 1431.40  12
   3   2  -4 13324.6 1727.23   3
  -2  -3  -4 13804.5 1579.89  12
  -3  -2  -4 13790.7 919.432  10
   2   3  -4 13820.9 1683.04   3
   3  -5  -3 94742.2 4410.64   2
   5  -3  -3 85207.9 3897.21   3
   5  -2  -3 85632.9 4210.93   3
   3   2  -3 90308.5 4504.52   3
   2   3  -3 92791.3 4380.06   3
  -2   5  -3 92203.2 3100.81   3
  -5   2  -3 94229.2 4326.00   7
  -5   3  -3 91520.0 3974.04   9
  -3   5  -3 90680.3 2909.44   3
   3  -5  -3 88412.6 3317.74   6
  -2   5  -3 94415.2 3092.44   1
   2  -5  -3 88975.4 3758.71   6
  -3   5  -3 93020.4 3878.89   5
  -2   5  -3 85202.1 4006.55   5
  -2  -3  -3 93752.7 4099.86  12
   2   3  -3 93074.7 4387.65   5
  -3  -2  -3 95093.3 4279.42  12
  -2  -3  -3 94082.2 3487.75   2
  -5   2  -3 99470.7 3916.13   9
  -3  -2  -3 92712.4 3134.97  10
   5  -3  -3 85156.9 3759.50   4
  -3   5  -3 95848.9 2815.06   1
   2  -5  -3 83534.9 4089.37   2
   5  -3  -2 94774.0 4005.08   3
   3  -5  -2 92205.7 4292.08   2
  -5   2  -2 98101.3 4050.09   9
   2  -5  -2 87411.5 4146.29   2
  -3   5  -2 95640.4 4411.88   9
   5  -3  -2 94345.0 3905.10   4
  -3   5  -2 96200.0 3146.42   1
  -2  -3  -2 97084.4 3641.04   2
  -3  -2  -2 97812.3 3453.02  10
   5  -2  -2 91349.7 4272.48   3
   3   2  -2 87269.7 4385.24   3
   2   3  -2 96866.9 4353.64   3
  -2   5  -2 89735.2 2808.41   3
  -2   5  -2 101366. 3440.91   1
  -5   2  -2 92056.8 4227.16   7
  -3   5  -2 92489.1 2601.15   3
   3  -5  -2 96019.9 3528.65   6
   2  -5  -2 93114.7 3842.33   6
  -3   5  -2 97847.9 3999.79   5
  -2   5  -2 101231. 4328.31   5
  -3  -2  -2 91156.0 4118.06  12
   2   3  -2 89812.1 4398.70   5
  -2  -3  -2 105417. 4166.88  12
   3   2  -2 94236.6 4275.36   5
  -5   3  -2 101583. 4233.56   9
  -5   2  -1 33636.1 2267.22   9
  -5   3  -1 29766.1 2225.29   9
   3  -5  -1 29709.9 2289.33   2
  -3   5  -1 32710.6 2414.20   9
  -2  -3  -1 33384.0 1952.76  10
  -2  -3  -1 29109.4 1973.43  12
   5  -3  -1 30621.9 2097.37   4
  -3  -2  -1 33807.1 2255.13  12
   5  -3  -1 31431.1 2145.05   3
   5  -2  -1 30921.0 2326.79   3
  -2   5  -1 27918.7 1023.72   3
  -2   5  -1 32723.1 1901.24   1
   3   2  -1 28058.1 2384.75   3
   2   3  -1 29344.9 2252.02   3
   2   3  -1 32286.3 2461.59   5
   2  -5  -1 29967.3 2273.37   2
   3  -5  -1 30144.8 1897.33   6
   2  -5  -1 30464.1 2076.64   6
  -3   5  -1 29161.1 2025.74   5
   3   2  -1 31356.4 2327.57   5
  -2  -3  -1 29107.5 1915.57   2
  -2   5  -1 34371.2 2402.45   5
  -3   5  -1 30670.9 1708.32   1
  -3  -2  -1 28370.1 1816.18  10
   5  -3  -1 29571.8 2005.87   2
   5  -2  -1 31554.7 2344.35   4
  -5   2   0 7720.19 1181.01   9
  -3  -2   0 7112.07 1006.25  12
  -3   5   0 6571.98 836.949   1
   5  -3   0 4914.55 930.330   4
   5  -2   0 4245.78 966.968   4
   5  -3   0 5206.42 824.786   2
  -2   5   0 4044.46 713.926   1
   2   3   0 5523.75 1037.94   3
   3   2   0 4865.04 1016.53   3
  -2  -3   0 6453.98 894.047  12
   3   2   0 4530.42 926.264   5
   3  -5   0 5389.88 1044.66   2
  -3   5   0 5836.91 1075.26   9
   2  -5   0 5183.88 922.672   6
  -3  -2   0 5837.00 890.651  10
   2  -5   0 6691.41 1110.21   2
   5  -3   0 4245.02 428.370   5
  -3   5   0 5879.35 952.462   5
  -2   5   0 5179.43 968.551   5
  -2  -3   0 4527.00 781.581  10
   2   3   0 5575.56 1106.49   5
   2   3   0 5767.24 1035.61   1
  -5   3   0 6429.97 1119.86   9
   3  -5   0 6598.88 709.915   4
   2  -5   0 4865.52 933.306  11
  -5   2   1 37694.5 2565.41   9
   5  -2   1 36287.3 2532.20   4
  -2   5   1 30344.3 2302.20   9
   3  -5   1 33097.9 2398.80   2
   2  -5   1 33271.6 2463.37   2
  -2   5   1 34907.9 2160.99   1
  -3   5   1 34166.8 2086.92   1
  -5   3   1 39969.4 2652.51   9
   2  -5   1 33287.4 2313.76   6
  -2  -3   1 35010.4 2615.60   6
   2   3   1 36710.6 2571.13   1
  -2   5   1 36023.8 2468.31   5
   2   3   1 37532.6 2636.78   5
  -3   5   1 36042.5 2516.46   9
   3   2   1 36743.6 2453.02   5
   3   2   1 32223.2 2443.04   1
   5  -3   1 35985.8 2356.02   4
   2  -5   1 36364.7 2500.87  11
   3  -5   1 36508.1 1881.24   4
  -2  -3   1 40259.8 2086.10  12
  -2  -3   1 38397.4 2331.85  10
  -3  -2   1 33664.9 2188.83  10
   5  -2   1 33463.7 1833.57   2
   5  -3   1 35738.5 2082.54   2
   5  -3   2 99578.5 3716.57   2
  -3   5   2 90894.6 3897.05   1
  -3   5   2 96132.6 4351.39   9
   2  -5   2 101210. 4508.50   2
  -2   5   2 93614.7 3965.43   1
   5  -2   2 93542.1 4345.33   4
   3  -5   2 101287. 4450.92   2
  -2  -3   2 95414.0 2858.08   8
   2  -5   2 89561.0 4115.17   6
   2   3   2 93310.7 4381.86   1
  -2  -3   2 93819.8 4507.50   6
  -3  -2   2 96698.6 4457.03   6
  -5   3   2 99760.6 4533.70   9
   3   2   2 95517.0 4438.01   1
   2   3   2 105087. 4571.19   5
   3   2   2 97195.8 4237.28   5
  -2  -3   2 96848.6 3429.80  12
  -2   5   2 91183.5 4204.69   9
  -5   2   2 92723.5 4366.54   9
   5  -2   2 96514.5 3261.45   2
  -3  -2   2 93833.9 4090.99  10
   3  -5   2 94289.9 4320.58  11
   2  -5   2 90942.0 4289.91  11
   3  -5   2 96017.9 3633.55   4
  -2  -3   2 96706.4 4169.47  10
   5  -3   2 96063.0 4238.68   4
  -5   2   3 96902.7 4524.75   9
  -3   5   3 87086.6 3953.18   1
  -2   5   3 89863.2 4119.03   9
   3  -5   3 90936.8 4281.11   2
  -3   5   3 93004.9 4311.45   9
  -3  -2   3 89791.4 4162.20  10
  -2  -3   3 92886.2 3138.62   8
  -2   5   3 89233.5 4039.21   1
   5  -3   3 89385.2 3415.38   2
   2  -5   3 92200.8 4364.33   2
   2   3   3 90865.6 4371.40   1
   2  -5   3 88775.8 4303.39  11
  -2  -3   3 90769.9 4425.14   6
  -3  -2   3 94549.2 4451.23   6
   3   2   3 96464.3 4501.17   1
   2   3   3 87263.2 4234.73   5
   3   2   3 93158.2 4154.97   5
   5  -2   3 94672.6 3018.82   2
  -2  -3   3 95879.3 3267.10  12
   3  -5   3 93231.1 3784.86   4
   3  -5   3 86027.4 4281.58  11
  -2  -3   3 99009.8 4324.74  10
   5  -3   3 82969.6 4060.32   4
   5  -2   3 99952.5 4533.29   4
   3   2   3 97650.3 4459.22   4
   2   3   3 102536. 4296.95   4
  -5   3   3 96188.1 4572.33   9
   5  -3   4 14084.6 1141.80   2
  -3   5   4 14204.8 1570.98   1
  -5   3   4 16426.2 1895.95   9
  -3   5   4 15553.0 1732.70   9
  -2   5   4 15397.6 1664.22   1
   3  -5   4 14634.8 1646.07   2
   2  -5   4 16005.0 1737.84   2
   5  -2   4 16388.5 926.536   2
   3   2   4 13059.9 1544.66   4
  -2  -3   4 16292.2 1290.83   8
  -3  -2   4 15066.4 1725.35   6
   2  -5   4 17931.2 1869.21  11
   2   3   4 15463.7 1744.21   1
  -2  -3   4 17876.1 1923.61   6
  -5   2   4 13684.1 896.406   6
   3   2   4 14013.4 1677.33   1
   3   2   4 13981.0 1523.43   5
   2   3   4 17395.9 1831.93   5
  -2   5   4 15163.8 1575.61   9
   3  -5   4 14666.1 1744.13  11
   3  -5   4 15535.0 1547.26   4
  -2  -3   4 16175.4 1765.81  10
   5  -3   4 14929.6 1669.54   4
  -3  -2   4 16238.6 1736.02  10
  -5   2   4 14306.1 1769.26   9
   5  -2   4 15325.4 1809.01   4
   2   3   4 17747.3 1685.70   4
  -3   5   5 62366.8 3444.64   9
  -5   2   5 65016.3 3809.57   9
  -5   3   5 60520.6 3714.17   9
  -3   5   5 58027.6 3430.22   1
   5  -3   5 62951.8 2551.86   2
   3  -5   5 60966.0 3479.04   2
   2  -5   5 55817.3 3467.82   2
  -2  -3   5 62175.1 2919.89   8
   2   3   5 59433.7 3615.48   1
   3   2   5 65011.1 3589.07   4
   3   2   5 59716.3 3605.05   1
  -2  -3   5 61801.5 3654.03   6
  -3  -2   5 64239.7 3573.88   6
  -2   5   5 56361.8 3378.40   1
  -2   5   5 66141.4 3438.32   9
   5  -2   5 59008.0 3627.10   4
   2  -5   5 64074.3 3690.33  11
   3  -5   5 66082.0 3769.75  11
   3  -5   5 68976.6 3453.85   4
  -2  -3   5 61974.9 3623.08  10
   5  -3   5 60642.0 3585.37   4
  -3  -2   5 63298.2 3619.13  10
   2   3   5 68923.7 3380.82   4
  -2   5   6 10050.6 1309.81   9
   5  -3   6 9413.02 1484.49   4
  -5   2   6 12051.4 1674.70   9
   5  -2   6 10415.6 1631.83   4
  -5   3   6 8367.18 1447.24   9
  -2   5   6 7893.14 1324.64   1
  -3   5   6 8336.37 1274.05   9
   2   3   6 9628.64 1493.82   1
   5  -3   6 10254.7 936.160   2
  -2  -3   6 10166.4 1214.02   8
  -2  -3   6 10851.4 1583.11   6
  -3  -2   6 11670.3 1528.13   6
  -3   5   6 7678.51 1258.97   1
   3   2   6 8961.37 1385.97   1
   3  -5   6 9181.21 1354.04   4
   2  -5   6 7624.35 1296.41   2
  -2  -3   6 10786.5 1554.49  10
   3   2   6 9786.61 1403.38   4
   3  -5   6 9254.00 1474.98  11
   2  -5   6 7205.61 1318.87  11
   2   3   6 11175.4 1317.10   4
  -3  -2   6 8073.54 1419.50  10
   3  -5   6 11470.7 1503.71   2
  -5   2   7 14977.2 1928.16   9
  -5   3   7 15374.4 1936.09   9
  -3   5   7 17079.7 1819.78   9
  -2   5   7 15308.9 1603.06   9
   5  -3   7 13773.8 1775.45   4
  -3   5   7 13034.1 1722.44   1
   2   3   7 16190.9 1617.40   4
   3  -5   7 15123.6 1759.86   4
   3  -5   7 15737.2 1790.13   2
  -2  -3   7 13665.9 1524.29   8
   2   3   7 15938.5 1939.25   1
   3   2   7 14052.2 1792.32   1
  -3  -2   7 17175.1 1855.96   6
   3  -5   7 13325.9 1744.96  11
   2  -5   7 12518.9 1714.91  11
   5  -2   7 15551.3 1961.52   4
  -2  -3   7 15648.6 1923.34  10
  -3  -2   7 19362.6 2090.15  10
   3   2   7 16713.3 1851.37   4
  -2   5   7 10285.6 1518.00   1
  -3   5   8 32544.5 2808.41   1
  -2   5   8 35305.9 2480.91   9
  -2  -3   8 32974.5 2515.25   8
   2   3   8 32538.1 2813.23   1
   3   2   8 34103.3 2854.23   1
   3   2   8 31425.4 2570.75   4
  -5   2   8 38437.6 3088.32   9
   3  -5   8 34249.7 2767.86   4
   3  -5   8 34088.3 2824.69  11
  -3   5   8 32970.2 2577.34   9
   2  -5   8 28330.8 2619.89  11
   5  -3   8 38232.9 3072.15   4
   5  -2   8 37435.6 3075.38   4
  -2  -3   8 33811.3 2924.77  10
   2   3   8 38204.2 2506.20   4
  -3  -2   8 36730.7 2990.47  10
  -5   3   8 30119.3 2789.65   9
  -2   5   8 25684.2 2537.33   1
   2   3   9 7920.17 1453.09   1
  -2   5   9 5224.43 1249.47   1
   5  -2   9 7714.23 1505.45   4
   3   2   9 8510.22 1392.12   4
  -3   5   9 6867.35 1232.22   9
  -2   5   9 8169.95 1266.19   9
   2  -5   9 8386.81 1560.62   8
  -2  -3   9 7330.02 1267.45   8
   3   2   9 7053.41 1360.99   1
  -5   3   9 8541.60 1544.86   9
   5  -3   9 7370.83 1473.70   4
   2   3   9 8970.34 1274.40   4
   3  -5   9 10788.9 1672.17   4
   3  -5   9 6099.50 1261.69  11
  -3   5   9 7628.50 1458.82   1
   2  -5   9 6536.06 1301.92  11
  -2  -3   9 8553.15 1605.92  10
  -3  -2   9 7668.79 1466.14  10
  -5   2   9 8801.53 1582.81   9
   2   3  10 10347.2 1728.62   1
   5  -3  10 11138.0 1836.79   4
   5  -2  10 8430.81 1652.14   4
  -2   5  10 11392.9 1801.94   1
   3   2  10 12813.2 1730.12   4
  -5   2  10 10020.0 1728.62   9
  -5   3  10 10672.8 1721.88   9
  -3   5  10 12348.2 1601.21   9
   2  -5  10 11753.0 1849.33   8
  -2  -3  10 10201.4 1587.68   8
   3   2  10 8674.43 1568.42   1
  -2  -3  10 8391.20 1568.82  10
   3  -5  10 9408.69 1665.88  11
   2  -5  10 8987.43 1620.88  11
   2   3  10 11611.7 1466.68   4
  -3   5  10 11586.6 1822.28   1
  -5   2  10 10916.6 1807.67  10
  -3  -2  10 8552.49 1606.75  10
  -5   2  11 20219.3 2446.02   9
  -5   3  11 20215.8 2412.63   9
  -3  -2  11 19196.4 2420.18  10
  -3   5  11 21963.4 2554.92   1
  -2   5  11 20475.2 2484.19   1
   2  -5  11 21162.7 2537.70   8
  -2  -3  11 18072.5 2175.45   8
   2   3  11 17545.5 2277.19   1
   3   2  11 19762.9 2327.86   1
   3   2  11 21770.5 2251.24   4
   5  -3  11 22099.1 2605.93   4
   3  -5  11 19965.4 2353.56  11
   2  -5  11 19759.7 2351.53  11
   5  -2  11 19018.8 2431.54   4
  -2  -3  11 19059.6 2462.18  10
  -5   2  11 19338.0 2418.08  10
  -5   3  12 404.945 675.560  10
  -5   2  12 710.045 707.372   9
   5  -2  12 443.325 702.941   4
   5  -3  12 201.435 658.780   4
   3   2  12 573.138 674.580   4
   2  -5  12 188.525 775.578   8
   3   2  12 1153.60 698.611   1
  -2  -3  12 385.865 665.294   8
  -3  -2  12 663.772 779.616   8
  -5   3  12 1170.88 809.955   9
  -2   5  12 948.665 756.723   1
  -2  -3  12 1211.50 844.545  10
   3  -5  12 1138.48 840.840  11
   2  -5  12 922.320 857.597  11
  -3   5  12 265.096 423.155   1
  -3  -2  12 795.224 751.364  10
   2   3  12 1090.87 758.007   1
  -5   2  12 1224.47 863.116  10
   5  -3  13 9842.33 1884.18   4
   5  -2  13 7603.99 1696.02   4
   3   2  13 9576.81 1604.95   4
  -2   5  13 8980.07 1756.19   1
   3   2  13 10506.3 1806.31   1
  -2  -3  13 7346.91 1665.91   8
  -3  -2  13 8967.62 1664.01   8
   2  -5  13 8517.23 1812.27   8
  -2  -3  13 6870.92 1619.87  10
  -5   3  13 10146.7 1847.57  10
  -5   3  13 11234.9 1878.48   9
   3  -5  13 6394.45 1473.03  11
   2  -5  13 8274.94 1648.86  11
  -3  -2  13 8186.81 1757.86  10
   2   3  13 9159.27 1777.27   1
  -3   5  13 11078.9 1961.92   1
  -5   2  13 12004.6 2009.11  10
  -5   3  14 175.421 605.953   9
   2   3  14 156.402 583.718   1
   5  -2  14 1707.77 1031.37   4
  -3   5  14-239.526 514.492   1
  -2   5  14 531.814 600.073   1
   2  -5  14 525.169 1060.05   8
   3   2  14-57.9546 569.160   1
  -2  -3  14 922.480 703.658   8
  -3  -2  14-747.739 778.662   8
  -2  -3  14 385.163 731.789  10
   3  -5  14 163.664 683.376  11
  -5   3  14-143.999 689.938  10
   2  -5  14 283.023 614.694  11
  -5   2  14 869.263 881.771  10
   5  -3  14 1092.11 1002.22   4
  -3  -2  14 1929.88 1046.44  10
   5  -2  15 2839.39 1171.37   4
  -3   5  15 1537.31 903.243   1
   2   3  15 1787.71 1034.56   1
  -2   5  15 3142.63 1292.09   1
   2  -5  15-1036.91 767.435  11
   2  -5  15 1544.70 1099.81   8
  -2  -3  15 735.442 987.403   8
  -3  -2  15 2035.70 1073.65   8
   5  -3  15 114.926 607.001   4
  -5   2  15 731.194 713.745  10
   3  -5  15 1022.43 746.874  11
  -3  -2  15 766.563 956.085  10
   2  -5  16 2717.69 1063.64  11
  -5   2  16 5022.24 1572.27  10
   4  -5 -15 1230.84 853.441   2
  -1   5 -15-90.3518 703.666   3
  -4   5 -15 559.166 688.298   3
  -5   1 -15 2088.30 1032.52  12
   5  -4 -14 8375.21 1692.85   3
  -1  -4 -14 8916.71 1946.51  12
   4  -5 -14 10891.5 1899.48   2
  -5   4 -14 9078.16 1846.40   7
   1   4 -14 8307.58 1776.26   3
  -4   5 -14 11994.3 2028.46   3
  -1   5 -14 8168.20 1730.64   3
  -5   1 -14 9290.66 1876.76  12
   5  -1 -14 9232.53 1974.52   3
   4   1 -14 12570.9 2320.76   3
  -4  -1 -14 10076.5 2040.64  12
   1  -5 -14 11156.8 2121.15  12
  -4  -1 -13 256.033 552.939  12
   4  -5 -13-836.657 789.778   2
  -5   1 -13 980.852 951.566   7
  -5   4 -13-267.922 580.498   7
  -1   5 -13 534.631 776.129   3
   5  -1 -13 2446.31 1280.70   3
   5  -4 -13 689.774 522.647   3
   1   4 -13-268.981 728.968   3
   4   1 -13 1545.08 1202.54   3
  -5   1 -13-263.024 573.230  12
  -1  -4 -13 522.703 727.347  12
   1  -5 -13-717.255 684.758  12
  -4   5 -13-73.1855 523.107   3
   5  -1 -12 3277.31 1191.42   3
   4  -5 -12 485.410 538.399   2
  -1  -4 -12 1417.95 889.664  12
  -5   1 -12 479.088 671.292   7
  -5   4 -12 2558.72 1077.71   7
  -4   5 -12 2223.20 883.465   7
  -1   5 -12 1409.27 778.327   3
   1   4 -12 1368.23 942.185   3
   5  -4 -12 1585.39 800.390   3
   1  -5 -12 1047.79 797.913  12
   4   1 -12 1338.75 1050.07   3
  -4  -1 -12 1368.20 876.100  12
  -5   1 -12 2066.18 1008.99  12
  -4   5 -12 2396.17 847.298   3
  -5   4 -11 237.359 421.345  12
   5  -4 -11-8.77802 422.990   3
  -4  -1 -11 809.516 756.462  12
   4  -5 -11-18.7324 557.178   2
   1  -5 -11 85.7590 356.921   2
  -5   1 -11 2318.97 1060.23   7
  -5   4 -11 449.097 617.605   7
  -4   5 -11-83.8466 469.371   7
   5  -1 -11 699.891 700.097   3
   1  -5 -11 71.2214 584.181  12
  -5   1 -11 784.014 601.793  12
   4   1 -11 304.777 828.074   3
   1   4 -11 296.218 607.909   3
  -1  -4 -11 1797.37 987.229  12
  -1   5 -11 1147.62 685.786   3
   1   4 -10 8884.02 1659.08   3
  -4  -1 -10 10970.7 1843.30  12
  -4   5 -10 11535.9 1545.66   9
   4  -5 -10 9291.62 1640.32   2
   1  -5 -10 11302.6 1593.51   2
  -5   1 -10 13092.2 1987.68   7
  -5   4 -10 11865.4 1856.86   7
  -4   5 -10 12010.8 1801.60   7
   1  -5 -10 10387.7 1807.19  12
  -5   4 -10 9740.54 1484.15  12
  -1  -4 -10 8864.49 1669.64  12
   5  -1 -10 9237.37 1706.40   3
   4   1 -10 9619.88 1792.66   3
   5  -4 -10 10081.2 1512.79   3
  -1   5 -10 13702.7 1869.70   3
  -5   1 -10 8555.07 1656.86  12
   1   4  -9 719.599 728.748   3
   5  -1  -9 197.280 565.574   3
  -4   5  -9 233.202 401.499   9
   4  -5  -9 917.093 757.485   2
   1  -5  -9 21.0612 429.498   2
  -5   1  -9 197.314 702.665   7
  -5   4  -9 333.367 628.193   7
  -1  -4  -9 417.072 538.317  12
  -5   1  -9 290.961 583.732  12
   4   1  -9 163.143 747.029   3
   5  -4  -9 147.403 438.775   3
   1  -5  -9 174.099 518.155  12
  -4  -1  -9 572.631 782.663  12
  -5   4  -9-77.0748 376.303  12
  -1   5  -9 746.748 625.019   3
   1  -5  -8 65652.8 3811.12   2
  -5   4  -8 75525.2 3649.68   9
  -1  -4  -8 68699.1 3329.08   2
  -4   5  -8 69176.2 3842.42   9
   1   4  -8 71580.5 4223.87   3
   5  -1  -8 68589.4 4334.67   3
   4   1  -8 69907.6 4498.62   3
   5  -4  -8 69268.1 3707.90   3
  -5   1  -8 68173.9 4306.37   7
  -1   5  -8 64402.6 3741.75   3
  -5   4  -8 74161.8 4493.38   7
  -1  -4  -8 72540.6 4337.08  12
  -4  -1  -8 65177.2 4270.95  12
  -4   5  -8 70451.9 3331.28   5
  -5   4  -8 67636.9 3800.85  12
  -5   1  -8 66390.5 4338.99  12
   1  -5  -8 66907.8 4144.63  12
   4  -5  -8 67615.2 4142.66   2
  -5   4  -7 3554.83 946.596  12
  -5   4  -7 2920.13 768.922   9
  -4   5  -7 2374.65 726.599   9
   4  -5  -7 3111.37 933.471   2
  -5   1  -7 3035.52 923.931   7
   1  -5  -7 1968.33 701.307   2
  -5   4  -7 3690.28 995.698   7
   1  -5  -7 4810.76 1076.96  12
  -4  -1  -7 2170.79 813.530  12
  -1  -4  -7 4451.88 805.054   2
  -4   5  -7 1653.42 463.753  12
   5  -1  -7 2809.86 1008.49   3
   4   1  -7 2890.11 951.276   3
   5  -4  -7 1412.66 589.676   3
   1   4  -7 4184.13 1069.75   3
  -1  -4  -7 3404.63 958.773  12
  -1   5  -7 2698.48 759.473   3
  -5   1  -7 2653.06 972.424  12
  -4   5  -7 2642.76 642.028   5
  -5   1  -6 70656.4 2811.31   9
   1  -5  -6 61552.9 3518.85   2
  -1   5  -6 60401.1 3662.95   5
  -4  -1  -6 64626.1 3980.54  12
   5  -1  -6 67646.3 4111.33   3
   5  -4  -6 67423.5 3400.48   3
   4   1  -6 66219.0 4163.25   3
   4  -5  -6 66188.3 2732.71   3
   1   4  -6 65023.9 3725.69   3
  -5   1  -6 65382.0 3970.64   7
  -1   5  -6 67315.7 3416.55   3
  -4   5  -6 65646.4 3002.11   5
  -1  -4  -6 64186.2 3144.95   2
  -5   4  -6 70619.3 3560.77   9
  -1  -4  -6 68292.7 3872.98  12
   1  -5  -6 66778.9 3772.46  12
  -5   1  -6 67356.6 4121.43  12
  -4   5  -6 73140.7 3084.83  12
  -4   5  -6 67030.1 3707.42   9
   4  -5  -6 64878.2 3822.46   2
  -5   1  -5 360.298 343.507   9
  -5   1  -5 285.999 524.816  12
   1  -5  -5 979.444 642.122  12
  -5   4  -5 190.999 367.643   9
  -1  -4  -5 358.180 330.863   2
  -1  -4  -5 1.30690 344.524  12
  -4   5  -5-156.459 424.079   9
   5  -4  -5 614.488 386.333   4
   4  -5  -5-435.065 608.515   2
  -4  -1  -5 863.675 747.866   7
  -5   1  -5 601.876 511.117   7
   1  -5  -5 831.298 504.158   2
  -4  -1  -5 570.983 499.714  12
   5  -4  -5 144.616 330.130   3
   5  -1  -5 298.756 660.318   3
   4   1  -5 338.789 680.886   3
   4  -5  -5 73.3977 215.888   3
   1   4  -5 541.400 565.443   3
  -1   5  -5 311.218 322.333   3
  -1   5  -5 268.568 555.306   5
  -4   5  -5 862.536 381.005   5
   5  -4  -5 743.093 554.370   2
  -5   1  -4 16799.1 1434.59   9
   1  -5  -4 13227.6 1538.90   2
  -4   5  -4 15774.0 1744.85   9
  -1  -4  -4 16418.7 1501.34   2
  -5   4  -4 15918.7 1619.84   9
   4  -5  -4 12732.2 849.062   3
   5  -4  -4 14572.8 1388.13   3
   1   4  -4 13959.7 1593.97   3
   4  -5  -4 11765.7 1540.82   2
  -4  -1  -4 14384.6 1745.37   7
  -1   5  -4 15532.5 1376.65   3
  -5   1  -4 15800.9 1777.93   7
  -1  -4  -4 15086.4 1618.52  12
   4   1  -4 15847.3 1969.22   3
   1   4  -4 10674.5 1569.61   5
   5  -1  -4 14026.5 1805.08   3
  -4   5  -4 15327.6 1327.85   5
   1  -5  -4 13032.5 1456.51  12
  -1   5  -4 14168.7 1658.34   5
  -4  -1  -4 16166.8 1805.21  12
   5  -4  -4 13774.9 1651.53   2
  -1  -4  -4 14047.2 1055.17  11
  -4  -1  -4 15212.0 1150.55  10
   5  -4  -4 15078.9 1301.62   4
  -4  -1  -3 5615.75 794.226  10
  -5   4  -3 5640.42 1031.51   9
   5  -4  -3 4339.82 728.386   4
  -4   5  -3 4049.61 942.229   9
   5  -4  -3 5326.42 1005.96   2
  -1   5  -3 5133.28 764.407   1
   1   4  -3 4498.35 1006.30   5
   4  -5  -3 4943.58 1047.88   2
  -4  -1  -3 3227.18 861.355   7
  -5   1  -3 3594.31 891.826   7
   5  -4  -3 4089.91 757.871   3
   5  -1  -3 4856.36 1118.20   3
  -5   1  -3 5031.76 858.737   9
   4   1  -3 4487.91 1229.38   3
   1  -5  -3 4171.89 917.175   2
  -1   5  -3 3410.46 935.597   5
   1   4  -3 3104.70 812.888   3
  -4   5  -3 3798.24 463.218   1
   1  -5  -3 4629.31 938.511   6
  -1  -4  -3 4526.74 863.359  12
  -1   5  -3 3825.95 698.970   3
   1  -5  -3 4780.03 875.129  12
  -4   5  -3 4612.76 720.715   5
  -1  -4  -3 5451.42 882.700   2
  -4  -1  -3 6621.90 1171.52  12
  -1  -4  -3 5494.99 731.782  11
   4  -5  -3 3582.86 388.998   4
   4  -5  -2 44387.6 2930.23   2
  -4   5  -2 43278.5 2894.53   9
   1  -5  -2 44407.3 2814.33   2
  -1  -4  -2 41876.5 2502.46   2
  -4   5  -2 43467.4 1981.53   1
   4   1  -2 45713.9 3217.05   3
   5  -4  -2 41980.3 2274.01   3
   5  -1  -2 47036.7 3130.48   3
   1   4  -2 43898.8 2666.09   3
  -1   5  -2 48329.0 2207.42   3
  -4  -1  -2 42374.6 2721.39   7
  -5   1  -2 43217.7 2752.90   7
   4  -5  -2 47545.0 1798.22   4
  -1   5  -2 46154.2 2410.38   1
   1  -5  -2 43952.8 2773.52   6
  -4   5  -2 46361.9 2326.58   5
   1  -5  -2 45932.7 2462.04  12
  -1   5  -2 47673.1 3039.25   5
   1   4  -2 44218.4 2687.86   1
  -1  -4  -2 50948.9 2669.96  12
  -5   4  -2 42241.8 2777.80   9
  -4  -1  -2 41355.4 2815.09  12
  -5   1  -2 46506.0 2676.19   9
   1  -5  -2 44047.4 2514.01  11
  -1  -4  -2 48737.3 2353.95  11
   1   4  -2 45831.7 3063.58   5
  -4  -1  -2 46054.9 2374.40  10
   5  -4  -2 41335.6 2275.53   4
   5  -4  -2 43420.4 2704.50   2
  -4  -1  -1 1732.99 602.487  10
   4  -5  -1 1339.25 348.925   4
   1   4  -1 664.970 528.852   1
  -5   1  -1 1311.02 590.899   9
  -4   5  -1 843.926 570.872   9
   5  -4  -1 1441.91 506.918   4
  -5   4  -1-78.6600 547.611   9
   4   1  -1 1116.75 538.538   5
   5  -4  -1 785.171 525.673   2
  -1   5  -1 1444.26 538.893   1
  -4  -1  -1 2073.68 740.800   7
   4  -5  -1 152.402 509.469   2
  -5   1  -1 638.457 456.889   7
   5  -1  -1 963.719 761.408   3
  -1   5  -1 1029.55 362.199   3
   4   1  -1 1956.14 928.501   3
   1   4  -1 644.466 598.433   3
   1   4  -1 544.152 645.435   5
   1  -5  -1 1145.00 732.243   6
   1  -5  -1 1918.76 719.363   2
  -1  -4  -1 509.585 317.568  12
   1  -5  -1 916.216 480.748  12
  -1   5  -1 684.927 619.393   5
  -1  -4  -1 896.139 427.388  11
  -1  -4  -1 1249.39 553.570   2
   1  -5  -1 884.041 601.606  11
  -4   5  -1 1224.05 399.462   1
  -5   1   0 239187. 7603.97   9
   4  -5   0 235978. 7683.02   2
  -5   4   0 234048. 7684.57   9
   4  -5   0 230888. 6301.02   4
   1  -5   0 236875. 7712.70   2
   5  -1   0 235845. 6225.95   5
  -1  -4   0 236073. 7350.31   2
  -1   5   0 248955. 8072.47   5
   5  -1   0 237501. 8093.83   3
   1   4   0 242172. 7244.31   3
   4   1   0 247960. 8344.34   3
  -4  -1   0 235970. 7090.41   7
  -1   5   0 251004. 7290.12   1
  -5   1   0 230623. 7160.69   7
   1  -5   0 246349. 6344.96  12
   1  -5   0 226371. 7529.68   6
  -1  -4   0 242230. 7937.53   6
   1   4   0 232480. 7538.04   1
   5  -4   0 237890. 7366.18   2
   1   4   0 230421. 8026.89   5
   4   1   0 243157. 7274.14   5
  -1  -4   0 240322. 6516.64  12
  -4   5   0 236633. 7864.90   9
   1  -5   0 240470. 7414.09  11
   5  -4   0 232208. 6924.99   4
  -4  -1   0 239008. 7167.03  10
   5  -1   0 240714. 8063.14   4
   4  -5   1 1081.75 453.484   4
  -5   1   1 694.388 576.097   9
   5  -4   1 617.789 528.089   4
  -5   4   1 404.389 593.724   9
   1   4   1 802.763 566.147   1
  -4   5   1 689.143 615.761   9
   5  -1   1 677.481 760.637   4
  -1   5   1 1177.53 755.932   5
  -4  -1   1 681.316 439.617   7
   5  -4   1 1319.43 556.489   2
  -5   1   1 682.146 451.440   7
   4   1   1 1319.36 537.728   5
   4  -5   1 1129.97 556.480   2
   1  -5   1 282.723 576.206   6
  -1  -4   1 1557.47 866.627   6
  -1  -4   1 1103.95 350.941  12
   5  -1   1 744.821 295.579   5
  -1   5   1 809.036 496.618   1
   1   4   1 990.199 661.907   5
   1  -5   1 643.906 571.485   2
   1  -5   1 118.115 444.372  11
  -1  -4   1 1748.05 623.263   2
  -4  -1   1 1561.65 708.716  10
  -5   1   2 42406.5 2879.83   9
  -5   4   2 46553.2 3020.58   9
   5  -4   2 46910.2 2625.68   2
  -4   5   2 41486.4 2873.60   9
   4   1   2 44716.2 2589.25   5
   1  -5   2 39145.1 2736.11   2
  -1   5   2 42593.6 2684.86   1
  -1  -4   2 42352.4 1806.51  12
  -5   1   2 44750.9 2399.64   7
   1   4   2 38538.5 2690.55   1
   1  -5   2 42462.1 2870.60   6
  -1  -4   2 42739.7 3009.37   6
  -1   5   2 45590.5 3010.87   5
   5  -1   2 41573.0 1663.18   5
   4  -5   2 41668.0 2335.38   4
   1   4   2 42390.8 2964.36   5
   1  -5   2 42087.4 2735.81  11
   5  -4   2 41939.4 2582.70   4
   5  -1   2 42059.1 1784.75   2
  -4  -1   2 40089.5 2658.19  10
   5  -1   2 43812.9 3021.79   4
   4  -5   2 39074.2 2656.71   2
   4   1   2 44353.6 3131.67   4
   5  -1   3 3964.01 410.622   2
   4  -5   3 7222.38 1040.85   4
   5  -4   3 4898.62 888.333   2
  -5   1   3 4792.09 1097.44   9
   1  -5   3 3518.14 951.201   2
   4   1   3 2917.36 867.859   1
   1   4   3 4411.21 1028.81   5
   5  -1   3 4137.77 1056.93   4
  -4   5   3 5267.30 1071.55   9
   4   1   3 4734.09 1127.78   4
   1   4   3 5310.39 905.227   4
   1   4   3 4864.10 1024.51   1
  -5   1   3 4115.41 707.434   7
  -5   4   3 3601.12 995.361   9
  -1   5   3 4876.70 964.854   1
   1  -5   3 4879.94 1093.02   6
  -1  -4   3 3128.41 1044.31   6
  -4  -1   3 4546.90 1064.46   6
   4  -5   3 3451.41 862.098   2
  -1  -4   3 3702.42 435.745  12
   4   1   3 5736.51 922.214   5
   1  -5   3 3616.70 906.298  11
   5  -4   3 3747.14 854.961   4
  -1   5   3 4657.51 467.361   4
  -4  -1   3 4814.12 1065.55  10
  -5   1   4 15630.2 1877.39   9
  -5   4   4 13925.2 1752.98   9
  -4   5   4 12733.1 1591.81   9
  -1   5   4 13900.9 1485.05   9
   5  -4   4 14368.4 1397.28   2
   4  -5   4 18633.6 1825.31   2
   5  -1   4 12441.5 1716.14   4
   4   1   4 12918.5 1692.74   4
   1  -5   4 12566.6 1604.13   2
  -1   5   4 13685.7 1643.94   1
  -1  -4   4 13347.7 1237.74   8
   4   1   4 13037.3 1631.80   1
   1   4   4 12379.4 1594.15   1
  -5   1   4 12061.3 1121.34   7
   1  -5   4 13251.0 1684.83   6
  -4  -1   4 13139.5 1601.97   6
  -5   1   4 15857.9 1367.87   6
  -1  -4   4 12411.1 1677.21   6
   4  -5   4 14585.5 1518.20   4
   1  -5   4 14488.5 1673.45  11
   5  -4   4 14517.6 1635.50   4
  -4  -1   4 15901.1 1827.36  10
   1   4   4 17030.3 1458.72   4
   4  -5   5 965.502 583.309   4
  -5   1   5-321.596 604.480   9
   5  -1   5 706.709 735.233   4
  -5   4   5 593.298 618.820   9
   1   4   5 533.117 399.923   4
   4   1   5 279.127 674.051   4
  -4   5   5 293.882 587.056   9
  -1   5   5 408.397 362.085   9
  -1  -4   5 30.1201 390.958   8
  -1   5   5 428.227 509.608   1
  -5   1   5 452.598 296.576   7
   4  -5   5 478.059 543.792   2
  -1  -4   5 195.543 611.270   6
  -5   1   5 407.864 368.048   6
  -4  -1   5-369.986 555.845   6
   4   1   5 795.116 545.219   1
   5  -4   5 447.115 307.721   2
   5  -4   5 368.001 580.112   4
   1   4   5 897.875 626.267   1
  -4  -1   5-90.6784 520.296  10
   4  -5   5 268.870 578.630  11
   1  -5   5-63.9480 499.975  11
   1  -5   5 428.539 548.792   2
  -5   1   6 75350.2 4322.42   9
   4  -5   6 71997.9 3885.99   4
  -1   5   6 68777.0 4033.26   1
  -5   4   6 76742.9 4328.63   9
  -4   5   6 72470.3 4012.48   9
  -1   5   6 76906.5 3641.97   9
   1   4   6 76860.2 3176.36   9
   5  -4   6 70873.3 3259.14   2
   4  -5   6 71927.2 3789.83   2
  -4  -1   6 70714.9 4159.61  10
  -1  -4   6 78737.9 3644.76   8
   1   4   6 73212.7 4230.85   1
  -1  -4   6 67815.2 4154.82   6
  -4  -1   6 76341.6 3760.59   6
   4  -5   6 72845.9 4093.41  11
   4   1   6 69840.1 4018.45   1
   1  -5   6 75279.9 4135.83  11
   5  -4   6 67983.1 3914.99   4
   5  -1   6 78121.4 4434.82   4
   1   4   6 76063.5 3180.82   4
   4   1   6 73867.1 4196.42   4
   5  -4   7 2316.74 850.630   4
  -5   1   7 2821.17 980.254   9
   1   4   7 4287.94 749.400   4
   4   1   7 3867.71 1060.75   4
  -5   4   7 2899.73 1075.97   9
  -4   5   7 2949.29 970.999   9
  -1   5   7 3087.26 794.189   9
   4  -5   7 2083.79 808.290   4
  -1  -4   7 3641.85 893.226   8
  -1   5   7 2326.26 840.832   1
   4   1   7 2305.42 810.843   1
   1  -5   7 4016.86 988.876   8
  -4  -1   7 3445.82 884.958   6
   4  -5   7 3109.77 919.636  11
   5  -1   7 2665.96 922.025   4
   1  -5   7 2322.32 890.328  11
   4  -5   7 1820.40 681.605   2
   5  -4   7 2479.89 617.704   2
  -4  -1   7 2735.41 1041.98  10
   1   4   7 2619.83 906.552   1
  -5   1   8 61492.4 4102.38   9
  -5   4   8 66339.5 4159.06   9
  -4   5   8 64728.1 3933.02   9
  -1   5   8 64571.1 3245.36   9
  -1   5   8 63958.5 4100.61   1
   1  -5   8 67965.4 3994.38   8
  -1  -4   8 66191.6 3730.50   8
   1   4   8 64139.5 4166.71   1
   4   1   8 59889.4 3820.85   1
  -4   5   8 54420.6 3792.57   1
   5  -4   8 65812.9 4080.29   4
   1  -5   8 57632.9 3807.98  11
   4  -5   8 60485.7 3902.69   4
   5  -1   8 71159.3 4357.52   4
   4   1   8 63136.8 3998.28   4
  -4  -1   8 61335.1 4062.70  10
  -5   1   8 65061.2 4147.23  10
   4  -5   8 67331.3 4029.54  11
   4  -5   9 478.601 644.512   4
   5  -4   9 298.815 546.277   4
   5  -1   9-546.788 668.538   4
   4   1   9 1441.60 856.465   4
  -4   5   9-131.222 472.115   9
   5  -1   9 62.9974 332.326   1
   1  -5   9 204.405 629.684   8
  -1   5   9 601.646 614.524   1
  -1  -4   9-207.128 438.401   8
  -4  -1   9-791.389 850.126  10
  -5   4   9 1372.46 908.248   9
   4   1   9 423.340 489.664   1
  -4   5   9-426.513 467.900   1
   1   4   9-83.9186 476.745   1
   4  -5   9 118.779 458.720  11
  -5   1   9 854.402 708.674   9
   1  -5   9 61.4284 520.957  11
  -5   1   9 546.748 844.215  10
   4  -5  10 14176.6 1982.28   4
   5  -4  10 12465.9 1915.87   4
   5  -1  10 10972.5 1848.93   4
   4   1  10 13244.2 1905.20   4
  -5   4  10 13166.2 1986.03   9
  -4   5  10 12857.6 1771.50   9
   1  -5  10 12524.8 1882.26   8
  -1  -4  10 8916.85 1545.51   8
  -1   5  10 11116.1 1787.64   1
   1   4  10 8830.92 1661.74   1
   5  -1  10 9951.39 1406.77   1
  -5   1  10 12202.0 1937.45   9
   4  -5  10 12630.4 1804.86  11
  -4   5  10 10738.3 1805.55   1
  -5   1  10 10778.0 1816.31  10
   1  -5  10 12149.8 1810.77  11
   4   1  10 12283.6 1765.18   1
  -4  -1  10 9312.93 1697.53  10
   4  -5  11 2278.14 927.400   4
   5  -4  11-379.951 645.075   4
   5  -1  11 1733.73 912.647   4
   4   1  11 991.137 760.356   4
  -5   4  11 199.889 523.203   9
  -4   5  11 259.443 620.052   9
  -4   5  11 1035.43 653.423   1
  -5   1  11 2454.70 1126.53  10
   1  -5  11 560.281 617.555   8
  -1  -4  11-473.418 526.625   8
  -1   5  11 553.805 574.375   1
   1   4  11 130.125 648.166   1
   4  -5  11 1671.73 832.274  11
   1  -5  11 1053.99 626.837  11
   4   1  11 219.808 486.100   1
  -4  -1  11 411.197 647.178  10
   5  -4  12 1336.23 744.253   4
   4   1  12 1626.92 854.279   4
  -5   4  12 1900.41 979.735   9
   1  -5  12 1362.56 930.185   8
  -1  -4  12 2545.15 1068.20   8
  -1   5  12 850.884 729.431   1
   4   1  12 1768.96 779.949   1
   5  -1  12 1466.48 924.590   4
   1   4  12 2259.07 971.116   1
  -4   5  12 284.849 528.426   1
   4  -5  12 1738.55 945.333  11
   1  -5  12 611.785 628.270  11
  -4  -1  12 2387.32 1070.63  10
  -5   1  12 1410.85 791.215  10
   4  -5  12 1287.11 874.317   4
  -5   4  13 465.359 849.977  10
   5  -4  13 1233.40 1011.27   4
   5  -1  13 234.201 770.353   4
   4   1  13 489.102 730.516   4
  -5   4  13 10.9941 505.084   9
   1  -5  13 1909.88 1064.59   8
  -1  -4  13 654.886 802.371   8
  -1   5  13 880.334 899.547   1
  -4  -1  13 1162.93 928.972  10
  -5   1  13 955.923 854.428  10
   1   4  13 1051.90 847.335   1
  -4   5  13 229.214 596.403   1
   4   1  13 1322.27 796.244   1
   1  -5  13 597.779 694.778  11
   4  -5  13 33.3856 476.655  11
   4  -5  13 2646.55 1243.88   4
   5  -4  14 7268.33 1765.01   4
   5  -1  14 8942.34 1858.97   4
   4  -5  14 9503.02 1749.88  11
  -5   1  14 7965.25 1729.49  10
   1  -5  14 9399.67 1937.25   8
  -1  -4  14 7648.51 1629.80   8
  -1   5  14 9075.00 1899.26   1
  -4  -1  14 11212.7 2087.75  10
   4   1  14 8249.43 1696.54   4
   1   4  14 13776.1 2261.17   1
  -4   5  14 8673.81 1838.52   1
   1  -5  14 10854.7 1936.22  11
   4   1  15 337.329 582.629   4
   5  -1  15-628.298 774.284   4
  -1  -4  15 100.152 696.316   8
   1   4  15 1077.01 855.364   1
   1  -5  15 585.070 706.436  11
  -4  -1  15 500.988 765.243  10
  -5   1  15 938.901 939.554  10
   5  -5 -14 2184.96 1115.72   2
   5   0 -14 1210.70 940.042   3
   0  -5 -14 1221.48 988.610  12
   0   5 -14-1128.71 842.081   3
  -5   0 -14 757.287 815.045  12
   0   5 -13 10255.2 1920.92   3
   5  -5 -13 14034.8 2242.03   2
  -5   5 -13 13602.0 2220.55   7
   5   0 -13 11406.6 2222.84   3
   0  -5 -13 11574.4 2126.61  12
  -5   0 -13 11668.3 2135.16  12
   5   0 -12 1997.66 1284.77   3
   5  -5 -12 1740.43 1003.43   2
  -5   5 -12 5311.22 1461.33   7
   0   5 -12 4237.07 1311.55   3
  -5   0 -12 3660.72 1231.71  12
   0  -5 -12 6137.66 1541.17  12
   5  -5 -11 4250.48 1285.93   2
   0   5 -11 3868.32 1122.96   3
   0  -5 -11 6205.43 1491.38  12
  -5   5 -11 8184.81 1687.07   7
   5   0 -11 3064.09 1151.12   3
  -5   0 -11 5095.80 1417.62  12
   0  -5 -10 17426.8 2271.60  12
   5  -5 -10 10459.0 1852.17   2
  -5   0 -10 13197.5 2132.78   7
   0   5 -10 15554.3 2055.60   3
  -5   5 -10 15187.4 2153.56   7
   5   0 -10 14021.3 2204.88   3
  -5   0 -10 10808.4 1882.56  12
   5   0  -9 6818.19 1581.37   3
  -5   5  -9 6483.13 1195.53   9
   5  -5  -9 6198.92 1408.18   2
  -5   0  -9 7942.44 1697.25   7
  -5   5  -9 7515.76 1542.11   7
   0  -5  -9 8362.05 1282.73   2
   0   5  -9 6839.86 1331.29   3
   0  -5  -9 5507.31 1262.02  12
  -5   0  -9 8567.15 1696.69  12
   0  -5  -8 16957.2 1789.55   2
  -5   5  -8 20065.8 2018.72   9
   5   0  -8 18706.7 2395.94   3
  -5   0  -8 18370.9 2262.56   7
   0   5  -8 16404.8 1953.03   3
   0  -5  -8 19289.6 2223.34  12
  -5   0  -8 15916.8 2171.82  12
  -5   5  -8 15817.4 1665.58  12
   5  -5  -8 15639.6 2061.16   2
   0  -5  -7 13981.7 1591.09   2
  -5   5  -7 13453.4 1650.25   9
  -5   0  -7 15410.0 2076.38  12
   5  -5  -7 9324.59 1580.69   2
  -5   0  -7 14310.1 1972.66   7
   5   0  -7 13980.9 2079.50   3
   0   5  -7 12174.1 1589.88   3
  -5   5  -7 12779.4 1448.60  12
   0  -5  -7 11597.8 1650.48  12
  -5   5  -6 8387.71 1321.21   9
   5  -5  -6 9318.95 1480.04   2
  -5   0  -6 7921.52 1380.04   7
   0  -5  -6 8949.79 1274.85   2
   5   0  -6 5088.85 1300.73   3
   0   5  -6 7981.04 1265.81   3
   0  -5  -6 7285.47 1248.38  12
  -5   0  -6 9246.75 1539.25  12
   0   5  -6 9146.42 1487.45   5
  -5   5  -5 50983.4 3277.84   9
   0  -5  -5 45785.5 3033.04  12
   0  -5  -5 44198.7 2834.77   2
   5  -5  -5 46088.6 2319.34   3
   5   0  -5 51546.7 3718.26   3
   0   5  -5 46205.2 2888.76   3
  -5   0  -5 45669.1 3270.20   7
   0   5  -5 47265.2 3362.77   5
  -5   0  -5 45762.1 3399.92  12
   5  -5  -5 39579.2 2988.77   2
  -5   5  -4 2323.10 822.623   9
   0  -5  -4 1022.65 565.733  12
   5  -5  -4 2284.41 824.114   2
  -5   0  -4 1448.09 746.546   7
   5  -5  -4 810.136 389.958   3
   5   0  -4 1213.76 870.956   3
   0   5  -4 1005.83 566.430   3
   0  -5  -4 1470.71 609.678   2
  -5   0  -4 1486.13 820.353  12
   0   5  -4 1403.56 768.626   5
  -5   0  -3 98429.3 4073.91   9
  -5   5  -3 102982. 4829.32   9
   0  -5  -3 97127.4 4423.89   2
   5   0  -3 103358. 5254.48   3
   0   5  -3 96878.8 4098.93   3
  -5   0  -3 104848. 4766.64   7
   0  -5  -3 98453.9 4193.48  12
   0   5  -3 98178.6 4878.67   5
   0  -5  -3 103364. 3919.21  11
   5  -5  -3 99246.2 3380.19   4
   5  -5  -3 93742.7 4542.67   2
   5  -5  -2 14719.5 1699.83   2
  -5   0  -2 19299.1 1730.25   9
  -5   5  -2 14930.6 1766.17   9
   0  -5  -2 16993.5 1758.69   2
   5   0  -2 16084.0 1995.38   3
   0   5  -2 17223.5 1520.42   3
  -5   0  -2 17506.3 1800.88   7
   0  -5  -2 18301.2 1948.47   6
   0   5  -2 15053.8 1525.11   1
   0   5  -2 17361.0 1975.01   5
   0  -5  -2 16571.2 1496.36  12
   0  -5  -2 18143.0 1579.20  11
   5  -5  -2 16226.0 1251.77   4
   5  -5  -1 11629.8 1500.77   2
   0  -5  -1 11606.1 1465.46   2
  -5   0  -1 14034.0 1533.00   9
  -5   5  -1 9529.54 1432.97   9
   0   5  -1 11954.2 1233.98   3
  -5   0  -1 12679.4 1481.90   7
   5   0  -1 9335.82 1586.16   3
   0   5  -1 13546.4 1467.57   1
   0  -5  -1 12772.6 1680.65   6
   0   5  -1 16133.6 1892.80   5
   5   0  -1 13872.0 1371.91   5
   0  -5  -1 12842.6 1381.73  11
   0  -5  -1 12343.5 1190.19  12
   5  -5  -1 12251.7 1138.57   4
  -5   0   0 13493.2 1600.22   9
   0  -5   0 10733.4 1428.05   2
  -5   5   0 11827.1 1569.52   9
   5   0   0 11099.0 1708.57   3
  -5   0   0 14697.6 1527.08   7
   0   5   0 11432.0 1646.66   5
   5  -5   0 10730.1 1439.05   2
   0   5   0 13550.5 1535.22   1
   0  -5   0 11904.5 1649.99   6
   0  -5   0 12772.9 1109.95  12
   5   0   0 10771.3 1186.27   5
   0  -5   0 14516.1 1491.45  11
   5  -5   0 13288.4 1253.18   4
  -5   0   1 10343.4 1462.63   9
  -5   5   1 11459.4 1613.46   9
   5   0   1 10553.8 1680.37   4
   0   5   1 9334.54 1306.51   1
  -5   0   1 8188.92 1100.44   7
   5  -5   1 7731.28 1210.20   2
   0  -5   1 9740.28 1553.96   6
   0  -5   1 9165.72 817.134  12
   5   0   1 10426.0 1131.08   5
   0   5   1 9789.28 1520.61   5
   0  -5   1 7062.70 1220.17   2
   0  -5   1 8526.34 1261.54  11
   5  -5   1 9271.17 1116.95   4
  -5   0   2 18485.9 1976.69   9
  -5   5   2 18713.1 2002.28   9
   5  -5   2 16991.5 1729.96   2
   5  -5   2 17592.3 1620.97   4
   0  -5   2 17306.9 1857.73   2
  -5   0   2 20216.8 1606.01   7
   0   5   2 18415.0 1878.69   1
   0  -5   2 18061.1 1941.20   6
   0   5   2 17476.5 2044.17   5
   5   0   2 19055.4 1496.88   5
   0  -5   2 17743.4 1794.13  11
   5   0   2 19170.2 2159.19   4
  -5   0   3 104422. 5013.65   9
   5  -5   3 97850.5 4469.08   2
   0  -5   3 92784.3 4663.82   2
   0   5   3 94808.8 4712.49   1
  -5   0   3 104605. 3844.46   7
   0  -5   3 103617. 4998.47   6
  -5   0   3 103286. 4422.57   6
   5   0   3 102291. 3672.15   5
   0   5   3 103278. 5050.23   5
  -5   5   3 103874. 4992.30   9
   0  -5   3 107085. 4751.55  11
   5  -5   3 106518. 4438.04   4
   5   0   3 106966. 5198.35   4
   0   5   3 109498. 3766.56   4
   5  -5   4 1977.13 683.077   4
  -5   5   4 1266.82 859.213   9
   5   0   4 1353.41 740.971   4
  -5   0   4 1208.57 412.693   7
   0  -5   4 816.809 758.564   6
  -5   0   4 4017.15 922.693   6
   5  -5   4 1535.69 621.760   2
   0   5   4 3085.88 930.897   1
   0  -5   4 1482.23 647.193  11
  -5   0   4 1790.49 858.640   9
  -5   0   5 47412.3 3485.36   9
  -5   5   5 46605.6 3301.65   9
   5  -5   5 48177.2 2964.33   2
   0   5   5 48040.1 3367.80   1
   0  -5   5 49622.7 3518.65   6
  -5   0   5 51641.9 2894.69   6
   5   0   5 51779.3 3585.96   4
   0   5   5 47783.7 2828.94   9
   5  -5   5 49751.1 3149.34   4
   0  -5   5 50934.9 3350.69  11
  -5   0   5 42891.7 3211.53  10
  -5   0   6 6900.67 1379.34   9
  -5   0   6 7182.41 1382.52  10
   5  -5   6 9219.37 1458.32   4
   0   5   6 9333.64 1176.69   9
   5   0   6 9503.87 1597.49   4
  -5   5   6 5722.57 1217.46   9
   0  -5   6 6413.58 1116.48   8
  -5   0   6 9391.23 1232.87   6
   5  -5   6 7198.81 1133.51   2
   0   5   6 7372.16 1377.78   1
   0  -5   6 8404.02 1419.14  11
  -5   5   7 14715.6 1956.17   9
   5  -5   7 11542.1 1665.28   4
   5   0   7 12284.2 1828.87   4
   5  -5   7 11477.4 1434.42   2
   0  -5   7 10450.1 1429.36   8
  -5   0   7 14043.7 1477.86   6
   0   5   7 9349.67 1597.35   1
   5   0   7 14563.2 1807.34   1
   0  -5   7 12990.6 1799.39  11
  -5   0   7 12048.5 1870.55  10
  -5   5   8 20947.4 2375.51   9
   0  -5   8 23858.2 2259.31   8
   0   5   8 20873.6 2405.68   1
   5   0   8 23103.6 2324.57   1
   0  -5   8 22786.5 2449.67  11
   5  -5   8 22026.8 2385.40   4
   5   0   8 24637.3 2641.39   4
  -5   0   8 21291.8 2417.62  10
   5  -5   9 6199.40 1361.66   4
   5   0   9 6174.27 1454.61   4
  -5   5   9 7369.64 1452.40   9
   0  -5   9 6397.19 1333.79   8
   0   5   9 4536.11 1273.99   1
   5   0   9 4424.10 1050.43   1
   0  -5   9 5705.12 1325.88  11
  -5   0   9 6903.84 1573.83  10
   5  -5  10 7657.08 1578.11   4
  -5   5  10 13918.8 2038.14   9
   0  -5  10 16955.4 2148.10   8
   5   0  10 10795.0 1626.13   1
   0   5  10 14966.4 2159.26   1
   0  -5  10 9596.86 1668.87  11
   5   0  10 17168.4 2270.86   4
  -5   0  10 14016.7 2100.55  10
   5  -5  11 5087.82 1337.06   4
   5   0  11 7685.09 1617.03   4
  -5   5  11 7222.53 1571.35   9
   5   0  11 5789.35 1222.60   1
   0  -5  11 6135.47 1402.94   8
  -5   0  11 6026.71 1447.72  10
   0   5  11 7164.55 1553.90   1
   0  -5  11 7042.65 1509.98  11
   5   0  12 4706.88 1339.21   4
  -5   5  12 4579.29 1256.46   9
   5  -5  12 3948.54 1353.42   4
   0  -5  12 2977.44 1088.40   8
   0   5  12 2520.23 1038.35   1
   0  -5  12 2231.27 944.340  11
  -5   0  12 2141.38 1083.02  10
  -5   5  12 3272.90 1098.10   1
   5  -5  13 7467.12 1732.83   4
   5   0  13 10815.7 2018.55   4
  -5   5  13 7085.64 1654.65   1
   0  -5  13 10510.0 1876.69   8
   0   5  13 10990.0 2053.80   1
   0  -5  13 13717.1 2181.62  11
  -5   0  13 13712.9 2270.29  10
   5   0  14 1613.43 983.227   4
   0  -5  14 1942.50 1037.58   8
   0   5  14 154.379 689.312   1
  -5   5  14 616.908 629.732   1
   0  -5  14 2347.31 1097.78  11
  -5   0  14 3378.25 1305.74  10
   5  -5  14-57.5021 628.061   4
   5   0  15 674.203 850.109   4
  -3   6 -15-689.988 707.715   3
  -6   3 -14 3007.49 1221.98  12
   3  -6 -14 3401.11 1138.04   2
  -6   3 -14 5586.12 1615.42   7
   6  -3 -14 3767.24 1256.40   3
  -3   6 -14 3842.08 1191.91   3
  -3   6 -13 844.460 626.548   3
   3  -6 -13 579.303 609.892   2
  -6   3 -13-72.5091 601.252   7
  -3  -3 -13-866.591 769.413  12
   6  -3 -13 451.886 802.044   3
   3   3 -13 395.828 928.612   3
  -6   3 -13 1315.80 816.705  12
   3  -6 -12 164.654 626.729   2
  -6   3 -12 565.834 877.711   7
  -6   3 -12 22.9418 515.987  12
   6  -3 -12-112.293 802.553   3
  -3  -3 -12-103.086 721.428  12
  -3   6 -12 19.4967 593.012   3
   3   3 -12 1672.41 1087.18   3
   3  -6 -11 1775.16 901.877   2
  -6   3 -11 115.720 584.358  12
  -6   3 -11 901.349 804.418   7
   6  -3 -11 116.700 740.062   3
   3   3 -11 617.585 838.195   3
  -3  -3 -11 7.39010 755.944  12
  -3   6 -11 200.044 442.847   3
   3  -6 -10 8647.63 1538.33   2
  -6   3 -10 8284.09 1662.01   7
   6  -3 -10 8507.00 1591.05   3
   3   3 -10 11546.7 1998.50   3
  -3  -3 -10 12458.0 2016.65  12
  -3   6 -10 8738.91 1436.69   5
  -3   6 -10 11385.6 1595.33   3
  -6   3 -10 8830.01 1737.01  12
   3  -6  -9 42.6233 497.227   2
  -6   3  -9 212.003 537.603   7
  -6   3  -9 193.084 597.971  12
   6  -3  -9-369.085 632.645   3
   3   3  -9-1611.75 899.881   3
  -3  -3  -9 1001.15 731.783  12
  -3   6  -9-840.848 543.344   5
  -3   6  -9 896.011 585.155   3
   3  -6  -8 29874.0 2768.68   2
   6  -3  -8 30092.5 2810.25   3
   3   3  -8 38284.1 3329.43   3
  -6   3  -8 38710.9 3338.47   7
  -3   6  -8 32141.3 2410.11   3
  -3  -3  -8 35992.9 3193.44  12
  -3   6  -8 36511.6 2790.68   5
  -6   3  -8 30080.3 2912.68  12
  -3   6  -7 243.122 341.426   3
   3  -6  -7 630.183 584.268   2
  -6   3  -7-418.727 442.659  12
  -6   3  -7 921.081 678.388   7
   6  -3  -7 745.750 731.591   3
   3   3  -7 309.569 687.409   3
  -3  -3  -7 1269.39 809.572  12
  -3   6  -7 55.4930 470.602   5
   3  -6  -6 55577.1 3724.25   2
  -6   3  -6 65665.4 3310.84   9
   6  -3  -6 61218.2 3833.52   3
   3   3  -6 56479.5 3916.30   3
  -6   3  -6 66510.0 4182.08   7
  -3   6  -6 59501.4 2948.34   3
   3  -6  -6 64651.3 3014.03   6
  -3   6  -6 59889.2 3486.60   5
  -3  -3  -6 66038.4 4067.71  12
  -6   3  -5 252.710 387.164   9
   3  -6  -5 466.004 587.298   2
  -6   3  -5 301.303 587.103   7
   6  -3  -5 131.829 504.816   3
   3  -6  -5 451.451 389.963   6
   3   3  -5-182.220 559.468   3
  -3  -3  -5-73.1253 429.899  12
  -3   6  -5 306.136 513.600   5
  -6   3  -4 19096.6 1836.60   9
   3  -6  -4 19245.1 2077.24   2
   6  -3  -4 20025.0 2045.89   3
   3   3  -4 17998.7 2087.81   3
  -6   3  -4 19675.0 2138.94   7
   3  -6  -4 19744.4 1627.89   6
  -3   6  -4 19591.5 1884.42   5
  -3  -3  -4 19194.9 2011.63  12
  -3   6  -3 389.051 508.680   5
  -6   3  -3 63.0654 487.770   9
   6  -3  -3 575.981 572.142   4
  -3   6  -3 281.515 220.797   1
  -6   3  -3 625.048 565.634   7
   3  -6  -3 320.925 575.336   2
   6  -3  -3 97.4106 526.467   3
  -3  -3  -3 651.389 593.298  12
   3  -6  -3-62.1290 342.858   6
   3   3  -3 739.887 881.507   3
   3   3  -3 44.9826 473.122   5
  -6   3  -2 8274.88 1268.83   9
  -3   6  -2 7466.41 1185.03   5
   6  -3  -2 8051.10 1247.73   4
  -3   6  -2 9290.07 970.600   1
   3   3  -2 7818.01 1333.96   5
   6  -3  -2 8324.43 1271.73   3
   3  -6  -2 6538.62 1217.94   2
   3   3  -2 7069.26 1322.03   3
   3  -6  -2 7600.37 1055.81   6
  -3  -3  -2 11075.0 1155.04  10
  -3  -3  -2 9821.44 1303.67  12
  -6   3  -1 310.418 507.235   9
   6  -3  -1 791.780 590.905   4
   6  -3  -1 33.7270 460.221   2
  -3   6  -1 175.279 435.829   9
  -3   6  -1 397.870 386.800   1
   3   3  -1-154.869 605.366   3
   3  -6  -1 273.206 489.776   6
  -3  -3  -1 338.185 451.000  12
   3  -6  -1 221.493 544.892   2
  -3   6  -1 1343.77 648.830   5
   3   3  -1-171.764 544.716   5
  -3  -3  -1 297.599 496.705  10
  -6   3   0 243013. 8087.64   9
  -3   6   0 248904. 8299.06   9
   3  -6   0 218630. 7865.95   2
  -3   6   0 245480. 7068.54   1
   3   3   0 232065. 8129.21   3
  -3   6   0 236516. 7783.25   5
   3   3   0 232852. 8240.54   5
  -3  -3   0 234291. 7292.77  12
   6  -3   0 224484. 6945.10   2
  -3  -3   0 239489. 7317.56  10
   6  -3   0 223875. 7647.55   4
   3   3   1 388.331 569.075   1
  -6   3   1-43.4786 507.476   9
   6  -3   1 712.728 661.580   4
  -3   6   1 236.454 411.175   1
  -3   6   1 1292.08 727.328   9
   6  -3   1 858.314 459.680   2
  -3  -3   1 769.552 1016.83   6
   3  -6   1 386.083 473.532   2
   3   3   1 323.650 568.311   5
  -3  -3   1 561.829 469.096  12
   3  -6   1 294.421 647.022  11
  -3  -3   1 106.253 418.377  10
  -3   6   2 7411.31 1131.85   1
  -6   3   2 8126.62 1413.10   9
   6  -3   2 7809.06 1314.60   4
  -3   6   2 6424.85 1212.81   9
   6  -3   2 6517.92 890.300   2
   3   3   2 6434.07 1227.83   1
  -3  -3   2 7375.90 1454.14   6
   3  -6   2 7557.11 1283.24   2
  -3  -3   2 7194.14 986.148  12
   3  -6   2 7809.47 1335.14  11
   3   3   2 6112.64 1186.64   5
  -3  -3   2 7029.72 1155.99  10
  -3   6   3 810.169 532.153   1
  -6   3   3 19.1255 610.775   9
   6  -3   3 340.717 486.619   4
  -3  -3   3 462.365 316.447  12
  -3   6   3-83.7521 469.093   9
   3   3   3-21.0893 656.749   4
   6  -3   3 353.918 274.616   2
   3  -6   3 145.830 396.638   2
  -3  -3   3-910.624 821.902   6
   3   3   3 83.5620 568.577   5
   3   3   3-199.496 555.493   1
   3  -6   3 357.330 541.716  11
  -3  -3   3 963.489 616.310  10
  -6   3   4 17675.8 2110.76   9
  -3   6   4 18474.9 1965.13   9
  -3   6   4 16833.3 1814.49   1
   3  -6   4 16372.8 1920.19   2
  -3  -3   4 17941.9 1359.04   8
  -3  -3   4 17745.3 2088.42   6
   3   3   4 15694.4 1901.12   1
   3   3   4 16576.8 1891.09   5
   3  -6   4 15411.4 1898.78  11
  -3  -3   4 13554.6 1738.28  10
   6  -3   4 18170.5 2035.36   4
   3   3   4 18569.8 2010.46   4
  -3   6   5 48.5864 375.466   1
   3   3   5 232.683 539.100   1
   6  -3   5-241.505 590.007   4
  -6   3   5 676.679 731.679   9
  -3   6   5-81.3762 474.789   9
   3   3   5 477.242 514.382   4
  -3  -3   5 58.2321 372.496   8
  -3  -3   5-693.504 766.098   6
  -3  -3   5-608.484 500.994  10
   3  -6   5 92.7322 453.678   2
   3  -6   5 58.0353 676.436  11
  -6   3   6 67657.2 4378.95   9
  -3   6   6 64444.7 3856.01   9
  -3   6   6 59973.6 3810.07   1
   3  -6   6 66640.3 4067.49   2
  -3  -3   6 72270.5 3416.24   8
   3   3   6 61560.5 4065.11   1
  -3  -3   6 67764.8 4133.47   6
   3  -6   6 65603.0 4149.77  11
   3   3   6 73354.0 3980.35   4
   6  -3   6 68650.3 4215.12   4
  -3  -3   6 62749.7 4063.16  10
  -3   6   7 521.762 619.732   1
   6  -3   7 1779.68 915.863   4
  -3   6   7 759.503 623.820   9
  -6   3   7 451.633 771.578   9
   3   3   7 744.657 584.633   4
  -3  -3   7 579.982 523.916   8
   3   3   7 361.021 688.484   1
  -3  -3   7 302.984 616.919   6
   3  -6   7 565.900 739.900  11
  -3  -3   7 138.592 683.904  10
   3  -6   7 661.315 605.998   2
  -6   3   8 35182.3 3232.78   9
  -3   6   8 36634.6 2858.20   9
  -3   6   8 31200.6 2904.35   1
  -3  -3   8 30595.6 2478.56   8
   3   3   8 35017.5 3099.27   1
   3  -6   8 31193.3 2942.53  11
   6  -3   8 31764.2 3009.38   4
  -3  -3   8 36417.3 3208.35  10
   3   3   8 33217.6 2654.62   4
  -3   6   9-264.204 471.077   1
   6  -3   9 1256.65 872.705   4
  -6   3   9-70.9122 628.766   9
  -3   6   9 238.410 495.366   9
  -3  -3   9 474.171 574.376   8
  -3  -3   9 1416.29 835.128  10
   3   3   9 777.005 574.469   4
   3   3   9 137.521 478.745   1
   3  -6   9-282.700 626.071  11
  -3   6  10 9406.90 1724.69   1
   6  -3  10 12280.7 2013.09   4
  -6   3  10 11646.3 1992.43   9
  -3  -3  10 11475.3 1723.64   8
   3   3  10 11019.3 1605.16   4
   3   3  10 8510.79 1656.69   1
   3  -6  10 11423.3 1877.21  11
  -3  -3  10 14021.9 2157.73  10
   6  -3  11 69.6190 746.563   4
  -3   6  11-630.136 641.680   1
  -6   3  11 262.022 729.392   9
  -3  -3  11 343.619 707.926   8
   3   3  11 137.957 467.138   1
   3  -6  11 1028.86 864.794  11
  -3  -3  11 90.5492 738.991  10
  -6   3  12 1613.67 1042.88  10
   6  -3  12 209.174 657.313   4
  -3   6  12 1299.29 914.504   1
  -6   3  12 190.307 610.905   9
  -3  -3  12 985.602 891.324  10
  -3  -3  12 937.877 820.793   8
   3   3  12 409.856 584.207   1
   3  -6  12-364.314 564.716  11
   6  -3  13 168.553 757.001   4
  -6   3  13-62.0221 736.683   9
  -3   6  13 1587.12 895.814   1
  -3  -3  13 1436.53 1036.50   8
   3   3  13 230.892 476.492   1
   3  -6  13-127.101 686.597  11
  -3  -3  13-75.9578 707.061  10
  -6   3  13-272.774 696.267  10
  -6   3  14 5453.61 1604.57   9
  -3  -3  14 3590.07 1164.30   8
   3   3  14 6474.08 1581.18   1
   3  -6  14 3688.45 1284.57  11
  -6   3  14 4315.07 1343.07  10
   4  -6 -14-438.685 631.575   2
  -6   2 -14 116.930 660.925   7
  -6   4 -14 378.956 838.699   7
   6  -2 -14 736.322 778.802   3
  -6   2 -14-349.195 681.569  12
  -4   6 -14-941.874 692.047   3
  -2   6 -14-295.042 787.463   3
  -4   6 -13 4584.88 1223.75   3
   4   2 -13 8256.64 1948.79   3
   4  -6 -13 6773.90 1581.55   2
  -6   2 -13 5345.35 1512.85   7
  -6   4 -13 6330.80 1645.36   7
   6  -2 -13 2611.24 1131.48   3
   2  -6 -13 5348.76 1597.05  12
   6  -4 -13 3423.82 1135.84   3
   2   4 -13 3903.11 1302.74   3
  -2  -4 -13 6345.55 1676.01  12
  -4  -2 -13 8198.96 1871.57  12
  -6   2 -13 5385.44 1542.68  12
  -2   6 -13 4298.43 1234.68   3
  -2   6 -12 1366.10 805.033   3
   4  -6 -12 527.593 787.778   2
   2  -6 -12-515.906 781.608   2
  -6   2 -12 572.397 585.587   7
  -6   4 -12 1020.95 880.419   7
   2  -6 -12 746.234 921.946  12
   6  -2 -12 286.451 701.982   3
   6  -4 -12 370.948 636.327   3
   4   2 -12-132.061 725.551   3
   2   4 -12 291.748 687.635   3
  -2  -4 -12 2620.96 1194.33  12
  -4  -2 -12 967.292 736.041  12
  -6   2 -12 323.898 592.048  12
  -4   6 -12 476.351 661.230   3
  -4   6 -11 5565.06 1270.49   9
  -2   6 -11 5571.57 1246.02   3
   4  -6 -11 7676.27 1593.79   2
   2  -6 -11 7369.09 1448.93   2
  -6   2 -11 7561.79 1660.22   7
  -6   4 -11 7499.92 1641.90   7
  -4   6 -11 5610.93 1286.38   7
  -6   4 -11 5480.51 1251.48  12
   6  -2 -11 5880.23 1494.47   3
   6  -4 -11 3030.01 1035.54   3
  -6   2 -11 6743.53 1599.35  12
   4   2 -11 5833.49 1550.50   3
   2   4 -11 6846.23 1553.48   3
  -4  -2 -11 5545.29 1480.73  12
   2  -6 -11 5723.96 1444.33  12
  -2  -4 -11 6413.88 1501.43  12
  -4   6 -11 5796.20 1229.39   3
  -2   6 -10 3751.75 988.474   3
   4  -6 -10 3783.92 1108.54   2
   2  -6 -10 4899.81 1159.31   2
  -6   2 -10 4818.60 1375.59   7
  -6   4 -10 3506.14 1176.49   7
  -4  -2 -10 4285.77 1262.53  12
  -6   4 -10 2819.42 900.574  12
  -4   6 -10 5302.70 1158.72   9
   6  -2 -10 4100.87 1232.92   3
   6  -4 -10 3221.40 1034.28   3
   4   2 -10 3883.03 1194.53   3
   2   4 -10 3566.93 1164.21   3
   2  -6 -10 4707.56 1285.70  12
  -2  -4 -10 4534.32 1287.15  12
  -6   2 -10 4208.20 1264.90  12
  -4   6 -10 4231.72 972.229   3
   2  -6  -9 2151.98 921.909  12
  -2   6  -9 978.309 627.143   3
   4   2  -9 1865.27 947.850   3
  -4   6  -9 1718.31 704.807   9
   4  -6  -9 2757.82 1015.08   2
  -6   2  -9 1570.72 952.373   7
   2  -6  -9 1341.77 822.299   2
  -6   4  -9 1635.44 970.266   7
  -2   6  -9 735.072 546.227   5
  -6   2  -9 2326.36 951.117  12
   6  -2  -9 874.592 780.281   3
   6  -4  -9 884.724 706.017   3
   2   4  -9 2405.14 1034.11   3
  -2  -4  -9 2388.53 975.832  12
  -4  -2  -9 2271.97 954.346  12
  -6   4  -9 1110.40 616.434  12
  -4   6  -9 1608.86 648.648   3
  -4  -2  -8 12802.3 1954.68  12
  -4   6  -8 11589.7 1700.83   9
   4  -6  -8 11209.1 1748.04   2
  -2   6  -8 15963.0 1742.30   3
  -6   2  -8 11226.7 1821.13   7
   2  -6  -8 12206.3 1769.16   2
  -4   6  -8 10241.5 1317.30   3
  -6   4  -8 13585.1 2018.78   7
  -6   4  -8 15298.4 1941.66  12
   6  -2  -8 13454.5 2005.32   3
   6  -4  -8 11327.7 1615.45   3
   4   2  -8 13510.2 2094.36   3
   2   4  -8 11129.9 1761.68   3
  -4   6  -8 11438.2 1431.36   5
   2  -6  -8 10034.0 1678.49  12
  -2  -4  -8 11110.3 1842.41  12
  -6   2  -8 13392.8 2006.63  12
  -2   6  -8 11378.3 1674.67   5
   2  -6  -7 13969.5 1814.94   2
  -6   4  -7 13622.4 1842.10  12
  -6   4  -7 15133.5 1654.18   9
  -4   6  -7 13493.9 1822.94   9
  -2   6  -7 11978.1 1669.65   5
   4  -6  -7 13658.8 1851.33   2
  -6   2  -7 14987.9 2050.19   7
  -2   6  -7 13904.1 1552.25   3
  -4   6  -7 14937.9 1473.92   3
  -6   4  -7 14617.0 2043.84   7
   2  -6  -7 15517.6 1660.80   6
   6  -4  -7 11423.6 1585.22   3
   6  -2  -7 12780.4 1908.92   3
   4   2  -7 9493.50 1730.68   3
   2   4  -7 13798.3 1940.96   3
   2  -6  -7 13750.8 1845.15  12
  -4   6  -7 13593.9 1517.36   5
  -2  -4  -7 13193.6 1854.04  12
  -6   2  -7 14090.5 2057.21  12
  -4  -2  -7 14079.4 1956.90  12
  -6   2  -6 5515.09 916.201   9
  -2   6  -6 8197.93 1384.13   5
  -6   4  -6 5485.23 1023.32   9
  -4   6  -6 6610.91 1241.59   9
   6  -4  -6 8659.16 1198.47   4
   4  -6  -6 5101.32 1211.22   2
  -6   2  -6 6805.99 1386.65   7
  -6   4  -6 6048.41 1331.85   7
   2  -6  -6 5091.76 1143.46   2
   6  -4  -6 4375.08 1041.30   3
   6  -2  -6 6642.44 1419.01   3
   4   2  -6 4950.62 1315.88   3
   2  -6  -6 4681.60 936.880   6
   2   4  -6 6887.87 1362.12   3
   2  -6  -6 7602.23 1327.52  12
  -2   6  -6 6135.84 958.306   3
  -2  -4  -6 7832.41 1393.94  12
  -4   6  -6 5642.68 974.886   5
  -4  -2  -6 4234.65 1128.00  12
  -6   2  -6 4969.86 1239.86  12
   4  -6  -5 46643.1 3368.15   2
  -6   2  -5 53894.2 2887.15   9
  -6   4  -5 49056.9 3093.28   9
   2  -6  -5 47301.8 3259.11   2
  -4   6  -5 45285.2 3285.05   9
  -4   6  -5 53055.9 2967.77   5
  -2  -4  -5 51650.5 2681.65   2
   6  -4  -5 48471.9 3048.00   3
   6  -2  -5 52289.4 3636.47   3
   4   2  -5 53399.1 3854.53   3
   2   4  -5 50290.5 3467.07   3
  -2   6  -5 48819.6 2572.32   3
  -6   2  -5 44566.2 3306.29   7
   2  -6  -5 49120.4 2977.18   6
   2  -6  -5 48317.3 3147.27  12
  -2   6  -5 52180.0 3369.75   5
  -2  -4  -5 54477.8 3458.45  12
  -4  -2  -5 48451.9 3499.54  12
   2   4  -5 44272.8 3290.06   5
   6  -4  -5 46667.3 2792.87   4
  -6   2  -4 1271.96 641.685   9
  -4  -2  -4 177.301 643.818  12
  -6   4  -4 844.285 629.216   9
   6  -4  -4 495.688 537.409   4
  -4   6  -4 754.676 553.651   9
   6  -4  -4-136.384 429.072   2
   2   4  -4 113.254 505.362   5
   4  -6  -4-29.0338 502.669   2
  -6   2  -4 1420.98 775.010   7
   2  -6  -4 990.363 620.412   2
   6  -4  -4 225.549 419.499   3
   6  -2  -4 666.807 592.030   3
   4   2  -4 2271.63 1030.05   3
   2   4  -4 2963.53 972.893   3
   2  -6  -4 275.829 577.686   6
   2  -6  -4 374.756 527.728  12
  -4   6  -4 670.190 554.404   5
  -2  -4  -4-13.6862 367.891  12
  -2   6  -4 485.816 612.862   5
  -2  -4  -4 1708.03 575.197   2
  -6   2  -3 73469.9 3650.76   9
   4  -6  -3 63247.9 3882.78   2
  -6   4  -3 70017.6 3841.74   9
  -2  -4  -3 72217.0 3354.19   2
  -4   6  -3 72305.5 4160.89   9
   6  -4  -3 64429.3 3386.99   3
   6  -2  -3 63405.6 3948.11   3
   4   2  -3 64750.5 4124.65   3
   2   4  -3 70185.8 3923.87   3
  -6   2  -3 68210.3 3945.37   7
  -4   6  -3 69362.8 3403.93   5
   2  -6  -3 64458.4 3482.58   6
  -2   6  -3 70192.4 2973.36   1
  -2   6  -3 65856.9 3839.73   5
  -2  -4  -3 67118.4 3615.81  12
   2   4  -3 58832.0 3834.50   5
   4   2  -3 65788.7 3797.97   5
  -4  -2  -3 70433.8 3977.68  12
   2  -6  -3 66066.8 3832.74   2
  -2  -4  -3 69948.9 2876.42  11
  -4  -2  -3 77783.7 3057.18  10
   6  -4  -3 65272.6 3636.00   2
   6  -4  -3 68336.9 3379.36   4
  -6   2  -2 67519.4 3591.61   9
   4  -6  -2 60196.3 3728.70   2
  -6   4  -2 70632.0 3875.27   9
  -4   6  -2 65939.0 3897.32   9
  -4   6  -2 59932.7 2550.60   1
  -2  -4  -2 61769.1 3170.51   2
   6  -2  -2 61422.7 3848.32   3
   4   2  -2 64805.1 4062.10   3
   2   4  -2 65541.7 3724.16   3
  -6   2  -2 64549.1 3708.21   7
  -2   6  -2 65095.5 3013.51   1
  -4  -2  -2 61234.1 3598.34  12
   2  -6  -2 67020.3 3537.79   6
  -4   6  -2 65289.2 3285.48   5
  -2   6  -2 55706.2 3574.70   5
   2   4  -2 58065.5 3805.32   5
  -2  -4  -2 60749.8 3299.94  12
   4   2  -2 66157.3 3748.18   5
   2  -6  -2 60543.5 3633.21   2
  -2  -4  -2 69210.3 3015.77  11
  -4  -2  -2 65635.1 3012.87  10
   6  -4  -2 63431.8 3264.81   4
   6  -4  -2 61784.9 3392.55   2
   6  -2  -2 66860.4 3878.52   4
  -6   2  -1 23043.9 2105.38   9
   2  -6  -1 20580.0 1928.58  11
  -4   6  -1 20813.2 2131.55   9
  -4   6  -1 21203.5 1538.02   1
  -4  -2  -1 21926.5 2033.13  12
  -6   4  -1 21308.4 2129.18   9
   6  -2  -1 18113.5 2050.20   3
   4   2  -1 21454.6 2316.17   3
   2   4  -1 21128.1 2050.05   3
  -2   6  -1 21493.8 1725.87   1
  -6   2  -1 21846.0 2048.55   7
   2  -6  -1 19025.4 1891.09   6
  -4   6  -1 21939.2 1858.19   5
  -2   6  -1 20166.2 2087.45   5
   2   4  -1 18186.9 2129.70   5
   4  -6  -1 20318.8 2073.42   2
   4   2  -1 21542.5 2048.71   5
  -2  -4  -1 21442.5 1786.66  12
   2  -6  -1 17565.3 1928.30   2
  -4  -2  -1 23919.7 1848.21  10
   6  -4  -1 19353.2 1780.54   4
   6  -2  -1 18208.9 2045.68   4
   6  -4  -1 20842.4 1875.26   2
   2   4   0 759.390 595.181   1
  -6   2   0 63.8888 502.423   9
   6  -4   0 138.538 467.353   4
  -6   4   0 778.603 733.345   9
  -4   6   0 319.969 560.008   9
   6  -2   0 84.4542 581.600   4
   2   4   0 218.129 522.669   3
   6  -4   0 893.793 504.200   2
  -6   2   0 973.522 541.631   7
   4   2   0 106.728 626.117   3
   4  -6   0 91.7955 467.175   2
   2  -6   0 215.984 540.709   6
  -2  -4   0 172.173 707.543   6
   2  -6   0 669.972 579.890   2
  -2   6   0 626.607 548.418   5
   2   4   0 415.275 591.293   5
   4   2   0 575.038 513.768   5
  -2  -4   0 449.950 366.851  12
  -4  -2   0 175.947 377.660  12
  -2   6   0 106.317 333.418   1
   2  -6   0-101.153 533.224  11
  -4   6   0 1498.97 533.449   1
  -4  -2   0-98.3042 471.826  10
   4  -6   0 274.884 297.114   4
   6  -4   1 21270.1 1853.26   2
  -6   2   1 21347.5 2201.20   9
  -6   4   1 23663.1 2308.88   9
  -4   6   1 20680.6 1733.55   1
   4  -6   1 21081.7 2106.61   2
   2  -6   1 19673.5 2066.77   2
  -2   6   1 19534.0 1791.88   1
  -6   2   1 21807.4 1920.56   7
   2  -6   1 15726.2 1818.86   6
  -2  -4   1 20517.1 2304.78   6
   2   4   1 18409.3 2005.60   1
  -4   6   1 22303.0 2244.03   9
  -2   6   1 19537.2 2035.65   5
   2   4   1 20812.7 2212.33   5
   4   2   1 22999.5 2126.37   5
  -2  -4   1 21746.3 1612.31  12
   2  -6   1 20877.8 2042.70  11
   4  -6   1 21454.3 1552.43   4
  -4  -2   1 23464.6 2022.90  10
   6  -4   1 22645.6 1989.84   4
   6  -2   1 22864.6 1582.39   2
   6  -2   1 20932.0 2170.21   4
  -6   2   2 73039.6 4149.35   9
   6  -4   2 62995.2 3215.56   2
  -6   4   2 69759.6 4074.19   9
  -4   6   2 61297.4 3312.51   1
  -4   6   2 65616.9 3913.95   9
   4  -6   2 63492.7 3769.12   2
   2  -6   2 63252.2 3839.55   2
  -2   6   2 62457.7 3465.26   1
  -6   2   2 67215.7 3417.63   7
   6  -2   2 67988.7 3971.42   4
   2  -6   2 64182.4 3749.76   6
  -2  -4   2 69656.4 4148.28   6
   6  -2   2 66777.1 2724.09   2
  -4  -2   2 65966.4 3890.21   6
   2   4   2 62761.6 3822.57   1
  -2   6   2 65585.8 3901.19   5
   2   4   2 66624.8 4007.53   5
   4   2   2 69916.5 3774.15   5
  -2  -4   2 66110.6 2819.70  12
  -2   6   2 70885.9 3926.53   9
   2  -6   2 65213.5 3812.65  11
   4  -6   2 64646.3 3048.96   4
  -2  -4   2 67746.6 3697.61  10
  -4  -2   2 65962.1 3636.20  10
   6  -4   2 66025.3 3641.27   4
   4   2   2 72112.0 4236.75   4
  -6   2   3 72043.7 4231.02   9
  -4   6   3 63519.0 3509.65   1
  -6   4   3 70664.3 4259.87   9
  -4   6   3 72020.4 4113.91   9
   6  -4   3 66954.1 3222.01   2
  -2   6   3 75500.7 4033.90   9
   4  -6   3 66154.8 3889.50   2
   2  -6   3 63413.4 3891.80   2
  -2   6   3 68866.0 3755.74   1
   2   4   3 58242.9 3759.19   1
  -2  -4   3 68265.0 4106.28   6
  -4  -2   3 74689.7 4140.12   6
   2   4   3 67227.6 4046.28   5
   4   2   3 72931.3 3829.41   5
   4   2   3 60774.7 3880.03   1
   2  -6   3 65220.9 3898.59  11
   4  -6   3 70562.9 3371.98   4
  -2  -4   3 72393.8 3964.31  10
   6  -4   3 66462.2 3760.23   4
  -4  -2   3 69928.3 3880.18  10
   6  -2   3 72849.2 4180.15   4
  -2  -4   3 65411.0 2672.48  12
   4   2   3 70568.7 4265.46   4
   2   4   3 73211.0 3850.49   4
   4  -6   4 1086.98 576.417   4
   6  -4   4 1449.29 697.835   4
  -6   2   4 2248.30 1019.55   9
  -6   4   4-66.3785 657.633   9
   6  -2   4 806.342 772.445   4
  -4   6   4 1069.83 577.982   9
   4   2   4 1759.60 965.027   4
   2   4   4 1195.94 711.472   1
   2   4   4 598.416 524.165   4
  -2   6   4 1217.24 668.563   9
  -2   6   4 964.703 610.845   1
  -2  -4   4 1237.40 765.701   6
  -4  -2   4 915.714 594.431   6
   4   2   4 1298.29 636.909   5
   6  -4   4 1896.67 576.768   2
   2   4   4 863.348 667.208   5
   4  -6   4 2039.95 788.058   2
   4  -6   4 1431.08 767.953  11
  -4   6   4 444.327 499.602   1
   2  -6   4 1266.57 726.158   2
   2  -6   4 866.271 726.444  11
  -2  -4   4 912.358 659.072  10
   4   2   4 726.918 626.950   1
  -4  -2   4 2416.35 913.260  10
  -6   2   5 53311.7 3749.62   9
  -4   6   5 46608.4 3193.69   1
  -6   4   5 53993.9 3767.40   9
  -4   6   5 51942.3 3515.46   9
  -2   6   5 52847.1 3296.23   9
   6  -4   5 51060.5 2614.17   2
   4  -6   5 49363.5 3395.05   2
  -2   6   5 43138.1 3180.46   1
   2  -6   5 47380.4 3412.74   2
  -2  -4   5 52570.8 2668.10   8
   2  -6   5 50195.3 3494.05  11
   2   4   5 47668.4 3471.95   1
  -2  -4   5 52873.2 3640.76   6
  -4  -2   5 49992.4 3406.66   6
   4   2   5 53348.1 3653.88   1
   4  -6   5 47475.7 3428.32  11
   4  -6   5 52646.1 3177.79   4
  -2  -4   5 51588.5 3549.19  10
   6  -4   5 51552.2 3460.98   4
  -4  -2   5 44869.8 3323.09  10
   6  -2   5 51067.3 3648.97   4
   4   2   5 58427.5 3755.04   4
   2   4   5 50178.3 2998.99   4
   6  -4   6 4901.09 1259.63   4
  -6   2   6 7865.26 1598.26   9
   6  -2   6 5836.55 1282.55   4
  -6   4   6 4865.73 1259.43   9
   2   4   6 8041.80 1194.56   4
   4   2   6 7042.47 1392.98   4
  -4   6   6 4299.08 1073.84   9
  -2   6   6 5662.24 1081.11   9
  -2   6   6 6858.58 1317.72   1
  -2  -4   6 6327.66 1010.09   8
   2   4   6 3718.65 1055.12   1
  -2  -4   6 7470.68 1500.88   6
  -4  -2   6 5981.55 1308.07   6
   4   2   6 6308.75 1322.63   1
  -4   6   6 4634.84 1105.47   1
   4  -6   6 5668.72 1318.58  11
   4  -6   6 5263.63 1213.23   2
   2  -6   6 3906.13 1156.77  11
  -2  -4   6 9181.67 1518.63  10
   2  -6   6 5777.39 1246.41   2
  -4  -2   6 5831.16 1294.09  10
   4  -6   6 5783.31 1147.56   4
  -2   6   7 13440.2 1663.78   9
   6  -4   7 12707.6 1840.64   4
  -6   2   7 13634.0 2043.33   9
   6  -2   7 14551.6 2053.11   4
  -6   4   7 11174.6 1819.64   9
   4   2   7 13521.5 1829.88   4
  -4   6   7 13077.0 1782.45   9
  -2   6   7 11200.3 1701.41   1
  -2  -4   7 14342.9 1576.77   8
   2   4   7 10192.0 1703.63   1
   4   2   7 11384.1 1767.12   1
  -2  -4   7 11085.9 1772.16   6
  -4  -2   7 12286.4 1726.85   6
  -4   6   7 11605.2 1701.13   1
   4  -6   7 15953.2 1900.56   4
   4  -6   7 12538.9 1829.34  11
   2  -6   7 11371.8 1758.79  11
   4  -6   7 9603.34 1515.45   2
   2   4   7 12965.0 1472.39   4
  -2  -4   7 13745.1 1936.38  10
  -4  -2   7 12351.2 1900.21  10
   6  -4   8 11378.6 1851.78   4
  -6   2   8 13150.2 2007.14   9
   6  -2   8 15588.7 2150.84   4
  -6   4   8 14870.7 2082.49   9
   4   2   8 12621.4 1854.88   4
  -4   6   8 13574.3 1819.94   9
  -2   6   8 12939.6 1616.20   9
  -2   6   8 11648.9 1823.07   1
   2   4   8 12238.2 1886.47   1
   4   2   8 14218.6 1998.27   1
  -2  -4   8 16766.0 1805.00   8
  -4   6   8 11967.6 1786.83   1
   4  -6   8 12814.1 1892.75  11
   2  -6   8 13907.8 1952.56  11
  -2  -4   8 13416.6 1946.90  10
  -4  -2   8 12342.2 1915.74  10
   4  -6   8 12601.1 1810.75   4
   6  -4   9 1692.87 1021.64   4
   6  -2   9 1752.00 880.329   4
  -6   2   9 1908.18 973.665   9
   4   2   9 1133.98 687.475   4
  -6   4   9 2029.74 1155.09   9
   4   2   9 2548.36 1016.67   1
  -4   6   9 2796.26 955.946   9
  -2  -4   9 185.433 617.673  10
   2   4   9 2184.35 923.319   1
  -2   6   9 2673.58 987.934   1
  -2  -4   9 2429.64 833.036   8
   4  -6   9 1035.54 751.560   4
   4  -6   9 1425.56 837.108  11
  -4   6   9 931.460 648.777   1
   2  -6   9 1367.15 834.299  11
  -4  -2   9 1431.16 829.195  10
  -6   2  10 5535.84 1508.94  10
   4   2  10 3559.19 1098.35   1
   6  -4  10 5199.28 1436.93   4
   6  -2  10 1378.90 933.980   4
   4   2  10 6652.75 1395.62   4
  -6   2  10 4602.11 1381.05   9
  -6   4  10 4169.54 1328.85   9
   2   4  10 2933.51 1094.93   1
  -4   6  10 3422.91 1022.73   9
   4  -6  10 3749.51 1112.62  11
  -2   6  10 2887.90 1046.86   1
  -2  -4  10 5632.16 1266.97   8
   4  -6  10 4098.41 1185.04   4
   2  -6  10 4762.81 1314.46  11
  -4   6  10 3582.95 1175.85   1
  -2  -4  10 5656.01 1485.68  10
  -4  -2  10 5360.27 1442.86  10
   4   2  11 4856.36 1280.00   1
   6  -4  11 7971.17 1726.45   4
   6  -2  11 6387.53 1566.08   4
   4   2  11 7869.27 1545.95   4
  -6   2  11 4392.17 1382.36   9
   2   4  11 7203.98 1593.03   1
  -6   4  11 6449.09 1551.09   9
  -2   6  11 6401.59 1502.65   1
  -2  -4  11 7683.30 1516.62   8
   4  -6  11 5709.85 1429.88  11
   2  -6  11 7554.91 1691.16  11
  -2  -4  11 5047.65 1416.80  10
  -4   6  11 7310.47 1526.69   1
  -4  -2  11 4562.42 1312.78  10
  -6   2  11 7200.97 1667.31  10
  -6   2  12 695.107 864.899   9
   6  -4  12 122.676 566.774   4
   4   2  12 1853.21 846.135   4
   2   4  12 579.933 826.458   1
  -6   4  12-107.153 736.241   9
   4  -6  12 1141.04 778.920  11
  -2   6  12 1116.17 798.178   1
  -2  -4  12 643.761 713.957   8
   6  -2  12 2570.10 1225.95   4
  -4   6  12 1896.96 1051.58   1
   2  -6  12 1318.65 980.321  11
  -4  -2  12 219.793 776.167  10
   4   2  12 785.229 773.216   1
  -6   2  12 1331.49 997.350  10
  -6   4  13 6070.68 1589.87  10
   6  -4  13 6500.01 1695.98   4
   6  -2  13 8416.00 1923.35   4
  -6   4  13 4596.94 1417.18   9
   2   4  13 7850.12 1846.76   1
  -2   6  13 5496.82 1441.15   1
  -2  -4  13 6977.16 1592.46   8
  -4  -2  13 4175.76 1177.77   8
   4  -6  13 6052.61 1502.52  11
   2  -6  13 6494.92 1547.24  11
   4   2  13 7406.03 1623.76   1
  -4  -2  13 6356.09 1632.31  10
  -4   6  13 4014.18 1262.87   1
  -6   2  13 3551.67 1293.38  10
   2   4  14 1162.04 786.136   1
  -2  -4  14-86.4343 705.324   8
  -4  -2  14 1774.29 1031.97   8
   4  -6  14 1418.74 1005.22  11
   2  -6  14 1387.93 943.244  11
   4   2  14 771.734 679.485   1
  -6   2  14 786.499 991.997  10
  -6   4  14 704.165 1017.05  10
  -6   5 -14 9.17279 655.973   7
  -1   6 -14 20.7360 570.794   3
   1   5 -13 4585.77 1396.67   3
  -6   1 -13 4153.82 1496.47  12
   6  -5 -13 3348.84 1228.81   2
   5  -6 -13 4961.75 1425.48   2
  -6   5 -13 2227.30 1096.41   7
   6  -1 -13 7013.94 1808.68   3
   5   1 -13 4384.33 1564.11   3
   1  -6 -13 6209.67 1632.67  12
  -1  -5 -13 3684.72 1257.23  12
  -1   6 -13 3858.01 1254.03   3
  -5  -1 -13 4896.16 1586.93  12
  -5   6 -13 3914.71 1190.72   3
   6  -5 -12 2681.91 1095.15   2
   5  -6 -12 1858.19 959.584   2
  -6   1 -12 862.547 978.085   7
  -6   5 -12 4987.39 1599.33   7
  -5   6 -12-20.1222 527.923   7
  -1   6 -12 1071.62 824.873   3
   6  -1 -12 875.434 937.765   3
   5   1 -12-63.7171 860.823   3
   1   5 -12-22.5319 702.778   3
   1  -6 -12 2595.32 1111.63  12
  -1  -5 -12 3418.35 1246.73  12
  -5  -1 -12 1816.60 981.542  12
  -6   1 -12 2141.56 964.183  12
  -5   6 -12 119.513 379.171   3
   1  -6 -11 12693.0 2146.21  12
   6  -5 -11 9181.74 1816.11   2
   5  -6 -11 10658.4 1943.26   2
  -6   1 -11 12156.6 2100.26   7
  -6   1 -11 9391.85 1921.30  12
  -6   5 -11 10439.9 1985.33   7
  -5   6 -11 12456.3 2026.25   7
   6  -1 -11 9660.46 1948.13   3
  -1  -5 -11 11940.6 2085.98  12
   1   5 -11 9425.32 1815.65   3
   5   1 -11 14019.3 2334.35   3
  -1   6 -11 10969.1 1798.88   3
  -5  -1 -11 9280.86 1917.65  12
  -5   6 -11 10063.1 1591.25   3
  -5  -1 -10 11843.6 2032.05  12
  -5   6 -10 8096.97 1437.65   9
   6  -5 -10 8809.58 1733.07   2
   5  -6 -10 7583.86 1546.32   2
  -6   1 -10 8824.91 1825.43   7
  -6   5 -10 9317.87 1795.08   7
  -5   6 -10 10440.0 1836.12   7
   1  -6 -10 8746.20 1494.91   2
   6  -1 -10 11230.3 2086.03   3
   5   1 -10 9149.59 1947.73   3
   1   5 -10 9608.70 1734.36   3
   1  -6 -10 10559.2 1875.61  12
  -1   6 -10 8387.02 1466.29   3
  -1  -5 -10 12665.6 2035.98  12
  -6   1 -10 5576.47 1467.58  12
  -5   6  -9 770.364 520.715   9
   6  -5  -9 1010.06 778.900   2
   5  -6  -9 649.815 680.497   2
  -6   1  -9 1193.94 937.937   7
  -6   5  -9-140.097 562.282   7
   1  -6  -9 1146.93 613.138   2
   6  -1  -9-222.645 627.000   3
   5   1  -9 1772.35 1020.33   3
   1   5  -9 1382.75 830.721   3
   1  -6  -9 1026.60 730.236  12
  -1   6  -9 331.031 517.321   3
  -1  -5  -9 926.738 754.434  12
  -5  -1  -9 625.001 744.866  12
  -6   5  -9 1286.61 675.111  12
  -1   6  -9 1930.91 848.166   5
  -6   1  -9 499.429 851.416  12
  -6   5  -8 9889.34 1444.84   9
  -5   6  -8 8326.66 1420.35   9
   6  -5  -8 9934.82 1688.09   2
   5  -6  -8 8720.49 1624.56   2
  -6   1  -8 9979.20 1803.49   7
  -6   5  -8 8291.89 1698.55   7
  -6   5  -8 10830.0 1554.15  12
   1  -6  -8 8929.97 1440.31   2
   6  -1  -8 8420.75 1688.61   3
   5   1  -8 11425.1 2029.21   3
   1   5  -8 7017.01 1405.40   3
  -1   6  -8 8875.25 1396.77   3
   1  -6  -8 10131.9 1664.12  12
  -6   1  -8 9282.99 1764.92  12
  -1  -5  -8 9766.71 1633.06  12
  -5  -1  -8 8788.32 1680.58  12
  -1   6  -8 9789.25 1660.95   5
  -1   6  -7 3478.75 1082.37   5
  -6   5  -7 2830.46 849.950   9
  -5   6  -7 2712.32 911.046   9
  -5  -1  -7 3601.05 1120.01  12
   6  -5  -7 3034.47 1045.84   2
   5  -6  -7 3825.53 1071.17   2
  -6   1  -7 5808.80 1340.89   7
   1  -6  -7 3416.81 909.085   2
   6  -1  -7 4826.83 1364.25   3
   5   1  -7 3168.09 1177.10   3
   1   5  -7 4130.91 1058.24   3
  -1  -5  -7 4264.48 887.117   2
  -1   6  -7 4240.27 953.450   3
   1  -6  -7 3774.02 1065.08  12
  -1  -5  -7 2940.74 925.091  12
  -6   1  -7 3301.02 1109.47  12
  -6   5  -7 3788.44 961.354  12
   1   5  -7 2152.98 974.175   5
  -6   5  -6 4657.34 1033.88   9
   1  -6  -6 7775.63 1336.06  12
  -5   6  -6 7523.79 1401.36   9
   1   5  -6 7140.69 1460.17   5
   6  -5  -6 6510.82 1319.78   2
   5  -6  -6 6009.43 1323.43   2
  -6   1  -6 8867.16 1607.66   7
   1  -6  -6 7828.85 1312.48   2
   6  -1  -6 9297.28 1733.31   3
   5   1  -6 9081.03 1742.04   3
   1   5  -6 7929.89 1430.33   3
  -1   6  -6 7016.57 1111.75   3
  -1  -5  -6 6879.49 1125.41   2
  -1  -5  -6 4382.08 1066.25  12
  -1   6  -6 7494.50 1413.35   5
  -6   1  -6 8082.57 1563.43  12
  -5  -1  -6 8084.47 1525.33  12
  -6   1  -5 54616.4 2862.29   9
  -6   5  -5 60861.8 3676.22   9
  -5   6  -5 52140.3 3551.41   9
   1  -6  -5 48190.2 3268.23   2
  -1  -5  -5 55096.1 3166.79   2
   6  -5  -5 49409.0 2755.66   3
   6  -1  -5 52342.5 3860.65   3
   5   1  -5 50190.9 3923.63   3
   1   5  -5 59439.2 3589.12   3
  -1   6  -5 51060.9 2878.24   3
  -6   1  -5 53330.1 3669.17   7
   1  -6  -5 52608.6 3340.84   6
   1  -6  -5 50184.9 3216.61  12
  -1  -5  -5 48593.8 3303.78  12
  -1   6  -5 45163.0 3375.12   5
   1   5  -5 49805.4 3644.64   5
  -5  -1  -5 50184.6 3689.70  12
  -6   1  -5 52810.0 3929.55  12
   5  -6  -5 43113.9 3298.19   2
   6  -5  -5 43838.4 3264.80   2
  -6   1  -4 2126.32 682.049   9
   6  -5  -4 1205.75 473.347   4
  -6   5  -4 2262.85 858.664   9
  -5   6  -4 2795.65 992.758   9
   6  -5  -4 2022.19 749.428   2
  -5  -1  -4 2737.22 923.888   7
   5  -6  -4 4186.21 1152.89   2
  -6   1  -4 2263.66 905.290   7
  -5  -1  -4 2236.40 954.275  12
   6  -5  -4 1684.32 548.930   3
   6  -1  -4 632.528 629.210   3
   5   1  -4 2632.31 1052.37   3
   1   5  -4 1295.58 681.807   3
   1  -6  -4 2397.80 739.644   2
   1  -6  -4 3202.60 996.771   6
  -1   6  -4 1424.24 502.187   3
   1  -6  -4 2163.48 687.040  12
  -1  -5  -4 632.628 521.035  12
  -1  -5  -4 2192.68 660.604   2
   1   5  -4 1904.22 886.806   5
  -1   6  -4 842.342 612.540   5
  -6   1  -3 36788.2 2504.57   9
   5  -6  -3 29317.1 2617.93   2
  -6   5  -3 33116.3 2688.65   9
  -5   6  -3 34689.9 2849.03   9
   1  -6  -3 28404.3 2474.37   2
  -1  -5  -3 30699.8 2351.84   2
  -5  -1  -3 33710.0 2839.45  12
   6  -1  -3 29755.3 2844.73   3
   5   1  -3 33598.2 3054.95   3
   1   5  -3 33135.5 2508.53   3
  -5  -1  -3 31510.9 2665.99   7
  -6   1  -3 32403.8 2676.17   7
   1  -6  -3 29504.8 2492.89   6
  -1   6  -3 33615.9 2215.80   1
   1  -6  -3 33028.5 2310.59  12
  -1   6  -3 33169.3 2808.41   5
  -1  -5  -3 32096.3 2374.23  12
   1   5  -3 32817.2 2885.83   5
  -1  -5  -3 34082.9 2088.06  11
  -5  -1  -3 32760.7 2107.63  10
   6  -5  -3 32781.2 2091.09   4
   6  -5  -3 25223.1 2318.73   2
  -6   1  -2 16123.4 1721.89   9
  -5   6  -2 15436.1 1247.44   1
   5  -6  -2 17582.9 2001.92   2
  -6   5  -2 16813.0 1947.48   9
  -5   6  -2 18303.4 2055.49   9
   1  -6  -2 13069.9 1688.17   2
  -1  -5  -2 12850.3 1516.36   2
   6  -1  -2 17519.4 2170.31   3
   5   1  -2 18216.1 2289.31   3
   1   5  -2 15551.0 1673.48   3
  -5  -1  -2 14443.2 1751.09   7
  -6   1  -2 16872.7 1864.41   7
   1  -6  -2 14127.3 1814.73   6
  -1  -5  -2 18047.3 2077.87   6
  -1   6  -2 15173.5 1526.96   1
   1  -6  -2 16132.4 1506.02  12
  -1   6  -2 17414.4 2055.04   5
   1   5  -2 15081.7 1980.73   5
  -1  -5  -2 16145.0 1569.15  12
   5   1  -2 16591.5 1748.26   5
  -5  -1  -2 13122.2 1750.26  12
   1  -6  -2 17126.0 1716.00  11
  -1  -5  -2 20266.4 1658.52  11
  -5  -1  -2 20361.1 1719.36  10
   6  -5  -2 16021.4 1486.16   4
   6  -5  -2 14817.9 1709.40   2
   6  -5  -1 21411.6 2038.27   2
  -5   6  -1 19727.0 1538.22   1
  -6   1  -1 19119.5 1943.69   9
   5  -6  -1 14885.5 1826.73   2
  -6   5  -1 18503.2 2072.59   9
  -5   6  -1 16844.2 2000.20   9
   1  -6  -1 15740.0 1871.89   2
  -1  -5  -1 16043.4 1721.30   2
   6  -1  -1 17898.5 2156.74   3
   1   5  -1 17271.0 1742.23   3
   5   1  -1 18987.9 2296.98   3
  -5  -1  -1 18285.3 1849.20   7
  -6   1  -1 19966.6 1945.87   7
  -1   6  -1 17500.3 1717.91   1
   1  -6  -1 18741.5 2001.00   6
  -1  -5  -1 17728.2 2089.94   6
   1   5  -1 16103.9 1808.42   1
   1  -6  -1 17285.3 1480.17  12
  -1   6  -1 21321.7 2224.46   5
   1   5  -1 18849.1 2191.10   5
  -1  -5  -1 18283.2 1584.04  12
   5   1  -1 17139.9 1764.11   5
   6  -1  -1 18610.8 1501.43   5
   1  -6  -1 18226.7 1805.17  11
  -1  -5  -1 19416.4 1701.04  11
   5  -6  -1 18661.4 1307.51   4
   6  -5  -1 18515.2 1658.21   4
  -5  -1  -1 16515.4 1680.79  10
   6  -1  -1 17666.1 2140.82   4
   5  -6   0 2531.13 560.359   4
  -6   1   0 3331.57 886.485   9
   6  -5   0 2790.34 747.534   4
  -6   5   0 2623.13 912.440   9
  -5   6   0 1583.69 712.103   9
   6  -1   0 2963.23 1024.92   4
   1  -6   0 4002.73 1019.67  11
  -1   6   0 2790.43 803.762   1
   6  -5   0 2643.22 777.859   2
  -6   1   0 1442.93 614.898   7
   5  -6   0 3475.00 980.389   2
   1   5   0 1884.37 693.071   1
   1  -6   0 2545.17 869.780   6
  -1  -5   0 3980.10 1208.65   6
  -1   6   0 4107.29 1069.13   5
   1   5   0 1998.67 876.394   5
  -1  -5   0 2211.63 565.245  12
   5   1   0 2600.97 723.469   5
   1  -6   0 2451.99 844.417   2
  -1  -5   0 1418.46 621.859  11
  -1  -5   0 1502.16 671.236   2
  -5   6   0 3939.77 746.654   1
  -5  -1   0 2251.95 750.029  10
  -6   1   1 19271.2 2074.19   9
   6  -5   1 21163.1 1971.02   2
  -6   5   1 18470.4 2072.79   9
  -5   6   1 15702.0 2000.31   9
   5  -6   1 21422.6 2135.10   2
   1  -6   1 15778.0 1881.84   2
  -1  -5   1 15342.2 1786.65   2
  -1   6   1 18693.1 1881.34   1
  -6   1   1 19429.0 1814.08   7
   1  -6   1 20940.2 2181.45   6
  -1  -5   1 18936.7 2192.47   6
   1   5   1 18934.7 2019.83   1
  -1   6   1 19790.9 2187.58   5
   1   5   1 17956.8 2175.50   5
   5   1   1 18316.6 1756.80   5
  -1  -5   1 19260.3 1372.16  12
   1  -6   1 26021.4 2249.54  11
  -1  -5   1 17910.8 1804.65  11
   5  -6   1 18785.7 1547.69   4
   6  -5   1 20638.6 1841.22   4
  -5  -1   1 19987.2 1982.06  10
   6  -1   1 22031.4 2388.91   4
   5   1   1 18400.9 2192.42   4
  -6   1   2 20246.5 2191.11   9
  -6   5   2 19312.9 2177.16   9
  -5   6   2 18869.1 2171.63   9
   6  -5   2 20155.0 1919.17   2
   5  -6   2 15052.4 1832.71   2
   1  -6   2 14790.5 1867.26   2
  -1   6   2 18200.5 1913.21   1
  -6   1   2 18364.4 1706.77   7
   1   5   2 18493.7 2023.85   1
   1  -6   2 16214.3 1993.42   6
  -1  -5   2 20265.1 2256.99   6
  -1   6   2 20374.9 2243.77   5
   1   5   2 17625.4 2103.19   5
   5   1   2 17800.6 1740.10   5
   1  -6   2 18159.3 1942.92  11
  -1  -5   2 16923.6 1824.45  11
   5  -6   2 16477.4 1561.17   4
   6  -5   2 17927.0 1826.80   4
  -5  -1   2 16044.8 1890.52  10
   6  -1   2 21545.4 2336.67   4
   5   1   2 23237.4 2447.11   4
  -6   1   3 35998.3 2964.78   9
  -6   5   3 34205.7 2969.46   9
  -5   6   3 33327.7 2871.31   9
   6  -5   3 33417.5 2451.55   2
   5  -6   3 33833.4 2727.97   2
   1  -6   3 30546.2 2685.72   2
  -1   6   3 33372.2 2681.84   1
  -6   1   3 30594.2 2133.50   7
   1   5   3 32498.5 2776.73   1
   1  -6   3 33541.5 2877.33   6
  -1  -5   3 34794.5 3006.57   6
  -5  -1   3 39759.4 2881.23   6
   5   1   3 35598.4 2393.83   5
   1   5   3 32431.5 2856.57   5
   1  -6   3 32884.0 2692.79  11
   5  -6   3 35624.7 2437.59   4
   6  -5   3 33820.8 2543.38   4
  -5  -1   3 32093.3 2713.41  10
   6  -1   3 34530.3 2993.79   4
   5   1   3 30469.9 2872.03   4
   1   5   3 42076.9 2595.37   4
   5  -6   4 2444.81 753.115   4
   6  -5   4 1221.66 631.157   4
  -6   1   4 1896.29 829.100   9
  -6   5   4 1502.70 844.879   9
   6  -1   4 1754.97 925.229   4
  -5   6   4 3300.59 996.203   9
   5   1   4 3949.09 1182.40   4
   1   5   4 1768.57 588.714   4
  -1   6   4 2012.08 727.573   9
   1   5   4 2140.52 860.920   1
  -6   1   4 2107.86 577.870   7
   1  -6   4 1340.58 794.957   6
  -1  -5   4 2176.86 1084.83   6
  -5  -1   4 1480.48 776.810   6
  -6   1   4 2306.96 719.104   6
   1   5   4 1382.56 768.624   5
   6  -5   4 2666.20 740.719   2
  -1   6   4 2492.50 807.161   1
   5  -6   4 1464.84 667.299   2
   1  -6   4 3405.83 1011.44  11
   1  -6   4 1124.42 704.009   2
  -5  -1   4 2802.12 1032.44  10
  -6   1   5 59352.5 4049.55   9
  -6   5   5 53531.5 3843.74   9
  -5   6   5 56919.7 3841.17   9
  -1   6   5 51788.5 3261.24   9
   6  -5   5 55386.5 3162.15   2
   5  -6   5 50593.7 3408.92   2
   1  -6   5 49478.3 3592.00   2
  -1   6   5 46250.3 3407.37   1
   1   5   5 44112.7 3443.96   1
  -1  -5   5 50491.4 3743.01   6
  -5  -1   5 53523.2 3412.41   6
   5   1   5 55025.8 3882.72   4
   1  -6   5 50024.5 3553.24  11
   6  -5   5 52718.1 3472.05   4
  -5  -1   5 57514.6 3806.32  10
   6  -1   5 51014.5 3773.56   4
   5  -6   5 53771.2 3326.39   4
   5  -6   6 7207.48 1314.03   4
   6  -5   6 5974.14 1272.70   4
   1   5   6 4851.21 1217.61   1
  -6   1   6 6622.10 1468.62   9
   6  -1   6 6188.40 1363.06   4
  -6   5   6 4920.42 1269.12   9
   5   1   6 8026.32 1576.65   4
  -5   6   6 6068.74 1311.07   9
  -1   6   6 8466.46 1263.77   9
  -1  -5   6 8471.71 1173.64   8
   5   1   6 7956.60 1502.47   1
  -1  -5   6 5284.49 1376.13   6
  -1   6   6 3652.65 1040.86   1
  -5  -1   6 5025.95 1061.70   6
   6  -5   6 8180.06 1174.18   2
   5  -6   6 6291.21 1181.71   2
   1  -6   6 6892.57 1383.25  11
  -5  -1   6 5944.62 1367.20  10
   5  -6   7 2425.97 935.113   4
   6  -5   7 6068.40 1311.83   4
  -6   1   7 4298.71 1220.47   9
   6  -1   7 2731.71 1046.16   4
   5   1   7 4919.22 1301.99   4
  -6   5   7 3583.49 1153.13   9
   5  -6   7 2394.89 808.685   2
  -5   6   7 4455.66 1148.11   9
  -1   6   7 4018.27 894.364   9
  -1  -5   7 3215.22 775.564   8
   5   1   7 2889.18 953.702   1
  -1   6   7 2888.48 932.275   1
  -5  -1   7 2824.07 846.681   6
   1   5   7 3482.69 1128.47   1
   1  -6   7 3217.44 1035.22  11
  -5  -1   7 1894.53 1058.32  10
  -5   6   7 2420.78 893.526   1
  -6   1   8 15210.9 2170.85  10
   5  -6   8 14106.6 1931.46   4
   1   5   8 11410.0 1908.91   1
   6  -5   8 9323.02 1650.03   4
  -6   1   8 13528.6 2094.85   9
   6  -1   8 14128.6 2109.41   4
   5   1   8 12407.9 1946.40   4
  -6   5   8 13804.3 2065.77   9
  -5   6   8 12500.1 1887.13   9
   5  -6   8 13581.4 1749.36   2
  -1  -5   8 10274.5 1463.04   8
  -1   6   8 14560.3 2055.56   1
  -5   6   8 8426.41 1570.23   1
   5   1   8 9994.72 1684.26   1
   1  -6   8 10516.6 1766.58  11
  -5  -1   8 13600.5 2011.49  10
  -6   1   9 607.476 739.263   9
   5  -6   9 1145.49 732.841   4
   6  -5   9 1003.66 796.264   4
   6  -1   9-92.1527 729.148   4
   5   1   9 555.262 753.965   4
  -6   5   9 1371.52 809.366   9
  -5   6   9 971.872 795.677   9
  -1  -5   9 2323.52 881.335   8
   5   1   9 648.147 555.356   1
  -1   6   9 3189.37 1128.24   1
  -5   6   9 730.225 591.012   1
   1  -6   9 1028.28 718.987  11
   1   5   9 1245.10 924.127   1
  -5  -1   9 437.026 601.893  10
  -6   1   9 2962.54 1146.24  10
   5  -6  10 7948.17 1564.79   4
   5   1  10 10178.1 1716.64   1
   6  -5  10 9956.68 1795.11   4
   6  -1  10 10176.3 1987.42   4
  -6   5  10 10349.2 1926.71   9
  -5   6  10 9481.40 1723.41   9
  -1  -5  10 9124.60 1582.70   8
  -1   6  10 8111.48 1665.58   1
  -5   6  10 5980.92 1421.29   1
   5   1  10 7668.05 1679.76   4
   1  -6  10 9928.80 1808.18  11
   1   5  10 9380.75 1831.69   1
  -5  -1  10 11247.7 1925.23  10
  -6   1  10 9401.10 1852.70  10
   5  -6  11 12643.4 2050.36   4
   6  -5  11 10519.0 1947.36   4
   6  -1  11 12539.9 2134.71   4
   5   1  11 11122.0 1951.76   4
  -6   5  11 10209.1 1886.06   9
  -5   6  11 13821.6 2086.32   9
  -1  -5  11 9167.41 1632.87   8
  -1   6  11 10682.1 1958.86   1
  -5   6  11 12336.6 2015.94   1
   5  -6  11 12371.5 1951.07  11
   1  -6  11 11236.1 1980.64  11
   1   5  11 9161.01 1833.18   1
   5   1  11 10049.9 1775.31   1
  -5  -1  11 12257.0 2127.28  10
  -6   1  11 8993.83 1863.67  10
   6  -5  12 2064.00 1115.02   4
   6  -1  12 1367.90 919.079   4
   5   1  12 521.889 746.287   4
  -6   5  12 516.950 748.231   9
   1  -6  12-276.781 685.778   8
  -1  -5  12-70.4824 631.984   8
  -1   6  12 1419.25 935.853   1
  -5   6  12 1599.84 902.640   1
   5   1  12 1950.52 870.821   1
   1  -6  12 1947.29 1036.00  11
   1   5  12 2837.23 1127.45   1
  -5  -1  12 204.023 962.267  10
  -6   1  12 1382.80 1144.03  10
   5  -6  12 2450.59 1098.05   4
   6  -5  13 4037.10 1402.78   4
   6  -1  13 7933.49 1768.23   4
   5   1  13 5701.65 1584.96   4
  -6   5  13 3054.15 1178.61   9
   1  -6  13 4288.11 1390.93   8
  -1  -5  13 5716.78 1460.17   8
  -1   6  13 3813.78 1336.63   1
  -5   6  13 5573.93 1490.90   1
   1  -6  13 5311.79 1427.42  11
   1   5  13 4181.69 1423.29   1
  -5  -1  13 4152.95 1408.16  10
  -6   1  13 5312.07 1522.91  10
   5  -6  13 5385.77 1456.08   4
   5   1  14 567.769 765.608   4
   1  -6  14 1877.45 1091.14   8
  -1  -5  14 198.489 670.812   8
  -6   6 -13-799.276 789.097   7
   0   6 -13 484.090 722.373   3
   6  -6 -12 5113.21 1429.16   2
  -6   6 -12 3931.24 1293.09   7
   6   0 -12 4358.81 1455.45   3
   0   6 -12 3554.73 1258.39   3
   0  -6 -12 8398.14 1840.04  12
  -6   0 -12 3353.04 1332.90  12
   0  -6 -11-30.4393 657.730  12
   6  -6 -11 185.218 663.397   2
  -6   6 -11 267.456 680.098   7
   6   0 -11 235.816 686.036   3
   0   6 -11 726.186 594.236   3
  -6   0 -11 178.683 799.096  12
   0   6 -10 8093.50 1562.70   3
  -6   0 -10 5774.49 1558.22  12
   6  -6 -10 3829.77 1179.62   2
  -6   6 -10 4052.65 1307.81   7
   0   6 -10 5510.71 1378.11   5
   6   0 -10 5359.29 1586.47   3
   0  -6 -10 7478.69 1605.89  12
  -6   6  -9 1226.49 581.166   9
   6  -6  -9 4350.05 1333.17   2
  -6   0  -9 2003.93 1006.56   7
  -6   6  -9 909.725 751.357   7
   6   0  -9 3319.18 1352.21   3
   0   6  -9 1517.88 771.062   3
   0  -6  -9 553.502 588.027  12
  -6   0  -9 3330.89 1128.68  12
   0   6  -9 634.447 644.285   5
  -6   6  -8 38304.1 3097.03   9
   0  -6  -8 34484.3 2771.03   2
   6   0  -8 28852.3 3244.91   3
   0   6  -8 31255.0 2760.78   3
  -6   0  -8 29406.1 3075.04   7
   0  -6  -8 31550.7 2993.82  12
   0   6  -8 37508.2 3365.27   5
  -6   0  -8 32983.2 3416.74  12
   6  -6  -8 27992.2 2928.06   2
  -6   6  -7 364.872 444.999   9
   6  -6  -7 1202.56 743.009   2
  -6   0  -7 943.380 678.401   7
   0  -6  -7 414.470 496.270   2
   0   6  -7 263.043 517.921   3
   0  -6  -7 1144.39 686.058  12
  -6   0  -7 1906.07 922.053  12
   0   6  -7 494.998 631.719   5
  -6   6  -6 13996.5 1888.40   9
   0  -6  -6 13051.4 1695.21   2
   6  -6  -6 12829.7 1871.17   2
  -6   0  -6 12461.8 1938.96   7
   6   0  -6 12501.9 2030.52   3
   0   6  -6 8793.05 1388.01   3
  -6   0  -6 15876.9 2221.98  12
   0  -6  -6 12554.8 1731.20  12
   0   6  -6 9673.71 1722.59   5
  -6   6  -5 2136.91 870.200   9
   6  -6  -5 2096.96 848.104   2
  -6   0  -5 1973.09 812.207   7
   6   0  -5 2292.60 1139.44   3
   0   6  -5 3289.86 865.060   3
   0  -6  -5 2618.41 832.494   2
   0  -6  -5 994.323 499.664  12
   0   6  -5 1945.00 852.088   5
  -6   0  -5 2898.33 1087.77  12
   0  -6  -4 11383.3 1583.00   2
  -6   6  -4 10519.8 1651.57   9
   0   6  -4 11097.6 1403.73   3
   6  -6  -4 9845.21 1547.96   2
  -6   0  -4 12587.3 1785.51   7
   6   0  -4 10711.7 1900.85   3
   0  -6  -4 11498.3 1710.63   6
   0  -6  -4 11100.3 1496.09  12
   0   6  -4 14142.1 1975.32   5
  -6   0  -4 11870.4 1866.81  12
  -6   6  -3 2235.15 935.890   9
   6  -6  -3 1334.12 598.048   2
  -6   0  -3 1934.79 784.762   7
   6   0  -3 1373.32 805.161   3
   0   6  -3 1780.89 703.204   3
   0  -6  -3 1266.95 759.789   6
   0  -6  -3 1168.88 599.560   2
   0  -6  -3 2316.01 680.540  12
   0   6  -3 786.549 677.514   5
  -6   0  -3 1923.04 843.869  12
   0  -6  -3 1788.96 588.908  11
   6  -6  -2 24938.6 2421.21   2
  -6   6  -2 29116.4 2714.82   9
   0  -6  -2 22019.6 2257.95   2
   6   0  -2 29634.9 2974.71   3
   0   6  -2 28034.6 2063.77   3
  -6   0  -2 27992.4 2492.01   7
   0  -6  -2 24581.1 2445.77   6
   0   6  -2 27059.8 2264.63   1
   0  -6  -2 29352.0 2113.72  12
   0   6  -2 26969.8 2718.81   5
   6   0  -2 27159.3 2167.92   5
   0  -6  -2 27692.8 2159.29  11
  -6   0  -1 1962.13 759.152   9
   6  -6  -1 1163.97 492.402   4
  -6   6  -1 1224.43 774.278   9
  -6   0  -1 1952.20 750.243   7
   6  -6  -1 1420.14 738.278   2
   6   0  -1 702.198 731.857   3
   0  -6  -1 1565.16 832.997   6
   0   6  -1 1310.79 679.667   1
   0   6  -1 407.097 637.423   5
   0  -6  -1 1212.80 460.198  12
   6   0  -1 870.711 486.610   5
   0  -6  -1 1225.72 696.680   2
   0  -6  -1 1586.05 685.515  11
  -6   0   0 128338. 5689.70   9
   6  -6   0 115228. 5450.21   2
  -6   6   0 125549. 5957.91   9
   0  -6   0 117825. 5512.49   2
  -6   0   0 117737. 5189.03   7
   0  -6   0 118370. 5728.43   6
   0   6   0 123495. 5456.57   1
   0   6   0 129585. 6217.04   5
   6   0   0 120791. 4718.42   5
   0  -6   0 120737. 5188.95  11
   6  -6   0 123777. 4617.26   4
   6   0   0 131228. 6336.08   4
  -6   0   1 832.310 651.889   9
   6  -6   1 1413.75 568.780   4
  -6   6   1 573.075 777.791   9
   6   0   1 2791.06 1152.69   4
  -6   0   1 1398.82 614.937   7
   6  -6   1 2431.76 852.572   2
   0  -6   1 449.567 725.950   6
   0   6   1 2126.65 819.310   1
   0   6   1 2274.19 928.164   5
   0  -6   1 1172.94 673.052   2
   0  -6   1 2895.61 923.755  11
  -6   0   2 30415.3 2767.76   9
  -6   6   2 22703.3 2426.57   9
   6  -6   2 27124.8 2416.21   2
   0  -6   2 22392.6 2330.15   2
  -6   0   2 23261.8 1946.34   7
   0   6   2 23409.3 2347.45   1
   0  -6   2 25454.1 2589.82   6
   0   6   2 21223.2 2428.40   5
   0  -6   2 25753.4 2358.91  11
   6  -6   2 27509.6 2179.02   4
   6   0   2 25658.1 2738.94   4
  -6   0   3 264.132 509.467   9
   6  -6   3 1334.39 632.470   4
  -6   6   3 557.284 627.820   9
   6   0   3 1902.24 1009.53   4
   0   6   3 2473.40 891.071   1
   0  -6   3 1874.10 914.497   6
  -6   0   3 1843.23 828.683   6
   6  -6   3 1303.94 705.423   2
   0   6   3 1563.46 885.730   5
   0  -6   3 1476.57 796.879  11
   0  -6   3 860.327 634.808   2
  -6   6   4 15512.8 2097.01   9
   6  -6   4 10560.9 1483.48   4
   0   6   4 10923.7 1675.73   1
   6  -6   4 12570.2 1673.69   2
   6   0   4 15055.8 2135.45   4
   0  -6   4 11111.1 1818.82   6
  -6   0   4 11172.8 1531.61   6
   0  -6   4 11237.4 1697.23  11
  -6   0   4 16415.5 2085.26  10
   0   6   5 2053.43 816.859   1
   6  -6   5 2067.56 787.536   4
   6  -6   5 2955.17 858.805   2
  -6   6   5 3124.16 1087.64   9
   6   0   5 3227.35 1140.96   4
   0   6   5 2542.61 765.630   9
   0  -6   5 847.660 817.449   6
  -6   0   5 1234.45 646.936   6
   0  -6   5 3222.87 1017.12  11
  -6   0   5 1608.52 929.194  10
   0   6   6 13627.2 1623.91   9
   6   0   6 14295.4 2130.34   4
  -6   6   6 13719.7 2016.44   9
   6  -6   6 12710.3 1632.55   2
   6  -6   6 12832.2 1794.86   4
   0  -6   6 13016.4 1883.81  11
   0   6   6 9958.07 1706.46   1
  -6   0   6 14330.7 2089.20  10
   6  -6   7 1376.47 823.217   4
   6   0   7 2321.30 1135.73   4
  -6   6   7 1459.84 783.496   9
   6  -6   7 1728.92 697.399   2
   0  -6   7 2799.51 1135.09  11
   0   6   7 1088.92 752.644   1
  -6   0   7 1085.50 936.713  10
  -6   6   8 38681.4 3493.69   9
   0   6   8 25388.8 2852.96   1
  -6   0   8 35195.3 3339.87  10
   0  -6   8 31928.3 3080.28  11
   6  -6   8 33512.4 3065.47   4
   6   0   8 33811.9 3367.93   4
   6  -6   9 1515.69 879.159   4
   6   0   9 3365.21 1199.92   4
  -6   6   9 890.929 855.843   9
   0   6   9 664.807 632.736   1
   0  -6   9 1895.12 878.766  11
  -6   0   9 993.982 826.398  10
   6  -6  10 5199.61 1357.32   4
   6   0  10 6641.88 1578.74   4
  -6   6  10 6586.77 1618.01   9
   0  -6  10 6309.86 1416.86   8
   0   6  10 5973.73 1473.60   1
   0  -6  10 6624.81 1560.92  11
  -6   0  10 6908.77 1606.19  10
   6  -6  11 931.505 880.125   4
   6   0  11-26.0484 816.458   4
  -6   6  11 2171.56 1062.65   9
   0  -6  11 801.194 750.442   8
   0   6  11 395.953 584.314   1
   0  -6  11 1596.85 821.398  11
  -6   6  11 1415.14 867.497   1
  -6   0  11 576.893 860.804  10
   6  -6  12 5066.07 1503.28   4
   6   0  12 6608.57 1725.06   4
  -6   6  12 3754.18 1341.43   9
  -6   6  12 5550.77 1492.44   1
   0  -6  12 4668.63 1372.83   8
   0   6  12 5308.99 1482.90   1
   0  -6  12 4923.43 1390.87  11
  -6   0  12 3659.39 1246.28  10
   6   0  13 203.538 681.301   4
   0  -6  13 982.496 806.589   8
   4  -7 -13 4571.59 1320.77   2
   3  -7 -13 3708.05 1133.35   2
  -7   3 -13 5416.64 1499.05  12
   7  -3 -13 4210.94 1379.52   3
  -4   7 -12 1148.31 672.350   9
   4  -7 -12 1379.87 873.264   2
  -7   3 -12 2440.97 1180.48   7
   3  -7 -12-744.382 749.118   2
  -7   4 -12-44.8597 563.059   7
  -7   3 -12 1205.15 894.472  12
   7  -3 -12 1582.76 1025.41   3
   7  -4 -12-961.860 883.345   3
   4   3 -12 500.251 926.546   3
   3   4 -12 2128.67 1279.84   3
  -3  -4 -12 141.534 619.487  12
  -4  -3 -12 551.974 712.151  12
  -7   4 -12 2261.65 946.417  12
  -4   7 -11 3958.70 1190.52   9
   4  -7 -11 4370.10 1282.75   2
  -7   3 -11 4533.04 1446.11   7
   3  -7 -11 1851.42 883.029   2
  -7   4 -11 4223.78 1406.67   7
   7  -3 -11 2634.06 1055.06   3
   7  -4 -11 2957.04 1063.44   3
   4   3 -11 3353.08 1403.54   3
   3   4 -11 5374.51 1576.96   3
  -3  -4 -11 3620.04 1257.58  12
  -4  -3 -11 3009.85 1203.20  12
  -7   3 -11 3661.66 1218.60  12
  -3   7 -11 4619.90 1283.11   5
  -7   4 -11 3707.25 1182.11  12
  -4   7 -10 4424.59 1248.56   9
   4  -7 -10 2857.04 1045.53   2
  -7   3 -10 4178.82 1354.98   7
   3  -7 -10 4556.27 1249.65   2
  -7   4 -10 7831.65 1792.61   7
  -3   7 -10 4671.64 1179.32   5
   7  -4 -10 4805.64 1308.11   3
   7  -3 -10 3040.33 1234.92   3
   4   3 -10 4057.76 1386.16   3
   3   4 -10 5123.69 1437.63   3
  -3  -4 -10 5389.47 1455.34  12
  -4  -3 -10 6463.38 1600.59  12
  -7   3 -10 3596.03 1277.29  12
  -7   4 -10 4847.75 1280.77  12
  -4   7  -9 1460.68 761.423   9
  -7   4  -9 1434.77 793.775  12
   4  -7  -9 1281.39 884.402   2
  -7   3  -9 1873.25 1033.76   7
  -7   4  -9 1866.41 1018.49   7
   3  -7  -9 1791.45 915.015   2
  -3   7  -9 2656.35 873.153   5
   7  -4  -9 2012.39 764.531   3
   7  -3  -9 652.603 673.510   3
  -4  -3  -9 2510.17 949.304  12
   4   3  -9 3466.85 1347.76   3
   3   4  -9 2499.19 1085.14   3
  -3  -4  -9 2593.80 1008.40  12
  -7   3  -9 1001.52 747.612  12
  -7   4  -8 10158.1 1808.83  12
  -4   7  -8 9389.65 1669.62   9
   4  -7  -8 7898.23 1570.30   2
  -7   3  -8 10145.2 1867.62   7
  -7   4  -8 9119.82 1845.53   7
   3  -7  -8 6566.12 1417.41   2
   7  -4  -8 8064.19 1559.93   3
   7  -3  -8 7767.17 1568.03   3
   4   3  -8 6799.98 1631.67   3
   3   4  -8 9898.31 1827.87   3
  -3  -4  -8 9477.88 1765.15  12
  -4  -3  -8 8383.66 1716.32  12
  -7   3  -8 9974.26 1870.12  12
  -3   7  -8 8932.07 1526.95   5
  -3  -4  -7 4791.85 1251.19  12
  -7   4  -7 5194.50 1282.89  12
  -3   7  -7 3809.40 1007.57   5
  -4   7  -7 3969.30 1182.75   9
   7  -4  -7 5002.74 1115.89   4
   4  -7  -7 3700.08 1088.38   2
  -7   3  -7 3285.18 1112.60   7
  -7   4  -7 2961.69 1162.47   7
   3  -7  -7 4164.77 1101.04   2
   7  -4  -7 4672.12 1223.75   3
   7  -3  -7 3692.26 1193.52   3
   4   3  -7 3866.09 1304.99   3
   3   4  -7 6512.62 1497.12   3
  -4   7  -7 3094.00 855.086   5
  -4  -3  -7 4315.45 1219.49  12
  -7   3  -7 5644.17 1394.30  12
  -7   4  -6 1907.99 783.125   9
  -4   7  -6 3750.79 1109.89   9
   7  -4  -6 2747.94 891.339   4
   4  -7  -6 1404.57 778.516   2
  -7   3  -6 4056.43 1192.77   7
  -7   4  -6 2876.12 1082.01   7
   3  -7  -6 2030.90 866.754   2
   7  -4  -6 3019.19 955.510   3
   7  -3  -6 1931.86 1007.02   3
   4   3  -6 1757.01 843.463   3
   3   4  -6 2635.48 1098.23   3
  -4   7  -6 1930.11 736.032   5
  -3  -4  -6 1787.95 888.873  12
  -3   7  -6 1286.60 707.966   5
  -4  -3  -6 2156.54 940.381  12
  -7   3  -6 2207.88 965.570  12
   3   4  -6 792.963 584.188   5
  -7   3  -5 33911.5 2565.53   9
   4  -7  -5 25001.0 2608.80   2
  -7   4  -5 30911.7 2590.23   9
   3  -7  -5 27453.4 2687.28   2
  -4   7  -5 32127.0 2979.36   9
   7  -4  -5 27923.1 2532.73   3
   7  -3  -5 26099.7 2677.94   3
   4   3  -5 29209.8 2956.18   3
   3   4  -5 28521.2 2851.42   3
  -7   3  -5 29772.3 2930.88   7
  -7   4  -5 28535.5 2904.06   7
   3  -7  -5 33297.8 2377.74   6
  -4   7  -5 27344.3 2378.03   5
  -3   7  -5 32250.2 2748.64   5
  -3  -4  -5 32443.0 2881.02  12
  -4  -3  -5 27834.4 2737.34  12
   3   4  -5 25722.2 2681.43   5
   4   3  -5 24636.8 2556.74   5
   7  -4  -5 32084.0 2569.29   4
  -7   3  -4 3189.38 852.714   9
  -7   4  -4 2750.64 864.796   9
   7  -4  -4 2437.41 787.322   4
  -4   7  -4 3222.13 1048.05   9
   7  -4  -4 2911.14 896.502   2
   7  -3  -4 2582.85 949.334   4
  -7   3  -4 2797.47 998.809   7
  -7   4  -4 2321.24 1023.95   7
   4  -7  -4 2279.79 855.842   2
   7  -4  -4 2604.52 850.717   3
   7  -3  -4 2871.49 961.937   3
   3  -7  -4 2426.95 936.641   2
   4   3  -4 1348.04 813.392   3
  -4  -3  -4 1537.46 691.285  12
   3   4  -4 2419.67 884.457   3
   3  -7  -4 2627.64 748.473   6
  -4   7  -4 1247.68 609.293   5
  -3   7  -4 2454.82 848.425   5
  -3  -4  -4 2822.81 920.589  12
   3   4  -4 3696.35 1079.50   5
   4   3  -4 2109.20 863.246   5
  -7   3  -3 37740.6 2845.93   9
  -7   4  -3 40423.9 3028.51   9
   4  -7  -3 33871.6 2962.20   2
   3  -7  -3 28362.8 2738.52   2
  -4   7  -3 32584.2 2985.48   9
   7  -4  -3 32551.2 2638.01   3
   7  -3  -3 35073.2 2981.66   3
   4   3  -3 30427.6 2932.01   3
   3   4  -3 37146.0 3094.18   3
  -7   3  -3 36832.3 3099.87   7
   7  -4  -3 35217.0 2722.61   2
   3  -7  -3 35819.2 2567.61   6
  -4   7  -3 35754.5 2703.45   5
  -3   7  -3 37280.0 2945.75   5
   3   4  -3 34156.0 3041.85   5
   4   3  -3 35566.3 2979.78   5
  -3  -4  -3 35542.9 2773.92  12
  -4  -3  -3 36221.3 2905.08  12
   7  -4  -3 32913.2 2593.52   4
   7  -3  -3 38387.6 2995.82   4
  -7   4  -2 15034.7 1891.22   9
  -7   3  -2 10961.3 1613.80   9
   4   3  -2 10813.3 1678.26   5
   7  -4  -2 10456.3 1456.08   4
   7  -3  -2 12005.3 1680.91   4
  -4   7  -2 12484.7 1864.04   9
   7  -3  -2 11321.0 1670.06   3
   3   4  -2 14889.1 1938.62   3
  -7   3  -2 11217.3 1671.50   7
   3  -7  -2 13769.4 1598.55   6
   4   3  -2 13537.7 1998.25   3
   4  -7  -2 12289.2 1770.32   2
   3  -7  -2 10481.6 1637.18   2
  -4   7  -2 13206.6 1643.10   5
   3   4  -2 11944.0 1814.15   5
  -3  -4  -2 12124.6 1551.34  12
  -3   7  -2 11930.2 1672.89   5
  -4  -3  -2 11863.4 1600.37  12
  -4  -3  -2 14927.4 1480.82  10
   7  -3  -2 12985.2 1542.81   2
   7  -4  -2 12659.8 1591.12   2
  -7   3  -1 5505.73 1196.33   9
  -7   4  -1 9667.39 1574.38   9
   7  -4  -1 6261.50 1191.39   4
   7  -3  -1 7744.12 1385.39   4
  -4   7  -1 3635.64 1054.42   9
  -3   7  -1 6416.97 1350.61   9
   7  -3  -1 5762.77 1014.81   2
   7  -4  -1 4994.68 978.518   2
  -7   3  -1 7381.60 1361.57   7
   3   4  -1 4514.11 1162.86   3
   4   3  -1 5255.92 1229.90   3
   3  -7  -1 6269.17 1267.54   6
   4  -7  -1 7031.72 1363.09   2
   3  -7  -1 5652.16 1224.78   2
  -4   7  -1 6978.00 1192.51   5
  -3   7  -1 7169.29 1374.74   5
   3   4  -1 6182.84 1323.77   5
   4   3  -1 6936.66 1345.88   5
  -3  -4  -1 6845.13 1120.92  12
  -4  -3  -1 6403.77 1158.56  12
  -3   7  -1 6965.44 1020.97   1
  -4  -3  -1 7011.87 1089.52  10
  -7   3   0 1217.70 715.750   9
  -7   4   0 1217.10 828.717   9
   7  -4   0 90.7586 430.277   4
  -4  -3   0 1329.93 574.527  12
   7  -3   0 1491.09 755.307   4
   3   4   0 1533.73 872.389   5
  -4   7   0 3083.80 1025.67   9
  -3   7   0 359.615 538.213   9
   7  -3   0 878.257 456.161   2
  -4   7   0 829.133 413.419   1
   7  -4   0 1343.29 533.883   2
  -3   7   0 1779.67 762.353   5
  -7   3   0 2571.23 877.760   7
   3  -7   0 1574.05 690.544   6
   4  -7   0 1903.18 788.175   2
  -3  -4   0 2895.26 1147.93   6
   3  -7   0 1373.90 801.199   2
  -3   7   0 878.285 459.723   1
   4   3   0 743.374 639.654   5
  -3  -4   0 1025.87 512.266  12
  -3  -4   0 1763.43 664.892  10
  -4  -3   0 603.145 525.299  10
   3  -7   1 5707.03 1225.58  11
  -7   3   1 5868.24 1322.27   9
  -7   4   1 6722.56 1407.54   9
   7  -4   1 5422.02 1112.30   4
  -4   7   1 7579.61 1159.77   1
   7  -3   1 8005.64 1419.75   4
  -4   7   1 5973.70 1287.30   9
  -3   7   1 7269.94 1387.02   9
   7  -3   1 5248.77 867.184   2
   3   4   1 5909.32 1294.51   1
   7  -4   1 5524.08 1005.13   2
  -3   7   1 6394.92 1069.46   1
  -3  -4   1 6340.04 1455.49   6
  -4  -3   1 6451.27 1481.90   6
   4  -7   1 5740.81 1231.19   2
   3   4   1 5360.87 1216.71   5
   4   3   1 5842.82 1265.11   5
  -3  -4   1 5679.86 947.344  12
   3  -7   1 7562.46 1400.63   2
  -4  -3   1 4428.53 916.964  12
  -3  -4   1 5252.02 1052.01  10
  -4  -3   1 5619.23 1107.70  10
   7  -4   2 13577.6 1448.81   2
  -4   7   2 15170.4 1985.42   9
  -7   3   2 14842.7 2008.28   9
  -7   4   2 13097.4 1931.05   9
  -4   7   2 12918.3 1537.32   1
  -3   7   2 13684.5 1881.99   9
  -3   7   2 13204.2 1620.65   1
   4   3   2 15075.0 2057.87   4
  -3  -4   2 14727.0 2066.32   6
  -4  -3   2 14181.7 1972.79   6
   3   4   2 13874.0 1907.87   1
   4   3   2 15750.6 1991.81   5
   4  -7   2 11304.1 1734.86   2
  -3  -4   2 11970.1 1310.19  12
  -4  -3   2 12309.2 1471.03  12
   3   4   2 12154.5 1768.17   5
   3  -7   2 12947.2 1834.09   2
   3  -7   2 14572.4 1926.41  11
  -3  -4   2 14859.3 1803.82  10
  -4  -3   2 16465.9 1878.39  10
   7  -4   2 13971.5 1776.52   4
   7  -3   2 14024.6 1874.50   4
  -7   3   3 40831.7 3403.94   9
  -7   4   3 42512.4 3447.59   9
  -4   7   3 37000.0 3103.16   9
  -3   7   3 39570.8 3167.19   9
  -4   7   3 34554.4 2677.81   1
   4  -7   3 38347.0 3137.55   2
   3  -7   3 29245.4 2828.50   2
  -3   7   3 33532.8 2704.87   1
  -3  -4   3 41500.8 3388.52   6
  -4  -3   3 38739.2 3226.93   6
   3   4   3 33690.2 3028.40   1
   3   4   3 36578.5 3104.46   5
   4   3   3 41296.4 3151.06   5
   4   3   3 32565.4 3002.87   1
   3  -7   3 41302.2 3251.13  11
  -3  -4   3 42276.3 3151.74  10
  -4  -3   3 41706.2 3117.01  10
   7  -4   3 37464.0 2975.14   4
   7  -3   3 37985.7 3136.51   4
  -4  -3   3 37373.3 2522.20  12
   4   3   3 39477.8 3311.61   4
   3   4   3 41516.3 3215.57   4
  -4   7   4 3631.82 955.905   1
   4   3   4 2596.49 984.620   1
  -7   3   4 5577.02 1394.03   9
   7  -4   4 2290.99 878.132   4
  -7   4   4 3728.22 1111.83   9
   7  -3   4 3899.81 1141.34   4
  -4   7   4 3835.36 1058.59   9
   4   3   4 2395.63 1060.83   4
  -3   7   4 3652.94 1030.13   9
   3   4   4 4075.29 1078.85   4
  -3   7   4 3269.31 927.587   1
   3   4   4 3213.78 1052.07   1
  -3  -4   4 3336.57 1152.33   6
  -4  -3   4 5115.68 1283.67   6
   4   3   4 3793.01 1047.64   5
   3   4   4 3704.15 1047.03   5
   4  -7   4 3035.66 990.267   2
   3  -7   4 3232.85 1063.62   2
   4  -7   4 2268.58 937.341  11
   3  -7   4 3367.81 1081.35  11
  -3  -4   4 3349.26 970.698  10
  -4  -3   4 1930.34 869.434  10
  -7   3   5 34769.7 3230.61   9
  -7   4   5 28651.1 3083.91   9
  -4   7   5 30006.2 2829.77   9
  -3   7   5 33270.9 2837.12   9
  -4   7   5 27393.6 2542.83   1
   4  -7   5 26062.5 2653.90   2
  -3   7   5 32825.0 2830.57   1
   3  -7   5 27556.1 2760.38   2
  -3  -4   5 26508.3 2798.10   6
  -4  -3   5 26621.4 2687.87   6
   3   4   5 27390.4 2804.41   1
   4   3   5 30127.5 2945.98   1
   4  -7   5 28591.1 2849.06  11
   3  -7   5 31067.6 2951.47  11
  -3  -4   5 31515.8 2924.49  10
   7  -4   5 23684.7 2576.83   4
  -4  -3   5 32667.2 2968.66  10
   7  -3   5 28094.2 2830.77   4
   4   3   5 31441.8 2884.95   4
   3   4   5 32099.7 2695.23   4
  -4   7   6 1629.16 739.377   1
   3   4   6 2655.93 1055.64   1
   7  -4   6 2434.25 947.439   4
  -7   3   6 597.891 779.383   9
   7  -3   6 1171.48 839.272   4
  -7   4   6 509.173 665.755   9
   3   4   6 1347.96 694.818   4
   4   3   6 3515.61 1053.74   4
  -4   7   6 2418.09 907.887   9
  -3   7   6 1507.35 756.610   9
  -3   7   6 1994.25 810.923   1
  -3  -4   6 1568.67 731.356   6
  -4  -3   6 2645.12 1058.28   6
   4   3   6 660.085 722.402   1
   4  -7   6 816.912 874.643  11
   3  -7   6 2324.92 1035.19  11
   4  -7   6 1093.19 710.309   2
   3  -7   6 1902.70 833.218   2
  -3  -4   6 2122.29 947.032  10
  -4  -3   6 1743.30 817.350  10
  -4   7   7 3849.04 1108.55   1
   7  -4   7 5544.19 1352.33   4
   7  -3   7 4760.84 1297.17   4
  -7   3   7 5503.86 1463.28   9
  -7   4   7 5687.29 1449.77   9
   3   4   7 4809.84 1079.56   4
   4   3   7 5855.52 1294.70   4
  -4   7   7 5782.46 1324.77   9
  -3   7   7 3418.70 1025.07   9
  -3   7   7 5181.18 1222.83   1
   4   3   7 3993.88 1159.76   1
  -3  -4   7 4868.50 1314.80   6
  -4  -3   7 4164.34 1214.51   6
   4  -7   7 5051.71 1279.02  11
   3  -7   7 5689.66 1402.99  11
   4  -7   7 1784.75 958.750   2
   3   4   7 3232.78 1063.10   1
  -3  -4   7 5390.92 1300.20  10
  -4  -3   7 5891.22 1389.31  10
   3  -7   7 4782.95 1291.08   2
  -4   7   8 9313.02 1685.26   1
   7  -4   8 10617.4 1870.73   4
   7  -3   8 11616.0 2026.45   4
  -7   3   8 13232.5 2235.33   9
  -7   4   8 14056.9 2217.19   9
   4   3   8 13837.9 1892.05   4
  -4   7   8 9705.86 1677.01   9
  -3   7   8 10773.0 1815.99   1
  -3   7   8 14570.1 1884.55   9
   4   3   8 11960.4 1943.69   1
  -4  -3   8 10928.0 1848.97   6
   3   4   8 9794.42 1800.07   1
   4  -7   8 11252.4 1863.19  11
   3  -7   8 9541.91 1746.04  11
  -3  -4   8 12544.7 2046.53  10
  -4  -3   8 13062.2 2069.37  10
  -4   7   9 2343.19 918.588   1
   7  -4   9 1616.41 868.465   4
   7  -3   9 1755.57 1098.52   4
  -7   3   9 3831.26 1281.19   9
   4   3   9 604.338 611.838   4
  -7   4   9 2816.04 1231.85   9
  -4   7   9 2152.81 932.478   9
  -3   7   9 1292.28 754.902   1
   4   3   9 1577.41 887.521   1
   3   4   9 2027.67 913.476   1
   4  -7   9 2122.73 993.547  11
   3  -7   9 2295.96 998.887  11
  -3  -4   9-490.900 739.091  10
  -4  -3   9 2106.58 1030.37  10
  -4   7  10 4340.21 1312.63   1
   7  -4  10 5841.99 1514.18   4
   7  -3  10 5128.34 1498.08   4
  -7   3  10 3638.64 1297.17   9
  -7   4  10 6394.50 1667.08   9
  -3   7  10 4557.89 1267.48   1
   4   3  10 4331.61 1266.20   1
   3   4  10 3973.28 1321.90   1
   4  -7  10 4763.04 1259.89  11
   3  -7  10 3307.09 1201.73  11
  -3  -4  10 7951.38 1725.54  10
  -4  -3  10 5250.39 1422.87  10
  -7   3  11 3433.55 1255.80  10
   7  -4  11 4200.36 1451.72   4
  -4   7  11 4878.48 1397.68   1
   7  -3  11 4198.70 1436.66   4
  -7   3  11 5008.40 1531.89   9
  -7   4  11 6335.36 1691.25   9
   4   3  11 2863.80 1101.96   1
  -3   7  11 4162.98 1295.42   1
   3   4  11 1875.40 968.476   1
   4  -7  11 5108.63 1361.41  11
   3  -7  11 5311.39 1470.19  11
  -3  -4  11 4010.01 1398.85  10
  -4  -3  11 1214.21 986.190  10
   7  -4  12 2183.80 952.225   4
   7  -3  12 1240.70 948.548   4
  -4   7  12-303.666 586.482   1
  -7   3  12 436.707 741.990   9
  -7   4  12 679.706 857.858   9
   4   3  12-792.806 778.121   1
  -3   7  12 557.469 619.796   1
   3   4  12 211.642 764.162   1
   4  -7  12 2190.44 992.726  11
   3  -7  12 1091.08 697.379  11
  -3  -4  12 48.3693 633.274  10
  -4  -3  12 139.141 784.914  10
  -7   3  12 1151.44 922.212  10
  -7   3  13 1848.60 1068.78   9
  -7   4  13 5018.48 1616.13   9
   4   3  13 3148.04 1208.36   1
  -7   4  13 5031.17 1607.35  10
  -2   7 -13 1013.12 713.010   5
   5  -7 -12 2739.41 1108.12   2
  -7   2 -12 2905.79 1305.28   7
  -7   5 -12 1867.27 975.358   7
   7  -2 -12 2546.63 1196.93   3
   2   5 -12 5270.58 1531.46   3
  -2  -5 -12 4680.02 1498.88  12
  -7   2 -12 5206.68 1664.85  12
  -2   7 -12 1357.82 740.712   5
  -2   7 -11 472.972 612.238   5
  -5  -2 -11 225.463 504.683  12
   7  -5 -11 1325.17 907.504   2
   5  -7 -11 387.335 591.196   2
  -7   2 -11-384.971 761.662   7
  -7   5 -11 3386.62 1151.60   7
  -5   7 -11-167.508 660.457   7
   2  -7 -11-66.5722 494.390   2
   7  -2 -11 239.505 761.762   3
  -7   2 -11-182.012 654.548  12
   5   2 -11 851.207 726.175   3
   2  -7 -11 878.278 760.329  12
   2   5 -11 647.725 819.254   3
  -2  -5 -11 1146.22 1049.13  12
  -5   7 -10 4333.48 1170.80   9
   7  -5 -10 6391.48 1510.66   2
   5  -7 -10 3976.47 1238.92   2
  -7   2 -10 3558.25 1295.67   7
  -7   5 -10 3504.89 1125.36   7
   2  -7 -10 2695.80 974.785   2
  -2  -5 -10 4558.76 1383.67  12
   7  -2 -10 3858.87 1338.98   3
   2   5 -10 1114.82 829.413   3
   2  -7 -10 3740.47 1187.03  12
  -5  -2 -10 3990.38 1255.43  12
  -7   2 -10 4337.82 1353.94  12
  -2   7 -10 1846.67 951.561   5
  -5   7  -9 1481.70 752.065   9
   7  -5  -9 1620.04 953.220   2
   5  -7  -9-9.26803 549.922   2
  -7   2  -9 1165.74 806.176   7
  -7   5  -9 900.305 861.581   7
   2  -7  -9 513.825 563.407   2
   7  -2  -9 448.260 782.569   3
   5   2  -9-187.484 760.522   3
   2   5  -9-70.0397 688.191   3
   2  -7  -9-204.549 455.409  12
  -2  -5  -9-105.122 604.465  12
  -5  -2  -9 310.063 746.565  12
  -7   2  -9 1085.50 875.584  12
  -2   7  -9 418.982 636.362   5
  -7   5  -9 470.411 552.705  12
   5  -7  -8 29874.4 3044.91   2
   2  -7  -8 25757.4 2658.36   2
  -5   7  -8 32327.4 3071.29   9
   7  -2  -8 29473.1 3128.51   3
   5   2  -8 26586.3 3124.80   3
   2   5  -8 27301.8 2891.27   3
  -7   2  -8 28989.5 3095.50   7
  -7   5  -8 30560.4 3295.99   7
   2  -7  -8 27486.3 2810.18  12
  -2  -5  -8 27906.1 2894.44  12
  -2   7  -8 24316.7 2645.09   5
  -5  -2  -8 32557.7 3258.89  12
   2   5  -8 28624.6 2997.50   5
  -7   2  -8 28657.8 3220.56  12
  -7   5  -8 24829.8 2673.83  12
   7  -5  -8 28582.2 2957.25   2
  -7   5  -7 2355.37 816.793   9
  -5   7  -7 1759.64 886.618   9
   7  -5  -7 1902.43 928.209   2
   5  -7  -7 2753.14 1045.81   2
  -7   2  -7 3361.86 1228.04   7
  -7   5  -7 1635.06 1032.01   7
   2  -7  -7 1731.23 737.739   2
   7  -2  -7 1564.43 908.740   3
   5   2  -7 2639.37 1276.97   3
   2  -7  -7 3302.75 948.543   6
   2   5  -7 1776.90 895.691   3
   2  -7  -7 660.819 477.538  12
  -2  -5  -7 2244.17 903.683  12
  -5  -2  -7 1556.30 837.154  12
  -2   7  -7 3862.99 1157.43   5
  -7   5  -7 2635.39 987.562  12
   2   5  -7 2068.85 865.110   5
  -7   2  -7 3758.57 1363.88  12
   5  -7  -6 17822.1 2300.69   2
  -7   5  -6 23147.2 2331.37   9
   2  -7  -6 17309.6 2163.70   2
  -5   7  -6 17848.0 2247.54   9
   7  -2  -6 21591.4 2619.79   3
   5   2  -6 21628.9 2682.04   3
   2   5  -6 24800.6 2596.44   3
  -7   2  -6 21258.4 2509.48   7
  -7   5  -6 20919.0 2654.80   7
   2  -7  -6 22477.9 2173.88   6
   2  -7  -6 20736.4 2222.38  12
  -2   7  -6 18645.4 2227.90   5
  -2  -5  -6 22273.4 2428.91  12
   2   5  -6 20239.5 2468.04   5
  -5  -2  -6 17763.5 2342.80  12
  -7   2  -6 17064.3 2468.55  12
   7  -5  -6 19502.5 2357.06   2
  -7   5  -5 523.417 476.578   9
  -5   7  -5 359.810 585.218   9
   7  -5  -5 381.994 620.269   2
   5  -7  -5 41.8878 583.444   2
  -7   2  -5 654.816 699.771   7
   7  -2  -5 6.19783 712.670   3
   5   2  -5 753.142 837.873   3
   2   5  -5 654.292 675.446   3
   2  -7  -5 186.091 522.777   2
   2  -7  -5 49.1776 461.308   6
  -2  -5  -5-197.830 488.346  12
  -2   7  -5 1205.22 718.971   5
  -5  -2  -5 551.933 592.797  12
   2   5  -5 2036.86 901.595   5
  -7   2  -4 5048.83 1018.11   9
  -7   5  -4 5303.50 1214.25   9
   7  -5  -4 4533.48 920.102   4
  -5   7  -4 5164.60 1250.78   9
  -2  -5  -4 4466.71 899.628   2
   7  -5  -4 5683.45 1196.37   2
  -7   2  -4 3661.84 1095.30   7
   5  -7  -4 3804.96 1070.30   2
   7  -5  -4 2440.61 676.290   3
   7  -2  -4 5018.52 1296.88   3
   5   2  -4 5080.78 1332.48   3
   2   5  -4 4486.00 1088.21   3
   2  -7  -4 3868.84 1007.29   6
   2  -7  -4 3125.39 910.248   2
  -2  -5  -4 3360.36 933.286  12
  -2   7  -4 4964.53 1232.01   5
   2   5  -4 3290.45 1038.98   5
   5   2  -4 5585.55 1244.15   5
  -5  -2  -4 3666.62 1030.62  12
  -7   2  -3 2948.52 816.489   9
  -7   5  -3 1333.91 693.724   9
   7  -5  -3 1902.39 679.835   4
  -5   7  -3 1270.31 762.002   9
   7  -2  -3 2483.57 1031.32   4
   7  -5  -3 1473.03 652.382   2
  -7   2  -3 2816.57 923.175   7
   5  -7  -3 2351.38 928.897   2
   7  -2  -3 3150.18 1104.23   3
   5   2  -3 1421.87 962.272   3
   2   5  -3 1886.94 956.527   3
  -2  -5  -3 2626.94 791.685  12
   2  -7  -3 548.304 599.226   6
  -5   7  -3 2328.68 658.467   5
   2  -7  -3 2465.05 851.092   2
  -2   7  -3 2823.98 957.787   5
   2   5  -3 2854.54 938.630   5
  -5  -2  -3 2284.91 835.268  12
   5   2  -3 2062.09 840.986   5
  -2  -5  -3 1868.95 639.479   2
  -7   2  -2 18956.9 2035.96   9
  -7   5  -2 16540.0 2042.32   9
   5  -7  -2 18551.7 2186.92   2
  -5   7  -2 16528.9 2131.01   9
   2  -7  -2 15147.7 1938.87   2
  -2  -5  -2 17423.5 1802.84   2
   7  -2  -2 16561.8 2198.53   3
   5   2  -2 18493.7 2387.69   3
   2   5  -2 15199.6 1882.95   3
  -7   2  -2 17310.8 2026.47   7
   2  -7  -2 15194.5 1847.41   6
  -2   7  -2 16521.7 2098.98   5
   2   5  -2 15271.6 2102.43   5
  -2  -5  -2 21295.0 1965.68  12
   5   2  -2 19359.7 2100.30   5
  -5  -2  -2 16708.6 2067.03  12
  -5  -2  -2 19993.7 1768.03  10
   7  -5  -2 18487.7 1808.19   4
   7  -2  -2 16848.3 2151.29   4
   7  -5  -2 14821.8 1809.68   2
  -7   2  -1 1403.01 772.466   9
   7  -5  -1 601.070 581.937   4
  -7   5  -1 1121.88 864.261   9
  -5   7  -1 1006.01 767.076   9
   7  -2  -1 1372.94 843.018   4
   7  -5  -1 289.964 370.096   2
  -7   2  -1 895.147 675.442   7
   2   5  -1 556.949 643.116   3
   5   2  -1 1468.62 1014.25   3
  -2   7  -1 651.849 459.640   1
   5  -7  -1 1498.49 814.369   2
   2  -7  -1 320.790 807.609   6
  -2  -5  -1 1584.19 986.273   6
   2  -7  -1-19.2530 578.892   2
  -2   7  -1-42.9434 480.605   5
   2   5  -1 293.943 643.925   5
  -2  -5  -1 821.511 526.092  12
   5   2  -1 632.195 641.867   5
  -5  -2  -1 401.711 508.814  12
  -2  -5  -1 942.301 506.206  11
  -5  -2  -1 281.844 397.193  10
   7  -5   0 72308.5 3964.53   2
  -7   2   0 71916.4 4308.00   9
  -7   5   0 75922.4 4543.31   9
  -5   7   0 71398.8 4439.21   9
   5  -7   0 69376.3 4302.01   2
  -5   7   0 73955.1 3487.52   1
   2  -7   0 72877.4 4388.76   2
  -7   2   0 69228.7 3972.08   7
  -2   7   0 71517.5 3762.26   1
   2  -7   0 68719.6 4082.99   6
  -2  -5   0 72522.8 4533.46   6
  -2   7   0 66549.0 4280.92   5
   2   5   0 71257.0 4668.42   5
   2   5   0 66270.7 4158.76   1
   5   2   0 75346.4 4171.32   5
  -2  -5   0 69892.4 3368.39  12
  -5  -2   0 67696.9 3997.43  12
   2  -7   0 64855.5 3956.51  11
  -2  -5   0 70520.9 3701.05  11
  -5  -2   0 75046.9 3924.61  10
   7  -5   0 68197.1 3744.16   4
   7  -2   0 80345.0 4688.26   4
  -7   2   1 706.270 773.802   9
   7  -5   1 1445.63 725.567   4
  -7   5   1 1040.25 907.484   9
   7  -2   1 160.808 603.346   4
  -5   7   1 952.531 772.046   9
   2  -7   1 619.375 589.218   2
  -2   7   1 612.250 667.268   9
   5   2   1 992.943 1013.94   4
   2   5   1 897.788 620.307   1
  -7   2   1 140.329 451.766   7
   7  -5   1 186.204 435.596   2
   2  -7   1 149.080 597.710   6
  -2  -5   1 700.135 1044.17   6
   5  -7   1 401.381 627.631   2
  -2   7   1 1583.30 926.798   5
   2   5   1 612.220 607.552   5
   5   2   1 862.980 633.172   5
   2  -7   1 1020.41 655.013  11
  -5   7   1 374.651 352.673   1
  -2   7   1 909.539 593.655   1
  -5  -2   1 383.639 605.890  10
  -7   2   2 17053.8 2179.80   9
  -7   5   2 22020.7 2470.51   9
   7  -5   2 18525.5 1832.34   2
  -5   7   2 14823.7 1659.77   1
  -5   7   2 15873.0 2084.71   9
  -2   7   2 14944.1 1957.09   9
   5  -7   2 14121.0 1949.19   2
   2  -7   2 14917.3 2008.34   2
   5   2   2 16221.9 2229.12   4
  -2   7   2 19409.0 2020.04   1
  -7   2   2 17468.4 1802.73   7
   2  -7   2 17614.4 2118.52   6
  -5  -2   2 21471.3 2380.17   6
  -2  -5   2 15733.0 2141.60   6
   2   5   2 13035.2 1868.28   1
   2   5   2 15051.4 2101.59   5
   5   2   2 17637.2 1948.71   5
   2  -7   2 18603.4 2156.77  11
   5  -7   2 17407.9 1573.04   4
   7  -5   2 15582.3 1852.82   4
  -5  -2   2 18478.3 2053.44  10
   7  -2   2 17289.0 2262.60   4
   5  -7   3 2211.49 664.026   4
   7  -5   3 969.294 506.907   4
  -7   2   3 2464.17 1026.57   9
  -7   5   3 1684.24 928.158   9
   7  -2   3 2862.58 1161.80   4
  -5   7   3 1775.52 703.521   9
   5   2   3 2978.35 1196.74   4
  -2   7   3 3901.21 1000.13   9
   2   5   3 3481.60 1067.41   4
   2   5   3 1183.78 749.648   1
  -7   2   3 1654.25 620.425   7
   7  -5   3 2526.87 730.944   2
  -2  -5   3 1487.76 825.670   6
  -5  -2   3 1425.37 833.464   6
  -2   7   3 1205.03 660.485   1
   5  -7   3 1881.24 713.412   2
   2   5   3 1241.28 744.005   5
   5   2   3 1689.52 701.517   5
   2  -7   3 2059.80 866.722   2
   2  -7   3 2683.07 917.778  11
  -5   7   3 2965.91 841.395   1
  -5  -2   3 2272.93 935.330  10
   5  -7   4 5595.24 1033.01   4
   2   5   4 3860.55 1141.98   1
   7  -5   4 4429.23 1112.50   4
  -7   2   4 5625.37 1416.83   9
  -7   5   4 2714.38 1032.07   9
   7  -2   4 1717.77 816.922   4
  -5   7   4 5247.09 1273.32   9
   5   2   4 3140.76 1133.18   4
   2   5   4 5413.03 1059.88   4
  -2   7   4 5035.46 1160.16   9
  -2  -5   4 2524.76 1072.17   6
  -5  -2   4 6041.44 1324.37   6
  -2   7   4 4261.99 1081.65   1
   2   5   4 3565.94 1140.15   5
   5  -7   4 3865.89 1080.74   2
  -5   7   4 3546.59 887.403   1
   2  -7   4 2888.33 978.639  11
   2  -7   4 2036.71 875.845   2
  -5  -2   4 5176.00 1290.47  10
   7  -5   5 967.617 718.467   4
  -7   2   5 177.490 769.994   9
  -7   5   5 1353.42 788.005   9
   7  -2   5 571.305 729.884   4
  -5   7   5 217.260 607.093   9
   5   2   5-551.395 808.220   4
  -2   7   5 64.1108 421.949   9
  -2   7   5 490.902 580.983   1
  -2  -5   5 836.625 1010.64   6
  -5  -2   5 786.499 795.622   6
   2   5   5 1153.53 746.336   1
   5  -7   5 746.961 703.375   2
  -5   7   5 825.349 612.272   1
   2  -7   5 1856.80 967.576  11
   2  -7   5 74.5842 556.008   2
  -5  -2   5 1380.22 840.697  10
   5  -7   5 112.661 379.174   4
  -7   2   6 23594.6 2803.42   9
  -7   5   6 25995.9 2901.03   9
  -5   7   6 20146.0 2259.45   1
  -5   7   6 26745.5 2790.20   9
  -2   7   6 21436.5 2257.96   9
   5  -7   6 23093.8 2509.64   2
   2  -7   6 19958.6 2420.22   2
  -2   7   6 18362.4 2274.74   1
   2   5   6 21821.3 2567.83   1
  -2  -5   6 25898.4 2817.35   6
  -5  -2   6 23103.6 2457.14   6
   5   2   6 21448.7 2548.93   1
   2  -7   6 21410.3 2533.64  11
   5  -7   6 19411.4 2127.44   4
   7  -5   6 24333.0 2562.47   4
  -5  -2   6 24361.8 2636.53  10
   7  -2   6 23903.1 2741.31   4
   5   2   6 23853.7 2690.48   4
   7  -5   7 2489.40 900.289   4
  -7   2   7 2689.96 1124.54   9
   7  -2   7 564.151 668.444   4
  -7   5   7 1847.30 996.334   9
   5   2   7 3320.15 1184.82   4
  -5   7   7 2585.90 974.399   9
  -2   7   7 1908.71 777.010   9
   5   2   7 1585.20 943.426   1
  -2   7   7 2100.07 856.911   1
  -2  -5   7 2539.80 1172.91   6
  -5  -2   7 2663.42 975.072   6
   2   5   7 2392.81 1029.08   1
  -5   7   7 726.757 573.856   1
   2  -7   7 1706.46 788.779  11
   5  -7   7 3161.64 1011.99   2
  -5  -2   7 1120.72 879.286  10
   5  -7   7 2709.42 1053.22   4
  -7   2   8 31294.2 3314.71   9
  -7   5   8 29432.0 3203.89   9
  -5   7   8 25446.8 2797.23   9
  -5   7   8 21628.9 2527.93   1
   5  -7   8 25762.5 2690.78   2
  -2   7   8 27023.5 2906.04   1
   2   5   8 26632.3 2977.92   1
  -5  -2   8 24943.0 2541.55   6
   5   2   8 22095.2 2646.50   1
   5  -7   8 21672.3 2430.07   4
   2  -7   8 24982.4 2801.02  11
   7  -5   8 26374.6 2855.92   4
   7  -2   8 24374.8 2874.07   4
  -5  -2   8 30493.2 3151.83  10
   5   2   8 30575.2 3057.54   4
  -7   2   9-320.966 775.045  10
   7  -5   9 1000.18 764.882   4
  -7   2   9-288.432 683.757   9
   7  -2   9 1179.71 905.574   4
   5   2   9 749.681 824.535   4
  -7   5   9-251.048 755.380   9
  -5   7   9-15.5535 673.298   9
   5   2   9 363.607 650.542   1
  -2   7   9 36.1124 510.970   1
   2   5   9-137.885 502.753   1
   5  -7   9-818.453 787.857  11
   5  -7   9 536.077 639.330   4
   2  -7   9 45.9566 580.337  11
  -5   7   9-75.6843 441.168   1
  -5  -2   9 206.227 672.479  10
  -7   2  10 7065.35 1769.22  10
   7  -5  10 3619.55 1268.82   4
   7  -2  10 5831.83 1613.87   4
  -7   2  10 3709.85 1306.43   9
   5   2  10 3310.62 1176.51   4
  -7   5  10 4555.83 1451.12   9
   5   2  10 2185.16 835.419   1
  -5   7  10 3188.83 1142.77   9
   2   5  10 5995.14 1616.59   1
  -2   7  10 4104.83 1274.30   1
   5  -7  10 4078.25 1262.52  11
   5  -7  10 3385.50 1274.65   4
   2  -7  10 4899.60 1337.19  11
  -5   7  10 3186.36 1085.66   1
  -5  -2  10 5215.59 1476.92  10
   5   2  11 47.3451 568.082   1
  -7   2  11-5.64819 627.415   9
   7  -5  11-337.470 613.284   4
   7  -2  11 27.9427 739.025   4
   5   2  11-355.758 638.694   4
  -7   5  11 2716.63 1146.92   9
   2   5  11-2.78114 548.100   1
  -2   7  11 142.704 701.139   1
   5  -7  11 634.137 649.946  11
   2  -7  11 905.136 713.548  11
  -5   7  11 300.071 450.717   1
  -5  -2  11 508.398 878.693  10
  -7   2  11 1123.30 1085.70  10
   7  -2  12 5214.85 1623.18   4
   5   2  12 2370.90 1045.00   4
  -7   5  12 3203.61 1301.37   9
   2   5  12 3123.70 1299.96   1
   5  -7  12 1661.65 998.837  11
   2  -7  12 3968.65 1421.06  11
   5   2  12 1076.50 792.104   1
  -5   7  12 4315.35 1284.26   1
  -7   2  12 3213.89 1250.78  10
  -7   5  13 2509.12 1211.08   9
   5   2  13-849.719 692.245   1
  -7   6 -12-1000.36 899.967   7
  -6   7 -12 495.438 772.350   7
   1   6 -12-1312.35 1077.30   3
  -1   7 -12 1962.48 1031.47   5
   7  -6 -11 7069.31 1696.81   2
   6  -7 -11 6141.26 1545.88   2
  -7   1 -11 2904.79 1185.27   7
  -7   6 -11 5734.18 1565.56   7
  -6   7 -11 4079.30 1321.17   7
   7  -1 -11 4104.50 1467.58   3
   6   1 -11 5112.21 1677.93   3
   1   6 -11 4566.79 1351.38   3
   1  -7 -11 5309.47 1454.13  12
  -1  -6 -11 5051.24 1411.04  12
  -6  -1 -11 5717.64 1616.34  12
  -7   1 -11 4079.53 1376.48  12
  -1   7 -11 5288.13 1484.72   5
   1   6 -11 5099.95 1385.39   5
   7  -6 -10 8406.52 1729.64   2
   6  -7 -10 8214.30 1741.25   2
  -7   1 -10 7915.82 1795.62   7
  -7   6 -10 10570.1 2114.69   7
  -6   7 -10 8715.85 1810.67   7
   7  -1 -10 10644.7 2152.09   3
   6   1 -10 11034.5 2192.27   3
   1   6 -10 8536.14 1673.78   3
   1  -7 -10 8176.09 1718.26  12
  -1  -6 -10 7448.65 1641.83  12
  -6  -1 -10 5646.40 1549.93  12
  -7   1 -10 7308.32 1769.13  12
  -1   7 -10 3906.61 1191.92   5
   1   6 -10 8755.38 1810.89   5
  -6   7  -9 149.581 439.230   9
   7  -6  -9 669.203 878.244   2
   6  -7  -9 1096.93 778.075   2
  -7   1  -9 846.933 939.853   7
  -7   6  -9 2010.67 1006.09   7
   7  -1  -9 1814.76 1144.57   3
   1  -7  -9 1801.70 654.552   2
   6   1  -9 2131.07 1247.21   3
   1   6  -9 1304.27 902.998   3
   1  -7  -9 1216.13 702.323  12
  -1  -6  -9 1985.46 899.805  12
  -6  -1  -9 2215.26 1016.72  12
  -7   1  -9 731.823 838.967  12
  -1   7  -9 1086.55 660.738   5
   1   6  -9 2518.41 1055.29   5
  -7   6  -8 3308.00 982.066   9
  -6   7  -8 5616.27 1336.03   9
   7  -6  -8 4225.07 1256.20   2
   6  -7  -8 5593.84 1407.62   2
  -7   1  -8 4608.20 1414.42   7
  -7   6  -8 6593.15 1705.09   7
   7  -1  -8 3098.79 1228.66   3
   6   1  -8 7325.87 1734.74   3
   1  -7  -8 4889.71 1223.59   2
   1  -7  -8 4664.00 1189.72   6
   1   6  -8 6931.82 1474.26   3
   1  -7  -8 3776.29 1112.43  12
  -1  -6  -8 4086.89 1151.67  12
  -6  -1  -8 5068.62 1470.89  12
  -1   7  -8 4269.72 1257.86   5
  -7   1  -8 5441.22 1481.81  12
   1   6  -8 4627.50 1315.67   5
  -7   6  -7 4752.42 1128.15   9
  -6   7  -7 3180.68 1054.61   9
   7  -6  -7 3524.68 1120.72   2
   6  -7  -7 2838.36 1129.57   2
  -7   1  -7 4516.62 1341.80   7
   7  -1  -7 3354.17 1172.99   3
   6   1  -7 2439.57 1123.08   3
   1   6  -7 4409.10 1189.52   3
   1  -7  -7 2462.55 890.577   2
   1  -7  -7 2886.96 954.070   6
   1  -7  -7 2712.51 961.728  12
  -1  -6  -7 3106.81 1017.82  12
  -6  -1  -7 5092.93 1425.55  12
  -1   7  -7 3144.42 1113.82   5
  -7   1  -7 2729.22 1146.29  12
   1   6  -7 3100.73 1090.13   5
  -7   6  -7 4744.53 1133.39  12
  -7   6  -6 7408.23 1414.25   9
  -6   7  -6 8292.01 1567.58   9
   7  -6  -6 6203.00 1359.85   2
   6  -7  -6 5119.96 1312.10   2
  -7   1  -6 5773.96 1422.76   7
   7  -1  -6 5307.86 1531.47   3
   6   1  -6 8148.41 1812.05   3
   1   6  -6 6590.22 1289.65   3
   1  -7  -6 7525.24 1432.06   6
   1  -7  -6 7339.24 1389.39   2
   1  -7  -6 7094.64 1342.92  12
  -1  -6  -6 6579.44 1349.44  12
  -1   7  -6 8055.21 1599.62   5
  -6  -1  -6 7710.39 1632.27  12
   1   6  -6 8157.53 1646.59   5
  -7   1  -6 7915.58 1797.40  12
  -1  -6  -5 12356.3 1611.77   2
  -7   6  -5 12627.5 1890.72   9
  -6   7  -5 12440.8 1884.26   9
   1   6  -5 16590.0 1916.95   3
   7  -6  -5 9723.85 1647.17   2
  -7   1  -5 15268.6 2139.08   7
   6  -7  -5 9800.46 1703.82   2
   7  -1  -5 9048.33 1845.94   3
   6   1  -5 14760.1 2279.50   3
   1  -7  -5 12925.1 1841.60   6
   1  -7  -5 13346.8 1715.79  12
   1  -7  -5 12114.7 1790.24   2
  -1  -6  -5 11044.9 1647.13  12
  -1   7  -5 11517.3 1886.56   5
   1   6  -5 9270.58 1689.84   5
  -6  -1  -5 10399.4 1849.32  12
  -7   1  -5 14564.1 2257.46  12
  -7   6  -4 66.2089 503.239   9
  -6   7  -4 809.093 776.968   9
   7  -6  -4-205.887 508.074   2
   6  -7  -4-49.9062 526.932   2
  -7   1  -4 419.214 646.117   7
   7  -1  -4 750.134 839.354   3
   6   1  -4 661.920 896.280   3
   1   6  -4 1236.07 702.752   3
   1  -7  -4 778.403 731.205   6
  -1  -6  -4 2867.48 1109.81   6
   1  -7  -4-773.375 566.142   2
   1  -7  -4-108.428 337.578  12
  -1  -6  -4 1025.91 594.724  12
  -1   7  -4 661.854 538.007   5
   1   6  -4 1847.97 1017.74   5
  -6  -1  -4 837.498 771.755  12
  -1  -6  -4 1170.08 617.449   2
  -7   1  -4 758.161 804.648  12
   7  -6  -3 15593.5 1970.05   2
  -7   1  -3 21440.0 2084.47   9
  -7   6  -3 21828.7 2459.73   9
  -6   7  -3 19480.9 2375.81   9
   1  -7  -3 19523.1 2200.64   2
  -1  -6  -3 19520.7 2069.45   2
   7  -1  -3 20536.1 2602.73   3
   6   1  -3 22703.4 2825.33   3
   1   6  -3 22352.3 2141.08   3
  -7   1  -3 16304.7 2064.05   7
   6  -7  -3 15290.1 2059.96   2
   1  -7  -3 18058.9 2186.50   6
  -1  -6  -3 19909.4 2365.13   6
   1  -7  -3 19159.6 1881.01  12
  -1   7  -3 19479.9 2371.33   5
  -1  -6  -3 19636.1 1956.66  12
   1   6  -3 22616.1 2625.19   5
   6   1  -3 20977.7 2172.32   5
  -6  -1  -3 21306.8 2469.69  12
   1  -7  -2 14420.4 1709.34  11
  -7   1  -2 14900.3 1822.81   9
  -7   6  -2 18129.4 2243.29   9
  -6   7  -2 21165.1 2454.72   9
   1  -7  -2 15695.4 1999.81   2
  -1  -6  -2 12602.8 1687.07   2
   1   6  -2 14448.3 1706.08   3
  -7   1  -2 16426.7 2002.47   7
   7  -6  -2 12979.5 1799.54   2
   6  -7  -2 14037.3 1928.20   2
   7  -1  -2 11942.3 1987.39   3
   6   1  -2 16831.6 2395.59   3
   1  -7  -2 10819.3 1689.13   6
  -1   7  -2 15496.0 1750.61   1
  -1  -6  -2 16133.4 2120.55   6
   1   6  -2 15676.4 2231.75   5
  -1  -6  -2 14460.0 1579.41  12
   6   1  -2 14861.4 1793.70   5
  -1   7  -2 14997.8 2091.42   5
  -6  -1  -2 13775.7 1959.45  12
  -6  -1  -2 17353.9 1761.27  10
   7  -1  -2 17410.3 2349.30   4
  -7   1  -1 4419.07 1128.78   9
   7  -6  -1 3246.98 795.785   4
  -7   6  -1 6088.67 1359.04   9
  -6   7  -1 2860.27 983.047   9
  -1   7  -1 4041.77 942.362   1
   7  -1  -1 4414.19 1337.29   4
   6   1  -1 4779.72 1348.16   3
   7  -6  -1 3175.32 914.527   2
  -7   1  -1 3479.99 988.253   7
   6  -7  -1 1837.69 767.869   2
   1  -7  -1 4985.10 1248.19   6
  -1  -6  -1 6082.77 1411.76   6
   1   6  -1 4574.42 1102.95   1
  -1   7  -1 5523.31 1327.56   5
   1   6  -1 5282.01 1338.15   5
   1  -7  -1 3934.79 1056.32   2
   6   1  -1 3723.55 898.303   5
   1  -7  -1 3362.53 914.254  11
  -1  -6  -1 2945.43 781.272  11
  -1  -6  -1 2364.59 788.533   2
  -6  -1  -1 4176.18 987.952  10
   1   6   0 5324.47 1175.85   1
  -7   1   0 5066.14 1159.37   9
   7  -6   0 5532.98 999.138   4
  -7   6   0 7106.67 1501.03   9
  -6   7   0 3893.12 1157.05   9
   7  -1   0 2860.95 1194.60   4
   6   1   0 7587.89 1669.16   4
  -7   1   0 5445.44 1153.52   7
   7  -6   0 5488.41 1140.10   2
   6  -7   0 5870.02 1266.70   2
   1  -7   0 6663.50 1384.46   6
  -1  -6   0 5491.30 1409.84   6
  -1   7   0 6133.29 1394.34   5
   1   6   0 6050.77 1443.29   5
   6   1   0 4760.20 984.426   5
  -1   7   0 5460.02 1126.31   1
   1  -7   0 3775.98 1022.50   2
   1  -7   0 5718.32 1114.87  11
  -1  -6   0 7952.49 1298.92  11
  -1  -6   0 3473.47 995.639   2
  -6  -1   0 5457.59 1152.20  10
   7  -6   1 4343.79 931.178   4
  -7   1   1 5039.25 1282.57   9
  -7   6   1 4325.30 1217.17   9
  -6   7   1 2727.88 1031.64   9
   7  -1   1 5761.86 1450.13   4
   6   1   1 6136.00 1517.35   4
  -7   1   1 6039.22 1151.09   7
   1   6   1 4924.98 1194.30   1
  -1   7   1 4478.03 1039.25   1
   7  -6   1 5829.45 1187.67   2
   1  -7   1 4820.63 1278.02   6
   6  -7   1 4662.58 1090.71   2
  -1  -6   1 6122.07 1439.33   6
  -1   7   1 5923.54 1397.13   5
  -6   7   1 2774.80 758.236   1
   1   6   1 5576.20 1403.37   5
   1  -7   1 2856.89 988.133   2
   1  -7   1 4571.55 1112.55  11
  -1  -6   1 4074.94 999.505  11
  -1  -6   1 4457.77 1055.99   2
  -6  -1   1 3942.08 1042.68  10
  -6   7   2 14473.5 1685.67   1
  -7   1   2 16317.1 2172.38   9
  -7   6   2 16740.1 2300.56   9
   7  -6   2 16520.9 1927.59   2
   6  -7   2 18453.9 2184.43   2
   1   6   2 15414.8 2009.95   1
  -6   7   2 13884.0 2078.64   9
   7  -1   2 15493.2 2186.81   4
   6   1   2 18092.9 2426.29   4
  -7   1   2 15842.5 1733.08   7
  -1   7   2 15064.7 1903.42   1
   1  -7   2 18211.0 2287.13   6
  -1  -6   2 17115.5 2248.56   6
  -1   7   2 15638.5 2167.40   5
   1   6   2 14004.7 2080.22   5
   1  -7   2 18220.7 2102.42  11
  -1  -6   2 14597.7 1855.76  11
   6  -7   2 14158.2 1527.95   4
   1  -7   2 12538.0 1911.31   2
   7  -6   2 17318.8 1872.85   4
  -6  -1   2 16971.2 2056.18  10
  -7   1   3 19295.8 2427.13   9
  -7   6   3 21288.2 2515.28   9
  -6   7   3 20496.9 2481.56   9
  -1   7   3 21135.2 2289.84   9
   7  -6   3 17496.2 1964.54   2
   6  -7   3 21155.7 2347.57   2
   7  -1   3 18260.2 2410.91   4
   1  -7   3 17504.8 2217.60   2
  -1   7   3 20701.6 2276.13   1
   1   6   3 21179.7 2442.97   1
   1  -7   3 20962.7 2499.47   6
  -1  -6   3 19633.0 2436.97   6
  -6  -1   3 21669.7 2326.32   6
   1   6   3 18910.8 2374.46   5
   1  -7   3 18094.9 2172.98  11
  -1  -6   3 18593.6 2157.98  11
   6  -7   3 20832.1 1955.51   4
   7  -6   3 21353.2 2144.44   4
  -6  -1   3 20819.4 2347.02  10
   6   1   3 17198.2 2396.24   4
  -6   7   3 18998.2 2004.33   1
   6  -7   4 820.782 561.950   4
   7  -6   4 420.535 655.385   4
  -7   1   4 639.919 767.605   9
  -7   6   4 154.834 598.045   9
   7  -1   4 75.2429 753.012   4
  -6   7   4 236.243 564.139   9
   6   1   4 1010.68 898.266   4
  -1   7   4 264.574 410.452   9
   1  -7   4 1808.63 1023.63   6
  -1  -6   4-209.858 640.990   6
  -6  -1   4 632.643 582.646   6
   1   6   4 96.4750 458.887   1
   7  -6   4 638.047 606.654   2
  -6   7   4 1057.93 595.851   1
   6  -7   4 255.974 591.321   2
   1  -7   4 677.960 714.752  11
  -1  -6   4 778.310 751.395  11
   1  -7   4 940.801 739.730   2
  -6  -1   4 612.566 687.982  10
  -1   7   4-3.77209 476.077   1
  -1   7   5 13623.5 1819.68   9
  -7   1   5 13521.2 2140.15   9
  -7   6   5 14062.0 2153.08   9
   7  -1   5 16266.6 2297.62   4
  -6   7   5 15861.9 2238.94   9
   6   1   5 12539.5 2145.39   4
   1   6   5 10653.8 1829.39   1
  -1  -6   5 9541.90 1814.34   6
  -6  -1   5 13064.5 1782.03   6
   6  -7   5 10866.8 1701.38   2
   6  -7   5 14126.2 1740.53   4
   1  -7   5 12807.2 1920.16  11
   7  -6   5 15522.8 1977.97   4
  -1  -6   5 11701.4 1833.06  11
  -1   7   5 10769.4 1777.66   1
  -6  -1   5 14729.4 2109.64  10
  -6   7   5 13611.1 1838.52   1
  -7   1   6 5563.56 1409.64  10
   6  -7   6 5832.60 1288.07   4
   7  -6   6 6664.39 1427.87   4
  -7   1   6 6128.70 1567.76   9
   7  -1   6 7086.52 1632.59   4
  -7   6   6 5230.14 1426.82   9
   6   1   6 4448.45 1313.71   4
  -6   7   6 6266.25 1448.72   9
  -1   7   6 5138.46 1129.24   9
   1   6   6 6108.92 1388.10   1
  -1  -6   6 4136.01 1422.03   6
  -6   7   6 6629.16 1338.50   1
   6  -7   6 4323.23 1132.45   2
  -1   7   6 5549.85 1367.21   1
   1  -7   6 4969.33 1315.30  11
  -1  -6   6 7715.66 1554.03  11
  -6  -1   6 7631.93 1695.64  10
  -7   1   7 4532.00 1417.07  10
   6  -7   7 1831.96 830.629   4
   7  -6   7 1787.64 879.335   4
  -7   1   7 2855.09 1086.57   9
   7  -1   7 4706.73 1429.97   4
  -7   6   7 2662.67 1107.65   9
   6   1   7 5309.14 1471.96   4
  -6   7   7 1124.73 873.954   9
   1   6   7 3521.65 1230.55   1
  -6   7   7 3009.70 1018.24   1
  -1   7   7 568.403 552.537   1
   6  -7   7 3514.54 1009.36   2
   1  -7   7 3458.90 1112.60  11
  -1  -6   7 3766.59 1167.63  11
  -6  -1   7 2521.78 1133.88  10
   6  -7   8 4623.21 1266.68   4
   7  -6   8 5709.12 1402.53   4
   7  -1   8 4827.67 1451.81   4
   6   1   8 5142.06 1454.31   4
  -7   6   8 5998.82 1548.70   9
  -6   7   8 7951.26 1696.60   9
   1   6   8 8413.58 1707.07   1
  -6   7   8 2762.54 1014.52   1
  -1   7   8 7410.59 1598.65   1
   1  -7   8 7152.95 1570.86  11
  -1  -6   8 5718.04 1438.60  11
   6  -7   8 5890.06 1278.45   2
  -6  -1   8 7098.48 1670.94  10
  -7   1   8 6845.52 1696.15  10
   6  -7   9 2631.56 1073.28   4
   7  -6   9 921.514 765.620   4
   7  -1   9 1996.08 1097.07   4
   6   1   9 1757.39 877.172   4
  -7   6   9 196.104 713.601   9
  -6   7   9 1702.62 1062.36   9
   1   6   9 397.317 663.552   1
  -1   7   9 1024.59 799.116   1
  -6   7   9 1791.98 873.952   1
   1  -7   9 1976.69 957.132  11
  -1  -6   9 205.342 697.364  11
  -6  -1   9 2269.49 1120.13  10
  -7   1   9 1844.56 1188.43  10
   6  -7  10 6998.48 1513.44   4
   7  -6  10 8531.16 1814.99   4
   7  -1  10 9389.79 1932.57   4
   6   1  10 8250.90 1824.27   4
  -7   6  10 10444.9 2047.57   9
  -6   7  10 8894.16 1767.87   9
   1   6  10 4638.40 1401.51   1
  -1   7  10 8972.88 1828.15   1
  -6   7  10 4689.80 1296.14   1
   1  -7  10 8852.14 1763.79  11
  -1  -6  10 6471.33 1582.55  11
  -6  -1  10 4513.82 1512.71  10
  -7   1  10 6761.92 1723.70  10
   7  -6  11 7019.24 1717.20   4
   7  -1  11 4678.20 1489.59   4
   6   1  11 4797.40 1389.04   4
  -7   6  11 7632.17 1844.25   9
   1   6  11 8001.74 1847.31   1
  -6   7  11 5463.62 1463.37   9
  -6   7  11 3829.05 1258.98   1
  -1   7  11 7792.56 1818.98   1
   1  -7  11 4641.25 1411.74  11
  -1  -6  11 2663.97 1162.72  11
  -6  -1  11 6100.59 1638.73  10
  -7   1  11 5208.12 1646.95  10
   6  -7  11 3698.88 1231.38   4
   6   1  12 1366.24 935.204   4
  -7   6  12 690.099 765.148   9
  -7   7 -11 3731.66 1334.22   7
   7  -7 -10 5115.22 1410.00   2
  -7   7 -10 4829.85 1473.42   7
   7   0 -10 6145.77 1756.20   3
   0  -7 -10 3953.96 1287.84  12
  -7   0 -10 5580.83 1725.85  12
   0   7 -10 6163.53 1532.44   5
   7  -7  -9 2535.03 1090.37   2
  -7   7  -9 912.779 646.873   7
   7   0  -9 1303.91 1212.08   3
   0  -7  -9 416.690 632.920  12
  -7   0  -9 498.885 737.413  12
   0   7  -9 531.801 845.397   5
   0   7  -8 3050.55 1111.95   5
  -7   7  -8 4333.69 1147.72   9
   7  -7  -8 3217.07 1120.35   2
   7   0  -8 4374.93 1442.27   3
   0  -7  -8 2572.03 901.227  12
  -7   0  -8 3434.11 1356.86  12
  -7   7  -7 3086.70 1003.30   9
  -7   0  -7 2446.00 1080.55   7
   7  -7  -7 2682.57 1058.13   2
   7   0  -7 3263.57 1305.45   3
   0  -7  -7 4002.64 1282.67   6
   0  -7  -7 3210.48 1079.59  12
   0   7  -7 2637.62 1125.30   5
  -7   0  -7 3596.70 1192.20  12
  -7   7  -6 2265.16 962.501   9
   7  -7  -6 2204.64 959.874   2
  -7   0  -6 3947.73 1214.39   7
   7   0  -6 2889.30 1325.63   3
   0  -7  -6 3525.59 1168.62   6
   0  -7  -6 3225.13 970.648   2
   0  -7  -6 1700.44 734.879  12
   0   7  -6 3833.12 1227.64   5
  -7   0  -6 5258.21 1512.92  12
  -7   7  -5 8089.67 1567.03   9
   7  -7  -5 10037.3 1718.09   2
  -7   0  -5 12270.4 1970.88   7
   7   0  -5 11345.8 2146.78   3
   0  -7  -5 12762.8 1945.95   6
   0  -7  -5 9641.43 1512.15  12
   0  -7  -5 8850.79 1512.46   2
   0   7  -5 11361.3 1947.07   5
  -7   0  -5 11521.4 2085.90  12
   0   7  -4 717.992 651.927   5
  -7   7  -4 1211.46 780.351   9
   7  -7  -4 1542.96 817.265   2
  -7   0  -4 401.110 587.260   7
   7   0  -4 3400.58 1350.04   3
   0  -7  -4 2259.53 995.512   6
   0  -7  -4 348.502 579.955   2
  -7   0  -4 307.976 638.416  12
  -7   7  -3 15478.2 2251.75   9
  -7   0  -3 13165.8 1936.66   7
   7  -7  -3 13450.1 1940.59   2
   7   0  -3 15410.2 2352.83   3
   0  -7  -3 16906.5 2212.07   6
   0   7  -3 12512.3 2060.38   5
   0  -7  -3 12692.7 1800.81   2
  -7   0  -3 17053.2 2369.26  12
   0   7  -2 10875.8 1607.25   1
  -7   7  -2 13495.9 2099.15   9
  -7   0  -2 13926.0 1911.39   7
   7  -7  -2 10199.4 1697.86   2
   7   0  -2 10095.8 1927.74   3
   0  -7  -2 11580.8 1909.26   6
   0   7  -2 9108.25 1748.22   5
   0  -7  -2 11302.7 1742.83   2
  -7   7  -1 7361.88 1648.57   9
   7   0  -1 4822.11 1419.02   4
   0   7  -1 6860.74 1310.24   1
  -7   0  -1 4348.53 1092.67   7
   7  -7  -1 4905.87 1187.93   2
   0  -7  -1 6943.93 1600.87   6
   0   7  -1 9044.64 1831.06   5
   0  -7  -1 4174.04 1124.58   2
   0  -7  -1 7822.18 1295.70  11
  -7   0   0 2606.70 932.584  10
  -7   7   0 3035.53 1187.53   9
   7   0   0 1340.55 807.069   4
  -7   0   0 1014.69 623.598   7
   0   7   0 2641.01 907.059   1
   7  -7   0 1092.77 687.446   2
   0  -7   0 2317.91 1096.40   6
   0   7   0 841.457 851.301   5
   0  -7   0 1462.89 744.852  11
   0  -7   0 1732.77 790.692   2
  -7   0   1 7632.49 1479.50  10
   0   7   1 5888.77 1293.63   1
  -7   7   1 7516.99 1622.35   9
   7   0   1 6329.78 1644.35   4
  -7   0   1 6791.60 1247.12   7
   7  -7   1 6242.37 1323.98   2
   0  -7   1 5906.18 1470.16   6
   0   7   1 8540.13 1655.39   5
   0  -7   1 5127.65 1181.56  11
   0  -7   1 5241.69 1224.83   2
  -7   0   2 12623.3 1885.75  10
   7  -7   2 10300.3 1416.23   4
  -7   7   2 15915.6 2315.26   9
   7   0   2 17342.8 2461.69   4
   0  -7   2 13913.3 2097.11   6
   7  -7   2 13328.3 1853.41   2
   0   7   2 10060.5 1892.08   5
   0   7   2 13357.9 1915.28   1
   0  -7   2 14732.1 1937.72  11
   0  -7   2 11641.1 1850.95   2
  -7   7   3 17451.2 2459.11   9
   7   0   3 15551.3 2354.88   4
   0  -7   3 12668.5 2088.88   6
   0   7   3 14157.1 2002.30   1
   0   7   3 14335.5 2196.24   5
   7  -7   3 13714.5 1902.56   2
   7  -7   3 13222.3 1661.68   4
   0  -7   3 13791.5 1926.26  11
  -7   0   3 13397.6 2041.10  10
   7  -7   4 226.353 447.831   4
  -7   7   4 979.718 839.647   9
   7   0   4 2981.39 1346.80   4
   0   7   4 203.163 577.434   1
   0  -7   4 1162.83 868.843   6
   7  -7   4 843.666 567.130   2
   0  -7   4 1182.79 772.946  11
  -7   0   4 2812.42 1095.80  10
   7  -7   5 11468.4 1682.27   4
  -7   7   5 10961.5 2016.92   9
   7   0   5 12897.5 2220.84   4
   0   7   5 9881.34 1543.71   9
   0   7   5 9420.83 1745.92   1
   0  -7   5 10442.3 1959.90   6
   7  -7   5 10168.5 1619.47   2
   0  -7   5 9819.56 1749.28  11
  -7   0   5 11841.9 2030.39  10
   7  -7   6 4345.38 1123.89   4
   7   0   6 2379.49 1276.32   4
  -7   7   6 1032.08 953.972   9
   0   7   6 2977.49 1084.81   1
   0  -7   6 2689.07 1221.67  11
  -7   0   6 3175.48 1209.07  10
   7  -7   7 3086.94 1005.94   4
   0   7   7 3501.14 1212.23   1
   7   0   7 5068.97 1559.02   4
  -7   7   7 2070.96 1036.11   9
   0  -7   7 3494.28 1095.38  11
  -7   0   7 3922.75 1368.80  10
   7  -7   8 4082.50 1180.69   4
   0   7   8 5969.61 1534.02   1
   7   0   8 6362.90 1672.10   4
  -7   7   8 7771.48 1773.78   9
   0  -7   8 6575.05 1564.68  11
  -7   0   8 6657.75 1702.38  10
   7  -7   9 1228.98 745.338   4
   0   7   9 1296.22 858.007   1
   7   0   9 344.671 698.112   4
  -7   7   9 973.467 718.132   9
   0  -7   9 2520.74 1103.27  11
  -7   0   9 278.144 719.411  10
   7  -7  10 4443.26 1369.76   4
   0   7  10 1962.32 983.119   1
   7   0  10 6220.04 1636.51   4
  -7   7  10 4712.90 1449.08   9
   0  -7  10 7018.22 1675.83  11
  -7   0  10 3558.92 1494.20  10
  -7   7  10 3123.05 1159.78   1
  -7   7  11 3284.68 1189.08   9
  -4   8 -11 1862.21 1206.35   9
   4  -8 -11 529.027 622.151   2
  -8   4 -11-519.678 745.643  12
  -4   8 -10 4910.36 1341.18   9
  -8   4 -10 4096.94 1499.78   7
   4  -8 -10 3537.75 1195.31   2
   8  -4 -10 3009.72 1192.84   3
   4   4 -10 1594.47 1225.28   3
  -4  -4 -10 3888.16 1302.98  12
  -8   4 -10 601.685 622.169  12
  -4   8  -9 782.728 692.220   9
  -8   4  -9 2122.91 1077.95   7
   4  -8  -9-354.262 541.084   2
   8  -4  -9 1088.33 839.163   3
   4   4  -9 123.450 744.117   3
  -4  -4  -9 1397.88 902.027  12
  -8   4  -9 366.552 658.660  12
  -4   8  -8 17612.6 2444.71   9
  -8   4  -8 23501.6 2997.51   7
   4  -8  -8 16793.8 2329.81   2
   8  -4  -8 17305.4 2328.94   3
   4   4  -8 15161.2 2457.97   3
  -4  -4  -8 15466.2 2317.26  12
  -8   4  -8 17120.5 2527.05  12
   4   4  -8 16135.9 2339.18   5
  -4   8  -7 558.465 588.764   9
   8  -4  -7 158.358 562.141   4
  -8   4  -7 1430.77 934.540   7
   4  -8  -7-1264.91 812.020   2
   8  -4  -7 1331.73 886.764   3
   4   4  -7 222.300 831.137   3
  -4   8  -7-601.437 566.924   5
  -4  -4  -7-682.104 639.820  12
  -8   4  -7 174.444 603.738  12
   4   4  -7 828.382 688.914   5
   8  -4  -6 6666.56 1419.46   4
  -4   8  -6 6766.21 1526.47   9
  -8   4  -6 8661.66 1872.53   7
   4  -8  -6 6788.65 1495.78   2
   8  -4  -6 5019.97 1354.79   3
   4   4  -6 6952.66 1656.29   3
  -4   8  -6 5105.14 1230.23   5
  -4  -4  -6 5542.55 1411.78  12
   4   4  -6 7007.65 1559.34   5
  -8   4  -5 1632.95 758.123   9
   8  -4  -5 471.379 523.710   4
  -4   8  -5-248.405 612.608   9
  -8   4  -5 750.573 721.703   7
   8  -4  -5 2085.01 940.174   3
   4  -8  -5 138.631 506.333   2
   4   4  -5 366.087 701.083   3
  -4   8  -5 373.490 423.724   5
  -4  -4  -5 78.7745 476.518  12
   4   4  -5 28.1840 505.771   5
   8  -4  -5 739.032 661.009   2
  -4  -4  -4 3401.42 976.770  12
  -8   4  -4 4568.94 1109.37   9
   8  -4  -4 3542.28 1065.83   4
  -4   8  -4 4077.52 1256.47   9
   8  -4  -4 3875.75 1023.40   2
  -8   4  -4 5199.45 1382.15   7
   8  -4  -4 3395.53 1062.40   3
   4   4  -4 3520.86 1227.83   3
   4  -8  -4 3210.84 1035.77   2
  -4   8  -4 6050.60 1248.43   5
   4   4  -4 4474.05 1224.17   5
  -8   4  -3-275.821 645.312   9
   8  -4  -3 3.50324 493.524   4
  -4   8  -3 118.254 578.580   9
   8  -4  -3 181.700 449.535   2
  -8   4  -3 670.535 682.570   7
   4   4  -3 1035.16 758.229   3
   4  -8  -3 197.307 600.009   2
  -4   8  -3 85.3253 420.301   5
  -4  -4  -3 687.988 577.654  12
   4   4  -3 716.275 752.197   5
  -8   4  -2 13573.7 1952.78   9
   8  -4  -2 11649.7 1744.96   4
  -4   8  -2 12679.5 2019.65   9
   4   4  -2 11829.3 1922.43   5
   8  -4  -2 11778.5 1586.42   2
  -8   4  -2 13955.6 2049.61   7
   4   4  -2 10425.6 1822.61   3
   4  -8  -2 10764.9 1791.38   2
  -4   8  -2 11889.7 1750.04   5
  -4  -4  -2 11228.2 1644.20  12
  -8   4  -1-322.332 733.924   9
   8  -4  -1-299.601 571.179   4
  -4   8  -1 247.975 529.073   9
   8  -4  -1 754.737 528.518   2
  -8   4  -1 830.790 717.473   7
  -4   8  -1-19.4042 424.610   5
   4  -8  -1 734.737 726.157   2
   4   4  -1-231.601 548.076   5
  -4  -4  -1 535.655 443.233  12
  -8   4   0 65236.9 4454.16   9
  -4   8   0 66453.8 4555.06   9
   4  -8   0 58403.8 4205.77   2
  -4  -4   0 68875.9 4629.64   6
   4   4   0 65971.1 4526.20   5
  -4  -4   0 59945.6 3671.30  12
  -4  -4   0 64734.0 3764.81  10
   8  -4   0 60984.0 4023.24   4
  -8   4   1 470.271 755.535   9
   8  -4   1-3.63450 527.660   4
  -4   8   1 557.851 714.959   9
  -4   8   1-222.231 347.733   1
  -4  -4   1-193.081 714.700   6
   4  -8   1-205.938 549.406   2
   4   4   1 2457.24 970.522   5
  -4  -4   1-172.129 454.187  10
  -8   4   2 11547.6 1927.29   9
   8  -4   2 8534.74 1538.79   4
  -4   8   2 13279.5 2049.52   9
   4   4   2 12243.1 1980.44   4
  -4   8   2 11333.0 1566.78   1
  -4  -4   2 12279.6 2036.56   6
   4   4   2 11419.2 1872.89   5
   4  -8   2 7986.39 1541.17   2
  -4  -4   2 9977.28 1618.27  10
  -8   4   3 1200.58 934.227   9
   8  -4   3-52.3525 503.348   4
  -4   8   3 281.454 688.461   9
   4   4   3 385.957 826.107   4
  -4   8   3-1192.24 629.668   1
  -4  -4   3-305.996 829.236   6
   4   4   3-79.2530 553.691   1
   4   4   3-497.211 571.174   5
   4  -8   3 6.38856 593.543   2
  -4  -4   3 845.011 749.629  10
  -8   4   4 4842.93 1457.01   9
   8  -4   4 5870.02 1324.27   4
  -4   8   4 5570.04 1361.88   9
   4   4   4 5314.58 1319.56   4
  -4   8   4 4429.11 1084.40   1
   4   4   4 1197.13 753.696   1
  -4  -4   4 6578.55 1532.47   6
   4   4   4 3586.74 1120.66   5
   4  -8   4 5567.58 1402.70   2
   4  -8   4 4054.47 1211.84  11
  -4  -4   4 7181.55 1509.47  10
   8  -4   5 851.222 739.735   4
  -8   4   5 257.598 790.435   9
   4   4   5 702.433 702.333   4
  -4   8   5 184.782 688.114   9
  -4   8   5-427.052 489.996   1
  -4  -4   5-135.703 882.169   6
   4   4   5-160.349 550.040   1
   4  -8   5 588.321 804.755  11
   4  -8   5-213.357 610.016   2
  -4  -4   5 167.991 689.468  10
   8  -4   6 8321.63 1684.24   4
  -8   4   6 8819.14 1881.92   9
   4   4   6 7819.82 1563.96   4
  -4   8   6 8203.00 1574.60   9
   4   4   6 6499.07 1496.75   1
  -4   8   6 7816.51 1521.64   1
  -4  -4   6 7762.72 1672.87   6
   4  -8   6 6932.12 1591.17  11
   4  -8   6 7002.58 1551.31   2
  -4  -4   6 9209.45 1722.05  10
   8  -4   7-148.171 540.060   4
  -8   4   7 1902.30 1162.68   9
  -4   8   7-403.660 499.052   9
  -4   8   7-831.184 609.410   1
  -4  -4   7 340.715 869.992   6
   4   4   7 83.2157 599.934   1
   4  -8   7 399.372 700.906  11
   4  -8   7 177.969 566.286   2
  -4  -4   7-988.811 772.780  10
  -4   8   8 17656.2 2316.29   9
  -8   4   8 17028.4 2619.33   9
  -4   8   8 14962.5 2186.62   1
  -4  -4   8 16134.4 2423.52   6
   4   4   8 18140.3 2551.06   1
   4  -8   8 12202.9 2105.31  11
   8  -4   8 22008.1 2800.06   4
  -4  -4   8 17826.0 2554.01  10
   8  -4   9 487.096 771.807   4
  -8   4   9 93.5590 703.983   9
  -4   8   9 1130.07 758.597   1
   4   4   9-1062.49 757.822   1
   4  -8   9-388.719 697.046  11
  -4  -4   9 208.396 656.850  10
   8  -4  10 3194.16 1352.28   4
  -8   4  10 4521.55 1610.76   9
  -4   8  10 5011.29 1375.27   1
   4   4  10 3021.17 1208.09   1
   4  -8  10 2557.73 1083.61  11
  -4  -4  10 1979.78 1171.74  10
  -5   8 -11 2457.64 1039.39   9
   3  -8 -11 4107.21 1228.48   2
   3   5 -11 4983.99 1520.92   3
  -5   8 -10 6898.66 1588.24   9
   8  -5 -10 7534.40 1796.87   2
  -8   3 -10 7411.15 1834.92   7
   5  -8 -10 7241.60 1708.92   2
  -8   5 -10 7315.77 1806.62   7
   3  -8 -10 5697.61 1428.27   2
   8  -3 -10 5600.73 1609.61   3
   5   3 -10 5506.94 1647.35   3
   3   5 -10 4261.32 1402.29   3
  -3  -5 -10 7594.67 1754.75  12
  -5  -3 -10 7850.41 1831.04  12
  -3   8 -10 5062.98 1311.51   5
  -8   3 -10 3485.92 1418.77  12
  -8   5 -10 4076.48 1261.13  12
   3   5 -10 5589.55 1466.83   5
  -5   8  -9 26.6957 643.768   9
   8  -5  -9 222.561 612.141   2
  -8   3  -9 485.023 726.946   7
   5  -8  -9 1741.06 970.691   2
  -8   5  -9 721.209 1016.49   7
  -5  -3  -9 2237.07 1082.68  12
   3  -8  -9 91.1150 500.816   2
   8  -3  -9-318.259 645.651   3
   5   3  -9-250.978 637.408   3
   3   5  -9 1240.25 1022.43   3
  -3  -5  -9 20.7144 643.788  12
  -3   8  -9 262.939 582.605   5
  -8   3  -9 732.239 763.649  12
  -8   5  -9 1457.24 829.820  12
   3   5  -9 352.067 745.494   5
  -5   8  -8 3591.48 1138.64   9
   8  -5  -8 3873.14 1301.20   2
  -8   3  -8 2147.46 1085.16   7
   5  -8  -8 4929.60 1367.00   2
  -8   5  -8 2989.10 1217.15   7
   3  -8  -8 4663.41 1497.22   2
   8  -3  -8 1921.38 1070.06   3
   5   3  -8 1928.64 1109.78   3
   3   5  -8 3628.08 1281.77   3
  -3  -5  -8 4124.61 1293.75  12
  -3   8  -8 1880.20 936.485   5
  -5  -3  -8 2455.87 1100.73  12
  -8   3  -8 2021.78 990.208  12
   3   5  -8 2643.51 1061.45   5
  -8   5  -8 2747.96 1023.07  12
  -5   8  -7 1168.09 770.288   9
   8  -5  -7-429.635 532.038   2
  -8   3  -7 876.231 776.555   7
   5  -8  -7 619.437 598.098   2
  -8   5  -7-426.079 623.564   7
   8  -3  -7 631.008 769.854   3
   3  -8  -7 767.861 674.998   2
   5   3  -7 1772.74 1042.68   3
   3   5  -7 1625.02 890.160   3
  -3  -5  -7 597.997 651.572  12
  -3   8  -7 1465.31 791.631   5
  -5  -3  -7 437.728 746.188  12
  -8   3  -7 1217.86 927.380  12
   3   5  -7 1458.39 801.215   5
  -8   5  -7 1219.40 833.552  12
  -8   5  -6 4307.00 1187.23   9
  -5   8  -6 6310.11 1461.37   9
   8  -3  -6 8101.59 1687.13   4
   8  -5  -6 2517.34 1018.96   2
  -8   3  -6 5492.38 1433.71   7
  -8   5  -6 5264.57 1462.66   7
   5  -8  -6 5679.05 1418.29   2
   8  -3  -6 5298.90 1346.04   3
   5   3  -6 6122.12 1599.44   3
   3   5  -6 3970.59 1265.07   3
   3  -8  -6 5626.30 1333.00   2
  -3   8  -6 5333.83 1328.03   5
  -3  -5  -6 6847.53 1461.04  12
  -5  -3  -6 4094.30 1195.37  12
   3   5  -6 5281.95 1319.76   5
  -8   3  -6 3418.53 1272.67  12
   5   3  -6 4022.28 1155.82   5
  -8   5  -5 20101.7 2310.72   9
   3  -8  -5 17251.6 2264.52   2
  -5   8  -5 16348.5 2299.32   9
   8  -3  -5 16245.5 2209.34   4
   3   5  -5 17113.2 2313.08   3
  -8   5  -5 22170.8 2803.25   7
  -8   3  -5 17078.7 2386.74   7
   5  -8  -5 13709.5 2064.54   2
   8  -3  -5 16684.3 2311.46   3
   5   3  -5 17850.7 2498.41   3
  -3   8  -5 16922.6 2209.86   5
  -3  -5  -5 17539.6 2173.53  12
  -5  -3  -5 17535.7 2335.98  12
   3   5  -5 14692.0 2208.75   5
   5   3  -5 14525.5 2132.75   5
   8  -5  -5 16738.3 2162.50   2
  -8   3  -4 1596.46 719.908   9
  -8   5  -4-85.9227 483.306   9
   8  -5  -4 728.574 523.440   4
  -5   8  -4 1818.26 808.947   9
   8  -3  -4 1840.45 915.956   4
   8  -5  -4 333.717 493.328   2
  -8   3  -4 435.204 651.200   7
  -8   5  -4 304.272 641.168   7
   8  -3  -4 164.942 696.405   3
   5  -8  -4 311.677 591.315   2
   5   3  -4 1144.27 905.795   3
   3   5  -4-560.907 632.603   3
   3  -8  -4 465.436 519.500   6
   3  -8  -4-16.8907 543.639   2
  -3   8  -4 2675.35 937.901   5
  -3  -5  -4 959.298 745.875  12
  -5  -3  -4-198.647 482.103  12
   3   5  -4 609.230 589.926   5
   5   3  -4 1129.40 771.698   5
  -8   3  -3 10712.9 1652.52   9
  -8   5  -3 8494.85 1599.73   9
   8  -5  -3 9817.45 1463.77   4
  -5   8  -3 7505.72 1571.01   9
   8  -3  -3 6269.85 1434.74   4
   8  -3  -3 7939.86 1658.27   3
   8  -5  -3 7725.93 1416.41   2
  -8   3  -3 8069.22 1564.79   7
   5   3  -3 5947.80 1494.58   3
   3   5  -3 8028.41 1570.05   3
   5  -8  -3 4726.48 1261.30   2
   3  -8  -3 11344.9 1614.32   6
   3  -8  -3 5679.07 1320.81   2
  -3   8  -3 9303.16 1642.48   5
  -3  -5  -3 9161.59 1484.51  12
   3   5  -3 7439.27 1641.76   5
  -5  -3  -3 7216.65 1440.68  12
   5   3  -3 9444.26 1674.27   5
  -8   3  -2 12243.8 1795.21   9
  -8   5  -2 12261.9 1902.66   9
   8  -5  -2 11735.3 1630.72   4
   8  -3  -2 10497.4 1776.87   4
  -5   8  -2 10067.9 1810.75   9
  -3   8  -2 11418.5 1901.16   9
   8  -3  -2 11599.1 1529.78   2
   8  -5  -2 8639.55 1429.76   2
  -8   3  -2 10720.6 1789.71   7
   3   5  -2 8114.12 1538.30   3
   5   3  -2 10839.6 1956.49   3
   3  -8  -2 10529.3 1596.09   6
   5  -8  -2 8166.86 1619.50   2
  -3  -5  -2 12029.2 1964.79   6
   3  -8  -2 9077.16 1681.83   2
  -3   8  -2 12350.5 1871.54   5
  -3  -5  -2 9817.55 1473.81  12
   3   5  -2 8379.25 1662.66   5
   5   3  -2 9801.08 1689.06   5
  -5  -3  -2 11889.2 1791.07  12
  -8   3  -1 9067.34 1611.18   9
  -8   5  -1 6952.78 1542.10   9
   8  -5  -1 6213.40 1223.06   4
   8  -3  -1 6943.03 1424.93   4
  -5   8  -1 4352.91 1323.85   9
  -3   8  -1 9740.19 1746.44   9
   8  -5  -1 5113.30 1117.27   2
  -8   3  -1 5506.88 1264.20   7
   3  -8  -1 7376.19 1331.06   6
   5  -8  -1 3732.29 1104.64   2
  -3  -5  -1 6725.30 1597.59   6
   3  -8  -1 5991.87 1345.47   2
  -3   8  -1 7691.43 1521.45   5
   3   5  -1 4549.16 1284.64   5
   5   3  -1 6890.00 1424.32   5
  -5  -3  -1 5762.13 1277.89  12
  -8   3   0 1970.71 873.966   9
   8  -5   0 2351.06 863.578   4
  -8   5   0 1137.12 791.036   9
   8  -3   0 1051.25 696.437   4
  -5   8   0 1351.07 864.825   9
  -3   8   0 519.937 597.226   9
   8  -5   0 1252.41 579.958   2
  -8   3   0 1312.77 771.445   7
  -3  -5   0 1558.38 1022.02   6
   5  -8   0 1635.50 850.742   2
  -3   8   0 586.097 558.395   5
   3  -8   0 1899.83 926.206   2
   3   5   0 1240.59 900.881   5
   5   3   0 2217.11 959.822   5
  -5  -3   0 877.189 564.311  12
  -5  -3   0 1438.35 670.841  10
  -8   3   1 7713.99 1571.89   9
   8  -5   1 5984.47 1269.41   4
  -8   5   1 8939.83 1764.79   9
   8  -3   1 7461.75 1534.41   4
  -5   8   1 7617.64 1601.39   9
  -3   8   1 4942.69 1284.62   9
   5   3   1 5147.18 1479.07   4
  -8   3   1 6165.38 1264.16   7
  -3  -5   1 9482.34 1815.16   6
  -5  -3   1 7495.06 1619.98   6
   5  -8   1 5784.07 1351.22   2
   3   5   1 11537.7 1979.34   5
   5   3   1 7519.23 1458.84   5
   3  -8   1 6018.98 1321.68   2
  -5  -3   1 7113.03 1282.18  12
  -3   8   1 7083.10 1240.05   1
  -5  -3   1 5903.68 1184.10  10
  -8   3   2 12009.7 2013.08   9
   8  -5   2 10954.1 1709.00   4
  -8   5   2 12187.5 2037.06   9
  -5   8   2 11185.4 1532.99   1
   8  -3   2 10717.8 1831.57   4
  -5   8   2 14134.0 2142.12   9
  -3   8   2 10154.7 1760.76   9
   5   3   2 13553.3 2184.50   4
   3   5   2 12046.9 1834.16   4
  -8   3   2 11772.0 1672.01   7
  -3  -5   2 10994.6 1974.12   6
  -5  -3   2 12351.2 2049.29   6
   5  -8   2 10341.3 1740.28   2
   3   5   2 12796.7 2061.73   5
   5   3   2 10311.7 1650.20   5
  -3   8   2 12249.9 1683.88   1
   3  -8   2 8035.09 1630.76   2
  -5  -3   2 9276.97 1422.27  12
   3  -8   2 14522.3 2003.13  11
   3   5   2 9833.04 1755.74   1
  -5  -3   2 11383.4 1695.21  10
  -8   3   3 12274.5 2058.05   9
  -5   8   3 11584.4 1606.41   1
   8  -5   3 7645.31 1497.83   4
  -8   5   3 6052.68 1535.07   9
   8  -3   3 6674.16 1524.34   4
  -5   8   3 6410.78 1483.26   9
  -3   8   3 7829.89 1518.45   9
   5   3   3 9467.77 1962.62   4
   3   5   3 9994.56 1639.73   4
  -8   3   3 10187.1 1502.15   7
  -3  -5   3 12449.2 2018.32   6
  -5  -3   3 9585.94 1793.53   6
   3   5   3 6565.23 1480.31   1
  -3   8   3 9260.84 1535.58   1
   5   3   3 10022.6 1660.44   5
   3   5   3 8177.22 1658.84   5
   5  -8   3 8002.30 1659.30   2
   3  -8   3 6798.84 1441.54   2
   3  -8   3 11975.8 1915.02  11
  -5  -3   3 8483.69 1556.63  10
  -5   8   4 967.618 574.905   1
   8  -5   4 297.681 606.405   4
  -8   3   4 1590.45 1025.95   9
  -8   5   4 1364.17 1049.58   9
   8  -3   4-170.048 615.988   4
  -5   8   4 272.235 594.429   9
   5   3   4 608.439 782.320   4
   3   5   4 930.447 826.541   4
  -3   8   4 371.737 543.598   9
  -3   8   4 1271.65 732.267   1
  -3  -5   4 1344.35 1017.40   6
  -5  -3   4 1638.18 909.347   6
   3   5   4 342.302 598.228   5
   5  -8   4 1491.25 869.369   2
   3  -8   4 1507.78 816.559  11
   3  -8   4 545.841 674.781   2
   3   5   4 474.045 652.959   1
  -5  -3   4 2435.33 1010.10  10
  -8   3   5 21784.2 2748.65   9
   8  -5   5 16950.8 2207.25   4
  -5   8   5 18326.4 2163.92   1
  -8   5   5 18108.1 2543.00   9
  -5   8   5 16050.7 2266.01   9
  -3   8   5 13556.1 2017.74   9
  -3   8   5 13103.3 1959.85   1
  -5  -3   5 18203.3 2360.26   6
  -3  -5   5 18277.1 2503.26   6
   3   5   5 17052.4 2353.66   1
   5  -8   5 16630.9 2261.32   2
   3  -8   5 16216.7 2282.43  11
   3  -8   5 15776.7 2262.66   2
  -5  -3   5 19446.1 2457.13  10
   8  -3   5 17626.9 2372.62   4
   5   3   5 20095.9 2629.52   4
  -5   8   6 6336.57 1325.45   1
   8  -5   6 4523.34 1252.16   4
  -8   3   6 3562.25 1379.34   9
   8  -3   6 7624.85 1705.00   4
  -8   5   6 5050.11 1587.24   9
   5   3   6 5784.09 1465.47   4
  -5   8   6 3765.50 1210.98   9
  -3   8   6 3731.02 1043.05   9
   3   5   6 3300.87 1142.09   1
  -3   8   6 4845.85 1238.98   1
  -3  -5   6 10345.1 1955.36   6
  -5  -3   6 3678.12 1230.94   6
   5   3   6 2812.03 1139.86   1
   5  -8   6 4808.99 1348.87   2
   3  -8   6 7992.10 1656.92  11
   3  -8   6 4465.76 1284.77   2
  -5  -3   6 5219.33 1331.74  10
  -5   8   7 2285.30 994.546   1
   8  -5   7 1589.72 907.093   4
  -8   3   7 644.745 786.653   9
   8  -3   7 1278.15 877.790   4
  -8   5   7 721.061 1014.65   9
   5   3   7 1337.59 833.055   4
  -5   8   7 785.342 810.375   9
  -3   8   7 227.021 532.301   9
   3   5   7 96.9985 664.369   1
  -3   8   7 2041.77 934.390   1
  -3  -5   7 948.962 952.882   6
  -5  -3   7 675.701 755.109   6
   3  -8   7 1347.32 835.712  11
   5  -8   7 135.607 555.909   2
  -5  -3   7 2797.24 1120.67  10
   5   3   7 846.453 741.935   1
  -5   8   8 5154.38 1357.58   1
   8  -5   8 3273.42 1227.38   4
  -8   3   8 4710.01 1643.63   9
   8  -3   8 3631.77 1257.74   4
   3   5   8 1948.77 895.559   1
  -8   5   8 4314.62 1521.63   9
   5   3   8 4066.96 1250.86   4
   5   3   8 4217.35 1382.02   1
  -5   8   8 4396.37 1308.06   9
  -3   8   8 4561.80 1300.60   1
  -5  -3   8 5009.94 1344.69   6
   3  -8   8 3265.05 1186.28  11
  -5  -3   8 5173.76 1454.98  10
   5  -8   8 2139.69 950.727   2
   3   5   9-361.267 534.105   1
  -5   8   9 230.087 453.046   1
   8  -5   9 1996.96 1009.11   4
   8  -3   9 793.191 773.138   4
  -8   3   9 893.535 1044.71   9
  -8   5   9 2175.89 1183.04   9
   5   3   9 866.378 761.180   4
  -5   8   9 649.866 912.261   9
  -3   8   9 287.496 716.474   1
   5   3   9 503.525 687.329   1
   5  -8   9 946.250 930.974  11
   3  -8   9-903.249 788.459  11
  -5  -3   9 1609.75 1197.27  10
  -8   3  10 5558.46 1671.38  10
   8  -5  10 8526.57 1888.22   4
  -5   8  10 5304.00 1399.87   1
   8  -3  10 6163.04 1673.33   4
  -8   3  10 8172.27 1977.47   9
  -8   5  10 8150.41 2037.53   9
  -3   8  10 5259.00 1476.25   1
   5   3  10 8205.12 1830.06   1
   5  -8  10 6248.52 1589.78  11
   3  -8  10 7382.72 1811.13  11
   3   5  10 6533.66 1732.95   1
  -5  -3  10 6055.94 1598.92  10
   2   6 -11 4710.95 1446.17   3
  -6   8 -10 5307.59 1346.34   9
   8  -2 -10 1761.43 1327.12   3
   2   6 -10 1375.76 827.362   3
  -2  -6 -10 5560.16 1539.78  12
  -2   8 -10 4118.37 1250.93   5
  -6   8  -9 2058.83 1048.81   9
   8  -6  -9 2153.59 1051.95   2
   6  -8  -9 3466.37 1221.21   2
  -8   2  -9 1900.56 1179.36   7
  -8   6  -9 1570.90 998.894   7
   8  -2  -9 402.717 813.712   3
   6   2  -9 1265.84 1094.80   3
   2  -8  -9 802.495 741.361   2
   2   6  -9 684.402 755.174   3
  -2  -6  -9 531.068 586.608  12
  -6  -2  -9 936.722 854.671  12
  -2   8  -9 2208.69 936.012   5
  -8   2  -9-151.150 747.319  12
   2   6  -9 1318.11 872.204   5
  -6   8  -8 1630.77 895.525   9
   8  -6  -8 1512.59 883.041   2
  -8   2  -8 2898.53 1268.32   7
   6  -8  -8 1566.94 996.789   2
  -8   6  -8 3365.38 1315.78   7
   8  -2  -8 1112.00 764.991   3
   6   2  -8 2056.19 1245.34   3
   2   6  -8 2485.76 1025.03   3
   2  -8  -8 2184.86 976.466   2
  -2  -6  -8 2435.11 962.207  12
  -2   8  -8 2937.88 1052.91   5
  -6  -2  -8 2369.97 1071.75  12
  -8   2  -8 2847.57 1226.76  12
   2   6  -8 3307.82 1167.80   5
  -6   8  -7 4977.63 1418.31   9
   8  -6  -7 3395.73 1082.04   2
  -8   2  -7 2679.25 1142.05   7
   6  -8  -7 3309.87 1100.61   2
  -8   6  -7 3824.72 1341.89   7
   8  -2  -7 4246.04 1382.19   3
   6   2  -7 4635.63 1544.36   3
   2   6  -7 5107.15 1389.02   3
   2  -8  -7 2595.88 938.317   2
  -2  -6  -7 4103.00 1225.01  12
  -2   8  -7 1956.86 985.095   5
  -6  -2  -7 4341.99 1328.27  12
   2   6  -7 1776.28 1006.98   5
  -8   2  -7 5348.21 1571.99  12
  -8   6  -7 5289.19 1293.92  12
  -8   6  -6 2502.22 966.117   9
  -6   8  -6 1110.73 786.488   9
   8  -6  -6 3568.89 1087.11   2
  -8   2  -6 3180.66 1155.23   7
   6  -8  -6 3447.35 1175.41   2
  -8   6  -6 3064.52 1270.70   7
   8  -2  -6 2278.48 984.747   3
   6   2  -6 1681.55 911.066   3
   2   6  -6 2704.99 1062.13   3
   2  -8  -6 2761.79 872.962   6
   2  -8  -6 2889.96 1028.95   2
  -2  -6  -6 2173.60 912.161  12
  -2   8  -6 2946.72 1021.80   5
  -6  -2  -6 3256.70 1157.72  12
   2   6  -6 2365.38 1086.70   5
  -8   2  -6 2427.07 1138.49  12
   6   2  -6 2533.15 914.631   5
  -8   6  -5 10833.7 1840.80   9
  -6   8  -5 7640.78 1648.57   9
   8  -6  -5 8030.90 1587.50   2
  -8   2  -5 4785.24 1318.22   7
   6  -8  -5 7800.50 1610.26   2
   8  -2  -5 8797.83 1810.74   3
   6   2  -5 9998.04 2059.71   3
   2   6  -5 6221.91 1335.43   3
   2  -8  -5 8433.59 1489.60   6
   2  -8  -5 8543.28 1631.17   2
  -2  -6  -5 6653.80 1366.23  12
  -2   8  -5 8558.80 1685.59   5
   2   6  -5 8558.04 1691.51   5
  -6  -2  -5 8673.53 1738.66  12
  -8   2  -5 10718.7 2006.00  12
   6   2  -5 8326.46 1598.58   5
  -8   6  -4 2489.86 1074.32   9
  -6   8  -4 264.728 499.020   9
   8  -2  -4 1344.27 951.977   4
   8  -6  -4 1367.90 759.897   2
  -8   2  -4 1691.26 877.666   7
   6  -8  -4 862.041 731.215   2
   8  -2  -4 562.198 637.641   3
   6   2  -4 35.6679 834.010   3
   2   6  -4 1523.34 816.069   3
   2  -8  -4-161.686 591.879   6
  -2  -6  -4 3630.77 1226.16   6
   2  -8  -4 266.202 547.369   2
  -2   8  -4 1470.72 889.495   5
  -2  -6  -4-334.884 409.645  12
   2   6  -4 1041.05 939.815   5
  -6  -2  -4 1500.61 746.313  12
   6   2  -4 726.403 606.999   5
   8  -6  -3 19932.7 2297.63   2
  -8   2  -3 22207.1 2304.66   9
  -8   6  -3 24720.5 2752.75   9
   6  -8  -3 20309.2 2483.22   2
  -6   8  -3 23087.2 2739.88   9
   8  -2  -3 20672.8 2669.49   3
   2   6  -3 20593.5 2281.39   3
  -8   2  -3 20374.2 2455.04   7
   6   2  -3 20889.3 2735.19   3
   2  -8  -3 19224.8 2281.31   6
  -2  -6  -3 17267.5 2362.83   6
  -2   8  -3 23389.6 2701.29   5
   2   6  -3 18856.5 2527.28   5
   6   2  -3 22291.8 2442.87   5
   2  -8  -3 16263.0 2231.73   2
  -6  -2  -3 20608.5 2526.84  12
   8  -2  -3 24080.1 2822.27   4
  -8   2  -2 11491.1 1708.44   9
  -8   6  -2 9338.73 1721.95   9
  -6   8  -2 9918.02 1837.92   9
   8  -2  -2 10734.4 1914.53   4
   2   6  -2 9980.29 1599.77   3
   8  -6  -2 9644.93 1587.45   2
  -8   2  -2 9471.82 1665.45   7
   6   2  -2 12575.9 2104.67   3
   6  -8  -2 8703.41 1650.63   2
   2  -8  -2 10161.5 1668.94   6
  -2  -6  -2 6297.53 1585.49   6
   2  -8  -2 9409.30 1676.60   2
  -2   8  -2 8154.93 1611.25   5
   2   6  -2 12035.3 2086.24   5
   6   2  -2 8552.36 1528.56   5
  -6  -2  -2 7807.58 1543.58  12
  -8   2  -1 984.996 770.772   9
   8  -6  -1 950.335 543.108   4
  -8   6  -1 1840.40 871.972   9
  -6   8  -1 1500.10 808.705   9
   8  -2  -1 910.108 778.655   4
   8  -6  -1 170.249 455.599   2
  -8   2  -1 576.442 604.470   7
   2  -8  -1 2190.97 970.250   6
   6  -8  -1 2746.35 1048.17   2
  -2  -6  -1 1461.78 1132.10   6
  -2   8  -1 1742.03 867.766   5
   2  -8  -1 836.089 666.433   2
   2   6  -1 1902.42 983.693   5
   6   2  -1 1124.45 595.940   5
  -6  -2  -1 730.055 595.633  12
  -8   2   0 808.270 792.894   9
   8  -6   0 1280.22 643.248   4
  -8   6   0 775.421 927.779   9
  -6   8   0 1204.32 849.633   9
   8  -2   0 2847.93 1179.93   4
   6   2   0 2318.98 1262.33   4
  -8   2   0 95.9961 582.737   7
   8  -6   0-183.185 435.824   2
   2  -8   0 646.132 716.866   6
   6  -8   0 404.550 557.264   2
  -2  -6   0 1006.07 908.612   6
  -2   8   0 620.845 542.153   5
   2   6   0 633.726 906.624   5
   6   2   0 140.569 439.925   5
   2  -8   0 294.565 528.914   2
   2   6   0-32.5826 534.995   1
  -6  -2   0 706.487 675.488  12
   2  -8   0 803.818 636.267  11
  -2  -6   0 1456.27 689.405  11
  -6  -2   0 1509.12 732.806  10
  -8   2   1 1559.57 842.659   9
   8  -6   1 754.640 581.822   4
  -8   6   1 1429.20 809.943   9
   2   6   1-274.460 434.571   1
   8  -2   1 1928.55 1017.89   4
  -6   8   1 104.340 626.146   9
  -2   8   1 328.540 653.493   9
   6   2   1 1572.85 970.597   4
  -2   8   1 999.912 556.084   1
  -8   2   1 1790.18 764.927   7
   8  -6   1 1281.69 612.419   2
   2  -8   1 1245.82 957.349   6
  -2  -6   1 1780.64 1117.91   6
   6  -8   1-91.1982 648.592   2
  -2   8   1 2763.81 1059.95   5
   2   6   1 1560.84 924.723   5
   2  -8   1 117.225 484.126   2
  -6  -2   1 650.330 586.053  12
   2  -8   1 1017.27 681.936  11
  -2  -6   1 708.349 596.680  11
  -6  -2   1 1525.74 895.490  10
   8  -6   2 11524.1 1667.40   4
  -8   2   2 10113.1 1819.29   9
  -2   8   2 10556.7 1622.58   1
  -8   6   2 10377.2 1938.33   9
   2   6   2 10339.8 1790.02   1
   8  -2   2 12717.0 2153.93   4
  -6   8   2 13819.3 2104.55   9
   6   2   2 11849.4 2155.20   4
  -2   8   2 10366.9 1829.05   9
  -8   2   2 10766.6 1573.34   7
   2  -8   2 11313.0 1872.08   6
  -2  -6   2 8567.93 1735.01   6
  -6  -2   2 11687.7 1969.28   6
   6  -8   2 9502.09 1738.60   2
   2   6   2 14453.6 2190.28   5
   2  -8   2 12948.7 1979.62   2
   2  -8   2 8217.30 1555.96  11
  -2  -6   2 11034.5 1690.52  11
  -6  -2   2 13545.5 1882.02  10
  -8   2   3 23064.9 2755.04   9
  -8   6   3 23836.9 2847.99   9
  -6   8   3 21128.1 2643.18   9
  -6   8   3 18986.3 2066.42   1
  -2   8   3 22409.8 2551.52   9
   6  -8   3 18574.2 2371.69   2
   2  -8   3 20295.9 2547.82   2
  -2   8   3 20201.4 2334.73   1
  -6  -2   3 23399.5 2653.83   6
  -2  -6   3 16282.6 2377.10   6
   2   6   3 19101.5 2479.98   1
   2   6   3 25343.8 2970.37   5
   2  -8   3 18319.2 2329.46  11
  -2  -6   3 22264.5 2417.29  11
   8  -6   3 23553.3 2411.99   4
  -6  -2   3 25530.5 2663.34  10
   8  -2   3 21940.0 2779.99   4
   6   2   3 21981.5 2790.28   4
   8  -6   4 671.080 631.093   4
  -8   2   4 1543.07 957.618   9
  -8   6   4 2666.99 1208.23   9
   8  -2   4 2569.98 1130.68   4
  -6   8   4 2194.19 987.512   9
   6   2   4 137.712 728.228   4
  -2   8   4 856.772 656.008   9
   2   6   4 1279.05 728.099   1
  -2  -6   4 1897.67 1063.02   6
  -6  -2   4 2006.21 1009.63   6
   6  -8   4 1379.45 692.476   2
   2  -8   4 355.375 509.152  11
  -2  -6   4 1373.72 794.884  11
   2  -8   4 1234.16 755.669   2
  -6   8   4 1593.00 633.777   1
  -2   8   4 1228.40 738.435   1
  -6  -2   4 1553.10 909.677  10
   8  -6   5 6929.64 1432.56   4
  -8   2   5 10878.4 2059.62   9
  -8   6   5 8403.95 1867.22   9
   8  -2   5 11422.5 2010.76   4
  -6   8   5 8636.40 1776.17   9
   6   2   5 11614.9 2153.89   4
   2   6   5 8466.96 1784.10   1
  -2   8   5 9518.57 1686.98   9
  -2  -6   5 7593.06 1698.22   6
  -6  -2   5 9560.41 1737.87   6
   6  -8   5 8384.47 1633.60   2
  -2   8   5 6519.43 1457.88   1
   2  -8   5 8520.18 1704.04  11
  -6   8   5 6283.82 1324.96   1
   2  -8   5 7747.97 1674.07   2
  -6  -2   5 7210.12 1523.87  10
   8  -6   6 2460.46 937.159   4
  -8   2   6 2610.16 1110.76   9
   8  -2   6 2495.07 1217.92   4
  -8   6   6 2691.86 1271.40   9
   6   2   6 3848.63 1354.88   4
  -6   8   6 4531.00 1375.01   9
  -2   8   6 2224.77 821.291   9
  -2  -6   6 1605.92 1051.67   6
  -6  -2   6 2975.58 1105.32   6
  -2   8   6 860.103 760.951   1
   6  -8   6 2019.70 919.153   2
   2  -8   6 3000.76 1112.02  11
  -6   8   6 1372.87 751.718   1
  -6  -2   6 4112.03 1343.81  10
   6  -8   6 2613.95 966.713   4
   2   6   6 2251.27 1028.04   1
   8  -6   7 3782.09 1228.46   4
  -8   2   7 4840.44 1544.11   9
   8  -2   7 2189.21 1039.26   4
  -8   6   7 3538.23 1334.79   9
   6   2   7 5737.72 1522.96   4
  -6   8   7 4691.03 1371.95   9
  -2  -6   7 5644.81 1608.75   6
  -2   8   7 2484.19 1042.18   1
   2   6   7 6401.45 1615.00   1
   2  -8   7 5402.39 1560.34  11
   6  -8   7 1911.20 905.767   2
  -6   8   7 1822.47 808.697   1
  -6  -2   7 5013.14 1348.40  10
   6  -8   7 4575.24 1140.84   4
  -8   2   8 2665.84 1247.38  10
   8  -6   8 3223.56 1206.88   4
  -8   2   8 2043.94 1219.33   9
   8  -2   8 3353.09 1172.35   4
  -8   6   8 3340.05 1411.26   9
   6   2   8 4318.33 1440.70   4
  -6   8   8 4000.84 1345.41   9
  -2   8   8 2096.44 981.455   1
   2   6   8 1361.40 851.420   1
   6  -8   8 3163.42 1058.38   4
   2  -8   8 2317.00 1125.25  11
  -6   8   8 2120.04 900.925   1
   6  -8   8 3379.24 1092.76   2
  -6  -2   8 1661.68 1075.21  10
  -8   2   9 2432.51 1384.43  10
   8  -6   9-584.300 753.857   4
  -8   2   9 66.3860 638.593   9
   8  -2   9 720.608 975.626   4
   6   2   9 3131.72 1249.01   4
  -8   6   9 508.556 984.199   9
  -6   8   9 550.372 669.387   9
  -2   8   9 717.501 557.473   1
   2   6   9 1108.99 866.315   1
   6  -8   9 870.068 872.125   4
   2  -8   9 1659.20 1026.52  11
  -6   8   9 2016.58 960.422   1
  -6  -2   9 1878.77 1183.47  10
   6   2  10 2490.24 1005.92   4
  -8   6  10 3031.33 1472.07   9
  -6   8  10 5472.35 1607.59   9
  -6   8  10 3551.57 1208.94   1
   6   2  11-572.298 710.452   4
  -7   8  -9 483.708 594.328   9
   1  -8  -9-261.523 550.565  12
  -1  -7  -9-241.135 770.661  12
  -1   8  -9 1294.49 1044.01   5
  -7   8  -8 9689.81 1851.65   9
   8  -7  -8 10405.4 1938.99   2
   7  -8  -8 12137.3 2157.70   2
  -8   1  -8 8068.73 1839.65   7
  -8   7  -8 11830.3 2298.45   7
   8  -1  -8 13595.5 2416.82   3
   7   1  -8 11985.5 2369.88   3
   1  -8  -8 7048.74 1523.18  12
  -1  -7  -8 9077.79 1780.55  12
  -1   8  -8 10749.2 2030.58   5
  -7  -1  -8 7913.25 1882.15  12
   1   7  -8 10061.1 1992.25   5
  -8   1  -8 11387.1 2282.80  12
  -8   7  -7 1196.15 886.778   9
  -7   8  -7-557.635 678.996   9
   8  -7  -7 758.743 708.462   2
  -8   1  -7 673.529 838.102   7
   7  -8  -7 458.002 702.372   2
   8  -1  -7 812.102 1049.66   3
   7   1  -7 950.860 862.645   3
   1  -8  -7 297.885 682.615   6
  -1  -7  -7-48.4048 819.925   6
   1  -8  -7 506.884 552.477   2
   1  -8  -7 196.552 499.754  12
  -1  -7  -7 478.774 510.296  12
  -1   8  -7 881.573 779.656   5
   1   7  -7 108.826 553.676   5
  -7  -1  -7 927.961 747.041  12
  -8   1  -7 15.2342 598.047  12
  -8   7  -6 7846.64 1626.33   9
  -7   8  -6 6867.66 1549.11   9
   8  -7  -6 11104.7 1911.22   2
  -8   1  -6 10408.5 1913.02   7
   7  -8  -6 8296.48 1697.54   2
   8  -1  -6 5887.90 1748.04   3
   7   1  -6 6304.32 1749.02   3
   1  -8  -6 8526.43 1667.26   6
  -1  -7  -6 7446.00 1680.53   6
   1  -8  -6 4778.21 1220.88   2
  -1  -7  -6 6832.71 1366.68  12
  -1   8  -6 10340.5 1918.12   5
   1   7  -6 9615.36 1881.78   5
  -7  -1  -6 10732.9 2010.23  12
  -8   1  -6 12618.0 2279.16  12
  -8   7  -5 1120.33 820.925   9
  -7   8  -5-314.893 808.304   9
   8  -7  -5 313.475 457.291   2
  -8   1  -5 1866.26 874.827   7
   7  -8  -5 310.415 613.447   2
   8  -1  -5 349.766 880.329   3
   7   1  -5 936.034 1038.74   3
   1  -8  -5-259.447 603.447   6
  -1  -7  -5 947.528 977.441   6
   1  -8  -5 523.985 490.772   2
  -1   8  -5-56.7470 678.281   5
   1   7  -5-78.0382 634.284   5
  -7  -1  -5 973.310 866.921  12
  -8   1  -5 1077.87 827.012  12
   7   1  -5 1841.14 775.677   5
  -8   7  -4 3632.37 1209.76   9
  -7   8  -4 3624.33 1233.48   9
   8  -7  -4 2160.30 999.582   2
  -8   1  -4 1809.73 911.191   7
   7  -8  -4 3078.20 1131.72   2
   8  -1  -4 2393.80 1101.27   3
   7   1  -4 3127.58 1437.91   3
   1  -8  -4 2700.63 1068.35   6
  -1  -7  -4 2279.15 1091.88   6
   1  -8  -4 3684.91 1115.64   2
  -1   8  -4 4480.88 1318.45   5
   1   7  -4 2269.74 1021.95   5
  -7  -1  -4 2503.78 1049.95  12
  -8   1  -4 3318.57 1197.18  12
  -8   7  -3 159.735 620.207   9
  -7   8  -3 409.221 705.885   9
   8  -1  -3 1575.63 1064.21   4
   8  -1  -3 838.045 729.516   3
  -8   1  -3 23.3205 473.724   7
   8  -7  -3 293.610 600.342   2
   7  -8  -3 434.700 564.509   2
   7   1  -3 150.030 668.873   3
   1  -8  -3 1521.35 892.301   6
  -1  -7  -3 1048.28 892.689   6
  -1   8  -3 453.777 590.499   5
   1   7  -3 33.1365 546.492   5
   1  -8  -3 173.364 557.716   2
  -7  -1  -3 395.264 755.334  12
  -1  -7  -3 1104.27 649.615   2
  -8   1  -2 3703.45 1052.60   9
  -8   7  -2 2891.01 1104.48   9
  -7   8  -2 3786.26 1203.76   9
   8  -1  -2 5350.61 1578.90   4
  -8   1  -2 2432.63 1013.32   7
   8  -7  -2 1652.61 766.581   2
   7  -8  -2 1440.70 949.657   2
   1  -8  -2 1569.80 956.694   6
  -1  -7  -2 3269.43 1193.91   6
  -1   8  -2 3285.06 1150.97   5
   1   7  -2 4282.70 1327.27   5
   1  -8  -2 3178.45 1066.84   2
  -7  -1  -2 1989.77 929.046  12
  -1  -7  -2 3725.71 1063.36   2
  -8   1  -1-283.510 567.147   9
  -8   7  -1 817.168 771.276   9
  -7   8  -1 86.3346 600.906   9
   8  -1  -1 1701.33 1194.72   4
   7   1  -1 345.138 1113.16   4
  -8   1  -1 1343.95 733.013   7
   8  -7  -1 753.145 642.499   2
   7  -8  -1 150.452 557.880   2
   1  -8  -1 606.061 696.484   6
  -1  -7  -1 533.827 813.195   6
  -1   8  -1 281.967 684.418   5
   1   7  -1 805.160 820.250   5
  -7  -1  -1 130.389 556.021  12
   1  -8  -1 649.647 546.579   2
   1  -8  -1 549.172 584.705  11
  -1  -7  -1 839.461 596.377   2
  -8   1   0 37024.7 3321.82   9
  -8   7   0 44897.0 3917.25   9
   8  -7   0 38600.9 3244.05   2
  -7   8   0 40309.5 3705.48   9
   7  -8   0 33722.1 3214.84   2
   1  -8   0 33949.4 3222.24   2
  -8   1   0 30021.9 2806.77   7
   1  -8   0 41539.3 3521.62   6
  -1  -7   0 39915.6 3630.38   6
  -1   8   0 39094.7 3136.10   1
  -1   8   0 36389.9 3527.56   5
   1   7   0 36499.8 3596.86   5
   1   7   0 40845.3 3464.21   1
   1  -8   0 36281.9 3074.08  11
  -1  -7   0 37327.1 2970.20  11
  -7  -1   0 40014.7 3181.69  10
   8  -1   0 37999.9 3722.00   4
   7   1   0 44092.9 4140.59   4
   1   7   1 382.888 543.514   1
  -8   1   1 1642.25 950.028   9
  -8   7   1 745.676 924.310   9
  -7   8   1 1967.48 976.836   9
   8  -1   1 2720.49 1266.31   4
   7   1   1 1161.50 1080.82   4
   8  -7   1 660.798 586.183   2
   1  -8   1 1839.00 963.179   6
  -1  -7   1 2745.07 1279.76   6
   7  -8   1 1691.72 814.444   2
  -1   8   1 1591.00 889.951   5
   1   7   1 91.2058 615.149   5
   1  -8   1 315.794 579.260  11
   1  -8   1 812.556 703.139   2
  -1  -7   1 1221.89 633.412  11
  -1   8   1 1183.63 652.489   1
  -7  -1   1 555.658 753.919  10
  -8   1   2 2118.69 1040.68   9
  -8   7   2 3121.59 1179.96   9
  -7   8   2 2208.52 952.273   9
   8  -1   2 4555.21 1352.90   4
   7   1   2 2565.61 1231.52   4
   1  -8   2 1637.48 983.915   6
  -1  -7   2 1996.54 1138.14   6
   1   7   2 4022.77 1242.01   1
   8  -7   2 1619.25 740.151   2
  -7  -1   2 1934.88 957.488   6
  -1   8   2 3216.70 1248.77   5
  -1   8   2 2484.92 853.825   1
   7  -8   2 2716.30 972.355   2
   1   7   2 2130.28 996.513   5
   1  -8   2 1104.06 762.668  11
  -1  -7   2 2289.07 855.105  11
   1  -8   2 932.080 675.538   2
  -7  -1   2 3011.24 1096.37  10
   8  -7   3-10.3375 384.574   4
  -8   1   3 606.445 796.080   9
  -8   7   3 679.874 870.793   9
  -7   8   3-55.5566 612.981   9
   8  -1   3 292.054 645.902   4
   7   1   3 1268.42 1021.90   4
  -1   8   3 144.555 587.818   9
   1   7   3 1874.89 885.081   1
  -1   8   3 244.804 692.275   1
   1  -8   3 2335.91 1126.11   6
  -1  -7   3 746.825 862.781   6
  -7  -1   3 910.215 858.202   6
   1   7   3 503.574 784.305   5
   7  -8   3 619.233 708.544   2
  -7   8   3 386.841 599.454   1
   1  -8   3 1054.31 852.526  11
  -1  -7   3 850.474 680.036  11
   1  -8   3-107.162 523.797   2
  -7  -1   3 244.657 602.616  10
  -8   1   4 1541.64 984.813  10
  -8   1   4 1343.05 859.965   9
   1   7   4 2801.72 1107.44   1
   8  -7   4 1524.48 769.527   4
  -8   7   4 4191.43 1331.69   9
   8  -1   4 4305.45 1507.96   4
  -7   8   4 2676.38 1240.76   9
   7   1   4 3078.38 1299.86   4
  -1   8   4 2603.20 905.160   9
  -1   8   4 2433.28 953.485   1
  -1  -7   4 3320.14 1225.51   6
   7  -8   4 1436.24 712.697   2
  -7   8   4 1819.58 779.099   1
   1  -8   4 3456.28 1246.27  11
  -1  -7   4 4049.27 1236.00  11
  -7  -1   4 4603.11 1373.22  10
  -8   1   5 1198.76 1160.81  10
  -8   1   5 236.350 664.202   9
   8  -7   5 677.009 704.505   4
  -8   7   5-651.353 705.257   9
   8  -1   5 1127.02 895.832   4
  -7   8   5 886.454 927.050   9
   7   1   5 32.5463 834.265   4
  -1   8   5 1513.83 730.619   1
  -1   8   5 109.103 468.492   9
  -1  -7   5 285.252 746.078   6
  -7   8   5 183.742 437.216   1
   7  -8   5 422.368 387.387   2
   1   7   5-617.421 724.957   1
   1  -8   5 1653.96 931.316  11
  -1  -7   5 180.995 635.122  11
  -7  -1   5-188.504 649.861  10
   7  -8   6 12812.6 1865.35   4
   8  -7   6 10521.4 1779.99   4
  -1   8   6 9802.91 1836.04   1
   8  -1   6 9984.08 2005.26   4
  -8   7   6 12328.0 2312.37   9
   7   1   6 10303.5 2116.53   4
  -7   8   6 11187.2 2140.55   9
  -1  -7   6 11048.8 2118.94   6
   1   7   6 12315.1 2103.81   1
  -7   8   6 8921.11 1631.70   1
   7  -8   6 5170.93 1288.71   2
   1  -8   6 11482.1 2010.83  11
  -1  -7   6 10851.2 1902.81  11
  -7  -1   6 12222.9 2108.59  10
  -8   1   6 12683.7 2275.51  10
   7  -8   7 803.942 655.756   4
   8  -7   7-66.8093 591.215   4
  -1   8   7 941.428 882.360   1
   8  -1   7 493.096 825.379   4
   7   1   7 2376.22 1245.84   4
  -8   7   7 1356.03 1092.12   9
  -7   8   7 273.057 782.061   9
   1   7   7 289.253 580.849   1
  -7   8   7-1066.02 662.978   1
   1  -8   7 545.664 690.759  11
  -1  -7   7 453.934 743.393  11
  -7  -1   7 1320.84 1000.56  10
  -8   1   7 319.305 869.963  10
   7  -8   8 7519.83 1563.92   4
  -1   8   8 8953.63 1896.46   1
   8  -7   8 9344.94 1773.13   4
   8  -1   8 10225.2 2084.10   4
   7   1   8 8357.94 1956.91   4
  -8   7   8 8931.72 2014.61   9
  -7   8   8 10007.1 2002.73   9
   1   7   8 7337.05 1758.72   1
  -7   8   8 8381.58 1676.09   1
   1  -8   8 12201.7 2168.79  11
  -1  -7   8 7547.01 1726.71  11
  -7  -1   8 12726.0 2294.93  10
  -8   1   8 11758.4 2290.82  10
   7  -8   9 315.565 593.434   4
   8  -7   9 350.564 675.425   4
   7   1   9 370.915 708.238   4
  -8   7   9 659.178 919.421   9
  -7   8   9 330.335 685.612   9
  -7   8   9-435.719 666.423   1
   0  -8  -8 4562.63 1385.31   6
  -8   8  -7 689.791 536.553   9
   0  -8  -7 1582.52 884.918   6
  -8   8  -6-1231.72 842.141   9
   8  -8  -6 1271.87 878.052   2
   8   0  -6 1327.99 1115.40   3
   0  -8  -6-72.7629 692.344   6
   0   8  -6 3155.57 1151.64   5
  -8   0  -6 1982.43 1011.28  12
  -8   8  -5 4826.57 1413.29   9
   8  -8  -5 3811.33 1271.77   2
   8   0  -5 5850.67 1775.45   3
   0  -8  -5 3704.55 1285.29   6
   0   8  -5 9081.98 1908.47   5
  -8   0  -5 8512.87 1879.01  12
  -8   8  -4 372.559 686.044   9
  -8   0  -4 1209.25 795.083   7
   8  -8  -4 555.624 602.522   2
   8   0  -4 64.7671 764.689   3
   0  -8  -4 243.564 714.101   6
   0   8  -4 1456.78 907.482   5
  -8   0  -4 1178.01 996.448  12
   0  -8  -4 1421.24 777.128   2
  -8   8  -3 6085.07 1567.55   9
   8   0  -3 10265.4 2168.70   4
  -8   0  -3 6778.49 1542.65   7
   8  -8  -3 4915.95 1380.28   2
   0  -8  -3 4191.55 1277.95   6
   0   8  -3 9052.03 1883.35   5
  -8   0  -3 6797.17 1663.02  12
   0  -8  -3 5702.65 1389.94   2
  -8   8  -2 10231.7 2021.97   9
   8   0  -2 12909.8 2420.96   4
  -8   0  -2 9508.89 1771.29   7
   8  -8  -2 8953.05 1716.14   2
   0  -8  -2 11230.4 1986.09   6
   0   8  -2 9262.16 1915.79   5
  -8   0  -2 11080.6 2070.09  12
   0  -8  -2 5720.64 1422.98   2
  -8   8  -1 1514.69 1019.62   9
   8   0  -1 2918.99 1203.48   4
  -8   0  -1 3172.85 1096.37   7
   8  -8  -1 1862.76 839.302   2
   0  -8  -1 647.988 771.720   6
   0   8  -1 3196.85 1350.50   5
   0  -8  -1 1317.52 765.272   2
  -8   8   0 2268.51 1186.65   9
   8   0   0 1879.48 1107.82   4
   8  -8   0 662.764 629.950   2
   0  -8   0 103.375 767.070   6
   0   8   0 474.010 524.762   1
   0   8   0 618.055 677.082   5
   0  -8   0-1041.91 684.188   2
  -8   0   0 1581.66 933.379  10
  -8   8   1 2912.60 1278.17   9
   8   0   1 2791.90 1412.96   4
   0  -8   1 4083.58 1414.55   6
   8  -8   1 1613.88 840.058   2
   0   8   1 2711.38 1226.09   5
   0   8   1 1344.64 776.369   1
   0  -8   1 1930.34 834.583  11
   0  -8   1 3288.01 1137.14   2
  -8   0   1 2175.27 961.939  10
  -8   8   2 11506.0 2136.12   9
   8   0   2 9898.57 2037.75   4
   0   8   2 9061.03 1701.83   1
   0  -8   2 13285.8 2206.26   6
   8  -8   2 6607.49 1442.85   2
   0   8   2 7547.16 1730.83   5
   0  -8   2 10353.6 1764.97  11
  -8   0   2 9443.12 1827.31  10
   0   8   3 5716.98 1454.42   1
  -8   8   3 4990.43 1571.24   9
   8   0   3 9652.33 2163.66   4
   0  -8   3 6900.43 1678.31   6
   8  -8   3 9413.54 1662.90   2
   0  -8   3 7736.53 1567.45  11
  -8   0   3 6066.44 1634.56  10
  -8   8   4 1738.85 1315.91   9
   8   0   4 1092.15 1066.08   4
   0  -8   4 2203.82 1117.00   6
   0   8   4 1669.36 865.977   1
   0  -8   4-25.4433 712.953  11
  -8   0   4 828.218 786.003  10
  -8   8   5 11385.4 2206.64   9
   8   0   5 7224.92 1716.36   4
   0   8   5 6119.56 1478.39   1
   0  -8   5 4709.41 1355.88  11
  -8   0   5 6604.55 1690.24  10
   8   0   6-285.797 737.695   4
  -8   8   6-1532.92 1065.31   9
   0   8   6 940.429 779.132   1
   0  -8   6 562.140 872.674  11
  -8   8   6 1260.43 821.393   1
  -8   0   6-1112.94 901.495  10
   8  -8   7 1488.37 882.958   4
  -8   8   7 3080.19 1320.69   9
   0   8   7 1537.05 832.706   1
   0  -8   7 1506.30 973.377  11
  -8   0   7 2226.57 1224.44  10
  -8   8   7 2433.42 939.971   1
   8  -8   8 5386.73 1387.04   4
  -8   8   8 4733.26 1272.36   1
  -9   5  -9 1380.29 865.473  12
  -5   9  -8 2005.06 1077.81   9
   9  -5  -8 1641.60 949.606   2
   9  -4  -8 906.077 951.023   3
   5   4  -8 2249.75 1213.68   3
   4  -9  -8 2731.89 1054.08   2
   4   5  -8 1136.42 903.126   3
  -4  -5  -8 1842.95 996.552  12
  -5  -4  -8 529.203 549.898  12
  -9   4  -8 2492.32 1361.56  12
  -9   5  -8 1778.29 911.646  12
   5   4  -8 795.444 786.190   5
  -5   9  -7 2352.84 1056.86   9
  -4   9  -7 2337.69 1001.60   9
   9  -5  -7 962.208 755.956   2
  -9   4  -7 1518.88 1206.04   7
  -9   5  -7 2139.73 1233.01   7
   9  -4  -7 1095.57 854.792   3
   5  -9  -7 2383.30 1150.25   2
   5   4  -7 2828.39 1316.84   3
   4   5  -7 797.574 901.535   3
   4  -9  -7 1538.67 856.810   2
  -4  -5  -7 3320.46 1150.19  12
  -5  -4  -7 2265.92 1066.43  12
   4   5  -7 246.230 846.550   5
   5   4  -7 1530.09 903.837   5
  -9   4  -7 1618.93 1040.72  12
  -9   5  -7 1353.76 911.150  12
   9  -4  -7 2924.78 1082.11   2
   9  -4  -6 1517.82 900.855   4
  -5   9  -6 3412.48 1249.33   9
   9  -4  -6 1652.76 884.948   2
  -4   9  -6 1849.88 998.214   9
   9  -5  -6 1700.68 830.789   2
  -9   4  -6 3353.04 1313.38   7
  -9   5  -6 3348.58 1320.14   7
   9  -4  -6 2253.72 944.703   3
   5   4  -6 2104.73 1116.69   3
   4   5  -6 3643.42 1288.51   3
   5  -9  -6 4644.81 1323.40   2
   4  -9  -6 2542.27 1080.70   2
  -4   9  -6 1963.84 905.673   5
  -4  -5  -6 1809.68 994.198  12
  -5  -4  -6 2477.25 1135.61  12
   4   5  -6 3724.24 1283.66   5
   5   4  -6 1113.41 710.153   5
  -9   4  -6 1034.91 953.810  12
   9  -4  -5 2350.53 1006.39   4
  -5   9  -5 2237.34 1101.22   9
  -4   9  -5 2168.67 1076.84   9
   9  -4  -5 3222.39 1152.86   2
   9  -4  -5 2456.44 1020.35   3
   9  -5  -5 4790.43 1222.81   2
  -9   4  -5 2467.27 1129.48   7
  -9   5  -5 5109.84 1490.66   7
   5   4  -5 3232.88 1302.51   3
   4   5  -5 1708.45 1014.19   3
   5  -9  -5 4252.04 1289.16   2
   4  -9  -5 4804.38 1358.58   2
  -4   9  -5 3589.24 1141.39   5
  -4  -5  -5 5159.67 1314.84  12
  -5  -4  -5 2757.11 1061.11  12
   4   5  -5 3006.65 1125.26   5
   5   4  -5 3334.79 1128.15   5
  -9   5  -4 1053.03 864.516   9
   9  -4  -4 349.061 667.396   4
  -5   9  -4 777.909 692.628   9
  -4   9  -4 905.172 1016.57   9
   9  -5  -4 224.435 524.875   2
  -9   4  -4 1089.69 914.242   7
  -9   5  -4-245.167 528.383   7
   5   4  -4 1378.82 1150.46   3
   4   5  -4 1913.58 1025.24   3
   5  -9  -4 695.430 718.002   2
   4  -9  -4-59.2367 591.413   2
  -4   9  -4 733.221 736.284   5
  -4  -5  -4-414.617 520.552  12
  -5  -4  -4-638.771 581.768  12
   4   5  -4 1494.20 868.823   5
   5   4  -4-82.0063 520.193   5
  -9   4  -3 13099.9 2035.25   9
  -9   5  -3 8476.96 1718.95   9
   9  -5  -3 10652.1 1735.13   4
   9  -4  -3 8326.01 1663.91   4
  -5   9  -3 9116.31 1779.32   9
  -4   9  -3 11602.8 2095.72   9
   9  -5  -3 9732.66 1617.09   2
  -9   4  -3 9748.99 1871.47   7
  -9   5  -3 12126.7 2129.95   7
   4   5  -3 8416.42 1763.23   3
   5   4  -3 10314.0 1963.99   3
   5  -9  -3 8486.01 1728.66   2
   4  -9  -3 9651.31 1837.84   2
  -4   9  -3 9365.55 1665.10   5
  -4  -5  -3 11449.6 1789.37  12
   4   5  -3 9040.65 1834.58   5
   5   4  -3 12140.4 2027.04   5
  -5  -4  -3 8892.93 1599.84  12
  -9   4  -2 5943.09 1483.20   9
  -9   5  -2 4236.87 1346.71   9
   9  -5  -2 6456.94 1395.28   4
   9  -4  -2 4865.94 1288.06   4
  -5   9  -2 4236.74 1387.65   9
  -4   9  -2 3467.70 1123.47   9
  -9   4  -2 5634.02 1414.18   7
  -9   5  -2 3556.40 1214.77   7
  -4  -5  -2 7290.08 1764.93   6
   5  -9  -2 4220.26 1276.70   2
   4  -9  -2 5734.97 1462.74   2
  -4   9  -2 6472.64 1405.60   5
   4   5  -2 7906.02 1697.52   5
   5   4  -2 2306.76 958.514   5
  -5  -4  -2 4779.15 1199.88  12
  -9   4  -1 1899.91 1079.58   9
  -9   5  -1 487.588 941.673   9
   9  -5  -1 1517.55 833.873   4
   9  -4  -1 3141.03 1179.59   4
  -5   9  -1 492.641 831.316   9
  -4   9  -1 1423.31 882.079   9
  -9   4  -1 1358.90 789.872   7
  -9   5  -1 3046.33 1201.22   7
  -4  -5  -1 2119.69 1319.10   6
  -5  -4  -1 2593.79 1255.05   6
   5  -9  -1 1269.89 786.311   2
   4  -9  -1 1445.96 862.027   2
   4   5  -1 1726.80 918.574   5
   5   4  -1 2716.82 1090.11   5
  -5  -4  -1 1157.29 714.978  12
  -9   4   0 2164.12 1087.06   9
  -9   5   0 3109.81 1228.48   9
   9  -5   0 2610.15 981.970   4
   9  -4   0 2814.59 989.946   4
  -5   9   0 2795.77 1187.86   9
  -4   9   0 1535.86 913.258   9
  -9   4   0 1951.46 910.287   7
  -4  -5   0 3402.57 1412.53   6
  -5  -4   0 2295.23 1161.91   6
   5  -9   0 2971.77 1061.24   2
   4  -9   0 181.701 639.709   2
   4   5   0 3175.46 1222.97   5
   5   4   0 3411.41 1146.45   5
  -9   4   1 1009.72 832.867   9
  -9   5   1 2313.37 1093.81   9
   9  -5   1 2013.27 916.021   4
   9  -4   1 2667.71 1049.87   4
  -5   9   1 2257.93 997.995   9
  -4   9   1 2962.07 1097.82   9
   5   4   1 2138.14 1137.57   4
  -9   4   1 1399.14 786.494   7
  -4  -5   1 1542.91 980.075   6
  -5  -4   1 3144.91 1343.62   6
   5  -9   1 1274.39 802.608   2
   4   5   1 728.601 800.355   5
   5   4   1 1191.44 790.299   5
   4  -9   1 80.2305 553.724   2
  -9   4   2 6792.71 1598.96   9
  -9   5   2 4578.07 1414.51   9
   9  -5   2 3037.52 1108.07   4
   9  -4   2 3578.10 1207.53   4
  -5   9   2 6655.68 1628.74   9
  -4   9   2 5827.39 1460.91   9
   5   4   2 5959.80 1602.64   4
   4   5   2 3068.14 1081.09   4
  -9   4   2 5053.62 1269.18   7
  -4  -5   2 5303.85 1584.84   6
  -5  -4   2 4514.87 1425.72   6
   4   5   2 6276.54 1524.81   5
   5   4   2 2485.89 1021.51   5
   5  -9   2 7500.61 1617.99   2
   4  -9   2 2558.56 1078.42   2
  -5  -4   2 4680.55 1233.73  10
  -9   4   3 10943.3 2080.53   9
   9  -5   3 11069.4 1839.91   4
  -9   5   3 12536.4 2264.31   9
   9  -4   3 9542.84 1777.79   4
  -5   9   3 10029.1 1949.07   9
  -4   9   3 10090.7 1932.97   9
   5   4   3 8412.57 1804.63   4
   4   5   3 9952.20 1845.20   4
  -4  -5   3 9128.59 1896.18   6
  -5  -4   3 9649.20 1934.14   6
   5   4   3 9553.06 1777.21   5
   4   5   3 8963.14 1812.11   5
   5  -9   3 10595.1 1915.86   2
   4  -9   3 9335.96 1807.21   2
  -5  -4   3 11018.9 1846.99  10
   9  -5   4 789.132 576.296   4
  -9   4   4 682.492 982.433   9
  -9   5   4 434.605 954.517   9
   9  -4   4-83.3845 687.941   4
   4   5   4 1655.85 831.716   1
  -5   9   4-545.421 867.168   9
   5   4   4 813.250 920.918   4
  -4   9   4-688.508 688.836   9
  -5   9   4 92.3034 401.254   1
  -4   9   4 979.261 655.271   1
  -4  -5   4-321.261 646.413   6
  -5  -4   4 1309.70 1010.41   6
   5  -9   4 2429.68 1048.24   2
   4  -9   4-25.2963 461.661   2
  -5  -4   4-111.718 551.803  10
   9  -5   5 3720.98 1183.34   4
  -9   4   5 2371.08 1102.73   9
   9  -4   5 3347.16 1190.63   4
  -9   5   5 3311.38 1354.25   9
   5   4   5 4083.73 1304.95   4
  -5   9   5 2345.58 1057.75   9
  -4   9   5 3769.37 1225.17   9
  -5   9   5 5050.83 1218.12   1
  -4   9   5 3941.39 1153.49   1
  -4  -5   5 6408.38 1568.12   6
  -5  -4   5 2557.98 1132.53   6
   4   5   5 3329.24 1121.96   1
   4  -9   5 3683.71 1253.23  11
   5  -9   5 4382.17 1296.29   2
   4  -9   5 4958.22 1444.63   2
  -5  -4   5 5584.28 1439.50  10
   4   5   6 2135.88 1093.11   1
   9  -5   6 929.380 616.256   4
  -9   4   6 3095.54 1318.74   9
   9  -4   6 1194.91 835.059   4
  -9   5   6 1446.84 1048.79   9
   5   4   6 1913.16 1024.60   4
  -5   9   6 3298.35 1133.95   9
  -4   9   6 1689.33 958.741   9
  -5   9   6 787.960 719.584   1
  -4   9   6 1675.47 895.480   1
  -4  -5   6 3010.98 1267.88   6
  -5  -4   6 1206.21 926.485   6
   4  -9   6 817.952 822.099  11
   5  -9   6 1443.15 909.921   2
   4  -9   6 1020.22 940.689   2
  -5  -4   6 1165.04 834.349  10
   9  -5   7 2101.97 1120.13   4
   9  -4   7 2381.89 1074.10   4
  -9   4   7 2765.92 1364.29   9
  -9   5   7 1816.00 1077.66   9
  -5   9   7 753.827 835.446   9
  -4   9   7 1205.90 796.851   9
  -5   9   7 2271.76 926.430   1
  -4   9   7 1510.89 925.622   1
   4   5   7 3287.27 1250.54   1
  -4  -5   7 2094.05 1144.59   6
  -5  -4   7 2740.43 1202.21   6
   5   4   7 2951.56 1156.04   1
   4  -9   7 4788.96 1473.59  11
   5  -9   7 1803.03 974.704   2
  -5  -4   7 552.380 767.873  10
   4  -9   7 1743.45 924.198   2
  -5   9   8 3249.21 1215.31   9
  -5   9   8 3302.29 1150.28   1
  -4   9   8 2210.00 976.419   1
  -5  -4   8 1479.78 876.264   6
  -5  -4   8 943.440 872.046  10
   3   6  -9 311.079 656.300   3
  -3   9  -9-377.969 608.449   5
  -6   9  -8 6223.86 1603.60   9
   9  -3  -8 10912.8 2051.25   4
   9  -3  -8 5917.46 1664.50   3
   3   6  -8 8538.70 1831.81   3
   3  -9  -8 10174.3 1918.03   2
  -3  -6  -8 8535.53 1799.07  12
  -3   9  -8 7554.85 1666.36   5
  -9   6  -8 10454.0 2014.85  12
   6   3  -8 13504.6 2261.58   5
  -6   9  -7 597.304 698.321   9
   9  -3  -7 2104.16 1163.57   4
   9  -6  -7 3038.43 1237.15   2
  -9   3  -7-23.3494 516.141   7
   9  -3  -7 97.7213 696.970   3
   6   3  -7-322.698 798.346   3
   3   6  -7 552.517 744.697   3
   3  -9  -7 1250.01 761.965   2
  -3   9  -7-908.949 762.601   5
  -3  -6  -7 2205.89 956.687  12
  -6  -3  -7 1066.57 914.113  12
  -9   3  -7-567.247 689.357  12
   6   3  -7-26.1430 643.682   5
  -9   6  -7-215.974 706.217  12
  -6   9  -6 6305.00 1602.42   9
   9  -3  -6 7327.76 1726.05   4
   9  -6  -6 3704.73 1146.72   2
  -9   3  -6 4448.77 1395.89   7
  -9   6  -6 4842.01 1530.88   7
   9  -3  -6 2988.12 1227.21   3
   6  -9  -6 5733.13 1522.60   2
   6   3  -6 5874.34 1686.23   3
   3   6  -6 6118.83 1509.82   3
   3  -9  -6 4986.54 1390.32   2
  -3   9  -6 5162.88 1391.51   5
  -3  -6  -6 5720.53 1369.75  12
  -6  -3  -6 5971.89 1509.27  12
   3   6  -6 5895.83 1501.37   5
   6   3  -6 5019.07 1354.37   5
  -9   3  -6 6122.44 1736.77  12
  -9   6  -5 1043.46 764.491   9
  -6   9  -5 548.924 835.321   9
   9  -3  -5-446.100 794.044   4
   9  -6  -5 402.356 529.432   2
  -9   3  -5 792.574 829.468   7
  -9   6  -5-230.217 765.484   7
   9  -3  -5 339.420 694.879   3
   6   3  -5-76.4824 770.328   3
   3   6  -5 998.198 876.298   3
   6  -9  -5-141.327 536.262   2
   3  -9  -5 754.992 580.924   2
  -3   9  -5 765.435 835.942   5
   3   6  -5 1207.24 831.093   5
  -6  -3  -5-148.079 664.817  12
   6   3  -5 1999.80 979.966   5
  -9   3  -5 62.0870 739.433  12
  -9   6  -4 971.018 798.668   9
  -6   9  -4 373.169 802.738   9
   9  -3  -4 1913.16 972.535   4
   9  -6  -4 1143.22 836.461   2
  -9   3  -4 777.308 861.390   7
  -9   6  -4 849.304 876.311   7
   3   6  -4 1520.83 919.327   3
   6   3  -4 207.654 703.701   3
   6  -9  -4-57.8231 554.503   2
  -3  -6  -4 2723.73 1132.95   6
   3  -9  -4-81.3960 570.090   2
  -3   9  -4-94.0845 501.665   5
   3   6  -4 2565.20 1094.07   5
  -6  -3  -4 2056.48 954.743  12
   6   3  -4 463.278 640.327   5
  -9   6  -3 1632.18 1006.73   9
  -6   9  -3 1055.85 768.037   9
   9  -3  -3 142.584 684.839   4
  -3   9  -3 324.016 512.420   9
   3   6  -3 136.139 535.184   3
   9  -6  -3 315.140 512.560   2
  -9   3  -3 526.164 588.232   7
   6   3  -3 27.1360 636.520   3
   3  -9  -3 208.784 610.455   6
   6  -9  -3 721.923 605.306   2
  -3  -6  -3 2431.29 1236.92   6
   3  -9  -3 107.757 545.496   2
  -3   9  -3-132.976 550.596   5
   3   6  -3-195.704 595.545   5
   6   3  -3 1143.65 924.355   5
  -6  -3  -3 711.596 722.741  12
  -9   3  -2 7476.12 1594.62   9
  -9   6  -2 5962.09 1509.33   9
   9  -3  -2 3263.45 1300.03   4
  -6   9  -2 4470.29 1343.34   9
  -3   9  -2 4258.46 1407.18   9
   9  -6  -2 2241.26 862.107   2
  -9   3  -2 4729.50 1318.92   7
   3  -9  -2 6230.66 1370.49   6
   6  -9  -2 3909.52 1171.43   2
  -3  -6  -2 3584.58 1307.32   6
  -3   9  -2 4378.34 1275.59   5
   3  -9  -2 3577.04 1122.14   2
   3   6  -2 5647.97 1567.65   5
   6   3  -2 2448.52 986.375   5
  -6  -3  -2 5528.61 1326.01  12
  -9   3  -1 1185.83 886.478   9
  -9   6  -1 1303.68 932.088   9
   9  -3  -1 975.093 908.110   4
  -6   9  -1 4002.47 1411.62   9
  -3   9  -1 1843.15 1008.96   9
  -9   3  -1 1460.06 874.685   7
   3  -9  -1 475.219 640.098   6
  -3  -6  -1 4339.66 1461.21   6
   6  -9  -1-120.043 555.487   2
  -3   9  -1-526.220 714.352   5
   3  -9  -1 1019.34 755.960   2
   3   6  -1 1597.50 1071.32   5
   6   3  -1 458.517 653.982   5
  -6  -3  -1 1085.53 703.857  12
  -9   3   0 24934.2 2847.49   9
  -3   9   0 22695.6 2814.20   9
  -9   6   0 16443.9 2465.79   9
  -6   9   0 19223.9 2647.42   9
   6   3   0 16254.4 2681.74   4
  -9   3   0 25492.5 2735.46   7
  -3  -6   0 23889.5 2947.47   6
  -6  -3   0 20529.6 2730.01   6
  -3   9   0 20832.1 2648.74   5
   6  -9   0 17099.8 2432.52   2
  -6  -3   0 19503.9 2322.51  12
   3   6   0 13790.8 2305.04   5
   6   3   0 11431.1 1885.45   5
   3  -9   0 17940.4 2467.89   2
   9  -6   0 17717.2 2122.79   4
   9  -3   0 21606.0 2765.05   4
  -9   3   1 2234.31 1203.08   9
   9  -6   1 1808.02 847.745   4
  -9   6   1 2650.18 1198.09   9
   9  -3   1 2265.90 1070.32   4
  -6   9   1 1589.44 920.765   9
  -3   9   1 1310.92 912.000   9
   6   3   1 1487.07 918.631   4
  -9   3   1 1057.94 727.653   7
  -3  -6   1 1369.49 812.405   6
  -6  -3   1 2528.18 1240.17   6
   6  -9   1 835.805 672.928   2
   3   6   1 2754.29 1108.21   5
   3  -9   1 926.445 680.498   2
  -6  -3   1 1071.83 624.823  12
  -9   3   2 6154.15 1648.15   9
   9  -6   2 3654.89 1056.36   4
  -9   6   2 2448.54 1046.51   9
   9  -3   2 4867.52 1379.65   4
  -6   9   2 2624.98 1160.45   9
  -3   9   2 5710.79 1468.77   9
   6   3   2 7350.05 1771.98   4
  -3  -6   2 5008.17 1583.36   6
  -6  -3   2 5635.26 1496.34   6
   3   6   2 3460.48 1202.18   1
   6  -9   2 3618.53 1194.19   2
   3   6   2 4506.25 1398.16   5
   3  -9   2 3213.95 1168.02   2
  -3  -6   2 4886.34 1221.58  11
  -6  -3   2 6231.24 1370.19  10
   3   6   3-20.4841 442.394   1
   9  -6   3 429.663 587.200   4
  -9   3   3 140.743 755.893   9
  -9   6   3 1413.93 1167.60   9
   9  -3   3 138.085 900.013   4
  -6   9   3 1679.30 1016.62   9
   6   3   3 342.092 996.556   4
  -3   9   3 811.967 809.777   9
  -3  -6   3-7.70945 856.364   6
  -6  -3   3-352.914 690.643   6
   3   6   3-1102.86 840.346   5
   6  -9   3 1259.45 896.270   2
   3  -9   3 769.760 681.709  11
   3  -9   3-12.6117 535.903   2
  -3  -6   3 910.651 721.049  11
  -6  -3   3 772.455 773.776  10
  -3   9   3 580.336 593.083   1
   9  -6   4 2377.29 1008.00   4
  -9   3   4 616.533 833.804   9
  -9   6   4 1653.95 1101.61   9
   9  -3   4 1759.61 1136.18   4
  -6   9   4 1712.94 1043.03   9
   6   3   4-557.592 833.430   4
  -3   9   4 1099.49 758.230   9
  -3  -6   4 1319.66 1121.95   6
  -6  -3   4 609.565 950.676   6
   6  -9   4 1058.66 620.354   2
   3  -9   4 1168.89 846.039  11
   3   6   4 1409.90 947.251   1
   3  -9   4 2291.23 1006.39   2
  -3   9   4 192.859 487.652   1
  -6  -3   4 884.697 1011.70  10
   9  -6   5-369.526 572.588   4
  -9   3   5 331.272 726.973   9
  -6   9   5 1146.30 742.267   1
  -9   6   5 1435.79 1017.44   9
   9  -3   5 1568.80 1116.70   4
   6   3   5 1466.74 949.019   4
  -6   9   5 867.058 713.288   9
  -3   9   5 554.914 655.917   9
   3   6   5 2690.75 1047.63   1
  -3  -6   5 551.921 844.121   6
  -6  -3   5 213.188 672.425   6
   6  -9   5-47.8771 667.586   2
  -3   9   5 93.0073 494.670   1
   3  -9   5 649.547 837.698  11
   3  -9   5 535.806 847.004   2
  -6  -3   5-392.245 612.234  10
   9  -6   6 7191.46 1560.11   4
  -6   9   6 4942.88 1255.87   1
  -9   3   6 6970.43 1839.26   9
   9  -3   6 6231.81 1608.09   4
  -9   6   6 5250.60 1648.64   9
   6   3   6 5523.92 1587.12   4
  -6   9   6 11945.5 2187.54   9
  -3   9   6 3920.26 1181.99   9
  -3  -6   6 9341.28 1959.56   6
  -6  -3   6 7845.65 1738.93   6
  -3   9   6 7705.04 1669.50   1
   3   6   6 5986.06 1651.33   1
   3  -9   6 6484.45 1586.01  11
   6  -9   6 5401.80 1403.80   2
  -6  -3   6 6293.61 1557.34  10
   3  -9   6 5668.97 1527.85   2
   9  -6   7-246.456 605.258   4
  -6   9   7-307.714 496.749   1
   6   3   7 872.884 810.610   4
  -6   9   7 201.502 774.203   9
  -3  -6   7 959.773 1041.69   6
  -3   9   7 783.791 610.791   1
   3  -9   7 203.307 629.195  11
   6  -9   7-528.665 625.482   2
  -6  -3   7 295.181 838.488  10
  -6   9   8 6333.68 1452.43   1
   6   3   8 8548.72 1857.21   4
  -6   9   8 12002.5 2204.95   9
  -3   9   8 9963.11 1920.16   1
   6  -9   8 4880.73 1333.54   2
  -6   9   9 1278.48 1114.52   9
   7   2  -8 1480.91 873.021   5
  -7   9  -7 1878.77 969.150   9
   9  -2  -7 4111.36 1498.21   4
   2  -9  -7 500.148 688.060   2
  -2   9  -7 892.143 751.653   5
   7   2  -7 2423.42 994.477   5
  -9   7  -6 557.003 660.489   9
  -7   9  -6-275.762 658.960   9
   9  -2  -6 938.664 991.367   4
   9  -7  -6 135.457 505.086   2
  -9   2  -6-413.862 792.744   7
   9  -2  -6-367.134 771.449   3
  -2  -7  -6 2307.05 1190.62   6
   2  -9  -6 1125.90 597.412   2
  -2   9  -6 1289.04 831.550   5
  -7  -2  -6 465.311 650.830  12
   7   2  -6 1343.90 798.422   5
  -9   7  -5 9668.35 1888.43   9
  -7   9  -5 7861.33 1738.44   9
   9  -2  -5 9865.85 2048.38   4
   9  -7  -5 7028.19 1585.59   2
  -9   2  -5 7417.99 1698.60   7
   9  -2  -5 6163.17 1659.71   3
   7   2  -5 8272.39 1939.80   3
   7  -9  -5 6900.92 1629.57   2
  -2  -7  -5 11508.5 2142.84   6
   2  -9  -5 8981.61 1756.29   2
  -2   9  -5 12349.7 2189.95   5
   2   7  -5 8937.79 1902.44   5
  -7  -2  -5 8446.42 1869.14  12
  -9   2  -5 8381.77 1966.96  12
  -9   7  -4 491.816 709.962   9
  -7   9  -4 401.228 590.597   9
   9  -2  -4 1149.76 818.142   4
   9  -7  -4 269.681 590.254   2
  -9   2  -4 75.9452 574.043   7
   7   2  -4-62.3175 757.827   3
   7  -9  -4 1226.54 770.408   2
   2  -9  -4 1136.06 791.565   6
  -2  -7  -4 1668.12 1088.04   6
   2  -9  -4 1287.89 832.445   2
  -2   9  -4 893.118 693.571   5
   2   7  -4 1423.62 886.500   5
  -7  -2  -4 978.681 884.362  12
  -9   2  -4 2283.64 1118.70  12
  -9   7  -3 4071.10 1348.41   9
  -7   9  -3 4581.32 1387.45   9
   9  -2  -3 3324.82 1350.46   4
   7   2  -3 3889.00 1347.66   3
   9  -7  -3 2757.00 1009.82   2
  -9   2  -3 5628.35 1501.12   7
   7  -9  -3 5287.75 1420.45   2
   2  -9  -3 4308.36 1253.31   6
  -2  -7  -3 6096.74 1690.38   6
  -2   9  -3 2276.07 1032.22   5
   2   7  -3 5203.98 1491.05   5
   2  -9  -3 4269.45 1239.50   2
  -7  -2  -3 4642.94 1363.61  12
  -9   7  -2 5896.81 1595.02   9
  -7   9  -2 1866.90 1044.09   9
   9  -2  -2 2875.02 1228.04   4
  -9   2  -2 3036.44 1119.79   7
   9  -7  -2 2406.54 942.477   2
   2  -9  -2 2684.63 1063.45   6
   7  -9  -2 5653.00 1406.79   2
  -2  -7  -2 3847.86 1459.45   6
  -2   9  -2 2503.71 1171.83   5
   2   7  -2 5390.58 1603.77   5
   2  -9  -2 4106.67 1254.10   2
  -7  -2  -2 3594.66 1232.24  12
  -9   2  -1 2170.36 954.204   9
  -9   7  -1-141.682 760.275   9
  -7   9  -1 626.151 650.270   9
   9  -2  -1 3264.08 1336.67   4
   7   2  -1 3503.35 1496.56   4
  -9   2  -1 904.670 723.274   7
   9  -7  -1 1642.35 730.460   2
   2  -9  -1 1340.29 856.075   6
  -2  -7  -1 3742.00 1274.78   6
   7  -9  -1 789.616 681.681   2
  -2   9  -1 2243.08 1103.99   5
   2   7  -1 3030.71 1212.69   5
   2  -9  -1 2254.67 962.881   2
  -7  -2  -1 368.742 527.634  12
  -9   2   0 930.647 866.960   9
  -9   7   0 2003.98 1158.98   9
  -7   9   0 1342.66 852.922   9
   9  -2   0-75.3272 804.302   4
   7   2   0 282.824 1033.21   4
  -2   9   0-956.021 784.229   9
  -9   2   0-160.085 523.968   7
   2  -9   0 1230.34 832.258   6
  -2  -7   0 1595.02 1220.71   6
   7  -9   0 137.823 447.914   2
  -2   9   0 229.363 699.347   5
   2   7   0 216.187 499.339   5
  -7  -2   0 528.792 603.981  12
   2  -9   0 376.667 559.793   2
  -9   2   1 1295.80 853.396   9
  -9   7   1 2629.24 1271.84   9
   9  -2   1 390.023 849.201   4
  -7   9   1 1567.89 1088.65   9
   7   2   1 3160.85 1351.12   4
  -2   9   1 1209.29 1096.05   9
   2  -9   1-529.993 765.992   6
  -2  -7   1 2305.19 1215.14   6
  -7  -2   1 793.281 922.510   6
   7  -9   1 354.142 671.754   2
   2   7   1 1491.72 988.708   5
  -7  -2   1 879.245 608.207  12
   2  -9   1 2885.27 1099.22  11
   2  -9   1 999.155 696.407   2
   2   7   1 844.618 623.296   1
  -9   2   2 3949.63 1320.59   9
  -9   7   2 5386.62 1559.68   9
   9  -2   2 3241.85 1322.98   4
  -7   9   2 5223.30 1623.27   9
   7   2   2 3244.92 1405.71   4
  -2   9   2 4927.59 1363.81   9
   2   7   2 4707.89 1378.23   1
  -2  -7   2 2726.59 1284.22   6
  -7  -2   2 4964.34 1362.39   6
   7  -9   2 2448.34 916.874   2
   2   7   2 3512.56 1300.60   5
  -7  -2   2 3015.32 994.429  12
   2  -9   2 2767.18 1004.74  11
   2  -9   2 3217.34 1212.54   2
  -2  -7   2 2405.34 897.499  11
  -7  -2   2 2981.38 1105.07  10
   9  -7   3 3937.95 1120.64   4
  -9   2   3 5777.89 1679.43   9
  -9   7   3 6378.00 1693.79   9
   9  -2   3 8095.74 1910.53   4
  -7   9   3 4602.93 1388.88   9
   7   2   3 6180.23 1705.62   4
  -2   9   3 4743.58 1355.75   9
  -2   9   3 3718.14 1142.69   1
   2   7   3 4985.69 1383.67   1
  -2  -7   3 6348.80 1754.03   6
  -7  -2   3 5607.97 1579.86   6
   2   7   3 4972.20 1461.83   5
   7  -9   3 4159.43 1215.35   2
   2  -9   3 4487.00 1316.56  11
  -2  -7   3 5611.72 1378.11  11
   2  -9   3 2956.79 1147.21   2
  -7  -2   3 3581.35 1245.45  10
   9  -7   4 714.395 657.637   4
  -9   2   4 129.658 729.392   9
  -9   7   4 1677.07 1094.16   9
   9  -2   4 2538.27 1131.33   4
  -7   9   4 990.644 892.368   9
   7   2   4 84.2063 821.696   4
  -2   9   4-9.54959 627.521   9
  -2   9   4 856.027 696.277   1
  -2  -7   4 19.2635 659.683   6
   7  -9   4 783.201 676.184   2
   2  -9   4 1597.08 840.728  11
   2   7   4 1622.59 929.895   1
  -2  -7   4 378.291 691.465  11
   2  -9   4 1950.09 907.490   2
  -7  -2   4 394.584 733.803  10
   9  -7   5 9080.54 1738.72   4
  -9   2   5 9542.58 2232.58   9
  -2   9   5 9616.24 1825.52   1
   9  -2   5 5017.58 1607.52   4
  -9   7   5 12454.7 2335.61   9
  -7   9   5 10933.0 2144.69   9
   7   2   5 7570.24 1867.62   4
  -2   9   5 6267.80 1544.33   9
  -2  -7   5 5673.74 1670.63   6
   2   7   5 8192.86 1802.88   1
   7  -9   5 7098.06 1651.84   2
   2  -9   5 8288.70 1766.56  11
  -2  -7   5 7766.92 1639.32  11
  -7  -2   5 7681.35 1793.40  10
  -9   2   6 3962.31 1559.24  10
   9  -7   6 1632.18 897.369   4
  -2   9   6 505.093 583.516   1
   7   2   6 3596.72 1325.47   4
  -7   9   6 1576.43 1106.13   9
   2   7   6-196.707 490.682   1
   7  -9   6 2153.73 928.866   2
   2  -9   6 796.392 656.258  11
  -2  -7   6 1096.57 1045.97  11
  -7  -2   6-67.9451 787.922  10
  -7   9   6 807.353 725.254   1
  -2   9   7 1104.63 781.739   1
   9  -7   7 623.643 637.414   4
   7   2   7 1784.21 1134.35   4
  -7   9   7 60.6166 406.485   1
  -9   8  -6 1904.16 1056.68   9
   1  -9  -6 166.439 615.823   6
  -9   8  -5 4895.80 1458.70   9
  -9   1  -5 3225.04 1291.06   7
   1  -9  -5 4761.57 1401.84   6
   1  -9  -5 6300.85 1525.67   2
  -9   8  -4 3753.81 1287.75   9
  -8   9  -4 701.835 649.217   9
  -9   1  -4 1695.22 1011.80   7
   9  -8  -4 2814.56 1169.38   2
   1  -9  -4 1158.53 948.480   6
  -1  -8  -4 2407.52 1268.57   6
  -8  -1  -4 347.594 706.714  12
   1  -9  -4 1882.63 875.708   2
  -9   8  -3 6672.76 1749.16   9
  -8   9  -3 3897.02 1346.29   9
   9  -1  -3 4573.73 1557.23   4
  -9   1  -3 3656.66 1197.07   7
   9  -8  -3 3360.04 1166.54   2
   8  -9  -3 3438.03 1195.12   2
   1  -9  -3 3048.37 1213.08   6
  -1  -8  -3 6496.10 1577.93   6
  -1   9  -3 6465.79 1658.50   5
  -8  -1  -3 4688.19 1374.51  12
  -9   1  -3 4420.42 1470.14  12
   1  -9  -3 5273.18 1356.24   2
  -9   8  -2 3352.51 1302.68   9
  -8   9  -2 4669.17 1464.12   9
   9  -1  -2 4502.83 1575.35   4
   8   1  -2 5177.88 1774.50   4
  -9   1  -2 3697.72 1179.85   7
   9  -8  -2 3648.61 1162.08   2
   8  -9  -2 3864.04 1231.79   2
   1  -9  -2 4921.10 1423.58   6
  -1  -8  -2 2392.97 1047.33   6
  -1   9  -2 5445.23 1600.31   5
   1   8  -2 3030.12 1298.65   5
  -8  -1  -2 3621.61 1306.64  12
   1  -9  -2 3320.58 1154.97   2
  -9   8  -1 1138.77 1023.72   9
  -8   9  -1 292.802 697.144   9
   9  -1  -1 1065.86 1205.63   4
   8   1  -1 1148.92 1133.67   4
   9  -8  -1 1871.43 814.534   2
   1  -9  -1 786.563 736.995   6
   8  -9  -1 1137.08 747.103   2
  -1  -8  -1 821.164 879.776   6
  -1   9  -1 1104.66 816.296   5
   1   8  -1 772.017 866.274   5
  -8  -1  -1 583.108 666.612  12
   1  -9  -1 1510.73 830.472   2
  -9   1   0-46.0588 641.057  10
  -9   8   0 968.262 995.216   9
  -8   9   0 696.720 1007.94   9
   9  -1   0 506.934 878.243   4
   8   1   0 627.679 1008.90   4
   1  -9   0 1217.56 917.018   6
   9  -8   0 190.678 492.136   2
  -1  -8   0 1234.78 1059.71   6
   8  -9   0-306.554 593.537   2
  -1   9   0 1061.78 994.267   5
   1   8   0-268.633 764.702   5
  -8  -1   0 1298.45 813.589  12
   1  -9   0 1238.08 1001.27   2
  -9   1   1 1883.09 1011.96  10
  -9   8   1 1371.32 1114.00   9
  -8   9   1 2504.72 1186.33   9
   9  -1   1 1172.72 948.862   4
   8   1   1 55.8167 831.297   4
   1  -9   1 2516.72 1110.93   6
  -1  -8   1 2606.18 1179.47   6
   1   8   1 1152.67 810.236   1
  -1   9   1 1217.09 934.302   5
   8  -9   1 590.898 602.086   2
   1   8   1 2212.60 1340.51   5
  -8  -1   1 2490.53 1062.67  12
   1  -9   1 1307.20 640.090  11
   1  -9   1-531.854 669.211   2
  -9   1   2 5517.10 1527.92  10
  -9   8   2 5084.07 1503.23   9
  -8   9   2 5822.50 1616.38   9
   9  -1   2 2278.84 1185.16   4
   8   1   2 3628.55 1483.79   4
  -1   9   2 1949.93 1047.69   9
   1  -9   2 2538.83 1172.17   6
  -1  -8   2 3917.55 1325.33   6
   1   8   2 1099.44 869.610   1
   8  -9   2 3895.00 1253.30   2
   1   8   2 3537.46 1355.84   5
   1  -9   2 6177.25 1505.30  11
   1  -9   2 4779.74 1460.51   2
  -8  -1   2 3771.44 1243.42  10
  -9   1   3 2676.85 1215.08  10
   8   1   3 4956.14 1628.75   4
  -1   9   3 3695.21 1260.49   9
   8  -9   3 3955.80 1218.07   2
   1   8   3 4407.83 1315.50   1
   1  -9   3 5810.06 1406.74  11
  -1  -8   3 5386.01 1400.24  11
  -1   9   3 2013.99 871.372   1
  -8  -1   3 3349.20 1295.86  10
   1   8   4 1424.02 959.415   1
  -1   9   4 2166.63 966.712   1
   8  -9   4 1666.57 728.355   2
   1  -9   4 1346.38 1040.91  11
  -1  -8   4 38.6883 502.053  11
  -8  -1   4 1868.73 999.217  10
  -9   1   4 1034.45 966.076  10
  -1   9   5 5126.12 1399.99   1
   1  -9   5 5285.51 1471.68  11
  -1  -8   5 4633.59 1366.10  11
  -8  -1   5 4189.69 1353.57  10
   0  -9  -2-661.760 606.262   2
   9  -9  -1-884.563 716.337   2
   0  -9  -1 843.373 735.685   2
   9  -9   0 8755.41 1766.53   2
   9  -9   1 139.533 505.471   2
   0   9   3-568.564 635.491   1
   0  -9   3 17.6054 495.065  11
   5   5  -4 1300.71 749.488   3
   5   5  -4 2401.26 1154.53   5
 -10   5  -3 537.080 727.844   9
 -10   5  -3 68.0326 809.036   7
   5   5  -3 552.962 656.148   5
 -10   5  -2 1810.65 1018.90   9
  10  -5  -2 1939.89 882.793   4
 -10   5  -2 1761.93 1001.60   7
   5   5  -2-547.806 782.933   5
 -10   5  -1-243.222 815.220   9
  10  -5  -1 1819.90 917.156   4
 -10   5  -1 279.631 777.444   7
  -5  -5  -1 2115.21 1366.69   6
   5   5  -1 675.077 696.482   5
 -10   5   0 24492.5 3121.25   9
  10  -5   0 16281.7 2330.12   4
  -5  10   0 21526.7 2957.97   9
   5   5   0 21558.1 2950.84   4
 -10   5   0 17640.5 2580.71   7
  -5  -5   0 16098.0 2633.20   6
   5 -10   0 22725.5 2968.81   2
   5   5   0 18909.9 2692.29   5
 -10   5   1 584.831 1116.31   9
  10  -5   1-195.512 560.762   4
  -5  10   1-40.2790 701.711   9
   5   5   1 1818.20 1234.74   4
 -10   5   1 1127.79 977.069   7
  -5  -5   1 1631.83 1046.64   6
   5   5   1-744.784 797.073   5
   5 -10   1-721.233 694.382   2
 -10   5   2 1366.31 1154.32   9
  10  -5   2 1038.22 768.023   4
  -5  10   2 382.699 667.503   9
   5   5   2 458.971 657.558   4
  -5  -5   2 106.043 936.186   6
   5   5   2 84.3470 741.153   5
  10  -5   3 30.1340 631.095   4
  -5  10   3-626.805 704.855   9
  -5  -5   3-870.363 700.266   6
   5   5   3-584.707 706.734   5
  10  -4  -5 3345.83 1233.43   4
   4   6  -5 5119.26 1526.01   3
  -6  -4  -5 3012.33 1178.10  12
  10  -4  -4-348.024 699.971   4
   4   6  -4 2659.43 1045.85   3
  -4  10  -4 1754.94 901.688   5
   6   4  -4 540.733 816.933   5
  -6  -4  -4 361.990 609.317  12
 -10   6  -3 2125.75 1097.54   9
  10  -4  -3 2118.55 1059.15   4
 -10   4  -3 4429.27 1407.75   7
  -4  10  -3 1763.44 863.410   5
   6   4  -3 3827.79 1288.78   5
  -6  -4  -3 4219.14 1226.74  12
 -10   4  -2 1843.97 1008.99   9
 -10   6  -2 3437.44 1361.57   9
  10  -4  -2 3432.13 1257.81   4
 -10   4  -2 5786.93 1562.87   7
 -10   6  -2 3041.08 1230.65   7
   4   6  -2 5424.91 1579.41   5
   6   4  -2 2984.58 1191.63   5
 -10   4  -1 358.868 677.536   9
 -10   6  -1 1639.96 1083.26   9
  10  -4  -1 2266.87 1076.75   4
 -10   4  -1 532.957 757.965   7
 -10   6  -1 418.772 685.008   7
  -6  -4  -1 505.348 1037.07   6
   4   6  -1 1144.14 1053.17   5
   6   4  -1 1221.69 838.941   5
 -10   4   0 912.364 950.410   9
 -10   6   0-383.218 723.678   9
  10  -4   0 1508.56 818.746   4
  -4  10   0 1361.68 857.025   9
   6   4   0 1770.48 1397.48   4
 -10   4   0 498.997 775.554   7
 -10   6   0 531.010 753.231   7
  -6  -4   0-1631.61 1185.15   6
   4   6   0 1685.64 979.797   5
 -10   4   1 1359.05 852.769   9
  10  -6   1 732.772 706.370   4
 -10   6   1 2185.95 1148.20   9
  10  -4   1 1374.26 884.447   4
  -4  10   1 476.472 678.608   9
   6   4   1-36.3842 810.100   4
  -6  -4   1 2620.51 1401.56   6
   4   6   1 1288.82 820.103   5
 -10   4   2 5521.94 1756.82   9
  10  -6   2 2269.56 967.328   4
  10  -4   2 6281.31 1586.78   4
  -4  10   2 4916.08 1473.26   9
   6   4   2 3888.47 1474.51   4
  -6  -4   2 1780.05 1130.02   6
   4   6   2 5207.52 1480.73   5
  10  -6   3 3329.83 1188.10   4
   6   4   3 3862.99 1436.72   4
  -4  10   3 5724.77 1540.27   9
  -6  -4   3 3554.16 1410.58   6
   4   6   3 2986.79 1165.69   5
  10  -6   4 912.015 680.949   4
   6   4   4-1249.87 969.286   4
  -4  10   4 8.34039 722.355   9
  -6  -4   4-1147.06 790.387  10
   6   4   5 1955.36 1107.31   4
  -6  -4   5 3095.67 1242.52   6
  -6  -4   5 3885.07 1294.44  10
 -10   7  -4 1521.37 1040.14   9
 -10   7  -3 3902.03 1338.53   9
 -10   3  -3 3778.47 1312.25   7
  -7  -3  -3 4283.28 1305.78  12
 -10   7  -2 1378.67 965.840   9
 -10   3  -2 2026.66 915.920   7
  -7  -3  -2 2054.96 888.623  12
 -10   3  -1 1227.79 998.604   9
 -10   3  -1 681.060 712.330   7
  -7  -3  -1 1229.51 1137.99   6
  -3  10  -1 1194.42 1071.14   5
  -7  -3  -1 67.1673 550.895  12
 -10   3   0 1189.45 862.744   9
  -7  -3   0 335.448 1059.94   6
 -10   3   1 1462.44 1010.88   9
  -7  -3   1 1200.44 1150.64   6
  -7  -3   2 2572.02 1324.97   6
  -7  -3   3 4006.23 1458.72   6
  10  -7   4 813.241 711.057   4
  -7  -3   4 74.1862 542.100  10
;
_shelx_hkl_checksum              50133
_shelx_res_file
;
CELL  0.71073   6.9809   6.9809  12.0270   90.000   90.000  120.000
ZERR     2.00   0.0007   0.0007   0.0009    0.000    0.000    0.000
LATT  -1
SYMM  - Y,   X - Y,   Z
SYMM  - X + Y, - X,   Z
SYMM  - X, - Y, 1/2 + Z
SYMM    Y, - X + Y, 1/2 + Z
SYMM    X - Y,   X, 1/2 + Z
SYMM  - Y, - X,   Z
SYMM  - X + Y,   Y,   Z
SYMM    X,   X - Y,   Z
SYMM    Y,   X, 1/2 + Z
SYMM    X - Y, - Y, 1/2 + Z
SYMM  - X, - X + Y, 1/2 + Z
SFAC  O    P    MN   CS H
UNIT  20 2 2 2 24
MERG 2
FMAP   2
PLAN   20
SIZE 0.123x0.082x0.064
ACTA
BOND  $H
EQIV $15 -x, -y, z-1/2
HTAB O3 O2_$15
EQIV $16 y, -x+y, z-1/2
HTAB O4 O1_$16
HTAB O3 O1
LIST   6
L.S.  12
WGHT    0.020000    0.800000
FVAR       6.93958
CS1   4    0.666667    0.333333    0.439376    10.16667    0.04980    0.04980 =
         0.05577    0.00000    0.00000    0.02490
MN1   3    0.333333    0.666667    0.316419    10.16667    0.02559    0.02559 =
         0.02020    0.00000    0.00000    0.01279
P1    2    0.000000    0.000000    0.660252    10.16667    0.02137    0.02137 =
         0.01272    0.00000    0.00000    0.01069
O1    1    0.119806    0.239611    0.619106    10.50000    0.03357    0.02210 =
         0.02121    0.00446    0.00223    0.01105
O2    1    0.000000    0.000000    0.789126    10.16667    0.03978    0.03978 =
         0.01056    0.00000    0.00000    0.01989
O3    1    0.181605    0.363211    0.410317    10.50000    0.08314    0.02551 =
         0.02081    0.00323    0.00162    0.01276
O4    1    0.483385    0.516615    0.214076    10.50000    0.03340    0.03340 =
         0.07058   -0.02011    0.02011    0.00572
DFIX 0.80 0.001 O3 H1 O3 H3  O4 H2
H1    5    0.126214    0.252428    0.373935    10.50000    0.06014
H2    5    0.386720    0.413247    0.181784    11.00000    0.05478
H3    5    0.168498    0.336996    0.475514    10.50000    0.07029
HKLF 4
REM
REM R1 =  0.0328 for     687 Fo > 4sig(Fo)  and  0.0378 for all     737 data
REM     41 parameters refined using      4 restraints
END
WGHT      0.0204      0.9308
REM Highest difference peak  0.762,  deepest hole -0.792,  1-sigma level  0.082
Q1    1   0.7239  0.4478  0.4549  10.50000  0.05    0.76
Q2    1   0.2798  0.5596  0.2921  10.50000  0.05    0.38
Q3    1   0.0000  0.0000  0.5645  10.16667  0.05    0.36
Q4    1   0.0479  0.0958  0.6281  10.50000  0.05    0.35
Q5    1   0.7098  0.4196  0.3586  10.50000  0.05    0.29
Q6    1   0.1630  0.3259  0.6428  10.50000  0.05    0.28
Q7    1   0.7524  0.5049  0.4949  10.50000  0.05    0.27
Q8    1   0.5211  0.0422  0.5071  10.50000  0.05    0.27
Q9    1   0.4018  0.5982  0.1530  10.50000  0.05    0.27
Q10   1   0.6667  0.3333  0.5747  10.16667  0.05    0.25
Q11   1   0.5727  0.4273  0.2285  10.50000  0.05    0.25
Q12   1   0.1384  0.2767  0.2057  10.50000  0.05    0.24
Q13   1   0.6173  0.3827  0.1827  10.50000  0.05    0.24
Q14   1   0.3333  0.6667  0.4219  10.16667  0.05    0.23
Q15   1   0.2869  0.4072  0.3976  11.00000  0.05    0.23
Q16   1   0.5886  0.1771  0.3948  10.50000  0.05    0.21
Q17   1   0.5573  0.4427  0.1162  10.50000  0.05    0.21
Q18   1   0.4621  0.5379  0.1687  10.50000  0.05    0.21
Q19   1   0.1443  0.5722  0.5122  10.50000  0.05    0.20
Q20   1   0.6226  0.5984  0.2780  11.00000  0.05    0.20
;
_shelx_res_checksum              47304
loop_
_space_group_symop_operation_xyz
'x, y, z'
'-y, x-y, z'
'-x+y, -x, z'
'-x, -y, z+1/2'
'y, -x+y, z+1/2'
'x-y, x, z+1/2'
'-y, -x, z'
'-x+y, y, z'
'x, x-y, z'
'y, x, z+1/2'
'x-y, -y, z+1/2'
'-x, -x+y, z+1/2'
loop_
_atom_site_type_symbol
_atom_site_label
_atom_site_fract_x
_atom_site_fract_y
_atom_site_fract_z
_atom_site_U_iso_or_equiv
_atom_site_adp_type
_atom_site_calc_flag
_atom_site_occupancy
Cs Cs1 0.666667 0.333333 0.43938(17) 0.0518(3) Uani d 1
Mn Mn1 0.333333 0.666667 0.31642(19) 0.0238(4) Uani d 1
P P1 0.000000 0.000000 0.6603(2) 0.0185(4) Uani d 1
O O1 0.1198(3) 0.2396(6) 0.6191(5) 0.0269(8) Uani d 1
O O2 0.000000 0.000000 0.7891(6) 0.030(2) Uani d 1
O O3 0.1816(4) 0.3632(9) 0.4103(3) 0.0496(16) Uani d 1
O O4 0.4834(6) 0.5166(6) 0.2141(5) 0.0507(17) Uani d 1
H H1 0.126(3) 0.252(6) 0.374(5) 0.06(3) Uiso d 1
H H2 0.387(9) 0.413(7) 0.182(4) 0.05(2) Uiso d 1
H H3 0.168(8) 0.337(15) 0.4755(16) 0.07(4) Uiso d 1
loop_
_atom_site_aniso_label
_atom_site_aniso_U_11
_atom_site_aniso_U_22
_atom_site_aniso_U_33
_atom_site_aniso_U_12
_atom_site_aniso_U_13
_atom_site_aniso_U_23
Cs1 0.0498(4) 0.0498(4) 0.0558(6) 0.0249(2) 0.000 0.000
Mn1 0.0256(6) 0.0256(6) 0.0202(8) 0.0128(3) 0.000 0.000
P1 0.0214(6) 0.0214(6) 0.0127(9) 0.0107(3) 0.000 0.000
O1 0.0336(14) 0.0221(17) 0.0212(17) 0.0110(9) 0.0022(10) 0.004(2)
O2 0.040(3) 0.040(3) 0.011(3) 0.0199(15) 0.000 0.000
O3 0.083(4) 0.026(2) 0.021(2) 0.0128(12) 0.0016(11) 0.003(2)
O4 0.033(2) 0.033(2) 0.071(4) 0.006(3) 0.0201(16) -0.0201(16)
loop_
_atom_type_symbol
_atom_type_description
_atom_type_scat_dispersion_real
_atom_type_scat_dispersion_imag
_atom_type_scat_source
O O 0.0106 0.0060 'International Tables Vol C Tables 4.2.6.8 and 6.1.1.4'
P P 0.1023 0.0942 'International Tables Vol C Tables 4.2.6.8 and 6.1.1.4'
Mn Mn 0.3368 0.7283 'International Tables Vol C Tables 4.2.6.8 and 6.1.1.4'
Cs Cs -0.3680 2.1192 'International Tables Vol C Tables 4.2.6.8 and 6.1.1.4'
H H 0.0000 0.0000 'International Tables Vol C Tables 4.2.6.8 and 6.1.1.4'
loop_
_geom_angle_atom_site_label_1
_geom_angle_atom_site_label_2
_geom_angle_atom_site_label_3
_geom_angle_site_symmetry_1
_geom_angle_site_symmetry_3
_geom_angle
O4 Cs1 O4 2_655 3_665 66.50(13)
O4 Cs1 O4 2_655 . 66.50(13)
O4 Cs1 O4 3_665 . 66.50(13)
O4 Cs1 O3 2_655 2_665 116.84(10)
O4 Cs1 O3 3_665 2_665 87.45(9)
O4 Cs1 O3 . 2_665 50.35(10)
O4 Cs1 O3 2_655 3 50.35(10)
O4 Cs1 O3 3_665 3 116.84(10)
O4 Cs1 O3 . 3 87.45(9)
O3 Cs1 O3 2_665 3 119.02(3)
O4 Cs1 O3 2_655 . 87.45(9)
O4 Cs1 O3 3_665 . 116.84(10)
O4 Cs1 O3 . . 50.35(10)
O3 Cs1 O3 2_665 . 53.79(17)
O3 Cs1 O3 3 . 65.56(17)
O4 Cs1 O3 2_655 3_665 116.84(10)
O4 Cs1 O3 3_665 3_665 50.35(10)
O4 Cs1 O3 . 3_665 87.45(9)
O3 Cs1 O3 2_665 3_665 65.56(17)
O3 Cs1 O3 3 3_665 167.14(15)
O3 Cs1 O3 . 3_665 119.02(3)
O4 Cs1 O3 2_655 2_655 50.35(10)
O4 Cs1 O3 3_665 2_655 87.45(9)
O4 Cs1 O3 . 2_655 116.84(10)
O3 Cs1 O3 2_665 2_655 167.14(15)
O3 Cs1 O3 3 2_655 53.78(17)
O3 Cs1 O3 . 2_655 119.02(3)
O3 Cs1 O3 3_665 2_655 119.02(3)
O4 Cs1 O3 2_655 1_655 87.45(9)
O4 Cs1 O3 3_665 1_655 50.35(10)
O4 Cs1 O3 . 1_655 116.84(10)
O3 Cs1 O3 2_665 1_655 119.02(3)
O3 Cs1 O3 3 1_655 119.02(3)
O3 Cs1 O3 . 1_655 167.14(15)
O3 Cs1 O3 3_665 1_655 53.78(17)
O3 Cs1 O3 2_655 1_655 65.56(17)
O4 Cs1 O4 2_655 4_665 146.19(4)
O4 Cs1 O4 3_665 4_665 146.19(4)
O4 Cs1 O4 . 4_665 111.95(2)
O3 Cs1 O4 2_665 4_665 70.16(11)
O3 Cs1 O4 3 4_665 96.43(8)
O3 Cs1 O4 . 4_665 70.16(11)
O3 Cs1 O4 3_665 4_665 96.43(8)
O3 Cs1 O4 2_655 4_665 119.28(10)
O3 Cs1 O4 1_655 4_665 119.28(10)
O4 Cs1 O4 2_655 6_655 146.19(4)
O4 Cs1 O4 3_665 6_655 111.95(2)
O4 Cs1 O4 . 6_655 146.19(4)
O3 Cs1 O4 2_665 6_655 96.43(8)
O3 Cs1 O4 3 6_655 119.28(10)
O3 Cs1 O4 . 6_655 119.28(10)
O3 Cs1 O4 3_665 6_655 70.16(11)
O3 Cs1 O4 2_655 6_655 96.43(8)
O3 Cs1 O4 1_655 6_655 70.16(11)
O4 Cs1 O4 4_665 6_655 49.27(14)
O4 Cs1 O4 2_655 5 111.95(2)
O4 Cs1 O4 3_665 5 146.19(4)
O4 Cs1 O4 . 5 146.19(4)
O3 Cs1 O4 2_665 5 119.28(10)
O3 Cs1 O4 3 5 70.16(11)
O3 Cs1 O4 . 5 96.43(8)
O3 Cs1 O4 3_665 5 119.28(10)
O3 Cs1 O4 2_655 5 70.16(11)
O3 Cs1 O4 1_655 5 96.43(8)
O4 Cs1 O4 4_665 5 49.27(14)
O4 Cs1 O4 6_655 5 49.27(14)
O3 Mn1 O3 3_565 2_665 95.04(19)
O3 Mn1 O3 3_565 . 95.04(19)
O3 Mn1 O3 2_665 . 95.04(19)
O3 Mn1 O4 3_565 3_565 86.67(16)
O3 Mn1 O4 2_665 3_565 177.5(3)
O3 Mn1 O4 . 3_565 86.67(16)
O3 Mn1 O4 3_565 2_665 86.67(16)
O3 Mn1 O4 2_665 2_665 86.67(16)
O3 Mn1 O4 . 2_665 177.5(3)
O4 Mn1 O4 3_565 2_665 91.6(3)
O3 Mn1 O4 3_565 . 177.5(3)
O3 Mn1 O4 2_665 . 86.67(16)
O3 Mn1 O4 . . 86.67(16)
O4 Mn1 O4 3_565 . 91.6(3)
O4 Mn1 O4 2_665 . 91.6(3)
O3 Mn1 Cs1 3_565 . 128.24(15)
O3 Mn1 Cs1 2_665 . 54.527(13)
O3 Mn1 Cs1 . . 54.528(13)
O4 Mn1 Cs1 3_565 . 125.580(11)
O4 Mn1 Cs1 2_665 . 125.580(11)
O4 Mn1 Cs1 . . 54.3(2)
O3 Mn1 Cs1 3_565 1_565 54.528(14)
O3 Mn1 Cs1 2_665 1_565 54.529(13)
O3 Mn1 Cs1 . 1_565 128.24(15)
O4 Mn1 Cs1 3_565 1_565 125.578(11)
O4 Mn1 Cs1 2_665 1_565 54.3(2)
O4 Mn1 Cs1 . 1_565 125.580(11)
Cs1 Mn1 Cs1 . 1_565 108.79(2)
O3 Mn1 Cs1 3_565 1_455 54.528(14)
O3 Mn1 Cs1 2_665 1_455 128.24(15)
O3 Mn1 Cs1 . 1_455 54.528(14)
O4 Mn1 Cs1 3_565 1_455 54.3(2)
O4 Mn1 Cs1 2_665 1_455 125.578(11)
O4 Mn1 Cs1 . 1_455 125.580(11)
Cs1 Mn1 Cs1 . 1_455 108.79(2)
Cs1 Mn1 Cs1 1_565 1_455 108.78(2)
O1 P1 O1 2 3 110.1(2)
O1 P1 O1 2 . 110.1(2)
O1 P1 O1 3 . 110.1(2)
O1 P1 O2 2 . 108.9(2)
O1 P1 O2 3 . 108.9(2)
O1 P1 O2 . . 108.9(2)
Mn1 O3 Cs1 . . 95.51(8)
Mn1 O3 Cs1 . 1_455 95.51(8)
Cs1 O3 Cs1 . 1_455 167.14(15)
Mn1 O3 H1 . . 115(5)
Cs1 O3 H1 . . 90.7(6)
Cs1 O3 H1 1_455 . 90.7(6)
Mn1 O3 H3 . . 133(7)
Cs1 O3 H3 . . 83.8(2)
Cs1 O3 H3 1_455 . 83.8(2)
H1 O3 H3 . . 112(8)
Mn1 O4 Cs1 . . 95.1(2)
Mn1 O4 Cs1 . 4_664 95.4(2)
Cs1 O4 Cs1 . 4_664 169.50(16)
Mn1 O4 H2 . . 108(6)
Cs1 O4 H2 . . 110(5)
Cs1 O4 H2 4_664 . 66(5)
Mn1 O4 H2 . 7_665 108(6)
Cs1 O4 H2 . 7_665 110(5)
Cs1 O4 H2 4_664 7_665 66(5)
H2 O4 H2 . 7_665 122(9)
loop_
_geom_bond_atom_site_label_1
_geom_bond_atom_site_label_2
_geom_bond_site_symmetry_2
_geom_bond_distance
_geom_bond_publ_flag
Cs1 O4 2_655 3.500(8) ?
Cs1 O4 3_665 3.500(8) ?
Cs1 O4 . 3.501(8) y
Cs1 O3 2_665 3.5125(6) ?
Cs1 O3 3 3.5126(6) ?
Cs1 O3 . 3.5126(6) y
Cs1 O3 3_665 3.5126(6) y
Cs1 O3 2_655 3.5126(6) ?
Cs1 O3 1_655 3.5126(6) ?
Cs1 O4 4_665 3.769(8) ?
Cs1 O4 6_655 3.769(8) ?
Cs1 O4 5 3.769(8) y
Mn1 O3 3_565 2.154(5) ?
Mn1 O3 2_665 2.154(5) ?
Mn1 O3 . 2.154(5) y
Mn1 O4 3_565 2.192(5) ?
Mn1 O4 2_665 2.192(5) ?
Mn1 O4 . 2.192(5) y
P1 O1 2 1.531(4) ?
P1 O1 3 1.531(4) ?
P1 O1 . 1.531(4) y
P1 O2 . 1.550(8) y
O3 H1 . 0.8000(15) ?
O3 H3 . 0.8000(15) ?
O4 H2 . 0.8000(15) ?
O4 H2 7_665 0.8000(15) ?
loop_
_geom_hbond_atom_site_label_D
_geom_hbond_atom_site_label_H
_geom_hbond_atom_site_label_A
_geom_hbond_site_symmetry_A
_geom_hbond_distance_DH
_geom_hbond_distance_HA
_geom_hbond_distance_DA
_geom_hbond_angle_DHA
O3 H1 O2 4_554 0.8000(15) 1.836(7) 2.636(7) 179(7)
O4 H2 O1 5_554 0.8000(15) 1.93(3) 2.676(4) 155(8)
O3 H3 O1 . 0.8000(15) 1.825(15) 2.620(7) 173(10)

_cod_database_fobs_code 2021185
