#------------------------------------------------------------------------------
#$Date: 2019-02-14 05:36:51 +0200 (Thu, 14 Feb 2019) $
#$Revision: 213640 $
#$URL: file:///home/coder/svn-repositories/cod/cif/2/02/14/2021489.cif $
#------------------------------------------------------------------------------
#
# This file is available in the Crystallography Open Database (COD),
# http://www.crystallography.net/. The original data for this entry
# were provided by IUCr Journals, http://journals.iucr.org/.
#
# The file may be used within the scientific community so long as
# proper attribution is given to the journal article from which the
# data were obtained.
#
data_2021489
loop_
_publ_author_name
'Losev, Evgeniy A.'
'Boldyreva, Elena'
_publ_section_title
;
 Concomitant cocrystal and salt: no interconversion in the solid state
;
_journal_coeditor_code           KU3233
_journal_issue                   3
_journal_name_full               'Acta Crystallographica Section C'
_journal_page_first
;
;
_journal_paper_doi               10.1107/S2053229619001372
_journal_volume                  75
_journal_year                    2019
_chemical_formula_iupac          'C3 H7.5 N O2 +, C4 H5.5 O6 -'
_chemical_formula_moiety         'C3 H7.5 N O2 +, C4 H5.5 O6 -'
_chemical_formula_sum            'C7 H13 N O8'
_chemical_formula_weight         239.18
_chemical_name_common            '\b-Alanine--<i>DL</i>-tartaric acid (1/1)'
_chemical_name_systematic        '\b-Alaninium <i>DL</i>-tartarate'
_space_group_crystal_system      triclinic
_space_group_IT_number           2
_space_group_name_Hall           '-P 1'
_space_group_name_H-M_alt        'P -1'
_symmetry_space_group_name_Hall  '-P 1'
_symmetry_space_group_name_H-M   'P -1'
_atom_sites_solution_hydrogens   mixed
_atom_sites_solution_primary     iterative
_audit_creation_method
;
Olex2 1.2
(compiled 2018.05.29 svn.r3508 for OlexSys, GUI svn.r5506)
;
_cell_angle_alpha                108.617(10)
_cell_angle_beta                 97.370(9)
_cell_angle_gamma                92.763(9)
_cell_formula_units_Z            2
_cell_length_a                   4.9272(5)
_cell_length_b                   8.6072(9)
_cell_length_c                   12.1525(13)
_cell_measurement_reflns_used    2265
_cell_measurement_temperature    293
_cell_measurement_theta_max      29.4530
_cell_measurement_theta_min      2.5130
_cell_volume                     482.19(9)
_computing_cell_refinement
;
CrysAlis PRO (Agilent, 2014)
;
_computing_data_collection
;
CrysAlis PRO (Agilent, 2014)
;
_computing_data_reduction
;
CrysAlis PRO (Agilent, 2014)
;
_computing_molecular_graphics
;
OLEX2 (Dolomanov <i>et al.</i>,  2009)
;
_computing_publication_material
;
OLEX2 (Dolomanov <i>et al.</i>,  2009)
;
_computing_structure_refinement
;
SHELXL2018 (Sheldrick, 2015b)
;
_computing_structure_solution
;
olex2.solve (Bourhis <i>et al.</i>,  2015)
;
_diffrn_ambient_temperature      293.15
_diffrn_detector                 'CCD plate'
_diffrn_measured_fraction_theta_full 0.998
_diffrn_measured_fraction_theta_max 0.996
_diffrn_measurement_device_type  'Stoe IPDS'
_diffrn_measurement_method       '\w scans'
_diffrn_radiation_monochromator  graphite
_diffrn_radiation_probe          x-ray
_diffrn_radiation_type           MoK\a
_diffrn_radiation_wavelength     0.71073
_diffrn_reflns_av_R_equivalents  0.0346
_diffrn_reflns_av_unetI/netI     0.0555
_diffrn_reflns_limit_h_max       5
_diffrn_reflns_limit_h_min       -6
_diffrn_reflns_limit_k_max       10
_diffrn_reflns_limit_k_min       -10
_diffrn_reflns_limit_l_max       15
_diffrn_reflns_limit_l_min       -15
_diffrn_reflns_number            4119
_diffrn_reflns_theta_full        25.242
_diffrn_reflns_theta_max         26.369
_diffrn_reflns_theta_min         2.508
_diffrn_source                   'Enhance (Mo) X-ray Source'
_exptl_absorpt_coefficient_mu    0.153
_exptl_absorpt_correction_T_max  1.00000
_exptl_absorpt_correction_T_min  0.98485
_exptl_absorpt_correction_type   gaussian
_exptl_absorpt_process_details
;
(CrysAlis PRO; Agilent, 2014)
;
_exptl_crystal_colour            colourless
_exptl_crystal_density_diffrn    1.647
_exptl_crystal_description       block
_exptl_crystal_F_000             252
_exptl_crystal_size_max          0.434
_exptl_crystal_size_mid          0.071
_exptl_crystal_size_min          0.034
_refine_diff_density_max         0.213
_refine_diff_density_min         -0.205
_refine_ls_extinction_method     none
_refine_ls_goodness_of_fit_ref   1.033
_refine_ls_hydrogen_treatment    mixed
_refine_ls_matrix_type           full
_refine_ls_number_parameters     154
_refine_ls_number_reflns         1966
_refine_ls_number_restraints     1
_refine_ls_restrained_S_all      1.034
_refine_ls_R_factor_all          0.0793
_refine_ls_R_factor_gt           0.0456
_refine_ls_shift/su_max          0.000
_refine_ls_shift/su_mean         0.000
_refine_ls_structure_factor_coef Fsqd
_refine_ls_weighting_details
'w=1/[\s^2^(Fo^2^)+(0.0426P)^2^+0.0489P] where P=(Fo^2^+2Fc^2^)/3'
_refine_ls_weighting_scheme      calc
_refine_ls_wR_factor_gt          0.0934
_refine_ls_wR_factor_ref         0.1047
_reflns_number_gt                1348
_reflns_number_total             1966
_reflns_threshold_expression     'I > 2\s(I)'
_cod_data_source_file            ku3233sup1.cif
_cod_data_source_block           RT_salt
_cod_database_code               2021489
_shelx_space_group_comment
;
The symmetry employed for this shelxl refinement is uniquely defined
by the following loop, which should always be used as a source of
symmetry information in preference to the above space-group names.
They are only intended as comments.
;
_shelx_estimated_absorpt_t_min   0.937
_shelx_estimated_absorpt_t_max   0.995
_shelx_hkl_file
;
   0   0   2 70.9912 2.29491   1
   0   0  -2 69.9937 2.28189   1
   0   0  -3 114.793 3.56227   1
   0   0   3 122.108 3.65856   1
   0   0  -4 66.5504 3.18543   1
   0   0   4 60.8977 3.03817   1
   0   0   5 325.592 7.68962   1
   0   0  -5 309.481 7.55415   1
   0   0   6 114.660 5.11252   1
   0   0  -6 125.041 5.36417   1
   0   0   7 31.3482 3.13892   1
   0   0  -7 31.9258 3.14983   1
   0   0   8 49.8526 4.16895   1
   0   0  -8 47.7648 4.03902   1
   0   0   9 80.1183 5.53028   1
   0   0  -9 81.6769 5.51944   1
   0   0  10 2.30145 2.04498   1
   0   0  11 40.9871 4.80417   1
   0   0 -12 5.58666 3.64603   2
   0   0  12 0.38395 2.87966   1
   0   0 -13 0.98457 3.63333   2
   0   0  13-0.56249 3.15967   1
   0   0  14 14.0893 4.50093   1
   0   0 -14 16.4439 5.25289   2
   0   0 -15 3.76392 5.12494   2
   0   0  15 6.87260 4.62198   1
   0  -1  16-7.43832 4.42457   1
   0  -1  16-1.39871 4.62122   1
   0   1 -16 2.93546 6.43858   2
   0  -1  15 10.8073 4.24570   1
   0   1 -15 10.7915 5.54252   2
   0   1 -14 2.98762 4.60931   2
   0  -1  14 11.9605 4.08862   1
   0  -1  13 55.0045 5.63341   1
   0   1 -13 55.0464 6.82700   2
   0   1 -12 24.9148 4.75091   2
   0  -1  12 26.2072 3.99242   1
   0  -1  11 8.95211 2.59549   1
   0   1 -11 12.0424 3.39284   2
   0   1 -10 28.1476 4.16718   2
   0  -1  10 32.6152 3.71058   1
   0  -1   9 2.09571 1.64568   1
   0   1  -9 8.01493 2.64817   2
   0  -1   8 17.0180 2.39926   1
   0   1  -8 18.4292 2.99158   2
   0  -1   7 23.7003 2.45074   1
   0   1  -7 26.7946 3.03153   2
   0   1  -6 5.13501 1.68165   2
   0  -1   6 7.90334 1.45372   1
   0  -1   5 25.9546 2.01933   1
   0   1  -5 31.2230 2.71960   2
   0  -1   4 3.29240 0.88539   1
   0   1  -4 2.36302 1.13377   2
   0   1  -3 2294.27 16.4727   2
   0  -1   3 2274.61 16.5574   2
   0   1  -2 295.146 5.12426   2
   0  -1   2 300.366 3.85886   1
   0  -1   2 285.808 5.06383   2
   0   1  -2 309.108 3.92270   1
   0  -1   1 10.2215 0.80367   1
   0   1  -1 8.87239 0.76681   1
   0  -1   1 9.85973 0.97499   2
   0  -1   0 212.644 3.79009   1
   0   1   0 214.975 3.79614   1
   0  -1  -1 106.483 3.28012   1
   0   1   1 101.367 3.19701   1
   0   1   2 40.9271 2.46570   1
   0  -1  -2 45.1630 2.55482   1
   0  -1  -3 243.253 6.33248   1
   0   1   3 247.988 6.42987   1
   0  -1  -4 109.171 4.75002   1
   0   1   4 108.196 4.79410   1
   0  -1  -5 22.2055 2.53953   1
   0   1   5 21.8381 2.54053   1
   0  -1  -6 222.034 7.93049   1
   0   1   6 221.989 7.98613   1
   0  -1  -7 861.920 16.6531   1
   0   1   7 900.773 17.0918   1
   0  -1  -8 1.89529 1.83855   1
   0   1   8 0.09572 1.75651   1
   0  -1  -9 1.49653 2.10400   1
   0   1   9 3.39958 2.37085   1
   0  -1 -10 0.43602 2.41648   1
   0   1  10 0.16139 2.32277   1
   0  -1 -11 4.45406 3.18736   1
   0   1  11 5.04748 2.97078   1
   0   1  12 1.86800 3.47083   1
   0   1  13 13.7025 4.65525   1
   0  -1 -14-6.38875 4.92428   2
   0   1  14 2.09122 4.26898   1
   0  -1 -15-1.75394 5.99917   2
   0   1  15 14.4830 5.81420   1
   0  -2  16 58.9695 6.41909   1
   0  -2  16 64.3024 6.95911   1
   0   2 -16 61.8610 9.33318   2
   0   2 -15 15.0043 5.86597   2
   0  -2  15 25.3394 4.81511   1
   0  -2  15 20.4944 4.40834   1
   0   2 -14 6.15161 4.15135   2
   0  -2  14 6.95291 3.34776   1
   0  -2  14 12.4808 3.57696   1
   0  -2  13 26.6679 4.04647   1
   0   2 -13 21.0097 4.72993   2
   0  -2  13 27.2380 4.06775   1
   0  -2  12 0.43960 2.16626   1
   0   2 -12 1.24465 2.84776   2
   0  -2  12 4.58057 2.28524   1
   0  -2  11 116.365 6.36673   1
   0  -2  11 111.011 6.18622   1
   0   2 -11 110.483 7.71833   2
   0   2 -10 52.2672 5.09041   2
   0  -2  10 50.7949 3.98565   1
   0   2  -9-1.00256 1.74206   2
   0  -2   9 0.20842 1.34860   1
   0   2  -8 75.1154 5.22897   2
   0  -2   8 81.8113 4.24490   1
   0  -2   8 83.2686 4.33381   1
   0  -2   7 27.3973 2.35503   1
   0  -2   7 30.4223 2.52745   1
   0   2  -7 27.8775 3.07424   2
   0   2  -6 119.364 5.56822   2
   0  -2   6 127.062 4.35858   1
   0  -2   6 128.913 4.39860   1
   0  -2   5 126.867 5.30007   2
   0  -2   5 123.907 3.91051   1
   0   2  -5 124.975 5.24848   2
   0  -2   4 29.5299 2.52647   2
   0  -2   4 33.5817 1.94202   1
   0   2  -4 35.0191 2.69328   2
   0  -2   3 80.4778 3.62412   2
   0   2  -3 85.3025 2.81630   1
   0  -2   3 88.6554 2.85783   1
   0   2  -3 86.3097 3.75355   2
   0   2  -2 2921.97 16.4762   1
   0  -2   2 2919.50 19.8860   2
   0  -2   2 2940.68 16.4111   1
   0  -2   1 7.81822 1.15447   1
   0   2  -1 5.45201 1.06580   1
   0   2   0 18.7018 1.72539   1
   0  -2   0 12.6202 1.62058   1
   0  -2  -1 173.826 5.43845   1
   0   2   1 185.305 5.55190   1
   0   2   2 88.0189 4.32414   1
   0  -2  -2 92.3244 4.36273   1
   0   2   3 440.718 10.1512   1
   0  -2  -3 431.553 9.95917   1
   0   2   4 991.515 16.4045   1
   0  -2  -4 1011.57 16.3346   1
   0  -2  -5-0.18263 1.43012   1
   0   2   5 1.66177 1.72712   1
   0  -2  -6 107.034 6.25702   1
   0   2   6 120.326 6.73658   1
   0  -2  -7-2.70103 2.08221   1
   0   2   7-3.66643 2.17485   1
   0  -2  -8 43.5705 4.81617   1
   0   2   8 38.9158 4.61835   1
   0  -2  -9 45.8151 5.32232   1
   0   2   9 50.0383 5.40843   1
   0   2  10 48.0039 5.85507   1
   0  -2 -10 36.5420 4.98190   1
   0  -2 -11 30.3340 4.86034   1
   0   2  11 43.0074 5.93161   1
   0  -2 -12 17.1735 5.19867   1
   0   2  12 16.6353 4.99635   1
   0   2  13 2.61539 4.87086   1
   0   2  14 15.3845 5.60510   1
   0   3 -16 2.10258 6.50346   2
   0  -3  16 7.01461 3.64632   1
   0  -3  16 2.72685 3.61420   1
   0   3 -15 52.2710 7.36444   2
   0  -3  15 42.4878 4.97372   1
   0  -3  15 42.3814 4.96300   1
   0  -3  14 10.4680 3.18109   1
   0  -3  14 8.28309 3.02995   1
   0  -3  13 62.8624 4.99803   1
   0  -3  13 64.3931 5.11559   1
   0   3 -13 64.2105 6.82444   2
   0  -3  12 13.4194 2.70406   1
   0  -3  12 21.5675 3.02368   1
   0   3 -12 22.9996 4.42163   2
   0   3 -11-0.87724 2.25795   2
   0  -3  11-0.99773 1.62858   1
   0  -3  11 3.52580 1.72822   1
   0   3 -10 19.3485 3.75341   2
   0  -3  10 17.3956 2.43190   1
   0  -3  10 20.3359 2.61482   1
   0  -3   9 39.9023 3.15150   1
   0   3  -9 42.3948 4.53201   2
   0  -3   9 35.8464 3.02449   1
   0  -3   8 11.2224 1.76252   1
   0  -3   8 12.5972 1.81454   1
   0   3  -8 16.9039 2.87807   2
   0   3  -7 449.332 11.8149   2
   0  -3   7 438.762 11.7780   2
   0  -3   7 433.618 8.58090   1
   0  -3   6 15.7898 1.76204   1
   0   3  -6 15.4377 2.40813   2
   0  -3   6 11.5202 2.28122   2
   0  -3   5 87.7733 3.53743   1
   0  -3   5 85.0940 4.72341   2
   0   3  -5 88.4866 4.83693   2
   0   3  -5 85.6339 3.49644   1
   0   3  -4 159.916 6.04544   2
   0   3  -4 165.246 4.77979   1
   0  -3   4 164.711 4.72986   1
   0  -3   4 160.868 6.05908   2
   0   3  -3 242.516 5.86999   1
   0  -3   3 235.685 5.77833   1
   0  -3   3 249.480 7.25400   2
   0   3  -2 3.79091 1.16069   1
   0  -3   2 3.60194 1.16335   1
   0   3  -1 71.2404 3.64246   1
   0  -3   1 69.8045 3.63357   1
   0   3   0 15.7390 2.11335   1
   0  -3   0 17.5961 2.13166   1
   0  -3  -1 1205.98 16.8530   1
   0   3   1 1236.81 16.8532   1
   0   3   2 639.107 13.0704   1
   0  -3  -2 643.855 13.1366   1
   0   3   3 4.85164 1.83147   1
   0  -3  -3 5.30956 1.97437   1
   0  -3  -4 22.2414 2.97100   1
   0   3   4 24.2688 3.23749   1
   0   3   5 29.5821 3.79844   1
   0  -3  -5 23.1304 3.37977   1
   0   3   6 38.1528 4.43693   1
   0  -3  -6 31.1415 4.00910   1
   0  -3  -7 51.7111 5.16873   1
   0   3   7 52.9566 5.51486   1
   0   3   8 129.939 8.65367   1
   0  -3  -8 133.138 8.59530   1
   0  -3  -9 5.46307 3.04813   1
   0   3   9 3.16681 3.24711   1
   0   3  10 14.6536 3.85179   1
   0  -3 -10 12.7092 4.26691   1
   0   3  11 4.45817 4.33447   1
   0  -3 -11 17.4136 4.62785   1
   0  -3 -12 10.3868 5.52718   1
   0   3  12 14.7202 5.50540   1
   0   3  13 15.3025 5.93753   1
   0  -3 -13-2.29982 5.19476   1
   0   3  14 17.6306 5.45652   1
   0  -4  16 3.14081 3.01358   1
   0   4 -16-2.87676 6.09292   2
   0  -4  16 5.72322 3.16325   1
   0  -4  15 20.1545 3.73870   1
   0   4 -15 21.3824 6.46408   2
   0  -4  15 19.9836 3.60319   1
   0  -4  14 3.39978 2.26193   1
   0   4 -14 0.34553 3.80959   2
   0  -4  14 0.71534 2.32625   1
   0  -4  13 3.13743 2.32626   1
   0   4 -13 4.73351 3.91927   2
   0  -4  13 1.31408 1.92978   1
   0  -4  12 6.10212 2.24021   1
   0  -4  12 12.7274 2.51666   1
   0   4 -12 12.6062 3.97150   2
   0  -4  11 36.1330 3.39222   1
   0   4 -11 29.4101 4.62511   2
   0  -4  11 34.7600 3.29651   1
   0   4 -10-0.07937 2.56348   2
   0  -4  10 5.14874 1.60590   1
   0  -4  10 4.24946 1.62229   1
   0  -4   9 28.9877 2.71463   1
   0  -4   9 27.0306 2.64300   1
   0   4  -9 29.0193 4.03280   2
   0  -4   8 0.26295 1.79295   2
   0  -4   8 0.51952 1.12801   1
   0   4  -7 9.59356 2.59261   2
   0  -4   7 11.6370 1.74109   1
   0  -4   7 11.6902 2.42772   2
   0  -4   6 442.303 11.9814   2
   0   4  -6 431.349 8.86611   1
   0  -4   6 432.449 8.80786   1
   0   4  -6 434.290 11.7950   2
   0  -4   5 172.088 7.21006   2
   0  -4   5 169.736 5.58077   1
   0   4  -5 170.648 5.64816   1
   0  -4   4 1.56517 1.43176   2
   0   4  -4 0.89916 1.01653   1
   0  -4   4-0.97406 1.02454   1
   0  -4   3 97.2368 5.24814   2
   0   4  -3 93.4507 4.46010   1
   0  -4   3 94.1119 4.48870   1
   0  -4   2 35.6624 2.98385   1
   0   4  -2 37.4914 3.06464   1
   0  -4   1 264.525 8.20286   1
   0   4  -1 262.772 8.12584   1
   0   4   0 16.6403 2.61295   1
   0  -4   0 11.3435 2.22356   1
   0  -4  -1 434.016 11.6237   1
   0   4   1 427.971 11.4807   1
   0  -4  -2 85.8586 5.67703   1
   0   4   2 83.1239 5.44392   1
   0  -4  -3 190.370 8.53861   1
   0   4   3 211.196 8.97805   1
   0   4   4 194.750 9.11797   1
   0  -4  -4 197.006 9.12229   1
   0  -4  -5 261.242 10.9752   1
   0   4   5 271.410 11.3062   1
   0  -4  -6 8.79617 3.20473   1
   0   4   6 4.63561 2.45930   1
   0   4   7 109.490 8.21816   1
   0  -4  -7 113.776 8.35333   1
   0   4   8 4.19893 2.99534   1
   0  -4  -8 12.6097 3.76777   1
   0  -4  -9-0.90647 3.80094   1
   0   4   9 0.67701 3.43645   1
   0   4  10 2.76394 3.87704   1
   0  -4 -10-0.12375 4.08882   1
   0  -4 -11 2.57094 4.40466   1
   0   4  11 2.94248 4.55377   1
   0  -4 -12 0.44029 5.70954   1
   0   4  12-0.14547 5.44741   1
   0  -4 -13 2.20705 5.57179   1
   0   4  13 10.4006 6.69717   1
   0  -5  16-1.31044 2.39865   1
   0  -5  16 2.74142 2.48101   1
   0   5 -16 5.64490 5.39576   2
   0   5 -15-4.04127 5.81316   2
   0  -5  15 3.91670 2.59223   1
   0  -5  15 3.26426 2.61354   1
   0  -5  14 1.68433 2.04853   1
   0  -5  14 0.98377 2.09197   1
   0  -5  13-3.43862 2.20335   1
   0  -5  13 0.29439 1.89047   1
   0  -5  12 21.0350 2.69834   1
   0  -5  12 16.5690 2.67953   1
   0   5 -12 17.4594 4.51810   2
   0   5 -11 0.65671 2.98606   2
   0  -5  11 3.12438 1.56064   1
   0  -5  11 2.78358 1.58875   1
   0   5 -10 6.20873 3.31932   2
   0  -5  10 4.15922 1.71365   1
   0  -5   9 68.7108 6.07662   2
   0  -5   9 66.6253 4.08142   1
   0   5  -9 58.6648 5.69795   2
   0  -5   8 230.000 7.22890   1
   0  -5   8 232.469 10.0724   2
   0   5  -8 216.924 9.77438   2
   0  -5   7 41.4361 4.51539   2
   0   5  -7 38.0991 3.17866   1
   0  -5   7 40.4756 3.20863   1
   0  -5   6 62.0707 5.18465   2
   0   5  -6 67.2957 4.13612   1
   0  -5   6 62.4285 3.94207   1
   0  -5   5 20.3550 2.53157   1
   0  -5   5 18.5435 2.99698   2
   0   5  -5 15.9649 2.32217   1
   0  -5   4 137.771 7.15032   2
   0  -5   4 155.338 6.38547   1
   0   5  -4 157.466 6.45829   1
   0   5  -3 54.0967 4.06098   1
   0  -5   3 44.4182 3.71063   1
   0  -5   3 44.5995 4.21742   2
   0   5  -2 27.1639 3.18129   1
   0  -5   2 33.2020 3.47086   1
   0   5  -1 74.8882 5.14307   1
   0  -5   1 71.5517 5.00830   1
   0   5   0 648.377 15.1280   1
   0  -5   0 571.096 14.4059   1
   0   5   1 213.170 9.27633   1
   0  -5  -1 221.580 9.41790   1
   0   5   2 20.0191 3.34173   1
   0  -5  -2 15.1427 3.27043   1
   0   5   3-1.81422 2.53739   1
   0  -5  -3 4.17982 2.44203   1
   0  -5  -4 6.63689 2.91504   1
   0   5   4 3.94966 2.46793   1
   0  -5  -5 344.082 13.7923   1
   0   5   5 324.456 13.5288   1
   0   5   6 48.8705 6.00140   1
   0  -5  -6 47.8597 5.91526   1
   0   5   7 6.19505 3.97781   1
   0  -5  -7 15.3060 4.46458   1
   0  -5  -8 41.6319 6.27268   1
   0   5   8 57.3852 7.11526   1
   0  -5  -9 17.0442 5.51424   1
   0   5   9 32.0801 6.22824   1
   0   5  10 17.5466 5.90365   1
   0  -5 -10 7.23876 4.92060   1
   0  -5 -11-2.31131 5.27541   1
   0   5  11-0.61499 5.45662   1
   0   5  12 20.8921 7.97631   1
   0  -5 -12 38.0830 9.03225   1
   0   6 -16 2.34218 5.85758   2
   0  -6  16-1.16634 1.72047   1
   0   6 -15 2.65438 4.90245   2
   0  -6  15 7.10102 2.06491   1
   0   6 -14 9.79968 5.06667   2
   0  -6  14 1.43738 1.86077   1
   0   6 -13 4.79296 4.36251   2
   0  -6  13 5.19185 2.09471   1
   0  -6  13 6.83369 2.21651   1
   0   6 -12 23.8683 5.11174   2
   0  -6  12 22.6536 2.83869   1
   0  -6  12 22.4759 2.90304   1
   0  -6  11 79.2167 7.41537   2
   0  -6  11 75.3975 4.63627   1
   0   6 -11 63.9810 6.77522   2
   0  -6  10 1.00854 1.64098   1
   0  -6  10 1.47190 2.84552   2
   0  -6   9 124.381 8.21608   2
   0  -6   9 106.048 5.45830   1
   0  -6   8 45.1303 3.81341   1
   0  -6   8 34.4871 4.53858   2
   0   6  -8 37.4598 3.42012   1
   0  -6   7 132.997 8.09338   2
   0   6  -7 147.026 6.57432   1
   0  -6   7 137.385 6.35983   1
   0  -6   6-1.41261 2.32383   2
   0   6  -6 0.92063 1.61869   1
   0  -6   6 0.75662 1.53742   1
   0   6  -5 121.671 6.30173   1
   0  -6   5 121.257 7.46267   2
   0  -6   5 115.205 6.10585   1
   0   6  -4 1.61779 1.63851   1
   0  -6   4 1.96970 1.72231   1
   0  -6   4 4.40339 2.25903   2
   0  -6   3 43.1297 4.19281   1
   0   6  -3 44.5050 4.20397   1
   0  -6   2 66.0169 5.36118   1
   0   6  -2 71.8268 5.39661   1
   0   6  -1 277.550 10.7164   1
   0  -6   1 260.343 10.5545   1
   0  -6   0 54.7554 5.16244   1
   0   6   0 58.2344 5.35281   1
   0   6   1 15.3667 3.38027   1
   0  -6  -1 16.2600 3.50712   1
   0  -6  -2 5.00441 2.71470   1
   0   6   2 8.88327 3.25038   1
   0   6   3 70.1339 6.63085   1
   0  -6  -3 58.8695 6.20719   1
   0  -6  -4 50.4969 5.98690   1
   0   6   4 51.7200 6.09865   1
   0   6   5 73.6933 7.60129   1
   0  -6  -5 67.2503 7.14939   1
   0   6   6 12.9379 4.56803   1
   0  -6  -6 22.7026 5.36101   1
   0   6   7 56.0445 7.90933   1
   0  -6  -7 63.1582 7.72594   1
   0  -6  -8 5.32787 4.16019   1
   0   6   8 5.03739 4.18276   1
   0   6   9 17.6818 6.35163   1
   0  -6  -9 0.22468 5.27930   1
   0   6  10-5.04422 6.51130   1
   0  -6 -10-5.49563 6.60131   1
   0  -6 -11 53.5099 8.33605   1
   0   6  11 47.5963 7.95178   1
   0  -7  15 3.78024 1.77451   1
   0  -7  14-2.00947 1.97894   1
   0  -7  14-1.22288 1.86248   1
   0  -7  13 5.44553 2.08214   1
   0  -7  13 6.18463 2.29359   1
   0  -7  12 10.7142 4.81487   2
   0  -7  12 8.39481 2.45815   1
   0  -7  11 85.8753 5.36822   1
   0  -7  11 80.6994 7.96618   2
   0  -7  10 305.308 13.9124   2
   0  -7  10 297.078 9.69103   1
   0  -7   9 8.86418 3.90521   2
   0  -7   9 7.80597 2.31602   1
   0   7  -9 6.71228 2.32064   1
   0  -7   8-1.88047 1.87381   1
   0  -7   8-0.24043 2.48538   2
   0   7  -8 1.37287 1.90346   1
   0  -7   7 2.40292 1.85340   1
   0   7  -7 0.24333 1.80104   1
   0  -7   7-0.64692 2.73424   2
   0  -7   6 9.67752 2.66455   1
   0   7  -6 6.80686 2.36809   1
   0  -7   6 9.20739 3.50889   2
   0   7  -5 58.4666 5.12355   1
   0  -7   5 59.5271 5.88383   2
   0  -7   5 55.3475 4.98908   1
   0  -7   4 50.4997 5.70409   2
   0   7  -4 50.1076 4.81011   1
   0  -7   4 54.6389 5.06278   1
   0  -7   3 5.56341 2.76201   1
   0   7  -3 4.98194 2.42840   1
   0   7  -2 47.2041 5.19356   1
   0  -7   2 54.4916 5.62215   1
   0  -7   1 3.46441 2.69228   1
   0   7  -1 1.13831 2.36061   1
   0   7   0 0.81279 2.71147   1
   0  -7   0 5.92715 2.68181   1
   0   7   1 16.5990 3.62661   1
   0  -7  -1 19.2297 3.83112   1
   0  -7  -2 2.44117 3.00540   1
   0   7   2 7.48226 3.33977   1
   0   7   3 21.4201 4.85105   1
   0  -7  -3 20.3786 4.72702   1
   0   7   4 6.31699 3.71593   1
   0  -7  -4 8.44665 4.27530   1
   0   7   5 21.8996 5.86395   1
   0  -7  -5 20.6432 5.67279   1
   0  -7  -6 3.09953 5.00264   1
   0   7   6 10.6538 5.08255   1
   0   7   7 22.6703 6.42234   1
   0  -7  -7 31.7064 7.38133   1
   0   7   8 0.08017 6.18773   1
   0  -7  -8 1.11069 6.14263   1
   0  -7  -9 8.55846 7.70374   1
   0   7   9-3.78453 6.68796   1
   0  -8  15-0.06717 1.47947   1
   0  -8  15 1.57131 1.63009   1
   0  -8  14 7.95015 2.37836   1
   0  -8  14 9.45785 2.41942   1
   0  -8  13 51.2138 4.45762   1
   0  -8  13 70.6547 4.90318   1
   0  -8  12 4.52974 4.39114   2
   0  -8  12 9.14683 2.46108   1
   0  -8  11 6.38779 4.61539   2
   0  -8  11 5.68041 2.63691   1
   0  -8  10 16.1629 4.80601   2
   0  -8  10 17.3343 3.10779   1
   0   8 -10 18.7360 3.41967   1
   0   8  -9 43.5550 4.69003   1
   0  -8   9 34.6235 5.73183   2
   0  -8   9 32.2368 4.09944   1
   0   8  -8 1.70756 2.38825   1
   0  -8   8-3.52986 3.69053   2
   0  -8   8 0.62517 2.26000   1
   0  -8   7 12.1381 3.10860   1
   0  -8   7 14.7700 3.91164   2
   0   8  -7 12.8715 3.05339   1
   0  -8   6 5.67053 3.11014   2
   0   8  -6 4.35439 2.55244   1
   0  -8   6 0.85353 2.31637   1
   0  -8   5 68.3023 6.09930   1
   0   8  -5 77.9928 6.48024   1
   0  -8   5 82.7200 7.62215   2
   0  -8   4 11.0205 3.38273   1
   0   8  -4 6.98263 2.94859   1
   0  -8   4 5.23148 3.78302   2
   0  -8   3 155.089 9.51280   1
   0   8  -3 167.448 9.64051   1
   0  -8   2 54.1875 6.03503   1
   0   8  -2 58.5987 6.30398   1
   0  -8   1 9.93927 3.54232   1
   0   8  -1 9.68889 3.22763   1
   0   8   0 16.6431 4.24252   1
   0  -8   0 15.7102 4.75820   1
   0   8   1 4.46362 3.50306   1
   0  -8  -1 7.81021 4.42241   1
   0   8   2-0.79254 3.81146   1
   0  -8  -2 2.00670 3.92488   1
   0   8   3-2.01850 3.88784   1
   0  -8  -3 6.28627 3.76222   1
   0  -8  -4 9.40730 4.58193   1
   0   8   4 4.87674 4.73350   1
   0   8   5 4.69261 4.19820   1
   0  -8  -5 1.48661 5.34464   1
   0  -8  -6 1.58497 5.96278   1
   0   8   6 0.31861 5.66454   1
   0  -8  -7 1.09976 7.31745   1
   0   8   7-3.06595 6.09544   1
   0  -8  -8 51.2466 10.1859   1
   0   8   8 43.9572 9.33060   1
   0  -9  14 0.14140 2.55534   1
   0  -9  14 1.67058 2.55082   1
   0  -9  13 6.61846 3.12533   1
   0  -9  13 17.2038 6.06274   2
   0  -9  12-0.32432 2.80401   1
   0  -9  12-6.88768 4.70539   2
   0  -9  11 4.23666 5.05562   2
   0  -9  11 2.29745 2.91403   1
   0   9 -11-0.49459 2.86250   1
   0   9 -10 12.7599 3.44213   1
   0  -9  10 11.5459 3.59727   1
   0  -9  10 10.8033 4.95405   2
   0  -9   9 8.59116 3.31646   1
   0  -9   9 7.40012 4.08225   2
   0   9  -9 0.43439 2.89149   1
   0   9  -8-0.96659 2.70241   1
   0  -9   8-3.49867 2.87343   1
   0  -9   8 3.28060 4.56423   2
   0   9  -7 24.4787 4.32950   1
   0  -9   7 22.9014 4.33141   1
   0  -9   7 27.7975 5.41186   2
   0  -9   6 114.303 9.75557   2
   0  -9   6 112.611 8.26577   1
   0   9  -6 110.842 8.16609   1
   0  -9   5 10.0278 3.90915   2
   0  -9   5 7.83469 3.55037   1
   0   9  -5 8.32129 3.61289   1
   0   9  -4 29.6976 5.04771   1
   0  -9   4 30.6078 5.12524   1
   0  -9   4 38.6271 5.97774   2
   0  -9   3 9.40885 3.78468   2
   0  -9   3 6.68330 3.84664   1
   0   9  -3 7.57398 3.67800   1
   0  -9   2 78.5576 7.89857   1
   0   9  -2 82.6387 8.06007   1
   0   9  -1-0.65592 4.04825   1
   0  -9   1 1.98325 3.46940   1
   0  -9   0 6.01798 4.69260   1
   0   9   0 0.12607 3.29574   1
   0  -9  -1-2.53475 4.04184   1
   0   9   1 3.80536 4.47608   1
   0   9   2 11.0046 4.67323   1
   0  -9  -2-0.63689 5.36109   1
   0   9   3-4.91250 5.43483   1
   0  -9  -3 3.45442 5.16333   1
   0   9   4 1.60667 5.13371   1
   0  -9  -4 9.28344 6.19311   1
   0   9   5 6.74743 7.76508   1
   0  -9  -5 3.83544 7.32968   1
   0   9   6 13.0017 8.25335   1
   0  -9  -6 22.2920 8.30919   1
   0 -10  13 7.55605 6.85719   2
   0 -10  13 4.71671 3.43810   1
   0 -10  12-4.33925 7.46949   2
   0 -10  12 0.45768 3.50174   1
   0 -10  11-2.26725 6.76100   2
   0  10 -11 7.54608 3.62728   1
   0 -10  11 6.05219 3.69646   1
   0 -10  10-1.20887 3.58516   1
   0  10 -10 1.33404 3.63594   1
   0 -10  10-3.64483 4.66457   2
   0 -10   9 11.6383 4.29382   1
   0 -10   9 7.88411 5.43212   2
   0  10  -9 8.69686 3.73163   1
   0  10  -8 1.05080 3.72266   1
   0 -10   8 9.80395 5.13277   2
   0 -10   8 0.75233 3.53583   1
   0 -10   7 3.36635 3.71815   1
   0  10  -7 3.24704 3.72712   1
   0 -10   7 4.68950 5.14189   2
   0  10  -6 3.98101 3.54485   1
   0 -10   6 0.60229 3.73339   1
   0 -10   6 2.32817 5.25421   2
   0 -10   5 16.6401 5.77760   2
   0 -10   5 12.9541 4.45879   1
   0  10  -5 25.1825 5.50711   1
   0 -10   4 98.0442 9.02081   1
   0  10  -4 103.986 9.36850   1
   0 -10   4 86.7025 9.23635   2
   0 -10   3 12.9247 5.64640   2
   0  10  -3 11.0471 4.46149   1
   0 -10   3 5.69686 3.91375   1
   0  10  -2 13.9644 4.98281   1
   0 -10   2 17.9316 5.44483   1
   0  10  -1 2.08593 4.33362   1
   0 -10   1 0.41778 4.81385   1
   0 -10   0 11.5639 5.71005   1
   0  10   0 7.13031 4.54027   1
   0 -10  -1 25.6341 6.98161   1
   0  10   1 17.8379 7.22865   1
   0 -10  -2-3.34653 5.16866   1
   0  10   2 6.80253 5.36495   1
   0 -10  -3 0.86384 6.97934   1
   0  10   3 2.94540 5.77067   1
   0 -11  11 0.96565 6.18712   2
   0 -11  11-3.49206 4.39052   1
   0  11 -11 0.04781 4.35360   1
   0  11 -10 0.41207 4.74484   1
   0 -11  10-4.21954 4.83030   1
   0 -11   9 11.2121 4.68525   1
   0  11  -9 4.42655 4.78917   1
   0 -11   9 17.9443 6.20663   2
   0 -11   8 4.02499 5.93458   2
   0 -11   8 11.0350 5.09494   1
   0  11  -8 19.9356 5.53455   1
   0  11  -7 7.34403 5.19180   1
   0 -11   7 11.1099 5.17880   1
   0 -11   6 17.9061 5.81187   1
   0  11  -6 23.7994 6.06536   1
   0 -11   6 14.4975 6.54647   2
   0 -11   5 8.75649 5.46771   1
   0 -11   5 20.6064 7.69896   2
   0 -11   4 15.3038 5.56619   1
   0  11  -4 6.59677 5.24379   1
   0 -11   4 24.1086 7.50813   2
   0 -11   3-10.9389 6.05801   2
   0 -11   3-5.04817 5.84364   1
   0  11  -3-0.36826 5.67506   1
   0 -11   2 30.0951 7.19728   1
   0 -11   2 44.2323 8.55929   2
   0  11  -2 34.9812 7.23873   1
   0 -11   1 3.04835 6.03633   1
   0  11  -1-6.79282 6.56380   1
   0 -11   0 3.96091 6.59803   1
   0  11   0 4.40772 6.04599   1
   0 -11  -1 39.8371 9.13534   1
   0  11   1 38.2571 9.53982   1
   0  12  -6 28.3876 5.88881   1
   0 -12   6 21.9542 5.27769   1
   0 -12   5 19.3480 5.19355   1
   0  12  -5 47.0652 7.19502   1
   1 -11  -1 11.1429 8.09537   1
   1 -11  -1 7.08611 6.46396   2
  -1  11   1 21.0383 7.71687   1
  -1  11   0 11.0489 7.01369   1
   1 -11   0 0.89026 6.76118   1
   1 -11   0 1.50126 5.90141   2
  -1  11  -1 25.7096 7.21525   1
   1 -11   1 4.47425 7.35182   2
   1 -11   1 26.7443 6.74841   1
  -1  11  -2 11.5133 5.27632   1
   1 -11   2-4.29695 5.97589   2
   1 -11   2-0.28893 5.61540   1
   1 -11   3 11.5089 5.57138   1
  -1  11  -3-3.80783 5.44254   1
   1 -11   3-3.83327 6.65289   2
   1 -11   4-4.90460 5.00099   1
   1 -11   4 9.66212 6.03237   2
  -1  11  -4-3.72526 5.01525   1
   1 -11   5 0.24403 6.26616   2
  -1  11  -5 11.7980 5.13065   1
   1 -11   5 7.23174 5.19893   1
   1 -11   6-4.69251 5.08806   1
  -1  11  -6 6.46498 4.45005   1
   1 -11   6-2.78267 6.13963   2
  -1  11  -7 3.14901 4.68934   1
   1 -11   7 4.04203 4.61189   1
   1 -11   7 0.33242 6.63548   2
   1 -11   8 7.36279 6.37320   2
  -1  11  -8 1.26235 4.09545   1
   1 -11   8 5.93912 4.08365   1
  -1  11  -9-2.80015 4.38570   1
   1 -11   9-5.07798 3.97400   1
   1 -11  10-4.36657 7.27842   2
  -1  11 -10 3.45246 4.08001   1
   1 -11  10-1.63014 3.60996   1
   1 -10  -4-2.15592 6.01209   1
  -1  10   4-16.1809 7.61295   1
   1 -10  -3 6.82944 6.42678   1
  -1  10   3-0.16873 6.26885   1
  -1  10   2 21.5567 6.79298   1
   1 -10  -2 22.2891 6.43285   1
   1 -10  -1 12.3084 6.12088   1
  -1  10   1 19.0667 6.44292   1
   1 -10   0 22.4338 6.64973   1
   1 -10   0 16.2618 5.24850   2
  -1  10   0 27.5625 6.37641   1
  -1  10  -1 24.3092 5.88696   1
   1 -10   1 21.8322 7.05635   2
   1 -10   1 25.5720 5.73294   1
   1 -10   2-0.67946 4.43865   1
   1 -10   2-0.63980 5.41666   2
  -1  10  -2 2.53603 4.39246   1
  -1  10  -3-2.03164 4.09973   1
   1 -10   3 2.03049 3.88101   1
   1 -10   4-0.21201 4.10677   2
   1 -10   4 6.52163 3.81819   1
  -1  10  -4-2.78776 3.91434   1
   1 -10   5 20.5136 6.26685   2
  -1  10  -5 13.8451 4.35353   1
   1 -10   5 10.7206 3.91439   1
  -1  10  -6 2.18353 3.38647   1
   1 -10   6-1.37119 3.30218   1
   1 -10   6 4.73128 4.37848   2
   1 -10   7 4.09827 3.06054   1
  -1  10  -7 0.30809 3.38292   1
   1 -10   7 6.44007 4.90912   2
  -1  10  -8 37.1179 4.86146   1
   1 -10   8 31.0909 4.80151   1
   1 -10   8 32.0769 7.46372   2
  -1  10  -9 2.67169 3.23993   1
   1 -10   9 7.73461 3.73909   1
   1 -10  10 1.11191 6.35182   2
   1 -10  10-5.24002 3.03535   1
  -1  10 -10 3.66438 2.75576   1
   1 -10  11 15.0733 7.71873   2
   1 -10  11 10.3797 2.29382   1
   1 -10  12 4.39721 7.49280   2
   1  -9  -6 6.93230 6.24682   1
  -1   9   6 12.8221 7.40757   1
  -1   9   5-4.22591 5.67651   1
   1  -9  -5-3.10681 6.68415   1
  -1   9   4 27.1254 7.93082   1
   1  -9  -4 26.7416 7.50014   1
  -1   9   3 7.08712 4.57229   1
   1  -9  -3 0.22038 5.02917   1
  -1   9   2 5.43421 4.38525   1
   1  -9  -2 8.32227 4.55651   1
   1  -9  -1 3.93770 4.24456   1
  -1   9   1 10.9383 4.80236   1
  -1   9   0-3.30651 3.45325   1
   1  -9   0-0.06008 3.75123   1
  -1   9  -1 41.5320 6.35411   1
   1  -9   1 39.4036 6.27146   2
   1  -9   1 41.9269 6.39859   1
   1  -9   2 17.0457 4.86858   2
  -1   9  -2 22.7470 4.76053   1
   1  -9   2 10.5085 4.02420   1
   1  -9   3-0.83459 3.20428   1
   1  -9   3 0.97607 3.17835   2
  -1   9  -3 0.58871 2.85796   1
   1  -9   4 18.8695 5.20629   2
  -1   9  -4 13.8780 3.81486   1
   1  -9   4 16.9030 4.22324   1
   1  -9   5 21.9277 5.41495   2
   1  -9   5 21.2591 4.12785   1
  -1   9  -5 25.4664 4.23525   1
   1  -9   6-0.93960 3.92991   2
   1  -9   6 2.94097 2.73018   1
  -1   9  -6 2.87319 2.57309   1
   1  -9   7 0.03581 2.40535   1
  -1   9  -7 2.59640 2.58306   1
   1  -9   7 0.89860 3.42218   2
   1  -9   8 51.3671 7.65333   2
  -1   9  -8 51.5723 5.00748   1
   1  -9   8 46.3994 4.93863   1
   1  -9   9 35.1792 3.96246   1
   1  -9   9 39.7718 7.37102   2
  -1   9  -9 34.1074 4.02619   1
  -1   9 -10 13.4400 2.63873   1
   1  -9  10 11.6497 5.04297   2
   1  -9  10 14.0295 2.66523   1
   1  -9  11 31.9197 2.66073   1
   1  -9  11 37.7760 7.46563   2
   1  -9  12 18.6814 6.41902   2
   1  -8  -8 14.5644 7.69441   1
  -1   8   8 4.90254 8.49171   1
  -1   8   7 0.76231 5.66481   1
   1  -8  -7 7.96397 7.28815   1
   1  -8  -6 42.8097 7.91395   1
  -1   8   6 48.0044 8.67503   1
  -1   8   5 5.36936 5.44603   1
   1  -8  -5 13.1887 6.03208   1
  -1   8   4 0.54793 4.04869   1
   1  -8  -4 5.45171 4.76577   1
   1  -8  -3 20.7823 5.18944   1
  -1   8   3 20.5571 5.61527   1
   1  -8  -2 1.30285 2.89260   1
  -1   8   2 4.87863 3.68156   1
   1  -8  -1 131.345 9.58045   1
  -1   8   1 129.279 9.60892   1
   1  -8   0 1.48214 3.01560   1
  -1   8   0 0.97602 2.98996   1
  -1   8  -1 26.7658 4.64461   1
   1  -8   1 26.1776 4.36103   1
   1  -8   1 23.7228 4.74234   2
   1  -8   2 92.1820 8.03102   2
  -1   8  -2 86.2199 7.10014   1
   1  -8   2 80.9435 6.82014   1
   1  -8   3 283.383 13.3733   2
   1  -8   3 295.872 12.0850   1
  -1   8  -3 321.496 12.5454   1
   1  -8   4 5.60225 2.50348   1
  -1   8  -4 2.41388 2.53102   1
   1  -8   4 5.08943 3.62946   2
   1  -8   5 3.06992 2.31596   1
   1  -8   5 6.49396 3.55888   2
  -1   8  -5 8.63278 2.59096   1
   1  -8   6 154.703 7.77799   1
   1  -8   6 158.261 10.5409   2
  -1   8  -6 169.277 8.11973   1
   1  -8   7 5.35979 3.74314   2
  -1   8  -7 3.58889 2.00488   1
   1  -8   7 3.29662 2.29484   1
   1  -8   8 4.95128 3.71443   2
   1  -8   8 3.70088 2.05550   1
  -1   8  -8-0.37623 1.76804   1
  -1   8  -9 3.67835 1.75287   1
   1  -8   9 4.76421 3.23529   2
   1  -8   9 0.46161 1.73208   1
   1  -8  10 22.2273 2.40172   1
   1  -8  10 21.7254 6.07333   2
   1  -8  11 5.64496 4.35088   2
   1  -8  11 6.71259 0.76551   1
   1  -7  -9 19.8451 8.18425   1
  -1   7   9 21.0469 7.80177   1
  -1   7   8 32.0545 7.62981   1
   1  -7  -8 19.3165 7.10769   1
  -1   7   7 55.5391 8.38535   1
   1  -7  -7 42.8033 7.40915   1
  -1   7   6 29.2299 6.56052   1
   1  -7  -6 31.2317 6.44591   1
  -1   7   5 15.5325 4.59104   1
   1  -7  -5 10.0416 4.36552   1
   1  -7  -4 0.23542 3.46130   1
  -1   7   4 9.88096 4.68603   1
  -1   7   3 4.39359 3.06221   1
   1  -7  -3 9.43918 3.78965   1
   1  -7  -2 23.3915 4.33498   1
  -1   7   2 16.6373 4.01456   1
   1  -7  -1 251.304 11.8818   1
  -1   7   1 237.728 11.6315   1
   1  -7   0 19.3010 3.86047   1
  -1   7   0 21.1001 3.81080   1
  -1   7  -1 43.4620 4.91435   1
   1  -7   1 38.4116 4.89806   2
   1  -7   1 40.8536 4.90515   1
  -1   7  -2 5.99375 2.50180   1
   1  -7   2-1.96630 2.71435   2
   1  -7   2 0.51070 2.19379   1
   1  -7   3-2.20701 2.07347   1
  -1   7  -3 3.79186 2.20930   1
   1  -7   3 0.44197 2.82551   2
   1  -7   4 38.0056 4.07488   1
   1  -7   4 26.8117 4.54242   2
  -1   7  -4 36.3903 4.02342   1
   1  -7   5-2.36196 1.87900   1
   1  -7   5-1.51149 2.68131   2
  -1   7  -5-0.02750 1.70137   1
   1  -7   6 139.456 9.11050   2
  -1   7  -6 147.007 6.64464   1
   1  -7   6 134.897 6.40132   1
   1  -7   7 0.64679 3.16659   2
   1  -7   7 4.62335 1.90451   1
  -1   7  -7 2.54771 1.58006   1
   1  -7   8 18.7347 2.41106   1
   1  -7   8 28.4647 5.18323   2
  -1   7  -8 17.9103 2.34038   1
   1  -7   9-0.12683 1.07054   1
   1  -7   9 2.56940 3.55028   2
   1  -7  10 145.851 3.58828   1
   1  -7  10 144.219 10.3962   2
  -1   7 -11-3.68186 4.20331   2
   1  -7  11 4.40018 3.90976   2
  -1   7 -12 9.61623 4.25972   2
  -1   7 -13-1.75921 4.59967   2
  -1   7 -14 4.74463 5.89499   2
  -1   7 -15-6.64208 6.78925   2
  -1   6  11-1.92327 6.25935   1
   1  -6 -11 1.33437 6.95349   1
   1  -6 -10 9.13695 5.29406   1
  -1   6  10-10.9588 6.91912   1
  -1   6   9 43.1345 8.32486   1
   1  -6  -9 41.1358 8.55753   1
  -1   6   8 9.93853 5.51882   1
   1  -6  -8 14.3677 5.24213   1
   1  -6  -7 23.1686 5.47553   1
  -1   6   7 31.5173 5.90289   1
  -1   6   6-2.82100 3.72425   1
   1  -6  -6-0.05976 3.74988   1
  -1   6   5-0.82924 3.26853   1
   1  -6  -5 7.73652 3.27169   1
   1  -6  -4 65.1669 6.80919   1
  -1   6   4 67.0670 7.01630   1
   1  -6  -3 8.59370 2.92360   1
  -1   6   3 10.7005 3.09958   1
   1  -6  -2 75.3606 6.54757   1
  -1   6   2 77.0422 6.51302   1
  -1   6   1 74.2564 6.11124   1
   1  -6  -1 69.4047 6.08029   1
  -1   6   0 10.2340 2.81036   1
   1  -6   0 10.7011 2.78372   1
  -1   6  -1 262.235 10.0650   1
   1  -6   1 280.396 10.3796   1
   1  -6   2 6.49172 2.18406   1
  -1   6  -2 3.02272 1.76755   1
   1  -6   2-0.03636 2.18994   2
  -1   6  -3 24.0544 3.07073   1
   1  -6   3 20.5441 2.87576   1
   1  -6   3 23.6781 3.71461   2
   1  -6   4 9.18817 2.09802   1
   1  -6   4 4.13625 2.19092   2
  -1   6  -4 7.16313 1.93786   1
  -1   6  -5 87.0887 4.70131   1
   1  -6   5 82.1850 4.63991   1
   1  -6   5 82.8909 6.58266   2
  -1   6  -6 263.968 7.47852   1
   1  -6   6 262.495 11.4515   2
   1  -6   6 260.593 7.49355   1
   1  -6   7 27.5238 4.53039   2
  -1   6  -7 32.5214 2.54913   1
   1  -6   7 35.3200 2.69389   1
  -1   6  -8 31.7046 4.89102   2
   1  -6   8 33.7164 2.27703   1
  -1   6  -8 36.2208 2.33602   1
   1  -6   8 32.5743 4.64899   2
   1  -6   9 15.6165 1.18735   1
   1  -6   9 14.7773 3.80909   2
  -1   6  -9 17.2242 3.92313   2
  -1   6 -10 5.94888 3.18304   2
  -1   6 -11 5.46822 4.01300   2
  -1   6 -12 4.45773 4.68990   2
  -1   6 -13 30.7013 6.24385   2
  -1   6 -14 20.2948 7.35301   2
  -1   6 -15 11.0136 6.56747   2
  -1   5  12 0.50695 7.06645   1
   1  -5 -12-6.64850 7.42657   1
   1  -5 -11 1.57873 6.16832   1
  -1   5  11 0.15705 5.75537   1
  -1   5  10 57.3621 8.18114   1
   1  -5 -10 34.1017 6.80074   1
  -1   5   9 31.4201 6.44123   1
   1  -5  -9 29.3569 5.98294   1
  -1   5   8 18.2587 5.29270   1
   1  -5  -8 13.7825 4.98072   1
  -1   5   7 4.78694 3.31353   1
   1  -5  -7 7.10507 3.81352   1
   1  -5  -6 4.22838 3.37454   1
  -1   5   6 8.26084 3.39991   1
   1  -5  -5 17.5009 3.91655   1
  -1   5   5 12.6179 3.38446   1
  -1   5   4 46.6832 5.20133   1
   1  -5  -4 54.3598 5.77560   1
  -1   5   3 2.53705 2.49747   1
   1  -5  -3-0.50801 2.08603   1
   1  -5  -2 117.418 7.20693   1
  -1   5   2 121.717 7.37532   1
  -1   5   1 93.4829 6.15814   1
   1  -5  -1 90.2932 5.99181   1
   1  -5   0 9.24523 2.41818   1
  -1   5   0 12.5539 2.53705   1
  -1   5  -1 10.8903 2.28949   1
   1  -5   1 9.29605 2.18098   2
   1  -5   1 10.6327 2.20113   1
   1  -5   2 15.1928 2.32537   1
   1  -5   2 12.9256 2.68534   2
  -1   5  -2 14.4011 2.26047   1
   1  -5   3 190.319 6.73309   1
   1  -5   3 166.639 7.92708   2
  -1   5  -3 180.561 6.50000   1
   1  -5   4 98.8356 6.26405   2
  -1   5  -4 91.6860 4.32846   1
   1  -5   4 96.8496 4.52152   1
  -1   5  -5 70.7052 3.52217   1
   1  -5   5 67.7948 3.50525   1
   1  -5   5 71.7011 5.66616   2
  -1   5  -5 69.5110 5.49182   2
  -1   5  -6 21.5869 1.85866   1
   1  -5   6 21.9557 3.74506   2
  -1   5  -6 19.3756 3.53801   2
   1  -5   6 21.7575 1.88402   1
   1  -5   7 2.43641 0.76163   1
   1  -5   7 4.45267 2.65381   2
  -1   5  -8 166.955 9.21295   2
   1  -5   8 174.593 9.47207   2
  -1   5  -9-0.41048 2.43203   2
  -1   5 -10 16.0766 4.11461   2
  -1   5 -11 101.886 8.48365   2
  -1   5 -12 28.2384 5.69396   2
  -1   5 -13 92.6224 9.05799   2
  -1   5 -14 5.78182 5.05998   2
  -1   5 -15-3.50958 5.67145   2
  -1   5 -16 5.97966 6.64500   2
  -1   4  13 1.55859 6.33735   1
  -1   4  12-2.36865 4.81970   1
   1  -4 -12 8.96539 6.00999   1
  -1   4  11 3.44719 4.15964   1
   1  -4 -11-1.04765 4.40385   1
   1  -4 -10-2.70365 4.15170   1
  -1   4  10 5.11906 5.04747   1
  -1   4   9 4.87270 3.83899   1
   1  -4  -9 13.4518 4.48546   1
  -1   4   8 81.9092 7.76401   1
   1  -4  -8 70.8999 7.10603   1
  -1   4   7 7.15573 3.57181   1
   1  -4  -7 8.98721 3.68399   1
  -1   4   6 24.1509 4.43425   1
   1  -4  -6 19.5998 3.75064   1
  -1   4   5 84.6752 6.66430   1
   1  -4  -5 79.8973 6.50361   1
   1  -4  -4 2.05544 1.73148   1
  -1   4   4 3.26353 2.44348   1
  -1   4   3 562.403 14.7509   1
   1  -4  -3 554.500 14.5248   1
   1  -4  -2 209.270 8.47540   1
  -1   4   2 188.965 8.19652   1
  -1   4   1 121.502 6.23235   1
   1  -4  -1 111.288 5.93127   1
  -1   4   0 54.3999 3.95078   1
   1  -4   0 46.5201 3.70186   1
   1  -4   1 102.816 4.90885   1
   1  -4   1 105.368 5.45621   2
  -1   4  -1 114.957 5.24551   1
   1  -4   2 190.325 6.07936   1
  -1   4  -2 189.377 6.03122   1
   1  -4   2 192.151 7.40311   2
   1  -4   3 137.676 4.71092   1
   1  -4   3 133.723 6.35711   2
  -1   4  -3 129.265 4.57116   1
   1  -4   4 56.6325 2.73361   1
  -1   4  -4 54.9965 4.41900   2
  -1   4  -4 61.8468 2.83496   1
   1  -4   4 58.0573 4.55581   2
  -1   4  -5 31.1498 1.74695   1
  -1   4  -5 27.6641 3.57419   2
   1  -4   5 36.1119 3.90180   2
   1  -4   5 32.2113 1.77890   1
  -1   4  -6 161.889 7.95553   2
   1  -4   6 181.851 3.03599   1
   1  -4   6 171.750 8.09728   2
   1  -4   7 28.2180 3.84387   2
  -1   4  -7 29.0045 3.91628   2
  -1   4  -8 66.2326 5.77257   2
  -1   4  -9 15.0671 3.61727   2
  -1   4 -10 8.91470 3.49503   2
  -1   4 -11 44.9211 5.98912   2
  -1   4 -12 2.35879 3.60835   2
  -1   4 -13-0.98293 3.98827   2
  -1   4 -14 7.64924 4.59942   2
  -1   4 -15-0.14607 5.36078   2
  -1   4 -16 10.6320 7.00209   2
  -1   3  14 0.71959 5.94399   1
  -1   3  13 5.09321 5.69701   1
  -1   3  12 14.2450 5.92896   1
   1  -3 -11 2.85233 3.97547   1
  -1   3  11 4.01037 4.36207   1
  -1   3  10 8.17825 3.88411   1
   1  -3 -10 8.70227 3.92473   1
  -1   3   9 78.4374 7.43944   1
   1  -3  -9 65.9960 6.93649   1
  -1   3   8 7.85086 3.49566   1
   1  -3  -8 3.95582 2.81332   1
  -1   3   7-0.29564 2.19209   1
   1  -3  -7 6.72971 2.95378   1
   1  -3  -6 11.5766 2.73294   1
  -1   3   6 10.3046 2.97117   1
   1  -3  -5 218.419 9.44301   1
  -1   3   5 218.165 9.43659   1
  -1   3   4 134.042 6.96278   1
   1  -3  -4 124.823 6.81313   1
  -1   3   3 85.8915 5.38743   1
   1  -3  -3 87.1087 5.32072   1
   1  -3  -2 39.0723 3.39087   1
  -1   3   2 38.9708 3.42306   1
  -1   3   1 126.126 5.49621   1
   1  -3  -1 132.811 5.58870   1
   1  -3   0 93.8864 4.35952   1
  -1   3   0 100.103 4.53826   1
   1  -3   1 286.170 7.69212   2
   1  -3   1 293.431 6.83917   1
  -1   3  -1 271.816 6.65246   1
   1  -3   2 2289.07 16.7099   1
  -1   3  -2 2286.90 16.8178   1
  -1   3  -2 2386.63 22.6981   2
   1  -3   2 2325.87 22.5362   2
  -1   3  -3 34.5385 1.80992   1
   1  -3   3 34.3194 3.14818   2
  -1   3  -3 37.5126 3.31813   2
   1  -3   3 34.8224 1.81003   1
  -1   3  -4 116.227 2.34410   1
  -1   3  -4 122.003 5.82953   2
   1  -3   4 119.684 2.36073   1
   1  -3   4 116.345 5.72311   2
   1  -3   5 28.8168 3.34755   2
  -1   3  -5 25.8239 3.15622   2
  -1   3  -6 39.7429 3.93993   2
  -1   3  -7 46.6484 4.64923   2
  -1   3  -8 59.0191 5.30189   2
   1  -3   9 80.9998 2.59045   1
  -1   3  -9 85.8403 6.76758   2
  -1   3 -10 10.0169 3.34787   2
   1  -3  10 5.75600 1.04386   1
   1  -3  10 6.05227 1.07806   1
   1  -3  11 119.057 4.14391   1
   1  -3  11 119.200 4.17735   1
  -1   3 -11 134.670 9.12900   2
  -1   3 -12 1.99240 3.97048   2
   1  -3  12 0.35625 1.18613   1
   1  -3  12-0.97346 1.08072   1
   1  -3  13 0.35307 1.37564   1
   1  -3  13-1.25920 1.45034   1
  -1   3 -14 0.46607 4.15988   2
   1  -3  14-0.58679 1.56174   1
   1  -3  15 57.0683 3.76333   1
  -1   3 -15 62.4715 8.64936   2
   1  -3  16-0.88753 1.65565   1
  -1   3 -16-10.5364 6.93423   2
  -1   2  14 10.7031 6.01074   1
  -1   2  13 8.62504 4.92483   1
  -1   2  12 8.10302 4.17197   1
  -1   2  11 14.0702 4.34426   1
  -1   2  10 33.5659 5.33081   1
   1  -2 -10 33.7153 5.55797   1
   1  -2  -9 124.843 8.45086   1
  -1   2   9 121.481 8.37711   1
   1  -2  -8 19.2772 3.54135   1
  -1   2   8 21.9170 3.69716   1
  -1   2   7 42.5740 4.47870   1
   1  -2  -7 51.4224 4.96836   1
  -1   2   6 20.6329 3.10625   1
   1  -2  -6 21.6889 3.30084   1
  -1   2   5 727.048 15.4721   1
   1  -2  -5 749.163 15.8299   1
  -1   2   4 143.906 6.56612   1
   1  -2  -4 151.700 6.74076   1
  -1   2   3 255.638 7.99664   1
   1  -2  -3 251.338 8.01776   1
  -1   2   2 2485.91 22.7245   1
   1  -2  -2 2491.71 22.8869   1
  -1   2   1 1067.41 13.5295   1
   1  -2  -1 1112.20 13.8762   1
   1  -2   0 789.432 10.3360   2
  -1   2   0 851.918 10.7348   1
   1  -2   0 810.656 10.5358   1
  -1   2  -1 422.588 8.00870   2
  -1   2  -1 432.016 6.55329   1
   1  -2   1 410.485 7.88501   2
  -1   2  -2 1157.59 8.50012   1
  -1   2  -2 1156.83 14.1927   2
   1  -2   2 1156.87 14.2189   2
   1  -2   2 1169.01 8.56783   1
  -1   2  -3 695.557 11.9592   2
   1  -2   3 685.426 11.8905   2
  -1   2  -4 727.708 13.2761   2
  -1   2  -5 6.32283 2.04873   2
   1  -2   6 0.74580 0.36116   1
   1  -2   6 1.50549 0.42619   1
  -1   2  -7 14.7807 2.91601   2
   1  -2   7 12.5513 1.17411   1
   1  -2   8 278.678 5.96720   1
  -1   2  -8 281.500 10.8577   2
  -1   2  -9 2.90640 2.36973   2
   1  -2   9 1.15467 0.99303   1
   1  -2  10 5.65435 1.52957   1
  -1   2 -10 7.33388 3.28625   2
   1  -2  11 16.8096 2.41726   1
  -1   2 -11 22.8505 4.99190   2
  -1   2 -12 48.2013 6.53615   2
   1  -2  12 50.5016 3.93776   1
   1  -2  13 14.0326 2.72981   1
   1  -2  13 23.5308 3.30703   1
  -1   2 -13 20.9257 5.79320   2
   1  -2  14 7.49994 2.88046   1
   1  -2  14 1.78489 2.59133   1
  -1   2 -14 8.09557 4.97831   2
  -1   2 -15 9.57647 5.66377   2
   1  -2  15 13.6162 3.50743   1
   1  -2  15 9.17869 3.03194   1
   1  -2  16 20.0693 3.67042   1
   1  -2  16 16.8126 3.81533   1
   1  -1 -15 3.67351 5.04174   2
  -1   1  15 0.21033 6.13841   1
  -1   1  14 33.3397 7.01395   1
   1  -1 -14 16.9858 5.46299   2
   1  -1 -13 2.67303 3.36253   2
  -1   1  13-0.93692 3.84095   1
  -1   1  12 10.3625 3.66383   1
  -1   1  11 22.1592 4.50289   1
  -1   1  10 7.72540 3.47598   1
  -1   1   9 12.7494 3.25168   1
  -1   1   8 18.7294 3.43057   1
   1  -1  -7 273.530 10.1517   1
  -1   1   7 256.515 9.73065   1
  -1   1   6 9.64328 2.37828   1
   1  -1  -6 8.13696 2.05978   1
   1  -1  -5 209.624 7.73343   1
  -1   1   5 193.912 7.42122   1
   1  -1  -4 124.895 5.62612   1
  -1   1   4 118.936 5.44900   1
   1  -1  -3 199.533 6.41685   1
  -1   1   3 187.889 6.21707   1
  -1   1   2 951.865 12.5251   1
   1  -1  -2 926.883 12.4279   1
   1  -1  -1 1987.98 11.3996   2
  -1   1   1 1948.91 15.9748   1
  -1   1   0 5.64209 0.96856   1
  -1   1   0 1.99792 0.73682   2
   1  -1   0 3.81366 0.85003   2
  -1   1  -1 129.858 2.96770   1
  -1   1  -1 128.407 3.92125   2
   1  -1   1 124.660 3.85494   2
  -1   1  -2 75.1818 3.46632   2
  -1   1  -2 71.3837 1.77488   1
   1  -1   2 68.7116 1.74705   1
   1  -1   3-0.40132 0.33233   1
  -1   1  -3 0.28238 0.32259   1
  -1   1  -3-0.31362 0.96948   2
  -1   1  -4 15.3069 1.06516   1
   1  -1   4 16.6336 1.11276   1
   1  -1   5 642.438 7.84801   1
  -1   1  -5 657.062 7.82417   1
   1  -1   6 344.051 6.70217   1
  -1   1  -6 344.069 6.63116   1
   1  -1   7 116.303 4.45977   1
  -1   1  -7 114.044 4.40124   1
   1  -1   8 5.78744 1.53715   1
  -1   1  -8 4.72963 1.40220   1
   1  -1   9 64.6162 4.10835   1
  -1   1  -9 63.0873 5.94418   2
  -1   1 -10 1.97326 2.75692   2
   1  -1  10-0.63827 1.53458   1
   1  -1  11 31.3335 3.56017   1
  -1   1 -11 34.7951 5.55370   2
  -1   1 -12 3.43950 3.09114   2
   1  -1  12 12.2152 2.79243   1
   1  -1  13 65.2796 5.51330   1
  -1   1 -13 57.3532 7.45149   2
  -1   1 -14 0.27308 4.95925   2
   1  -1  15 14.0469 3.92758   1
  -1   1 -15 14.4891 6.41768   2
   1   0 -16-8.09570 5.38292   2
  -1   0  16-12.3616 5.60090   1
   1   0 -15 3.56930 4.36309   2
  -1   0  15-4.40321 5.45831   1
  -1   0  14-2.06570 4.58914   1
   1   0 -14-5.13092 3.76147   2
   1   0 -13 12.9013 3.90735   2
  -1   0  13 8.81298 3.94251   1
   1   0 -12 25.3770 4.32766   2
  -1   0  12 26.1294 4.86237   1
  -1   0  11 226.018 10.8352   1
   1   0 -11 244.389 10.1675   2
  -1   0  10 23.5060 3.87199   1
   1   0 -10 33.7561 4.01465   2
  -1   0   9 1.41757 2.04507   1
  -1   0   8 49.8817 4.48080   1
  -1   0   7 1.08277 1.52801   1
  -1   0   6 80.5522 4.89400   1
  -1   0   5 38.0975 3.23193   1
  -1   0   4 522.662 10.3677   1
  -1   0   1 30.3461 2.05725   1
   1   0   0 1569.73 12.2498   1
  -1   0   0 1597.20 12.2606   1
   1   0   1 4.85515 0.89221   1
  -1   0  -1 3.65844 0.83268   1
   1   0   2 310.567 5.41222   1
  -1   0  -2 315.552 5.42021   1
  -1   0  -3 11.3549 1.32548   1
   1   0   3 13.1805 1.36930   1
   1   0   4 731.530 10.0258   1
  -1   0  -4 704.349 9.83496   1
   1   0   5 14.1961 1.81887   1
  -1   0  -5 16.6356 1.88764   1
  -1   0  -6 21.4928 2.28899   1
   1   0   6 25.1720 2.49997   1
  -1   0  -7 79.8290 4.45532   1
   1   0   7 79.1315 4.47220   1
   1   0   8 12.5379 2.31207   1
  -1   0  -8 8.78795 2.14489   1
   1   0   9 16.7140 2.77657   1
  -1   0  -9 20.5568 2.97916   1
   1   0  10 60.6146 4.97231   1
  -1   0 -10 56.9843 4.85416   1
   1   0  11 36.0392 4.48194   1
  -1   0 -11 31.8613 4.21534   1
   1   0  12 53.2127 5.34053   1
   1   0  13 40.8345 5.25369   1
  -1   0 -13 45.9302 7.14184   2
   1   0  14 1.26012 4.10276   1
  -1   0 -14 4.85918 5.33908   2
   1   0  15 2.68605 4.26597   1
  -1   0 -15 13.2685 7.92742   2
  -1  -1  16-2.07798 5.03663   1
  -1  -1  16-6.28332 5.44141   1
   1   1 -16 7.28018 5.88867   2
   1   1 -15 6.44112 4.33460   2
  -1  -1  15-6.32434 4.72986   1
  -1  -1  15-1.29684 4.07212   1
   1   1 -14 23.5428 4.85843   2
  -1  -1  14 21.3543 4.88456   1
  -1  -1  13 5.47894 3.24211   1
   1   1 -13 2.24512 3.12217   2
   1   1 -12 79.3156 6.32741   2
  -1  -1  12 72.8162 6.46808   1
  -1  -1  11 29.6931 4.27791   1
   1   1 -11 25.7394 3.58159   2
   1   1 -10 36.1147 3.86035   2
  -1  -1  10 38.8179 4.41259   1
   1   1  -9 3.05262 1.74392   2
  -1  -1   9 2.66668 1.93308   1
  -1  -1   8 24.4778 3.13548   1
   1   1  -8 31.3654 3.03710   2
   1   1  -7 40.9744 3.05045   2
  -1  -1   7 32.0716 3.27436   1
   1   1  -6 150.258 4.97696   2
  -1  -1   6 143.239 6.11269   1
   1   1  -5 681.172 9.13735   2
  -1  -1   4 3159.04 24.5125   1
  -1  -1   4 3172.76 16.8950   2
   1   1  -4 3181.43 16.8766   2
  -1  -1   3 4229.25 16.8073   2
  -1  -1   3 4219.94 26.3991   1
   1   1  -2-0.07539 0.94094   1
  -1  -1   2 1.75701 0.88755   1
   1   1  -1 5.32659 1.11477   1
  -1  -1   1 6.86815 1.32588   1
   1   1   0 51.2784 2.71239   1
  -1  -1   0 50.2406 2.73050   1
  -1  -1  -1 263.088 6.10032   1
   1   1   1 262.890 6.13756   1
   1   1   2 361.473 7.54995   1
  -1  -1  -2 360.823 7.55900   1
  -1  -1  -3 10.4122 1.69590   1
   1   1   3 8.42053 1.56772   1
  -1  -1  -4 577.038 11.0446   1
   1   1   4 547.757 10.7569   1
  -1  -1  -5 20.7025 2.51302   1
   1   1   5 23.8156 2.67187   1
  -1  -1  -6 106.597 5.50558   1
   1   1   6 108.979 5.65754   1
  -1  -1  -7 13.3439 2.57438   1
   1   1   7 12.9493 2.57620   1
   1   1   8 115.118 6.56868   1
  -1  -1  -8 107.915 6.32943   1
   1   1   9 40.3223 4.49214   1
  -1  -1  -9 44.5026 4.61658   1
   1   1  10 46.8871 4.99539   1
  -1  -1 -10 44.6903 4.87900   1
   1   1  11 3.96996 2.88124   1
  -1  -1 -11 5.74385 3.14368   1
   1   1  12 5.18107 3.36699   1
  -1  -1 -12 4.43757 3.22919   1
   1   1  13 14.5289 4.52379   1
  -1  -1 -13 11.5713 4.37251   1
   1   1  14-1.76641 4.47023   1
   1   2 -16 1.74320 5.26865   2
  -1  -2  16-2.39793 5.34908   1
  -1  -2  16 3.86782 4.78304   1
  -1  -2  15 8.76187 4.81514   1
  -1  -2  15 0.35580 3.76582   1
   1   2 -15-1.38510 3.79779   2
  -1  -2  14 3.46179 3.15651   1
   1   2 -14 8.39176 3.67196   2
  -1  -2  14 6.01520 3.24462   1
  -1  -2  13-0.30519 2.87398   1
   1   2 -13 2.58515 2.90149   2
  -1  -2  13-0.98068 2.92639   1
  -1  -2  12-0.35876 2.52699   1
   1   2 -12 2.34388 2.72982   2
  -1  -2  12 0.19471 2.29043   1
  -1  -2  11 0.93979 2.07784   1
  -1  -2  11-0.03532 2.06800   1
   1   2 -11-1.94385 2.09720   2
   1   2 -10 6.22071 2.26686   2
  -1  -2  10 4.27403 2.15907   1
  -1  -2  10 1.12155 1.97654   1
   1   2  -9 1.63765 1.71463   2
  -1  -2   9 3.91640 1.87138   1
  -1  -2   9 0.34974 1.67137   1
  -1  -2   8-0.15650 1.51075   1
  -1  -2   8 0.18223 1.39380   1
   1   2  -8 0.60681 1.36049   2
  -1  -2   7 60.1414 4.22750   1
   1   2  -7 63.4936 3.85593   2
  -1  -2   6 124.614 5.64963   1
  -1  -2   6 134.219 5.04819   2
   1   2  -6 128.364 4.93034   2
  -1  -2   5 53.3995 3.01523   2
   1   2  -5 51.2968 2.92352   2
  -1  -2   5 53.3446 3.59740   1
   1   2  -4 153.406 5.58870   1
  -1  -2   4 148.353 5.52361   1
  -1  -2   4 148.447 4.55615   2
  -1  -2   3 209.817 6.32132   1
   1   2  -3 205.443 6.24577   1
  -1  -2   2 4.55619 1.42435   1
   1   2  -2 5.58673 1.28699   1
   1   2  -1 335.591 7.80583   1
  -1  -2   1 333.593 7.77585   1
  -1  -2   0 1.62335 1.15872   1
   1   2   0 2.15202 1.29739   1
  -1  -2  -1 1430.44 17.0739   1
   1   2   1 1402.17 16.8772   1
   1   2   2 2829.99 25.2138   1
  -1  -2  -2 2878.39 25.2988   1
   1   2   3 701.733 13.3412   1
  -1  -2  -3 734.135 13.6896   1
   1   2   4 22.2220 2.79147   1
  -1  -2  -4 29.0839 3.15132   1
   1   2   5 7.01537 2.13433   1
  -1  -2  -5 9.28874 2.24405   1
   1   2   6 5.34566 2.22119   1
  -1  -2  -6 0.59859 1.70009   1
  -1  -2  -7 21.7254 3.32056   1
   1   2   7 22.2966 3.44619   1
   1   2   8 19.5354 3.58730   1
  -1  -2  -8 19.2099 3.48238   1
  -1  -2  -9 65.9117 6.06805   1
   1   2   9 67.3200 6.21117   1
   1   2  10 6.42385 3.35490   1
  -1  -2 -10-0.04482 3.00979   1
   1   2  11 1.89711 3.13284   1
  -1  -2 -11 3.39531 3.63652   1
  -1  -2 -12 4.16194 3.79747   1
   1   2  12 1.30112 3.74322   1
   1   2  13-3.26324 4.34721   1
  -1  -2 -13 1.27714 4.59907   1
   1   2  14 6.95399 5.43777   1
  -1  -2 -14-5.07229 5.16872   1
  -1  -3  16-4.98816 4.51722   1
  -1  -3  16-2.75024 4.90350   1
   1   3 -16 0.62112 5.07444   2
  -1  -3  15-1.66752 3.63676   1
   1   3 -15 4.02466 3.95622   2
  -1  -3  15 8.67831 4.36375   1
  -1  -3  14 3.83087 3.27560   1
  -1  -3  14 6.10475 2.99157   1
   1   3 -14 2.20476 3.42230   2
  -1  -3  13 8.75732 3.08811   1
  -1  -3  13 16.9060 3.88171   1
   1   3 -13 15.0200 3.77794   2
   1   3 -12 14.3995 3.44829   2
  -1  -3  12 10.6604 2.99922   1
  -1  -3  12 8.61407 3.02480   1
  -1  -3  11 92.7071 6.35888   1
   1   3 -11 94.7740 6.48823   2
  -1  -3  11 92.2112 6.30568   1
  -1  -3  10-4.40119 2.27983   1
  -1  -3  10-1.62038 1.73806   1
   1   3 -10 1.10170 1.79651   2
  -1  -3   9 247.321 9.13802   1
   1   3  -9 249.893 9.03658   2
  -1  -3   8 8.66479 2.14009   1
   1   3  -8 9.70533 2.22882   2
   1   3  -7 6.83606 1.83473   2
  -1  -3   7 3.41548 1.55428   2
  -1  -3   7 4.83869 1.72111   1
  -1  -3   6 59.4468 3.83361   2
  -1  -3   6 55.9942 3.99461   1
   1   3  -6 55.2318 3.92797   1
   1   3  -5 260.940 7.97526   1
  -1  -3   5 255.909 7.35352   2
  -1  -3   5 246.287 7.78757   1
  -1  -3   4 208.166 6.49391   2
  -1  -3   4 216.286 7.13840   1
   1   3  -4 221.195 7.17238   1
  -1  -3   3 358.249 9.07725   1
   1   3  -3 366.564 9.24850   1
  -1  -3   2 539.091 11.0842   1
   1   3  -2 504.101 10.8085   1
   1   3  -1 11.4121 2.06156   1
  -1  -3   1 15.1651 2.30652   1
  -1  -3   0 1058.80 16.3730   1
   1   3   0 1061.65 16.3798   1
  -1  -3  -1 280.285 8.82311   1
   1   3   1 277.007 8.76686   1
  -1  -3  -2 5.04712 1.75886   1
   1   3   2 3.59441 1.83750   1
  -1  -3  -3 10.5549 2.47229   1
   1   3   3 6.88215 1.93286   1
   1   3   4 24.6048 3.45308   1
  -1  -3  -4 31.9716 3.78350   1
  -1  -3  -5 57.7472 5.19704   1
   1   3   5 60.0536 5.21078   1
  -1  -3  -6 424.654 13.5911   1
   1   3   6 412.086 13.5546   1
   1   3   7 9.51595 3.03440   1
  -1  -3  -7 7.47819 3.01697   1
   1   3   8 371.652 14.1351   1
  -1  -3  -8 395.465 14.4958   1
   1   3   9 21.1821 4.76357   1
  -1  -3  -9 26.9235 4.56795   1
  -1  -3 -10 30.8112 5.38762   1
   1   3  10 23.0695 5.29108   1
   1   3  11 0.52415 3.88063   1
  -1  -3 -11 2.41720 3.99417   1
   1   3  12-0.94082 4.79490   1
  -1  -3 -12-2.01037 5.11758   1
   1   3  13 18.9739 6.80786   1
  -1  -3 -13 18.3321 6.47420   1
  -1  -4  17 8.40695 3.01841   1
  -1  -4  17 4.94774 2.70713   1
  -1  -4  16 6.51047 3.76209   1
  -1  -4  16 4.39664 3.87542   1
   1   4 -16-1.85717 5.38578   2
  -1  -4  15 5.20721 3.80070   1
   1   4 -15 5.75679 4.03193   2
  -1  -4  15 5.69016 3.56161   1
   1   4 -14 24.4134 4.78509   2
  -1  -4  14 16.4702 3.89565   1
  -1  -4  14 22.6305 4.25136   1
  -1  -4  13 5.23248 2.93204   1
   1   4 -13 7.40186 3.39269   2
  -1  -4  13 9.68530 3.09111   1
   1   4 -12 4.47537 3.01863   2
  -1  -4  12 11.5013 3.17268   1
  -1  -4  12 2.38188 2.34075   1
   1   4 -11 75.3051 6.14505   2
  -1  -4  11 69.3365 5.64893   1
  -1  -4  11 70.3207 5.54861   1
   1   4 -10 27.4031 3.83641   2
  -1  -4  10 32.3864 3.88568   1
  -1  -4   9 68.5338 5.24913   2
  -1  -4   9 66.6377 5.00922   1
   1   4  -9 66.8962 5.15113   2
  -1  -4   8 69.5419 4.93166   1
  -1  -4   8 69.8779 4.97961   2
  -1  -4   7 136.451 6.57710   2
  -1  -4   7 134.090 6.46156   1
   1   4  -7 127.568 6.33941   1
  -1  -4   6 40.3212 3.69414   2
   1   4  -6 35.9066 3.46019   1
  -1  -4   6 34.8339 3.43093   1
  -1  -4   5 23.3425 2.85967   1
   1   4  -5 23.1178 2.87924   1
  -1  -4   5 24.5276 2.90956   2
  -1  -4   4 4.92187 1.85293   1
   1   4  -4 2.81221 1.41887   1
  -1  -4   3 56.2231 4.10317   1
   1   4  -3 55.9147 4.20290   1
  -1  -4   2 734.857 14.5929   1
   1   4  -2 702.025 14.3708   1
   1   4  -1 16.6067 2.71002   1
  -1  -4   1 14.2008 2.48736   1
   1   4   0 50.0250 4.20018   1
  -1  -4   0 41.0210 3.96928   1
  -1  -4  -1 18.3494 3.04882   1
   1   4   1 16.9571 2.97086   1
  -1  -4  -2-1.40531 1.96010   1
   1   4   2 1.23125 1.73741   1
  -1  -4  -3 11.0403 2.76809   1
   1   4   3 9.28802 2.68214   1
  -1  -4  -4 1.03006 2.22793   1
   1   4   4 0.26683 2.07743   1
  -1  -4  -5 183.002 9.61314   1
   1   4   5 177.203 9.40858   1
  -1  -4  -6 15.4737 3.71147   1
   1   4   6 20.0646 3.82554   1
   1   4   7-2.24832 3.03334   1
  -1  -4  -7 0.09638 2.93845   1
  -1  -4  -8-0.26298 3.18200   1
   1   4   8 3.18334 3.04841   1
   1   4   9 0.80523 3.63388   1
  -1  -4  -9 8.35586 4.30738   1
   1   4  10-2.73877 4.31476   1
  -1  -4 -10 0.55401 3.96616   1
  -1  -4 -11 10.2828 5.45693   1
   1   4  11 10.4801 5.43533   1
  -1  -4 -12-8.00658 6.36552   1
   1   4  12-1.01030 5.57641   1
   1   5 -16 2.79881 5.24125   2
  -1  -5  16 1.71991 3.91350   1
  -1  -5  16 5.23342 3.76009   1
  -1  -5  15 2.49591 3.40859   1
   1   5 -15 8.00064 5.10255   2
  -1  -5  15-0.61590 3.19775   1
  -1  -5  14 6.59413 3.18731   1
  -1  -5  14 11.7776 3.51164   1
   1   5 -14 8.82447 4.11821   2
  -1  -5  13 70.2265 5.96032   1
  -1  -5  13 65.5459 5.91481   1
   1   5 -13 70.0676 6.86926   2
   1   5 -12 23.3979 4.35872   2
  -1  -5  12 19.4451 3.67474   1
  -1  -5  12 14.2926 3.30822   1
  -1  -5  11 74.3578 5.88002   1
  -1  -5  10 95.8527 6.22803   1
  -1  -5  10 95.1590 6.80388   2
  -1  -5   9-1.85155 2.01579   2
  -1  -5   9-0.27520 1.77750   1
  -1  -5   8 86.0369 5.71381   1
   1   5  -8 86.3577 5.67059   1
  -1  -5   8 93.8671 6.29149   2
   1   5  -7 30.7900 3.59694   1
  -1  -5   7 25.5106 3.36834   1
  -1  -5   7 23.5372 3.50304   2
   1   5  -6 83.5760 5.40350   1
  -1  -5   6 83.6251 5.66475   2
  -1  -5   6 82.2427 5.41353   1
  -1  -5   5 74.2162 5.14232   1
   1   5  -5 63.3219 4.91593   1
  -1  -5   5 68.8214 5.11042   2
   1   5  -4 0.90614 1.79409   1
  -1  -5   4-0.05747 1.36766   1
  -1  -5   3 370.149 11.3725   1
   1   5  -3 364.240 11.3323   1
  -1  -5   2 18.6514 3.15380   1
   1   5  -2 22.3172 3.30524   1
  -1  -5   1 5.06868 2.21154   1
   1   5  -1 10.1796 2.38205   1
  -1  -5   0 2.12999 1.73491   1
   1   5   0 4.01453 2.29061   1
  -1  -5  -1 107.301 7.01236   1
   1   5   1 99.9299 6.68264   1
  -1  -5  -2 429.743 14.2172   1
   1   5   2 419.672 13.9736   1
  -1  -5  -3 65.3112 6.18253   1
   1   5   3 75.8464 6.38029   1
  -1  -5  -4 170.859 9.80575   1
   1   5   4 180.003 10.0979   1
   1   5   5 33.4591 5.03544   1
  -1  -5  -5 37.7472 5.44482   1
   1   5   6 6.69776 3.83367   1
  -1  -5  -6 8.16448 3.83531   1
  -1  -5  -7-2.55192 3.82484   1
   1   5   7 2.92882 4.09793   1
   1   5   8-7.55686 4.24591   1
  -1  -5  -8-2.76589 4.02776   1
   1   5   9 24.9332 5.92501   1
  -1  -5  -9 27.9306 5.85227   1
   1   5  10 15.1300 6.39916   1
  -1  -5 -10 8.67490 5.02565   1
  -1  -5 -11 27.8399 7.72683   1
   1   5  11 32.0968 7.36314   1
  -1  -6  16-2.18346 4.22628   1
  -1  -6  16 2.37080 4.24669   1
  -1  -6  15 15.7984 4.36941   1
  -1  -6  15 3.73681 3.56686   1
  -1  -6  14 4.25612 3.25580   1
  -1  -6  14 2.84027 3.24868   1
  -1  -6  13 6.30456 3.09575   1
  -1  -6  13 1.79160 2.68142   1
  -1  -6  12 9.11458 2.92434   1
  -1  -6  11 84.3699 7.30041   2
  -1  -6  11 70.8367 5.84192   1
  -1  -6  10 40.2516 5.08630   2
  -1  -6  10 40.6487 4.43138   1
   1   6  -9 13.8301 3.09529   1
  -1  -6   9 16.4703 3.35398   1
  -1  -6   9 10.8820 3.28077   2
  -1  -6   8-1.06176 1.84294   1
  -1  -6   8-2.53087 2.32119   2
   1   6  -8 2.33846 2.09734   1
  -1  -6   7 76.8875 5.69734   1
   1   6  -7 75.2961 5.74683   1
  -1  -6   7 81.1404 6.25094   2
  -1  -6   6 0.92144 2.26260   2
  -1  -6   6 3.55578 2.07898   1
   1   6  -6-0.81171 1.93275   1
  -1  -6   5 186.661 8.70207   1
   1   6  -5 182.397 8.77925   1
  -1  -6   5 175.640 8.81088   2
   1   6  -4 121.383 7.18205   1
  -1  -6   4 110.370 6.89225   1
  -1  -6   3 3.10941 2.35341   1
   1   6  -3-0.10893 1.70269   1
  -1  -6   2-2.09882 1.99801   1
   1   6  -2 0.03799 1.67147   1
  -1  -6   1 0.55123 2.26550   1
   1   6  -1 3.42240 2.41151   1
  -1  -6   0 7.92851 3.04101   1
   1   6   0 9.59226 2.72589   1
  -1  -6  -1 102.527 7.53488   1
   1   6   1 106.336 7.60107   1
  -1  -6  -2 60.7322 6.22709   1
   1   6   2 50.7149 5.98115   1
  -1  -6  -3 3.04715 3.18936   1
   1   6   3 3.58795 2.69913   1
   1   6   4 21.2254 4.81229   1
  -1  -6  -4 22.2148 4.85749   1
   1   6   5 17.6827 4.89006   1
  -1  -6  -5 15.2928 4.43849   1
   1   6   6-1.36670 3.79581   1
  -1  -6  -6-0.43129 3.45732   1
   1   6   7 4.06625 4.00971   1
  -1  -6  -7 3.89367 4.19000   1
   1   6   8 31.8250 6.97269   1
  -1  -6  -8 43.8371 7.71216   1
  -1  -6  -9 98.3455 10.8182   1
   1   6   9 1.38142 6.46823   1
  -1  -6 -10-4.64535 6.01839   1
   1   6  10 1.72545 7.36143   1
  -1  -7  16 0.63892 3.77861   1
  -1  -7  16 2.74505 4.01702   1
  -1  -7  15 14.0750 4.23577   1
  -1  -7  15 19.3599 4.35504   1
  -1  -7  14 12.9353 3.91567   1
  -1  -7  14 15.7140 4.16618   1
  -1  -7  13 18.2070 3.91997   1
  -1  -7  12 4.41870 2.86954   1
  -1  -7  12 10.7216 4.36500   2
  -1  -7  11 4.69895 3.68625   2
  -1  -7  11 0.27029 2.68948   1
   1   7 -10 2.68520 2.77651   1
  -1  -7  10 0.64929 2.46881   1
  -1  -7  10-0.79017 3.23458   2
  -1  -7   9 6.40927 3.20009   2
  -1  -7   9 3.95204 2.60914   1
   1   7  -9 4.78246 2.68303   1
   1   7  -8 11.4409 2.93912   1
  -1  -7   8 10.0034 2.94880   1
  -1  -7   8 14.5771 3.56829   2
  -1  -7   7 41.8735 4.83353   1
   1   7  -7 37.4536 4.78855   1
  -1  -7   7 40.3917 5.23815   2
  -1  -7   6 8.39704 2.76119   1
   1   7  -6 4.49732 2.78959   1
  -1  -7   6 4.61519 3.13908   2
   1   7  -5 55.5933 5.62891   1
  -1  -7   5 54.4761 5.73092   2
  -1  -7   5 65.5508 5.97554   1
  -1  -7   4 80.4130 6.55255   1
   1   7  -4 70.2308 6.23510   1
  -1  -7   3 40.8738 5.01541   1
   1   7  -3 43.3606 5.06576   1
  -1  -7   2 11.9669 3.65273   1
   1   7  -2 10.3712 3.42448   1
  -1  -7   1 6.23171 3.10508   1
   1   7  -1 2.85410 2.32641   1
  -1  -7   0 50.7610 5.96256   1
   1   7   0 55.5808 6.04901   1
  -1  -7  -1 39.8381 5.85234   1
   1   7   1 40.7141 5.76205   1
  -1  -7  -2 161.788 10.7152   1
   1   7   2 165.863 10.8817   1
   1   7   3 19.7374 4.68576   1
  -1  -7  -3 20.7214 4.62786   1
   1   7   4 0.50526 3.37727   1
  -1  -7  -4 8.17829 5.26123   1
   1   7   5 6.54417 4.29750   1
  -1  -7  -5 4.08653 3.73366   1
  -1  -7  -6 19.6928 6.02066   1
   1   7   6 13.5409 4.85981   1
  -1  -7  -7 84.5120 9.61827   1
   1   7   7 79.6152 9.98747   1
   1   7   8 5.17471 5.19445   1
  -1  -7  -8 9.37897 6.29133   1
  -1  -8  15-3.04149 3.90221   1
  -1  -8  15-0.33329 4.10677   1
  -1  -8  14 4.53365 3.67592   1
  -1  -8  13 37.9013 5.39429   1
  -1  -8  13 34.0161 6.80201   2
  -1  -8  12 4.01912 3.10746   1
  -1  -8  12-1.69315 4.33317   2
   1   8 -11-1.17742 3.12147   1
  -1  -8  11 0.12874 3.23837   1
  -1  -8  11-3.73529 4.25456   2
  -1  -8  10 1.25318 2.95057   1
   1   8 -10 3.74138 3.27773   1
  -1  -8  10-5.34715 3.40934   2
  -1  -8   9 5.06878 3.71633   2
  -1  -8   9 5.18732 3.04729   1
   1   8  -9 4.25019 3.44565   1
   1   8  -8 8.14452 3.42533   1
  -1  -8   8 14.2270 3.82465   1
  -1  -8   8 19.9459 4.72344   2
  -1  -8   7 56.6144 6.09556   1
  -1  -8   7 53.2068 6.53164   2
   1   8  -7 55.3357 5.83503   1
  -1  -8   6 112.898 8.14476   1
   1   8  -6 125.001 8.62319   1
  -1  -8   6 111.416 8.66068   2
  -1  -8   5 2.87669 2.65056   1
   1   8  -5-0.23975 2.61815   1
  -1  -8   5-0.82423 3.06803   2
   1   8  -4 19.2916 4.18991   1
  -1  -8   4 16.2691 3.91616   1
  -1  -8   3 51.0736 6.20014   1
   1   8  -3 54.0328 6.10499   1
  -1  -8   2 78.7324 7.63103   1
   1   8  -2 84.5895 7.73778   1
  -1  -8   1 0.90668 3.45460   1
   1   8  -1-0.95452 2.93168   1
  -1  -8   0 5.32631 3.83537   1
   1   8   0-1.93820 3.88644   1
   1   8   1 10.6377 4.31268   1
  -1  -8  -1 13.1625 4.10958   1
  -1  -8  -2-1.37953 4.24117   1
   1   8   2-2.42183 4.24838   1
   1   8   3-4.63726 4.75766   1
  -1  -8  -3 4.64819 4.92916   1
   1   8   4 6.82111 5.06817   1
  -1  -8  -4 5.10968 4.38502   1
   1   8   5 2.88294 4.97641   1
  -1  -8  -5 0.85141 5.04176   1
   1   8   6 14.3309 6.39008   1
  -1  -8  -6 12.2417 6.64383   1
  -1  -8  -7 3.86320 7.03107   1
   1   8   7 2.46195 7.73739   1
  -1  -9  14 0.14885 6.79041   2
  -1  -9  14-2.70122 4.18776   1
  -1  -9  13 14.2243 4.29891   1
  -1  -9  13 11.6143 5.89965   2
  -1  -9  12 1.19761 4.12976   1
  -1  -9  12 8.62435 6.02247   2
   1   9 -11 2.64053 4.05107   1
  -1  -9  11 2.79324 5.61294   2
  -1  -9  11 5.34422 3.75398   1
  -1  -9  10 2.22036 3.55237   1
   1   9 -10 6.83559 3.94712   1
  -1  -9  10 7.12542 4.70980   2
   1   9  -9 95.6971 8.17467   1
  -1  -9   9 92.5963 7.99502   1
  -1  -9   9 84.6221 9.19942   2
   1   9  -8 17.6094 4.46469   1
  -1  -9   8 24.3270 4.74753   1
  -1  -9   8 15.1865 5.07836   2
  -1  -9   7 18.5189 4.50183   1
   1   9  -7 19.4532 4.74650   1
  -1  -9   7 20.5956 5.40960   2
  -1  -9   6 17.7221 4.56446   1
  -1  -9   6 19.7236 4.85790   2
   1   9  -6 13.8839 4.32614   1
  -1  -9   5 53.3293 6.62858   1
   1   9  -5 55.0125 6.88711   1
  -1  -9   5 40.9160 6.41362   2
   1   9  -4 49.4129 6.47709   1
  -1  -9   4 44.1304 6.38246   1
  -1  -9   3-2.42526 3.53861   1
   1   9  -3 5.61591 4.55705   1
   1   9  -2 1.19654 3.96417   1
  -1  -9   2 0.38093 3.69411   1
  -1  -9   1 12.6755 5.21332   1
   1   9  -1 5.51998 4.35584   1
  -1  -9   0 21.5937 6.09431   1
   1   9   0 12.6449 5.32782   1
   1   9   1 2.73546 5.26810   1
  -1  -9  -1 17.4221 6.34631   1
  -1  -9  -2 2.05560 5.40233   1
   1   9   2 1.51483 4.50020   1
   1   9   3 1.11994 5.44578   1
  -1  -9  -3-3.82868 6.32015   1
   1   9   4 6.18178 6.30426   1
  -1  -9  -4 12.1801 7.58527   1
  -1  -9  -5 58.4376 11.3218   1
   1   9   5 41.7683 9.36922   1
  -1 -10  13 6.29019 4.75800   1
  -1 -10  13 1.26058 6.48889   2
   1  10 -12 8.46325 4.77383   1
  -1 -10  12 2.58602 4.35123   1
  -1 -10  12-4.69782 6.76683   2
   1  10 -11-5.76069 4.60857   1
  -1 -10  11-1.87820 6.14649   2
  -1 -10  11-6.75820 4.51941   1
  -1 -10  10 18.7981 6.11411   2
  -1 -10  10 21.1312 5.72273   1
   1  10 -10 14.9325 4.97423   1
  -1 -10   9 19.2511 7.01217   2
  -1 -10   9 7.18811 4.22048   1
   1  10  -9 9.47053 4.71940   1
  -1 -10   8 2.18139 4.43041   1
   1  10  -8 0.05953 4.35133   1
  -1 -10   8 7.04579 4.34144   2
  -1 -10   7 5.89048 4.80540   2
   1  10  -7 5.12971 4.12866   1
  -1 -10   7-1.89444 4.76828   1
  -1 -10   6 0.37912 4.07448   1
   1  10  -6 10.0102 4.92463   1
  -1 -10   6 6.63792 5.03642   2
  -1 -10   5 31.9065 6.21173   1
   1  10  -5 30.3753 6.46804   1
  -1 -10   5 28.1604 5.98837   2
  -1 -10   4 44.0690 7.12134   1
  -1 -10   4 46.2545 7.59845   2
   1  10  -4 39.7764 6.73185   1
  -1 -10   3 46.1973 8.06597   1
   1  10  -3 34.3919 6.87449   1
   1  10  -2 53.3921 7.77652   1
  -1 -10   2 56.9694 7.84542   1
   1  10  -1 3.50561 6.04327   1
  -1 -10   1 5.39504 6.00204   1
   1  10   0-0.95508 6.25136   1
  -1 -10   0-9.38372 5.28105   1
  -1 -10  -1-7.15376 5.67974   1
   1  10   1-3.67163 5.86196   1
   1  10   2 4.19569 6.74126   1
  -1 -10  -2-3.56525 7.71286   1
  -1 -10  -3 25.9853 9.03200   1
   1  10   3 41.3406 9.82807   1
  -1 -11  11 8.20205 4.60065   1
   1  11 -11-5.58981 4.54158   1
   1  11 -10-1.54084 5.39823   1
  -1 -11  10 9.33121 5.86857   1
  -1 -11  10-7.82592 7.61489   2
  -1 -11   9 3.18015 5.25097   1
   1  11  -9 8.11189 5.12286   1
  -1 -11   9 13.3689 7.38325   2
  -1 -11   8 5.19573 5.53897   1
   1  11  -8-3.68160 5.57441   1
  -1 -11   8 10.4448 6.96901   2
  -1 -11   7 24.2120 6.45450   1
   1  11  -7 23.9262 6.14211   1
  -1 -11   7 11.5101 6.77935   2
  -1 -11   6 1.90099 5.33615   1
  -1 -11   6-6.63516 6.40658   2
  -1 -11   5 20.2308 7.69367   1
   1  11  -5 18.6809 6.44711   1
  -1 -11   5 15.0198 7.16028   2
  -1 -11   4 1.63887 6.49413   1
  -1 -11   4 9.87777 5.84645   2
   1  11  -4 8.83149 5.17576   1
  -1 -11   3 4.18341 5.97452   1
   1  11  -3 5.38040 6.25619   1
   1  11  -2 13.2500 8.24615   1
  -1 -11   2 23.1040 6.95310   1
  -1 -11   1-16.5949 7.24059   1
   1  11  -1 7.45524 7.04958   1
   1  11   0-1.92520 6.56641   1
  -1 -11   0-24.4261 8.31672   1
  -2  11   0-1.42416 6.00636   1
   2 -11   0-3.25329 6.20145   2
   2 -11   0 1.84233 6.50769   1
   2 -11   1-0.07505 6.82857   1
  -2  11  -1-0.29697 6.26578   1
   2 -11   1-9.83032 6.88002   2
   2 -11   2-11.6519 6.67187   1
   2 -11   2 1.88980 5.97250   2
  -2  11  -2 1.93571 6.00506   1
   2 -11   3 6.34064 5.30024   1
  -2  11  -3 11.3493 5.56553   1
   2 -11   3 3.28626 7.44461   2
   2 -11   4 2.90591 5.08016   1
  -2  11  -4 4.83035 5.08254   1
   2 -11   4 1.65184 6.54711   2
   2 -11   5 11.5044 4.51324   1
  -2  11  -5 19.7868 5.41877   1
  -2  11  -6 4.40911 4.12584   1
   2 -11   6-2.20671 8.10093   2
   2 -11   6 4.12585 4.19542   1
   2 -11   7 3.69246 4.14536   1
  -2  11  -7 0.74946 4.32168   1
   2 -11   7 14.4235 8.45649   2
  -2  11  -8 22.0662 4.54609   1
   2 -11   8 29.9585 4.76193   1
   2 -11   8 26.2259 8.43093   2
  -2  11  -9 29.1044 4.08921   1
   2 -11   9 29.6808 4.22160   1
   2 -10  -4 25.5407 5.65988   2
   2 -10  -4 36.1052 6.85187   1
   2 -10  -3 43.1772 8.46331   2
  -2  10   3 27.7055 7.88155   1
   2 -10  -2 18.9358 5.99947   2
  -2  10   2 24.4658 6.37364   1
   2 -10  -2 33.7515 8.09950   1
  -2  10   1-0.81529 4.87664   1
   2 -10  -1 4.25679 4.99687   1
   2 -10  -1-6.61102 5.89823   2
  -2  10   0 3.79166 5.74281   1
   2 -10   0 1.25652 5.32222   1
   2 -10   0-1.30415 5.86800   2
  -2  10  -1-4.68542 4.89974   1
   2 -10   1-7.80604 5.38199   1
   2 -10   1 0.07185 5.09116   2
   2 -10   2 5.63546 4.58331   1
   2 -10   2 7.01317 5.21916   2
  -2  10  -2 8.05142 4.54516   1
  -2  10  -3 2.81172 3.97281   1
   2 -10   3-3.86776 4.33543   1
   2 -10   3 2.58012 4.27703   2
  -2  10  -4 3.15075 4.24736   1
   2 -10   4 5.00359 3.65908   1
   2 -10   4 7.15910 5.45398   2
   2 -10   5 2.72665 3.60526   1
   2 -10   5-2.35307 6.19454   2
   2 -10   6 18.0931 5.33732   2
  -2  10  -6 15.0113 3.85067   1
   2 -10   6 17.0320 4.05540   1
  -2  10  -7 1.08046 3.13546   1
   2 -10   7 8.46569 3.55955   1
   2 -10   8 0.05923 2.88955   1
   2 -10   8 9.04150 5.67024   2
  -2  10  -8 1.95646 3.03475   1
   2 -10   9 0.89811 6.89808   2
  -2  10  -9 3.35145 2.04314   1
   2 -10   9-0.46408 2.02860   1
   2 -10  10-4.60581 6.72144   2
   2 -10  11-9.75620 7.20615   2
  -2   9   6 18.1373 7.96353   1
   2  -9  -6 16.1954 7.82867   1
  -2   9   5 13.0159 7.92577   1
   2  -9  -5 18.3505 6.40138   1
  -2   9   4 10.1252 6.85182   1
   2  -9  -4 0.16031 6.19969   1
   2  -9  -3 37.0765 6.83752   2
  -2   9   3 30.2506 6.72261   1
   2  -9  -3 44.8802 7.82931   1
  -2   9   2-1.92937 4.59077   1
   2  -9  -2-0.06312 4.04958   2
   2  -9  -2-1.25414 5.23509   1
   2  -9  -1-4.41556 4.60743   1
  -2   9   1 5.39627 4.24561   1
   2  -9  -1-2.39042 4.31124   2
  -2   9   0 21.1818 5.17622   1
   2  -9   0 19.4022 5.41273   2
   2  -9   0 19.7968 5.52322   1
  -2   9  -1 26.7904 5.06463   1
   2  -9   1 34.1509 5.79191   1
   2  -9   1 26.2435 6.03897   2
   2  -9   2 7.10933 4.20768   2
  -2   9  -2 0.05088 3.29142   1
   2  -9   2 13.5977 4.05829   1
  -2   9  -3 7.46324 3.74926   1
   2  -9   3 10.8536 3.72691   1
   2  -9   3 6.77806 4.28475   2
  -2   9  -4 24.7601 4.56403   1
   2  -9   4 16.0412 4.20040   1
   2  -9   4 15.8989 5.52594   2
   2  -9   5 29.6174 4.52005   1
  -2   9  -5 29.1196 4.44597   1
   2  -9   5 31.2385 6.47016   2
   2  -9   6-2.33984 2.40430   1
   2  -9   6 4.11525 4.38171   2
  -2   9  -6 1.81919 2.44143   1
  -2   9  -7-2.53282 2.35010   1
   2  -9   7 2.80856 2.39706   1
   2  -9   7 2.61115 3.76139   2
  -2   9  -8 21.9446 3.02765   1
   2  -9   8 29.1669 6.60227   2
   2  -9   8 26.4700 3.06214   1
   2  -9   9-1.40167 5.81470   2
   2  -9  10 4.50099 5.58744   2
   2  -9  11 14.1554 6.71301   2
  -2   8   7 4.45900 5.76477   1
   2  -8  -7 3.95792 7.26968   1
  -2   8   6 15.9674 6.58501   1
   2  -8  -6 16.4862 7.09863   1
  -2   8   5 35.0075 7.50732   1
   2  -8  -5 34.0467 7.34560   1
  -2   8   4-5.95172 4.67681   1
   2  -8  -4-5.61949 4.65462   1
  -2   8   3 0.51228 3.76610   1
   2  -8  -3-0.13031 4.49631   1
   2  -8  -2 29.4076 5.46239   1
   2  -8  -2 27.6700 5.56789   2
  -2   8   2 26.0294 5.38819   1
   2  -8  -1 68.0843 7.08086   1
  -2   8   1 67.6157 7.19494   1
   2  -8  -1 66.4221 7.03384   2
  -2   8   0 2.68893 3.11222   1
   2  -8   0 7.68320 3.73414   1
   2  -8   0 3.30420 3.15497   2
  -2   8  -1 23.2441 4.37513   1
   2  -8   1 13.2810 3.86919   1
   2  -8   1 21.0416 4.91226   2
   2  -8   2 12.8541 3.59244   1
  -2   8  -2 14.0328 3.65083   1
   2  -8   2 13.1070 4.14156   2
   2  -8   3 14.6165 3.53037   1
  -2   8  -3 12.2310 3.33667   1
   2  -8   3 6.65752 3.55558   2
  -2   8  -4 20.9918 3.77906   1
   2  -8   4 19.4150 3.64151   1
   2  -8   4 19.6073 4.61170   2
   2  -8   5 16.5735 3.18097   1
   2  -8   5 24.9224 5.12445   2
  -2   8  -5 16.0612 3.11353   1
  -2   8  -6 10.0132 2.54740   1
   2  -8   6 9.16582 2.45476   1
   2  -8   6 8.82520 4.03081   2
  -2   8  -7 24.2425 2.83760   1
   2  -8   7 23.7002 5.55521   2
   2  -8   7 24.5409 2.86529   1
  -2   8  -8 1.40132 1.00863   1
   2  -8   8 2.09424 4.04007   2
   2  -8   9 4.62960 4.47185   2
   2  -8  10-3.71173 4.77164   2
  -2   8 -12 9.82714 6.47381   2
  -2   8 -13-0.75152 6.97423   2
  -2   8 -14-20.4318 7.36251   2
  -2   7   9 11.4724 6.25315   1
   2  -7  -9 9.12283 7.39100   1
  -2   7   8 21.0713 6.53352   1
   2  -7  -8 26.3747 8.23973   1
  -2   7   7 3.47572 5.31395   1
   2  -7  -7 10.0373 6.84385   1
  -2   7   6-3.50550 4.92369   1
   2  -7  -6 2.37689 4.96760   1
  -2   7   5 2.18493 3.81284   1
   2  -7  -5 10.6959 4.63727   1
  -2   7   4 39.0451 6.33620   1
   2  -7  -4 32.7443 5.84212   1
  -2   7   3 3.21953 3.41011   1
   2  -7  -3 0.28256 3.18319   1
  -2   7   2 3.01863 3.16068   1
   2  -7  -2 6.45015 3.52663   1
   2  -7  -2 3.60439 3.04309   2
  -2   7   1 203.362 10.9530   1
   2  -7  -1 229.553 11.1802   2
   2  -7  -1 206.232 11.0485   1
   2  -7   0 111.586 7.91687   1
  -2   7   0 125.612 8.22312   1
   2  -7   0 109.377 7.89874   2
  -2   7  -1 19.3566 3.67037   1
   2  -7   1 19.4686 3.93753   2
   2  -7   1 20.3243 3.69365   1
   2  -7   2-5.02386 2.47794   1
  -2   7  -2-0.28261 2.16402   1
   2  -7   2 1.44660 3.05480   2
   2  -7   3 137.642 7.35402   1
  -2   7  -3 144.970 7.48883   1
   2  -7   3 130.354 8.68701   2
  -2   7  -4 22.0038 3.10287   1
   2  -7   4 23.9983 4.42983   2
   2  -7   4 25.0613 3.34356   1
   2  -7   5 14.0818 2.51121   1
   2  -7   5 14.3703 3.87435   2
  -2   7  -5 14.7624 2.51817   1
  -2   7  -6 68.9389 4.06988   1
   2  -7   6 81.3399 7.59704   2
   2  -7   6 74.1013 4.23488   1
  -2   7  -7 20.2275 1.92911   1
   2  -7   7 18.7033 5.04587   2
   2  -7   7 20.4409 1.92612   1
   2  -7   8 62.1697 7.22511   2
  -2   7  -8 71.6572 7.83524   2
  -2   7  -9 3.62453 3.79323   2
   2  -7   9 3.33202 3.72165   2
  -2   7 -10 13.3276 5.60938   2
  -2   7 -11 25.4813 6.63119   2
  -2   7 -12 4.85350 5.21334   2
  -2   7 -13 45.2960 8.52816   2
  -2   7 -14 13.2194 6.60351   2
  -2   6  10 8.86695 6.66313   1
   2  -6 -10 5.43008 6.07416   1
  -2   6   9 4.07223 5.39085   1
   2  -6  -9 4.61785 5.55731   1
  -2   6   8 4.73079 5.17627   1
   2  -6  -8 1.99137 4.65635   1
  -2   6   7 2.11779 4.21160   1
   2  -6  -7 8.13747 5.09698   1
  -2   6   6 10.2870 3.69577   1
   2  -6  -6 5.04880 4.38223   1
  -2   6   5-0.11629 3.57607   1
   2  -6  -5 8.81960 3.95258   1
  -2   6   4 31.7854 5.24405   1
   2  -6  -4 40.9734 5.81626   1
  -2   6   3 44.2184 5.83008   1
   2  -6  -3 41.5587 5.34808   1
  -2   6   2 1.11786 2.25978   1
   2  -6  -2-2.48624 2.89913   1
  -2   6   1-0.44674 1.95980   1
   2  -6  -1-1.33153 2.34211   1
   2  -6  -1-0.22050 2.29077   2
   2  -6   0 36.3131 4.42507   2
  -2   6   0 43.0085 4.66806   1
   2  -6   0 30.5796 4.07605   1
  -2   6  -1 125.520 7.17729   1
   2  -6   1 123.266 7.52615   2
   2  -6   1 133.684 7.32534   1
  -2   6  -2 23.3676 3.25094   1
   2  -6   2 20.5277 3.52921   2
   2  -6   2 22.6463 3.17768   1
  -2   6  -3 190.340 7.58046   1
   2  -6   3 195.618 9.63847   2
   2  -6   3 193.018 7.65723   1
  -2   6  -4 9.34181 2.02272   1
   2  -6   4 10.0810 2.92947   2
   2  -6   4 7.76675 1.86016   1
  -2   6  -5 30.4268 2.69536   1
   2  -6   5 46.0435 5.32982   2
   2  -6   5 39.0039 2.99421   1
   2  -6   6 6.33701 3.05100   2
  -2   6  -6 11.2806 1.41417   1
  -2   6  -6 8.94507 3.37250   2
  -2   6  -7 30.2379 5.03561   2
   2  -6   7 30.2648 4.80656   2
  -2   6  -8 15.1603 4.22813   2
   2  -6   8 16.0181 4.55790   2
  -2   6  -9 3.05230 3.04863   2
  -2   6 -10 5.77084 4.39586   2
  -2   6 -11-4.30961 4.88247   2
  -2   6 -12 11.0427 4.51516   2
  -2   6 -13 4.39134 6.41638   2
  -2   6 -14 4.24147 6.71787   2
  -2   6 -15 17.3862 8.24219   2
  -2   5  12 8.63978 6.73173   1
  -2   5  11 1.50338 6.13975   1
  -2   5  10 26.2349 7.13067   1
   2  -5 -10 16.7611 5.83433   1
  -2   5   9-3.50028 5.22892   1
   2  -5  -9-0.28335 5.09442   1
  -2   5   8 12.2206 4.58607   1
   2  -5  -8 9.64741 4.67501   1
  -2   5   7 2.15112 3.25355   1
   2  -5  -7-0.95989 3.37407   1
  -2   5   6 96.9818 8.12869   1
   2  -5  -6 96.3250 8.19008   1
  -2   5   5 39.2107 5.42466   1
   2  -5  -5 45.7166 6.05829   1
   2  -5  -4 3.82327 2.76661   1
  -2   5   4 2.78351 2.63156   1
  -2   5   3 154.430 8.89249   1
   2  -5  -3 143.321 8.56913   1
   2  -5  -2 15.8942 2.84811   2
   2  -5  -2 15.7333 3.31967   1
  -2   5   2 16.8595 3.48218   1
  -2   5   1 25.0954 3.70044   1
   2  -5  -1 26.0323 3.65815   1
   2  -5  -1 23.6015 3.30875   2
  -2   5   0 538.798 13.7930   1
   2  -5   0 500.877 13.3391   2
   2  -5   0 531.358 13.7447   1
  -2   5  -1 103.657 5.84434   1
   2  -5   1 87.7992 5.88278   2
   2  -5   1 95.2075 5.59973   1
  -2   5  -2 190.563 7.23547   1
   2  -5   2 192.010 8.64030   2
   2  -5   2 191.627 7.27518   1
  -2   5  -3 37.2732 3.11592   1
   2  -5   3 38.6920 4.32265   2
   2  -5   3 36.7535 3.08059   1
  -2   5  -4 31.8878 2.57490   1
   2  -5   4 33.5861 4.15716   2
  -2   5  -4 30.5771 3.87956   2
   2  -5   4 30.3431 2.48657   1
   2  -5   5 96.6425 6.86041   2
  -2   5  -5 95.2226 3.35591   1
  -2   5  -5 94.7731 6.88653   2
  -2   5  -6 10.0935 3.06209   2
   2  -5   6 7.37397 2.69249   2
   2  -5   7 24.3195 4.22982   2
  -2   5  -7 20.5838 4.04354   2
  -2   5  -8 6.56354 3.12579   2
  -2   5  -9 55.9546 6.60014   2
  -2   5 -10 107.212 9.06355   2
  -2   5 -11 73.9580 8.33132   2
  -2   5 -12 18.1261 6.13371   2
  -2   5 -13 7.93439 6.03474   2
  -2   5 -14 10.3298 7.44922   2
  -2   5 -15 3.41525 6.14347   2
  -2   4  13 7.74526 7.13408   1
  -2   4  12 0.48938 5.42010   1
  -2   4  11 2.84147 4.90855   1
  -2   4  10 13.1106 4.91384   1
  -2   4   9-2.44414 3.18315   1
   2  -4  -9 1.57786 3.82777   1
   2  -4  -8 6.71839 3.84714   1
  -2   4   8 6.95092 3.62409   1
   2  -4  -7 1.84771 3.02704   1
  -2   4   7 1.52170 3.02669   1
   2  -4  -6 0.72182 2.71578   1
  -2   4   6-3.19181 2.72054   1
  -2   4   5 36.3043 4.67726   1
   2  -4  -5 35.5662 4.91325   1
   2  -4  -4-1.15513 2.32174   1
  -2   4   4 0.66253 1.73685   1
  -2   4   3 95.4252 6.46267   1
   2  -4  -3 98.6010 6.73672   1
  -2   4   2 66.7699 5.17295   1
   2  -4  -2 58.9908 4.18520   2
   2  -4  -2 58.4990 4.94302   1
  -2   4   1 276.967 9.55211   1
   2  -4  -1 261.301 8.53889   2
   2  -4  -1 279.501 9.74278   1
  -2   4   0 73.9993 4.75881   1
   2  -4   0 64.5796 4.54141   1
   2  -4   0 70.4178 4.66653   2
  -2   4  -1 557.993 11.7132   1
   2  -4   1 575.940 13.0792   2
   2  -4   1 555.237 11.7590   1
   2  -4   2 2.33353 1.22321   1
  -2   4  -2 4.98049 2.01967   2
  -2   4  -2 1.32064 1.20501   1
   2  -4   2 3.07429 1.86576   2
  -2   4  -3 184.720 5.54376   1
  -2   4  -3 198.027 8.33147   2
   2  -4   3 187.143 8.13017   2
   2  -4   4 159.623 7.86055   2
  -2   4  -4 161.369 4.20958   1
  -2   4  -4 154.020 7.75169   2
  -2   4  -5 55.3232 5.13575   2
   2  -4   5 57.4963 5.24266   2
  -2   4  -6 75.2087 6.17804   2
  -2   4  -7 391.421 13.9475   2
  -2   4  -8 2.84082 2.67362   2
  -2   4  -9 0.15028 3.18933   2
  -2   4 -10 42.7282 5.96347   2
  -2   4 -11 6.23463 4.17762   2
  -2   4 -12-3.33748 4.16637   2
  -2   4 -13 7.49016 5.58812   2
  -2   4 -14-6.59305 5.99972   2
  -2   4 -15-5.90554 6.78712   2
  -2   3  14-21.5896 7.51268   1
  -2   3  13 9.55703 6.36561   1
  -2   3  12 17.3562 6.19976   1
  -2   3  11-0.20017 4.33196   1
  -2   3  10 1.76867 3.05827   1
  -2   3   9 2.38637 3.33741   1
  -2   3   8 38.7358 5.55002   1
  -2   3   7 51.2244 5.77025   1
   2  -3  -7 58.1017 6.16922   1
  -2   3   6 121.737 7.94822   1
   2  -3  -6 139.363 8.62909   1
  -2   3   5 0.74947 1.69683   1
   2  -3  -5 2.79984 1.97690   1
  -2   3   4 37.2462 4.19299   1
   2  -3  -4 28.2899 3.87033   1
   2  -3  -3 9.44684 2.50437   1
  -2   3   3 6.12737 2.19603   1
  -2   3   2 14.3522 2.63256   1
   2  -3  -2 13.0351 1.88554   2
   2  -3  -2 16.6389 2.69200   1
  -2   3   1 48.2206 3.82912   1
   2  -3  -1 45.7936 3.21820   2
   2  -3  -1 46.3985 3.76972   1
  -2   3   0 16.0401 2.29140   1
   2  -3   0 19.3416 2.31158   2
  -2   3  -1 49.5935 3.23894   1
  -2   3  -1 43.4114 3.40510   2
   2  -3   1 45.6497 3.52554   2
  -2   3  -2 24.6799 2.13496   1
  -2   3  -2 24.4194 2.86038   2
   2  -3   2 23.8080 2.87350   2
  -2   3  -3 201.731 4.80193   1
  -2   3  -3 203.699 4.85277   1
   2  -3   3 209.873 8.05600   2
  -2   3  -3 193.459 7.74122   2
  -2   3  -4 711.514 6.54796   1
  -2   3  -4 694.323 6.44202   1
  -2   3  -4 737.798 15.7301   2
  -2   3  -5 4.74096 2.23776   2
  -2   3  -6 4.83641 2.53462   2
  -2   3  -7 160.921 8.83340   2
  -2   3  -8 15.6962 3.48428   2
  -2   3  -9 6.61126 3.62921   2
  -2   3 -10 37.7697 5.83195   2
  -2   3 -11 17.7345 4.84279   2
  -2   3 -12 10.2139 5.60156   2
  -2   3 -13-2.28354 5.38193   2
  -2   3 -14 19.6108 6.81920   2
  -2   3 -15-2.28374 7.53689   2
  -2   2  14-0.46561 6.24345   1
   2  -2 -14 7.15867 4.17446   2
   2  -2 -13 14.3101 4.28291   2
  -2   2  13 16.0221 6.02246   1
  -2   2  12-3.27060 4.38763   1
  -2   2  11 9.17010 4.45289   1
  -2   2  10 42.9261 5.98507   1
  -2   2   9 77.1252 7.09067   1
  -2   2   8 4.01555 2.82261   1
  -2   2   7 4.58196 2.57208   1
  -2   2   6 0.25809 1.97128   1
  -2   2   5 155.695 7.97780   1
  -2   2   4 5.58953 1.93660   1
   2  -2  -3 2.20863 0.91363   2
  -2   2   3 1.65724 1.70840   1
   2  -2  -2 68.2298 3.06578   2
  -2   2   2 63.5335 4.35165   1
  -2   2   1 655.766 12.3918   1
   2  -2  -1 655.502 9.85202   2
   2  -2   0 51.1144 3.10234   2
  -2   2   0 49.4797 3.07531   2
  -2   2   0 50.1095 3.30291   1
  -2   2  -1 243.216 7.09006   2
   2  -2   1 230.898 6.93370   2
  -2   2  -1 244.821 6.40133   1
  -2   2  -2 8.26615 1.28470   1
  -2   2  -2 4.61734 1.57221   2
  -2   2  -2 7.18540 1.22097   1
  -2   2  -3 55.3736 2.44963   1
  -2   2  -3 53.0710 4.08333   2
  -2   2  -3 52.4639 2.38639   1
  -2   2  -4 339.705 4.83554   1
  -2   2  -4 352.475 10.5848   2
  -2   2  -5 3.54296 1.88310   2
  -2   2  -6 3.16984 1.83009   2
  -2   2  -7 0.11737 2.29110   2
  -2   2  -8 256.286 11.5942   2
  -2   2  -9 19.9059 4.41114   2
   2  -2  10 0.58385 0.68768   1
  -2   2 -10-0.85774 3.30697   2
  -2   2 -11 97.7841 8.91635   2
   2  -2  11 87.3195 3.26071   1
   2  -2  12 49.8325 2.65318   1
   2  -2  12 50.8985 2.71141   1
  -2   2 -12 51.4408 7.67524   2
   2  -2  13 2.72075 1.09607   1
  -2   2 -13-4.90827 4.96929   2
   2  -2  14 11.1165 1.45873   1
  -2   2 -14 31.1278 6.89248   2
  -2   2 -15-2.73615 7.10959   2
   2  -1 -15 2.62050 4.68793   2
  -2   1  15-2.07291 5.72455   1
   2  -1 -14 1.51386 3.30463   2
  -2   1  14 4.31441 5.44416   1
   2  -1 -13 4.99634 2.74965   2
  -2   1  13-5.87235 5.24040   1
  -2   1  12 104.783 9.18890   1
   2  -1 -12 105.686 6.63649   2
  -2   1  11-1.18929 3.24760   1
   2  -1 -11 2.42990 2.01075   2
  -2   1  10-0.89259 2.41845   1
  -2   1   9 80.6662 6.81815   1
  -2   1   8 152.733 8.80443   1
  -2   1   7 127.193 7.57126   1
  -2   1   6 145.184 7.74615   1
  -2   1   5 156.013 7.53197   1
   2  -1  -4 66.3835 1.79723   2
  -2   1   4 69.4520 4.82071   1
   2  -1  -3 62.8821 1.77553   2
  -2   1   3 64.1270 4.42397   1
  -2   1   2 177.618 6.60817   1
  -2   1   1 0.58541 1.05846   1
  -2   1   1 1.17944 0.74385   2
  -2   1   0 211.556 6.28321   1
  -2   1   0 210.506 5.60474   2
  -2   1  -1 6.38124 1.30067   1
  -2   1  -1 7.68630 1.50630   2
  -2   1  -2 1.08104 0.86761   1
  -2   1  -2 0.19717 1.27151   2
   2  -1   2 0.19384 0.76850   1
  -2   1  -3 142.318 4.30405   1
   2  -1   3 158.634 4.56434   1
  -2   1  -4 833.956 10.1719   1
   2  -1   4 852.706 10.2840   1
  -2   1  -5 73.4641 3.18661   1
   2  -1   5 74.3378 3.21198   1
  -2   1  -6 87.1974 3.60405   1
   2  -1   6 90.4460 3.68913   1
  -2   1  -7 20.0825 2.02982   1
   2  -1   7 20.0703 2.03034   1
  -2   1  -8 75.8738 3.86210   1
   2  -1   8 79.7833 3.99350   1
  -2   1  -9 6.66972 1.78385   1
  -2   1  -9 2.40794 3.13637   2
   2  -1   9 6.79404 1.81329   1
   2  -1  10 109.190 5.27577   1
  -2   1 -10 109.384 9.03045   2
  -2   1 -10 103.084 5.07536   1
   2  -1  11-1.94529 1.72466   1
  -2   1 -11 2.07302 4.01185   2
   2  -1  12-1.04595 2.29078   1
  -2   1 -12-7.08620 4.97417   2
  -2   1 -13 3.44668 6.04482   2
   2  -1  13-0.77769 2.32661   1
  -2   1 -14 1.52085 6.31823   2
   2  -1  14-3.65168 3.02699   1
   2   0 -15-3.20679 3.75446   2
  -2   0  15-6.66601 5.08788   1
  -2   0  14 0.32261 4.62303   1
   2   0 -14-2.82959 3.30724   2
   2   0 -13 2.39683 2.64398   2
  -2   0  13-1.48204 3.52329   1
   2   0 -12 1.30367 2.14714   2
  -2   0  12 0.43721 3.52462   1
  -2   0  11 26.3637 4.99990   1
   2   0 -11 31.6839 3.43845   2
  -2   0  10 26.2229 4.49304   1
   2   0 -10 30.6620 3.05216   2
  -2   0   9 3.57522 2.45189   1
   2   0  -9 1.37389 1.22633   2
   2   0  -8 106.550 4.07240   2
  -2   0   8 102.150 6.97080   1
   2   0  -7 285.161 5.47868   2
  -2   0   7 295.543 11.0750   1
   2   0  -6 19.8837 1.11482   2
  -2   0   6 21.7846 3.24318   1
  -2   0   5 585.337 13.8178   1
  -2   0   3 10.0598 2.01695   1
  -2   0   2 121.681 2.83038   2
  -2   0   2 133.564 5.64778   1
  -2   0   1 145.569 5.62063   1
  -2   0   0 1458.14 16.8477   1
   2   0   0 1450.84 16.7324   1
  -2   0  -1 1093.34 14.1067   1
   2   0   1 1092.68 14.1566   1
  -2   0  -2 64.6291 3.48583   1
   2   0   2 61.7448 3.44205   1
  -2   0  -3 219.946 6.30962   1
   2   0   3 213.969 6.31221   1
  -2   0  -4 297.554 7.52585   1
   2   0   4 303.181 7.62529   1
   2   0   5-0.15935 1.14300   1
  -2   0  -5 2.36425 1.25652   1
  -2   0  -6 50.6584 3.61399   1
   2   0   6 51.6374 3.60462   1
  -2   0  -7 34.4688 3.12804   1
   2   0   7 34.8962 3.22092   1
  -2   0  -8 13.2611 2.38337   1
   2   0   8 7.64094 1.93544   1
  -2   0  -9 9.00791 2.35288   1
   2   0   9 4.48974 2.10111   1
   2   0  10 172.317 7.84779   1
  -2   0 -10 165.116 7.63580   1
   2   0  11 25.6092 3.57669   1
  -2   0 -11 23.2081 3.63454   1
   2   0  12 1.06517 2.60157   1
  -2   0 -12-3.41126 2.81694   1
   2   0  13 3.01896 3.09587   1
  -2   0 -13 6.30200 6.27828   2
   2   0  14 4.18924 4.00964   1
  -2   0 -14-5.84641 5.93980   2
   2   1 -16 4.22986 4.92739   2
  -2  -1  16-3.19521 5.69720   1
  -2  -1  16 1.05016 5.60897   1
  -2  -1  15 15.6656 6.16568   1
  -2  -1  15 14.0025 6.02602   1
   2   1 -15 18.3158 4.02204   2
  -2  -1  14 24.9112 5.50710   1
  -2  -1  14 22.2841 5.37006   1
   2   1 -14 26.3731 4.33287   2
  -2  -1  13 18.2087 5.03810   1
  -2  -1  13 19.9058 4.93786   1
   2   1 -13 24.1559 3.66668   2
  -2  -1  12 18.7997 4.48435   1
  -2  -1  12 17.3512 4.35523   1
   2   1 -12 13.2319 2.80057   2
  -2  -1  11 4.57975 3.37502   1
  -2  -1  11 6.03302 3.16049   1
   2   1 -11 4.84484 2.00991   2
  -2  -1  10 28.1713 4.57105   1
   2   1 -10 26.0869 2.82002   2
  -2  -1  10 23.4623 4.07337   1
  -2  -1   9 96.2659 6.96816   1
   2   1  -9 105.005 4.49635   2
  -2  -1   9 98.9022 7.00959   1
  -2  -1   8 1.93561 2.20920   1
  -2  -1   8-1.08736 1.99601   1
   2   1  -8 1.41839 0.97937   2
  -2  -1   7 163.538 8.02822   1
   2   1  -7 176.485 4.30241   2
  -2  -1   7 189.893 8.61930   1
  -2  -1   6 146.889 7.29945   1
  -2  -1   5 120.764 6.34922   1
  -2  -1   4 2.17283 0.43840   2
  -2  -1   4 3.50231 1.82734   1
  -2  -1   3 253.944 8.26731   1
   2   1  -3 243.114 8.14600   1
  -2  -1   2 190.458 6.94455   1
   2   1  -2 196.073 7.00931   1
  -2  -1   1 1303.30 17.5198   1
   2   1  -1 1307.01 17.5284   1
  -2  -1   0 54.7604 3.71389   1
   2   1   0 49.2915 3.55284   1
  -2  -1  -1 1014.60 15.0992   1
   2   1   1 1011.31 15.2216   1
  -2  -1  -2 26.7295 2.72090   1
   2   1   2 24.8675 2.65478   1
  -2  -1  -3 34.0582 3.09840   1
   2   1   3 35.0913 3.10909   1
  -2  -1  -4 159.503 6.48513   1
   2   1   4 167.643 6.69211   1
  -2  -1  -5 4.09168 1.73938   1
   2   1   5 4.35992 1.78151   1
  -2  -1  -6 122.357 6.26583   1
   2   1   6 118.397 6.20428   1
  -2  -1  -7 149.556 7.20984   1
   2   1   7 150.113 7.26707   1
   2   1   8 496.874 13.6408   1
  -2  -1  -8 500.868 13.5267   1
  -2  -1  -9 25.1708 3.69067   1
   2   1   9 18.3025 3.45772   1
   2   1  10 0.86944 2.50050   1
  -2  -1 -10-2.69729 2.53513   1
   2   1  11 6.72575 3.13386   1
  -2  -1 -11 1.28757 2.92435   1
  -2  -1 -12 9.41409 3.85264   1
   2   1  12 1.94058 3.29826   1
  -2  -1 -13 4.87959 3.76145   1
   2   1  13-0.28191 4.01137   1
  -2  -1 -14 29.8766 6.15929   2
  -2  -2  16 23.2081 6.57255   1
   2   2 -16 23.6240 5.00648   2
  -2  -2  16 27.9533 6.68043   1
  -2  -2  15 7.44712 4.73473   1
   2   2 -15 5.51926 3.75062   2
  -2  -2  15 3.84960 5.03401   1
  -2  -2  14 0.75054 3.88685   1
   2   2 -14-0.69673 2.99598   2
  -2  -2  14-1.91999 3.67073   1
  -2  -2  13 2.18156 3.38815   1
  -2  -2  13 0.47033 3.52451   1
   2   2 -13 2.11373 2.42565   2
   2   2 -12-0.74024 1.98793   2
  -2  -2  12 2.89365 2.95445   1
  -2  -2  12 2.56502 3.07165   1
  -2  -2  11 33.8022 4.65446   1
   2   2 -11 37.7068 3.57086   2
  -2  -2  11 33.6363 4.78892   1
  -2  -2  10 107.815 7.57391   1
   2   2 -10 111.602 5.34229   2
  -2  -2  10 101.284 7.30482   1
  -2  -2   9 155.994 8.58923   1
  -2  -2   9 142.202 8.20383   1
   2   2  -9 151.973 5.61993   2
  -2  -2   8 116.445 7.08949   1
  -2  -2   7 161.102 7.97738   1
  -2  -2   6 479.303 13.0028   1
  -2  -2   6 497.124 7.93585   2
  -2  -2   5 122.450 3.90635   2
  -2  -2   5 123.501 6.50081   1
  -2  -2   4 109.666 5.98510   1
   2   2  -4 113.696 5.99247   1
  -2  -2   3 3.05146 1.80971   1
   2   2  -3 2.45171 1.71320   1
  -2  -2   2 107.364 5.63142   1
   2   2  -2 117.465 5.79626   1
  -2  -2   1 67.0537 4.49018   1
   2   2  -1 72.7358 4.68424   1
  -2  -2   0 77.7050 4.74775   1
   2   2   0 78.8817 4.89859   1
  -2  -2  -1 356.999 10.0051   1
   2   2   1 359.271 10.1263   1
  -2  -2  -2 16.1707 2.57136   1
   2   2   2 19.7359 2.84641   1
   2   2   3 3.34233 1.71634   1
  -2  -2  -3 0.45246 1.39358   1
  -2  -2  -4 24.7647 3.22114   1
   2   2   4 34.0738 3.69856   1
  -2  -2  -5 123.778 6.88116   1
   2   2   5 118.303 6.69708   1
  -2  -2  -6 241.246 9.82326   1
   2   2   6 244.027 9.91197   1
  -2  -2  -7 39.1553 4.66390   1
   2   2   7 31.8508 4.29592   1
  -2  -2  -8 4.53357 2.72430   1
   2   2   8 2.78699 2.58136   1
   2   2   9 17.1630 4.02796   1
  -2  -2  -9 12.8129 3.70180   1
  -2  -2 -10 0.68012 2.93781   1
   2   2  10 6.42506 3.78195   1
  -2  -2 -11 4.41778 3.68640   1
   2   2  11 6.64569 3.92350   1
   2   2  12 0.75338 4.28514   1
  -2  -2 -12 5.70585 4.18330   1
  -2  -2 -13 3.64073 5.18498   1
   2   2  13 14.1011 5.64723   1
  -2  -3  16-3.78308 5.11324   1
   2   3 -16 4.44530 4.07310   2
  -2  -3  16 4.03782 4.79963   1
  -2  -3  15-4.25682 4.33990   1
  -2  -3  15-2.25661 4.25770   1
   2   3 -15 3.47661 3.56017   2
   2   3 -14 3.74178 2.68350   2
  -2  -3  14 8.22982 4.26898   1
   2   3 -13 14.0620 3.08758   2
  -2  -3  13 17.3968 4.54163   1
  -2  -3  13 15.0696 4.07236   1
  -2  -3  12 23.8528 4.61242   1
  -2  -3  12 16.8536 4.09257   1
   2   3 -12 19.7272 3.29058   2
  -2  -3  11 94.7750 7.34570   1
  -2  -3  11 93.1073 7.28800   1
  -2  -3  10 11.1183 2.95716   1
  -2  -3   9 103.721 6.99326   1
  -2  -3   8 112.350 6.97378   1
  -2  -3   8 112.441 5.13445   2
  -2  -3   7-0.05279 1.18847   2
  -2  -3   7 4.93053 2.15124   1
  -2  -3   6 38.6442 4.17317   1
   2   3  -6 53.1523 4.61876   1
  -2  -3   6 42.7483 3.06998   2
  -2  -3   5 491.183 13.1267   1
   2   3  -5 491.906 13.0884   1
  -2  -3   5 464.022 9.51354   2
  -2  -3   4 69.0538 5.03372   1
   2   3  -4 66.3713 4.92751   1
  -2  -3   3 1266.58 20.2657   1
   2   3  -3 1246.49 20.1294   1
  -2  -3   2 54.2992 4.49261   1
   2   3  -2 60.7999 4.64331   1
  -2  -3   1 122.951 6.51069   1
   2   3  -1 119.554 6.47723   1
  -2  -3   0 170.750 7.65321   1
   2   3   0 177.412 7.87268   1
   2   3   1 9.88964 2.56313   1
  -2  -3  -1-1.65736 1.62109   1
   2   3   2 1.98882 1.74683   1
  -2  -3  -2 2.31237 1.74817   1
  -2  -3  -3 33.1020 3.91972   1
   2   3   3 33.6279 4.05630   1
  -2  -3  -4 53.8241 5.12723   1
   2   3   4 53.0816 5.03563   1
  -2  -3  -5 61.9897 5.66270   1
   2   3   5 52.4787 5.31406   1
  -2  -3  -6 105.986 7.42176   1
   2   3   6 106.716 7.45203   1
   2   3   7-1.78899 2.94834   1
  -2  -3  -7 4.91524 3.14734   1
   2   3   8 0.48317 3.13000   1
  -2  -3  -8 1.73232 3.21418   1
  -2  -3  -9 50.0121 6.07638   1
   2   3   9 39.4102 5.96286   1
   2   3  10 3.78552 4.05174   1
  -2  -3 -10 0.32561 3.84690   1
  -2  -3 -11-0.52386 4.34808   1
   2   3  11 1.96312 4.67256   1
  -2  -3 -12 4.93646 5.70704   1
   2   3  12 3.23255 5.70078   1
  -2  -4  16 19.8754 5.45644   1
  -2  -4  16 14.8967 5.55567   1
  -2  -4  15-2.75435 4.19593   1
  -2  -4  15 3.21166 4.39358   1
  -2  -4  14 7.84728 3.75219   1
  -2  -4  14 11.0344 4.54854   1
  -2  -4  13-1.45019 3.10403   1
  -2  -4  13 4.38765 3.40227   1
  -2  -4  12 23.3562 4.56841   1
  -2  -4  12 13.1136 4.02380   1
  -2  -4  11-1.78136 2.91137   1
  -2  -4  10 7.34504 3.01485   1
  -2  -4   9 17.5857 2.78327   2
  -2  -4   9 14.6150 3.45060   1
  -2  -4   8-0.33608 1.91741   1
  -2  -4   8 1.17372 1.50246   2
  -2  -4   7 70.6505 5.68575   1
   2   4  -7 72.4612 5.71941   1
  -2  -4   7 67.0992 4.45141   2
  -2  -4   6 308.524 11.1377   1
   2   4  -6 302.333 11.0779   1
  -2  -4   6 297.611 9.03000   2
  -2  -4   5 25.7188 3.57061   1
   2   4  -5 23.8643 3.57501   1
  -2  -4   4 66.9977 5.33762   1
   2   4  -4 71.4060 5.42472   1
  -2  -4   3 62.4776 5.15322   1
   2   4  -3 54.3232 4.94303   1
  -2  -4   2 72.8494 5.57659   1
   2   4  -2 80.5489 5.83164   1
   2   4  -1 0.03361 1.92190   1
  -2  -4   1 5.34074 2.30483   1
  -2  -4   0 111.526 6.90553   1
   2   4   0 110.084 6.90429   1
  -2  -4  -1 97.6069 6.64297   1
   2   4   1 100.236 6.83421   1
  -2  -4  -2 200.126 9.47566   1
   2   4   2 198.753 9.55577   1
  -2  -4  -3 18.3655 3.35952   1
   2   4   3 18.7827 3.66641   1
  -2  -4  -4 411.247 14.5504   1
   2   4   4 393.536 14.1430   1
  -2  -4  -5 6.52635 2.85696   1
   2   4   5 3.27134 2.89307   1
   2   4   6 12.0739 4.01122   1
  -2  -4  -6 10.5629 3.71693   1
   2   4   7 7.05270 3.82632   1
  -2  -4  -7 10.6342 4.00559   1
   2   4   8 6.75249 4.27008   1
  -2  -4  -8 0.38815 3.42073   1
   2   4   9 44.0961 6.96981   1
  -2  -4  -9 40.5374 6.13457   1
   2   4  10 6.36431 4.62737   1
  -2  -4 -10 3.11935 4.67821   1
  -2  -4 -11 11.4123 6.21010   1
   2   4  11 22.0114 6.75486   1
  -2  -5  16 13.7706 5.73712   1
  -2  -5  16 12.8577 5.86659   1
  -2  -5  15 5.94562 4.15846   1
  -2  -5  15 2.60888 4.39466   1
  -2  -5  14-4.97963 4.30354   1
  -2  -5  14 5.20258 4.34548   1
  -2  -5  13 5.52324 3.76659   1
  -2  -5  13 9.65123 4.20712   1
  -2  -5  12 7.97924 3.56942   1
  -2  -5  11-1.23112 3.08027   1
  -2  -5  11 1.13172 2.40376   2
  -2  -5  10 3.07401 2.70313   1
  -2  -5  10 3.88473 2.41288   2
  -2  -5   9 2.02577 2.48377   1
  -2  -5   9 0.85676 2.11358   2
  -2  -5   8 13.5179 2.75538   2
  -2  -5   8 12.9533 3.09022   1
   2   5  -8 11.8101 3.20395   1
  -2  -5   7 146.584 8.42309   1
   2   5  -7 141.851 8.20958   1
  -2  -5   7 145.854 7.31666   2
  -2  -5   6 6.11547 2.62705   1
   2   5  -6 6.28454 2.77192   1
  -2  -5   6 5.85530 2.25257   2
  -2  -5   5 44.4309 4.81068   1
   2   5  -5 48.3399 4.98910   1
   2   5  -4 0.19053 2.11297   1
  -2  -5   4 2.56301 2.13737   1
  -2  -5   3 32.3750 4.28870   1
   2   5  -3 43.0040 4.69709   1
  -2  -5   2 218.553 10.0470   1
   2   5  -2 216.080 10.0754   1
   2   5  -1 14.2517 3.40350   1
  -2  -5   1 10.4529 3.26584   1
   2   5   0 6.15291 2.96106   1
  -2  -5   0 8.52945 3.03232   1
  -2  -5  -1 66.0560 6.19546   1
   2   5   1 63.9339 5.94865   1
  -2  -5  -2 5.37993 3.18326   1
   2   5   2 9.27234 3.20331   1
  -2  -5  -3 11.3997 3.65517   1
   2   5   3 11.3514 3.47598   1
  -2  -5  -4 19.4315 4.38689   1
   2   5   4 17.7531 4.35697   1
  -2  -5  -5-0.43410 3.23166   1
   2   5   5 2.12012 2.76538   1
   2   5   6-2.66554 3.14449   1
  -2  -5  -6-2.76584 3.53774   1
  -2  -5  -7 6.88826 4.28951   1
   2   5   7 6.98283 4.63131   1
   2   5   8 52.5961 7.82979   1
  -2  -5  -8 41.8136 6.56903   1
  -2  -5  -9 68.5483 8.67970   1
   2   5   9 66.5190 8.89175   1
  -2  -5 -10 11.5029 6.44859   1
   2   5  10-0.07488 5.70276   1
  -2  -6  16-5.13457 4.96021   1
  -2  -6  16-0.23113 4.79570   1
  -2  -6  15 5.94717 4.84572   1
  -2  -6  15 8.78519 4.19863   1
  -2  -6  14-6.72712 4.44194   1
  -2  -6  14 6.76984 4.34563   1
  -2  -6  13-1.44311 4.06353   1
  -2  -6  12 1.23590 3.30227   1
  -2  -6  12-0.21625 2.96769   2
  -2  -6  11 4.00810 3.31707   1
  -2  -6  11 8.22806 3.38784   2
  -2  -6  10 13.9315 3.86114   1
  -2  -6  10 18.8488 3.82892   2
  -2  -6   9 4.31182 2.80510   1
   2   6  -9 7.27658 3.57936   1
  -2  -6   9 10.1797 3.03672   2
   2   6  -8 19.0178 4.01511   1
  -2  -6   8 14.3583 3.32457   2
  -2  -6   8 9.09838 3.17305   1
  -2  -6   7 45.3592 5.18610   1
   2   6  -7 48.4790 5.34479   1
  -2  -6   7 33.7784 4.32662   2
   2   6  -6 7.99296 3.04530   1
  -2  -6   6 0.03654 2.34910   2
  -2  -6   6 6.33043 2.66342   1
  -2  -6   5 52.1819 5.47375   1
   2   6  -5 58.1811 5.77702   1
  -2  -6   4 72.6307 6.34856   1
   2   6  -4 69.6007 6.47333   1
  -2  -6   3 84.7603 6.81140   1
   2   6  -3 85.2600 7.08658   1
  -2  -6   2 156.656 9.34369   1
   2   6  -2 149.245 9.21772   1
  -2  -6   1 196.234 10.6284   1
   2   6  -1 207.944 10.9453   1
  -2  -6   0 246.809 11.8813   1
   2   6   0 218.187 11.5025   1
  -2  -6  -1 36.8419 5.54014   1
   2   6   1 34.5944 5.40184   1
  -2  -6  -2 41.6501 5.77488   1
   2   6   2 40.8035 5.91494   1
  -2  -6  -3-4.55930 3.04778   1
   2   6   3 2.72546 3.82505   1
  -2  -6  -4 11.2262 4.51489   1
   2   6   4 4.13609 3.25552   1
  -2  -6  -5 39.4361 6.46077   1
   2   6   5 47.8469 6.67984   1
  -2  -6  -6 66.9153 8.20908   1
   2   6   6 74.1180 8.76077   1
   2   6   7 3.64566 4.66024   1
  -2  -6  -7-4.08755 5.28849   1
  -2  -6  -8 47.1081 8.43640   1
   2   6   8 0.60798 6.09280   1
  -2  -6  -9-4.38151 7.71778   1
   2   6   9 1.04984 6.68851   1
  -2  -7  15 9.08847 4.76430   1
  -2  -7  15 22.5441 6.01726   1
  -2  -7  14-2.28564 4.67450   1
  -2  -7  13 1.66354 3.90351   2
  -2  -7  13 9.08301 4.45004   1
  -2  -7  12 0.78828 3.70970   2
  -2  -7  12 0.94491 3.45147   1
  -2  -7  11 21.7649 4.58612   2
  -2  -7  11 24.4230 5.25769   1
  -2  -7  10 4.34224 3.39131   1
  -2  -7  10 2.45355 3.13752   2
   2   7 -10 1.36790 3.19463   1
  -2  -7   9 48.3623 5.99883   1
   2   7  -9 50.1045 6.01065   1
  -2  -7   9 38.1009 5.20302   2
  -2  -7   8 5.04210 3.22487   1
  -2  -7   8 2.23441 2.87305   2
   2   7  -8 3.26035 3.16343   1
   2   7  -7 30.4916 4.94042   1
  -2  -7   7 21.8999 4.09941   1
  -2  -7   7 20.1878 4.31762   2
  -2  -7   6 10.1260 3.46190   1
  -2  -7   6 6.19701 2.92803   2
   2   7  -6 10.9000 3.69033   1
  -2  -7   5 0.24425 2.76282   1
   2   7  -5 5.58245 3.18310   1
  -2  -7   4 31.1932 4.97588   1
   2   7  -4 29.7847 5.05136   1
   2   7  -3 5.73296 2.99901   1
  -2  -7   3 3.49084 3.20634   1
   2   7  -2 9.69242 3.63746   1
  -2  -7   2 7.72115 3.50352   1
  -2  -7   1 188.104 11.1062   1
   2   7  -1 180.760 11.1244   1
  -2  -7   0 42.8710 5.90362   1
   2   7   0 32.6086 5.85257   1
   2   7   1 13.5252 4.23277   1
  -2  -7  -1 16.7242 4.77831   1
  -2  -7  -2 0.12617 3.66594   1
   2   7   2 4.21562 3.42003   1
  -2  -7  -3 8.84101 5.15194   1
   2   7   3 5.75009 4.87623   1
   2   7   4 14.4214 5.55263   1
  -2  -7  -4 2.00974 4.57037   1
  -2  -7  -5 45.9125 8.19808   1
   2   7   5 51.5706 8.22630   1
  -2  -7  -6 70.4852 9.45875   1
   2   7   6 2.72166 4.92446   1
  -2  -7  -7 48.5552 7.93705   1
   2   7   7-1.56513 5.86906   1
  -2  -8  15-14.1854 5.31478   1
  -2  -8  14 4.34838 5.17787   1
  -2  -8  13 1.19934 4.33285   1
  -2  -8  13 0.93699 4.74596   2
  -2  -8  12 6.46155 4.74939   1
  -2  -8  12 6.76840 4.67379   2
   2   8 -11 21.5487 4.88010   1
  -2  -8  11 28.4484 5.23556   1
  -2  -8  11 24.5381 5.76027   2
  -2  -8  10 2.62634 3.68712   1
   2   8 -10 2.65705 3.69999   1
  -2  -8  10 5.12843 3.92959   2
  -2  -8   9 24.7519 5.30367   1
  -2  -8   9 22.3387 4.92438   2
   2   8  -9 17.5562 4.65248   1
  -2  -8   8 16.5645 4.85584   2
   2   8  -8 18.6233 4.58364   1
  -2  -8   8 21.0744 4.89931   1
   2   8  -7 11.3303 3.91165   1
  -2  -8   7 15.7059 4.68595   1
  -2  -8   7 17.8969 4.50417   2
  -2  -8   6 8.41276 3.58168   1
  -2  -8   6 13.1165 4.36584   2
   2   8  -6 11.8703 4.41504   1
  -2  -8   5 57.6907 6.66312   1
   2   8  -5 59.8579 6.82683   1
  -2  -8   4 23.7372 4.65965   1
   2   8  -4 22.5751 4.72544   1
  -2  -8   3 78.3625 8.02750   1
   2   8  -3 68.5160 7.78320   1
  -2  -8   2 146.844 11.0294   1
   2   8  -2 149.768 10.6853   1
   2   8  -1 2.03906 4.23768   1
  -2  -8   1 0.06350 3.34517   1
   2   8   0-2.00021 4.06294   1
  -2  -8   0 2.06350 4.65215   1
   2   8   1 3.55186 4.67005   1
  -2  -8  -1-2.30148 3.57361   1
   2   8   2 40.8801 6.97592   1
  -2  -8  -2 25.1485 6.70698   1
  -2  -8  -3 6.90935 4.29600   1
   2   8   3 13.3020 6.11999   1
   2   8   4 65.9704 9.02286   1
  -2  -8  -4 57.4986 9.08987   1
   2   8   5-6.17848 6.62882   1
  -2  -8  -5 5.69544 6.36135   1
  -2  -8  -6-1.75546 7.24654   1
   2   8   6 0.89321 6.76424   1
  -2  -9  14 6.58156 4.23854   2
  -2  -9  14 7.17314 3.92767   1
  -2  -9  13-0.24603 4.83105   1
  -2  -9  13 0.59556 5.55895   2
  -2  -9  12 6.11699 4.52387   1
  -2  -9  12-5.85532 5.55522   2
   2   9 -11 32.9905 6.82660   1
  -2  -9  11 25.9153 5.94860   2
  -2  -9  11 25.1866 5.91752   1
   2   9 -10-4.57255 4.36498   1
  -2  -9  10 0.25037 4.55607   2
  -2  -9   9 21.5995 5.37410   1
   2   9  -9 23.8959 5.92470   1
  -2  -9   9 21.0847 5.67164   2
  -2  -9   8-2.10735 4.81624   1
  -2  -9   8 2.85199 3.95262   2
   2   9  -7-0.69358 4.38650   1
  -2  -9   7-1.56537 3.68667   1
  -2  -9   7-2.24314 4.28463   2
  -2  -9   6 1.52216 3.96840   1
  -2  -9   6 1.60834 4.48843   2
   2   9  -6-2.33084 4.28096   1
  -2  -9   5 34.3212 6.16023   1
   2   9  -5 21.3460 5.56200   1
  -2  -9   4 8.26139 4.98091   1
   2   9  -4 6.65156 4.82038   1
  -2  -9   3-0.33962 4.93863   1
   2   9  -3 2.47872 4.46930   1
  -2  -9   2 12.6332 5.65163   1
   2   9  -2 1.56015 4.83172   1
  -2  -9   1 1.03298 5.70533   1
   2   9  -1 2.57029 4.01328   1
  -2  -9   0 10.3405 5.23637   1
   2   9   0 19.4632 6.60529   1
  -2  -9  -1-2.33299 4.97476   1
   2   9   1 0.24076 4.69590   1
  -2  -9  -2-1.08098 4.87832   1
   2   9   2 5.45055 6.07738   1
   2   9   3-8.42496 7.94094   1
  -2  -9  -3 8.97143 7.14824   1
  -2  -9  -4-5.37897 7.60612   1
   2   9   4-2.02737 7.21002   1
  -2 -10  12-1.82715 5.62356   1
   2  10 -12 7.92803 5.91308   1
  -2 -10  12 0.14879 6.55945   2
  -2 -10  11 9.81406 5.73659   1
   2  10 -11 1.49857 5.56619   1
  -2 -10  11-5.10096 6.53618   2
   2  10 -10-4.02903 5.32338   1
  -2 -10  10 8.28661 5.30773   1
  -2 -10  10 4.32213 6.23450   2
  -2 -10   9 10.0680 5.03329   1
   2  10  -9 7.16583 5.24477   1
  -2 -10   9 12.6877 6.18195   2
   2  10  -8 13.4831 6.27948   1
  -2 -10   8 21.4143 6.41746   1
  -2 -10   8 16.8225 6.11295   2
  -2 -10   7 18.4851 5.83745   1
  -2 -10   7 15.2052 6.53035   2
   2  10  -7 27.1070 7.25004   1
  -2 -10   6-2.35969 5.22489   1
  -2 -10   6-5.03003 5.58424   2
   2  10  -6 6.88050 6.05417   1
  -2 -10   5 4.27122 6.00188   1
   2  10  -5 12.8753 6.03042   1
  -2 -10   4 1.68238 4.99434   1
   2  10  -4 8.31116 6.01356   1
  -2 -10   3-3.23969 5.61879   1
   2  10  -3 3.87268 6.24099   1
  -2 -10   2 9.33153 6.14698   1
   2  10  -2 4.06757 5.84422   1
  -2 -10   1 9.87743 6.12074   1
   2  10  -1 28.0416 6.84030   1
  -2 -10   0 12.5007 7.07850   1
   2  10   0-1.22563 6.45116   1
   2  10   1 11.7062 7.34562   1
  -2 -10  -1 15.2039 7.70318   1
   2  11  -8 17.7226 6.69955   1
  -2 -11   8 3.21418 6.80351   1
  -2 -11   8 15.3830 8.05830   2
  -2 -11   7 6.01799 7.04131   1
  -2 -11   7-1.49961 7.62338   2
   2  11  -7-2.19147 5.61889   1
  -2 -11   6-2.64571 6.97423   1
  -2 -11   6-6.53255 5.82973   2
   2  11  -6 2.93985 7.04272   1
  -2 -11   5 7.48058 7.89211   1
   2  11  -5 8.65378 7.21480   1
  -2 -11   5 9.86096 7.27417   2
  -2 -11   4-4.81852 6.82204   1
   2  11  -4-12.7232 7.91777   1
  -2 -11   3 0.45282 6.34650   1
   2  11  -3-0.54107 7.90169   1
   3 -11   3 32.2415 7.07348   2
   3 -11   3 27.8595 5.89711   1
   3 -11   4-9.26592 4.92726   1
  -3  11  -4-11.0420 5.09930   1
   3 -11   4-21.0097 7.03434   2
   3 -11   5 21.7824 4.58436   1
  -3  11  -5 8.14067 4.13906   1
  -3  10   2 3.14222 6.91723   1
   3 -10  -2-1.82453 6.76973   1
   3 -10  -2-5.91854 7.35071   2
  -3  10   1 1.05322 6.43376   1
   3 -10  -1 3.49918 6.97202   1
   3 -10  -1-2.97794 6.21231   2
  -3  10   0 3.22418 5.05260   1
   3 -10   0-3.19655 5.62388   1
   3 -10   0 11.5218 6.32739   2
  -3  10  -1 7.67454 4.71902   1
   3 -10   1 0.40263 5.50565   1
   3 -10   1 8.73532 5.57135   2
  -3  10  -2 11.5099 5.15895   1
   3 -10   2 12.2678 4.89848   1
   3 -10   2 14.5351 6.15388   2
  -3  10  -3 5.50346 4.42257   1
   3 -10   3-1.27781 4.33564   1
   3 -10   3-7.97722 6.32603   2
   3 -10   4-1.98954 3.80879   1
  -3  10  -4-1.11439 4.06166   1
   3 -10   4 1.90411 6.56078   2
  -3  10  -5 7.22482 3.80597   1
   3 -10   5 12.5608 6.01196   2
   3 -10   5 3.56738 3.84131   1
   3 -10   6-4.93722 6.43254   2
  -3  10  -6 2.28283 3.26286   1
  -3  10  -7 4.19567 2.69475   1
   3 -10   7-0.73841 7.78049   2
   3 -10   8-2.30919 7.41614   2
   3 -10   9-0.35768 6.64387   2
  -3   9   5 0.26346 5.95865   1
   3  -9  -5 7.29260 6.24745   1
   3  -9  -5-0.06553 5.74987   2
  -3   9   4 6.30888 5.81138   1
   3  -9  -4 0.92585 6.04340   1
   3  -9  -4 3.09203 5.47984   2
  -3   9   3-4.73199 5.74511   1
   3  -9  -3 6.45136 5.62111   1
   3  -9  -3 10.6279 5.41923   2
  -3   9   2 1.41499 5.17304   1
   3  -9  -2-3.95913 5.16868   1
   3  -9  -2 6.92899 5.53252   2
  -3   9   1 5.62461 4.75871   1
   3  -9  -1 8.72515 5.59234   1
   3  -9  -1 7.14409 4.80214   2
   3  -9   0-2.63173 4.64877   2
   3  -9   0-0.81855 4.17177   1
  -3   9  -1 1.34348 3.79606   1
   3  -9   1 6.63329 3.95469   1
   3  -9   1-0.06320 4.55373   2
  -3   9  -2 4.87835 3.89405   1
   3  -9   2 0.15711 3.60557   1
   3  -9   2 5.82802 4.63667   2
  -3   9  -3 21.1586 4.65930   1
   3  -9   3 9.92056 3.36275   1
   3  -9   3 11.1189 5.50927   2
   3  -9   4 5.94209 3.77031   1
  -3   9  -4-2.73278 3.49716   1
   3  -9   4-3.23675 5.15760   2
  -3   9  -5 3.70502 3.05119   1
   3  -9   5 7.38260 4.88036   2
  -3   9  -6-0.95776 2.58051   1
   3  -9   6 2.69893 5.22530   2
  -3   9  -7 2.12106 1.70712   1
   3  -9   7 2.66870 5.87431   2
   3  -9   8 6.53143 5.49973   2
   3  -9   9 9.77034 5.80457   2
  -3   8   7 6.21366 8.11106   1
   3  -8  -7-2.42373 5.16071   2
   3  -8  -7-5.43570 6.83311   1
  -3   8   6 13.9607 5.80386   1
   3  -8  -6 16.4289 6.70766   1
   3  -8  -6 15.5787 5.50138   2
  -3   8   5 10.1372 7.17842   1
   3  -8  -5 4.55753 6.60738   1
   3  -8  -5 3.18398 4.49458   2
  -3   8   4 10.3761 6.04597   1
   3  -8  -4 19.2580 5.51982   2
   3  -8  -4 26.7485 7.40185   1
  -3   8   3 5.32560 5.25198   1
   3  -8  -3 5.38120 4.78236   1
   3  -8  -3 4.22119 4.26045   2
  -3   8   2-2.46500 4.48507   1
   3  -8  -2 3.06233 4.03764   1
   3  -8  -2-4.50210 3.88069   2
  -3   8   1 29.8776 5.98540   1
   3  -8  -1 23.7023 4.87427   2
   3  -8  -1 39.6616 6.40348   1
  -3   8   0-1.75549 3.29307   1
   3  -8   0 2.48515 3.64624   1
   3  -8   0-3.01024 3.56533   2
  -3   8  -1 37.0191 5.57053   1
   3  -8   1 48.8161 6.60476   2
   3  -8   1 38.2597 5.68763   1
  -3   8  -2-0.95252 2.80359   1
   3  -8   2-1.17018 3.52502   2
   3  -8   2 4.32490 3.19019   1
  -3   8  -3 18.4637 3.94586   1
   3  -8   3 18.2525 3.92820   1
   3  -8   3 19.2376 4.78575   2
  -3   8  -4 4.64667 2.72010   1
   3  -8   4 0.82932 4.17825   2
   3  -8   5 33.7064 5.77825   2
  -3   8  -5 33.2462 3.86750   1
  -3   8  -6-0.60381 1.69794   1
   3  -8   6 1.34312 4.32247   2
  -3   8  -7 4.56114 0.97001   1
  -3   8  -7 1.09333 0.81764   1
   3  -8   7 7.60038 4.90842   2
   3  -8   8 11.6471 5.19900   2
  -3   8 -10 1.79510 6.04015   2
  -3   8 -11 5.45901 5.85318   2
  -3   8 -12 14.8287 6.87320   2
  -3   7   8 20.2853 6.56542   1
   3  -7  -8 3.98132 4.43910   2
  -3   7   7 8.04742 5.95428   1
   3  -7  -7-6.52197 4.48590   2
   3  -7  -7 6.24691 6.84850   1
  -3   7   6 20.3634 6.44595   1
   3  -7  -6 15.8060 5.71022   1
   3  -7  -6 16.3089 5.08739   2
  -3   7   5 24.3843 5.77549   1
   3  -7  -5 13.1803 5.46866   1
   3  -7  -5 22.3624 4.37381   2
  -3   7   4 3.33925 4.92221   1
   3  -7  -4 5.43090 4.98557   1
   3  -7  -4 4.67391 3.28367   2
  -3   7   3 11.7901 5.00882   1
   3  -7  -3 15.8930 4.92964   1
   3  -7  -3 13.0332 3.82151   2
  -3   7   2 52.2217 6.55244   1
   3  -7  -2 61.2580 6.35563   2
   3  -7  -2 63.4373 7.13738   1
  -3   7   1 30.7440 5.32525   1
   3  -7  -1 26.9998 5.04216   1
   3  -7  -1 27.9548 4.90658   2
  -3   7   0 1.25364 2.84356   1
   3  -7   0-0.74490 2.76906   1
   3  -7   0 0.32056 2.92572   2
  -3   7  -1 3.39630 2.93546   1
   3  -7   1-0.16885 2.60577   1
   3  -7   1 4.21637 3.11660   2
  -3   7  -2 150.029 8.39992   1
   3  -7   2 145.880 9.46476   2
   3  -7   2 142.056 8.18437   1
  -3   7  -3 125.636 7.13876   1
   3  -7   3 131.610 9.19110   2
  -3   7  -4 14.6734 2.77801   1
   3  -7   4 12.0095 3.97428   2
  -3   7  -5 44.3572 3.71829   1
   3  -7   5 43.8293 6.37255   2
  -3   7  -6 1.55379 1.16269   1
  -3   7  -6 2.54334 1.10933   1
   3  -7   6-1.15772 3.06276   2
  -3   7  -7 2.54000 4.15129   2
   3  -7   7 2.78292 4.01627   2
  -3   7  -8 0.90280 4.70506   2
  -3   7  -9 12.7979 6.05272   2
  -3   7 -10 8.21408 5.16113   2
  -3   7 -11 14.3484 5.99890   2
  -3   7 -12 11.0517 5.85314   2
  -3   7 -13 25.0480 9.25142   2
  -3   6  10-7.84361 7.34848   1
  -3   6   9 13.4190 6.35098   1
  -3   6   8 14.4549 6.42184   1
  -3   6   7 20.9585 6.29894   1
   3  -6  -7 7.22813 3.31165   2
   3  -6  -6 7.95529 3.01935   2
   3  -6  -6 3.86366 4.69295   1
  -3   6   6 2.68304 4.37212   1
   3  -6  -5 30.4549 4.59189   2
   3  -6  -5 25.4355 5.42258   1
  -3   6   5 22.2085 5.22796   1
   3  -6  -4 26.9633 5.45981   1
   3  -6  -4 31.2712 4.28885   2
  -3   6   4 29.0636 5.23368   1
  -3   6   3 56.9737 6.55366   1
   3  -6  -3 56.1014 5.42229   2
   3  -6  -3 47.0166 5.99581   1
   3  -6  -2 1.65237 2.72504   1
   3  -6  -2-1.85632 2.49850   2
  -3   6   2-1.34274 2.59160   1
   3  -6  -1 9.07872 3.50770   1
   3  -6  -1 4.51933 2.61823   2
  -3   6   1 9.57227 3.49630   1
  -3   6   0 136.272 8.21307   1
   3  -6   0 153.994 8.60757   2
   3  -6   0 144.995 8.55718   1
  -3   6  -1 175.985 8.74491   1
   3  -6   1 162.521 8.95037   2
  -3   6  -2 53.4981 4.83073   1
   3  -6   2 52.2663 5.56006   2
  -3   6  -3 27.6951 3.43887   1
   3  -6   3 26.9823 4.33782   2
  -3   6  -4 17.8420 2.58627   1
   3  -6   4 22.6415 4.14783   2
  -3   6  -5 103.687 4.47144   1
  -3   6  -5 113.975 4.67032   1
   3  -6   5 110.670 8.46311   2
  -3   6  -5 109.456 8.32298   2
  -3   6  -6 35.4151 5.44223   2
   3  -6   6 32.7786 5.85993   2
  -3   6  -7 1.80688 3.65861   2
  -3   6  -8 1.75223 4.28216   2
  -3   6  -9 50.3876 7.29937   2
  -3   6 -10 17.3085 5.62013   2
  -3   6 -11 19.5809 6.83114   2
  -3   6 -12 1.12556 5.07506   2
  -3   6 -13-3.63121 6.03857   2
  -3   5  11-4.89839 7.11406   1
  -3   5  10 6.75300 5.62110   1
  -3   5   9-2.89392 5.47835   1
  -3   5   8-1.19652 4.92724   1
  -3   5   7 10.7485 4.38337   1
   3  -5  -6 7.94344 2.53405   2
  -3   5   6 1.84517 3.29632   1
   3  -5  -5 2.42824 2.33471   2
  -3   5   5-2.12798 3.56166   1
   3  -5  -4 9.42032 2.51303   2
  -3   5   4 10.7305 3.46907   1
   3  -5  -3 4.96004 2.36582   2
  -3   5   3 2.05167 2.65248   1
   3  -5  -2 11.8434 2.69046   2
  -3   5   2 14.9440 3.32067   1
  -3   5   1 85.4396 6.35384   1
   3  -5  -1 82.7351 5.77114   2
  -3   5   0 185.567 8.71359   1
   3  -5   0 180.146 8.43426   2
  -3   5  -1 112.595 6.44849   1
   3  -5   1 104.385 6.72751   2
   3  -5   2 1.73582 2.27557   2
  -3   5  -2 2.38674 1.71216   1
  -3   5  -3 2.95677 2.41579   2
   3  -5   3 5.17035 2.58925   2
  -3   5  -3 2.59532 1.63612   1
  -3   5  -4 1.66071 1.29475   1
  -3   5  -4 1.14412 1.22203   1
  -3   5  -4 4.92627 2.81381   2
   3  -5   4 4.66310 2.67596   2
  -3   5  -5 14.1216 1.46541   1
  -3   5  -5 14.1306 1.48460   1
  -3   5  -5 17.7709 3.88140   2
  -3   5  -6 7.52906 3.29054   2
  -3   5  -7 29.8004 5.27659   2
  -3   5  -8-3.51432 3.32024   2
  -3   5  -9 29.8030 6.08163   2
  -3   5 -10 8.81774 4.90751   2
  -3   5 -11-1.36426 4.88495   2
  -3   5 -12 4.34892 5.21484   2
  -3   5 -13 14.0163 6.96996   2
  -3   4  12 9.07089 7.68429   1
  -3   4  11 25.9137 7.48463   1
  -3   4  10 40.6438 7.48278   1
  -3   4   9 0.61356 4.59430   1
  -3   4   8 6.71602 4.15363   1
   3  -4  -7 16.1651 2.69765   2
  -3   4   7 13.0887 4.63061   1
  -3   4   6 39.7334 5.71795   1
   3  -4  -6 39.1448 3.54209   2
  -3   4   5 15.7090 3.96896   1
   3  -4  -5 16.4877 2.57937   2
  -3   4   4 33.4110 4.51978   1
   3  -4  -4 33.8224 3.25086   2
  -3   4   3 110.670 7.47033   1
   3  -4  -3 111.588 5.56189   2
  -3   4   2 0.80839 1.90764   1
   3  -4  -2-1.49167 1.64631   2
  -3   4   1 113.304 6.84307   1
   3  -4  -1 121.215 6.19530   2
  -3   4   0 4.79271 2.12264   1
   3  -4   0 1.18501 1.69072   2
  -3   4  -1 18.6896 2.77277   1
  -3   4  -1 17.9823 2.92918   2
   3  -4   1 24.8834 3.40605   2
  -3   4  -2 4.16133 2.39038   2
  -3   4  -2 5.71649 1.81880   1
   3  -4   2 6.49926 2.31987   2
  -3   4  -3 12.3177 3.00347   2
  -3   4  -3 8.55940 1.78940   1
  -3   4  -3 10.4005 1.83722   1
  -3   4  -4 0.05496 0.98608   1
  -3   4  -4 0.16404 0.99052   1
  -3   4  -4-2.02333 2.23292   2
  -3   4  -5 10.1388 1.06648   1
  -3   4  -5 10.3280 1.04547   1
  -3   4  -5 12.3332 3.46246   2
  -3   4  -6 215.640 11.0120   2
  -3   4  -7 156.444 9.94701   2
  -3   4  -8 27.7186 5.05411   2
  -3   4  -9 5.86889 4.02023   2
  -3   4 -10 11.6856 4.61101   2
  -3   4 -11 2.31789 3.87699   2
  -3   4 -12 3.89267 5.53250   2
  -3   4 -13 10.7613 7.28147   2
  -3   4 -14 0.89680 8.00526   2
   3  -3 -13 2.84064 2.96957   2
  -3   3  13-3.70772 6.60273   1
  -3   3  12-1.50588 5.81312   1
   3  -3 -12 2.27200 2.60748   2
  -3   3  11 2.26188 4.99681   1
  -3   3  10 7.12549 5.03755   1
  -3   3   9-2.66121 3.60803   1
  -3   3   8 3.98346 3.57585   1
   3  -3  -7-0.26306 1.23821   2
  -3   3   7 0.78625 3.19456   1
   3  -3  -6 0.66170 1.13444   2
  -3   3   6-0.62398 2.52618   1
  -3   3   5 24.8945 4.20849   1
   3  -3  -5 27.1262 2.38246   2
  -3   3   4 55.8196 5.40515   1
   3  -3  -4 48.9380 3.09502   2
  -3   3   3 7.56585 2.60594   1
   3  -3  -3 9.77177 1.68983   2
  -3   3   2 10.8622 2.78723   1
   3  -3  -2 7.31871 1.72422   2
   3  -3  -1 134.605 5.74872   2
  -3   3   1 129.238 6.81641   1
  -3   3   0 10.7352 2.10138   2
  -3   3   0 13.9743 2.54573   1
   3  -3   0 14.8272 2.43984   2
  -3   3  -1 321.439 9.88374   2
  -3   3  -1 309.322 9.24328   1
  -3   3  -1 311.947 9.25169   1
  -3   3  -2 125.462 5.52704   1
  -3   3  -2 117.598 6.45746   2
  -3   3  -2 135.515 5.73312   1
  -3   3  -3 123.677 5.00147   1
  -3   3  -3 125.101 7.04623   2
  -3   3  -3 122.638 4.98331   1
  -3   3  -4 26.7682 2.21601   1
  -3   3  -4 18.5027 3.53748   2
  -3   3  -4 21.9890 2.05783   1
  -3   3  -5 3.79206 0.84992   1
  -3   3  -5 4.30269 0.86920   1
  -3   3  -5 5.70304 2.57920   2
  -3   3  -6 5.87738 2.94844   2
  -3   3  -7 38.5158 5.36295   2
  -3   3  -8 26.5803 5.07290   2
  -3   3  -9 2.10220 3.71487   2
  -3   3 -10-0.06391 4.53099   2
  -3   3 -11 8.32746 4.80788   2
  -3   3 -12 4.12075 6.75163   2
  -3   3 -13 13.1525 6.53827   2
  -3   3 -14 15.0805 8.29575   2
   3  -2 -14 3.53745 2.59189   2
  -3   2  14 1.27845 6.32374   1
   3  -2 -13 1.28909 2.04717   2
  -3   2  13-6.06055 6.29403   1
  -3   2  12-0.14523 5.69571   1
   3  -2 -12 7.52476 2.12159   2
  -3   2  11-0.40211 4.46212   1
   3  -2 -11 1.80068 1.42676   2
  -3   2  10 75.8816 8.03600   1
   3  -2 -10 81.1620 3.55797   2
  -3   2   9 3.19122 3.08741   1
   3  -2  -9 4.30442 1.06865   2
   3  -2  -8-1.25578 0.66310   2
  -3   2   8 6.43348 3.34263   1
   3  -2  -7 9.04111 0.84256   2
  -3   2   7 9.85193 3.32614   1
  -3   2   6 11.7633 3.26852   1
  -3   2   5 4.49771 2.24891   1
   3  -2  -5 4.37989 0.67563   2
  -3   2   4 0.52010 2.27716   1
  -3   2   3 41.9729 4.47506   1
  -3   2   2 27.1971 3.50120   1
  -3   2   1 146.974 7.01059   1
  -3   2   1 147.181 5.47176   2
  -3   2   1 150.188 7.07451   1
  -3   2   0 206.318 7.77930   1
  -3   2   0 214.115 7.14346   2
  -3   2   0 204.572 7.79361   1
  -3   2  -1 112.408 5.52545   1
  -3   2  -1 112.748 5.69514   2
  -3   2  -2 247.475 7.57954   1
  -3   2  -2 248.397 8.98867   2
  -3   2  -3 514.173 10.1711   1
  -3   2  -3 509.595 13.5513   2
  -3   2  -4 41.9313 2.83367   1
  -3   2  -4 41.1935 4.47801   2
  -3   2  -5 114.735 4.16955   1
  -3   2  -5 114.594 7.51365   2
  -3   2  -6 25.2571 1.92585   1
  -3   2  -6 25.0993 4.41316   2
  -3   2  -7 43.4043 2.06669   1
  -3   2  -7 45.9922 5.43030   2
  -3   2  -8 341.231 14.7444   2
  -3   2  -9 6.35356 4.30691   2
  -3   2 -10 84.9704 8.71370   2
  -3   2 -11-2.79508 4.22981   2
  -3   2 -12 5.87552 4.67272   2
  -3   2 -13 2.16364 6.87622   2
   3  -1 -14 2.88515 1.73399   2
  -3   1  14-9.22881 5.36617   1
   3  -1 -13 10.4840 1.85300   2
  -3   1  13 4.52642 4.75181   1
   3  -1 -12-0.72348 1.12548   2
  -3   1  12 5.15703 5.04257   1
   3  -1 -11 1.66665 0.74064   2
  -3   1  11-1.37369 3.93012   1
  -3   1  10-2.58923 3.73789   1
  -3   1   9 2.92447 2.53895   1
  -3   1   8 44.3100 5.61648   1
  -3   1   7 1.36020 2.60849   1
  -3   1   6 2.84823 2.00821   1
  -3   1   5 18.7154 3.61522   1
  -3   1   4 135.619 7.58496   1
  -3   1   4 116.199 7.08937   1
  -3   1   3 10.9192 2.59018   1
  -3   1   2 267.799 9.63762   1
  -3   1   2 273.085 6.02624   2
  -3   1   1 7.83868 1.49303   2
  -3   1   1 8.20926 2.18051   1
  -3   1   0 0.24413 1.38003   1
  -3   1   0 0.83833 1.19091   2
  -3   1  -1 23.4899 2.80116   1
  -3   1  -1 28.0894 3.02460   2
  -3   1  -2 7.12806 1.79051   1
  -3   1  -2 12.3014 2.48883   2
  -3   1  -3 66.6277 4.06196   1
   3  -1   3 59.8403 3.90443   1
  -3   1  -3 66.8745 5.21438   2
  -3   1  -4 1.85686 1.28983   1
   3  -1   4 3.62174 1.40966   1
  -3   1  -4-1.67067 2.17865   2
  -3   1  -5 366.260 8.80522   1
   3  -1   5 364.403 8.80905   1
  -3   1  -6 307.463 8.06436   1
   3  -1   6 293.553 7.89782   1
  -3   1  -7 91.5533 4.49620   1
   3  -1   7 81.5637 4.30405   1
  -3   1  -7 72.4847 7.07145   2
  -3   1  -8 41.7385 3.16846   1
   3  -1   8 37.3570 3.06688   1
  -3   1  -8 43.6293 5.89160   2
  -3   1  -9 152.818 5.77391   1
   3  -1   9 138.948 5.63599   1
  -3   1  -9 154.806 10.9168   2
  -3   1 -10 11.6125 5.33703   2
   3  -1  10 13.5431 2.28651   1
  -3   1 -10 15.0168 2.35712   1
  -3   1 -11 1.75947 1.64860   1
  -3   1 -11 3.67288 5.43973   2
   3  -1  11 0.91754 1.62909   1
  -3   1 -12 6.61021 5.56707   2
   3  -1  12 4.77347 1.88398   1
  -3   1 -13 2.91077 6.95963   2
  -3   0  15 18.5121 7.30529   1
  -3   0  15 1.67195 6.33212   1
  -3   0  14 5.70075 5.26128   1
  -3   0  14-11.5619 5.61539   1
  -3   0  13 0.07048 4.36817   1
  -3   0  13-1.16835 4.23356   1
  -3   0  12 74.4368 8.80830   1
  -3   0  12 70.7819 8.29671   1
  -3   0  11 11.7418 4.81947   1
  -3   0  11 17.3958 4.35505   1
  -3   0  10-0.05557 3.38197   1
  -3   0  10-0.10932 3.52962   1
  -3   0   9 4.61266 3.24313   1
  -3   0   9 8.11194 3.61454   1
  -3   0   8 333.930 13.8101   1
  -3   0   8 337.964 13.7703   1
  -3   0   7 97.7974 7.41576   1
  -3   0   7 101.673 7.51519   1
  -3   0   6 31.8941 4.27393   1
  -3   0   6 33.6338 4.48693   1
  -3   0   5 7.69967 2.85772   1
  -3   0   4 1.39740 1.95723   1
  -3   0   3 25.7838 3.61421   1
  -3   0   3 27.5193 1.56307   2
  -3   0   2 4.35391 2.04064   1
  -3   0   2 5.50577 1.18222   2
  -3   0   1-1.53986 1.62441   1
   3   0   0-0.88590 1.61730   1
  -3   0   0 0.83879 1.56252   1
  -3   0  -1 387.814 10.5931   1
   3   0   1 369.555 10.3551   1
  -3   0  -2 6.17545 1.84597   1
   3   0   2 5.85393 1.84783   1
  -3   0  -3 65.5562 4.35922   1
   3   0   3 67.1219 4.49575   1
  -3   0  -4 26.1488 2.94229   1
   3   0   4 23.1535 2.87584   1
  -3   0  -5 116.107 5.81886   1
   3   0   5 111.545 5.72762   1
  -3   0  -6 120.918 6.12922   1
   3   0   6 112.599 5.95173   1
  -3   0  -7 67.0190 4.80042   1
   3   0   7 60.3969 4.61474   1
   3   0   8 2.40135 1.97931   1
  -3   0  -8 2.01950 2.08193   1
   3   0   9 1.08632 2.20542   1
  -3   0  -9 1.63524 2.21563   1
   3   0  10 18.6126 3.37386   1
  -3   0 -10 20.9889 3.50522   1
   3   0  11 21.2253 3.74924   1
  -3   0 -11 19.9530 3.47683   1
   3   0  12 23.5222 4.21837   1
  -3   0 -12 22.5353 4.00562   1
  -3   0 -12 26.3416 7.82314   2
   3   0  13 10.2868 3.88531   1
  -3   0 -13 0.44751 7.78699   2
  -3  -1  15 3.46275 6.50237   1
  -3  -1  15 2.04112 5.26786   1
  -3  -1  14 2.28709 5.37503   1
  -3  -1  14 4.49344 5.08953   1
  -3  -1  13 1.12796 4.93622   1
  -3  -1  13 1.76486 4.14460   1
  -3  -1  12 1.52294 4.27842   1
  -3  -1  12-2.58417 3.59294   1
  -3  -1  11 50.6806 6.53198   1
  -3  -1  11 65.2702 7.44666   1
  -3  -1  10 222.621 12.0631   1
  -3  -1  10 224.034 12.0778   1
  -3  -1   9 43.8415 5.46678   1
  -3  -1   9 44.1092 5.49619   1
  -3  -1   8 11.5878 3.33096   1
  -3  -1   8 17.9433 3.99916   1
  -3  -1   7 16.4846 3.49078   1
  -3  -1   6 10.0987 2.72045   1
  -3  -1   5 472.992 14.2696   1
  -3  -1   4 202.109 9.10052   1
  -3  -1   3 12.3355 2.74569   1
  -3  -1   2 3.84346 1.76421   1
   3   1  -2 2.94056 1.97157   1
  -3  -1   1 121.227 6.65277   1
   3   1  -1 123.044 6.60825   1
  -3  -1   0 30.8027 3.52822   1
   3   1   0 32.3567 3.61567   1
  -3  -1  -1 159.763 7.38343   1
   3   1   1 159.082 7.37647   1
   3   1   2 15.3573 2.69889   1
  -3  -1  -2 16.9560 2.81006   1
  -3  -1  -3 0.25356 1.63582   1
   3   1   3 3.29359 1.99733   1
  -3  -1  -4 2.68541 1.81811   1
   3   1   4 1.45570 1.74225   1
  -3  -1  -5 1.04496 1.77693   1
   3   1   5 1.50371 1.89582   1
  -3  -1  -6 66.3714 5.28528   1
   3   1   6 68.5303 5.40011   1
  -3  -1  -7 7.68517 2.38660   1
   3   1   7 6.68237 2.47106   1
   3   1   8 2.62137 2.64891   1
  -3  -1  -8-1.57505 2.66208   1
   3   1   9 3.02945 2.76558   1
  -3  -1  -9 4.20199 2.81525   1
   3   1  10-1.22246 3.11665   1
  -3  -1 -10 2.16143 2.82687   1
   3   1  11 0.08286 3.23966   1
  -3  -1 -11-1.37751 3.10861   1
   3   1  12 30.5213 5.42136   1
  -3  -1 -12 26.6967 5.32583   1
  -3  -2  16 24.6932 5.72928   1
  -3  -2  15-3.68278 5.67043   1
  -3  -2  15-1.40973 6.17192   1
  -3  -2  14 0.20347 4.91996   1
  -3  -2  14 0.34659 4.83059   1
  -3  -2  13-4.12261 4.37436   1
  -3  -2  13-1.55025 4.84132   1
  -3  -2  12 7.57195 3.97377   1
  -3  -2  12 18.8254 5.18890   1
  -3  -2  11 0.88408 3.38667   1
  -3  -2  11 0.55998 3.11859   1
  -3  -2  10 57.8454 6.51495   1
  -3  -2  10 57.4788 6.43459   1
  -3  -2   9 4.70529 2.96452   1
  -3  -2   8 13.9869 3.61116   1
  -3  -2   7 10.5206 3.14002   1
  -3  -2   6 12.1669 3.40761   1
  -3  -2   6 17.9724 1.32640   2
  -3  -2   5 231.882 10.1744   1
  -3  -2   5 220.431 5.12291   2
  -3  -2   4 392.214 12.9928   1
   3   2  -4 375.802 12.6984   1
  -3  -2   3 279.751 10.7159   1
   3   2  -3 290.762 10.8666   1
  -3  -2   2 77.0055 5.78932   1
   3   2  -2 75.8816 5.74779   1
  -3  -2   1 20.1828 3.31336   1
   3   2  -1 23.5435 3.51351   1
   3   2   0 8.48258 2.49122   1
  -3  -2   0 4.38807 2.13342   1
  -3  -2  -1 1.45748 1.84034   1
   3   2   1 1.48801 1.74053   1
  -3  -2  -2 257.546 10.0713   1
   3   2   2 259.865 10.2445   1
   3   2   3 21.7837 3.42430   1
  -3  -2  -3 17.4159 3.22880   1
  -3  -2  -4 175.949 8.69129   1
   3   2   4 184.542 8.93080   1
  -3  -2  -5 36.3505 4.56780   1
   3   2   5 40.7905 4.60312   1
  -3  -2  -6 0.74770 2.24205   1
   3   2   6 3.87784 2.60628   1
  -3  -2  -7 3.25944 2.81293   1
   3   2   7-0.33109 2.45990   1
   3   2   8 1.70911 2.80885   1
  -3  -2  -8 2.25246 3.18840   1
   3   2   9 8.45464 3.61091   1
  -3  -2  -9 8.84511 3.76376   1
   3   2  10 8.84067 4.36353   1
  -3  -2 -10 5.17999 3.55438   1
   3   2  11 2.27536 4.55949   1
  -3  -2 -11 0.65490 4.17704   1
   3   2  12 53.4935 6.35953   1
  -3  -2 -12 47.4459 6.02698   1
  -3  -3  16-7.82453 5.49504   1
  -3  -3  15 2.69707 4.84769   1
  -3  -3  15 5.07233 5.44438   1
  -3  -3  14 3.85979 4.95712   1
  -3  -3  14 3.45059 4.81159   1
  -3  -3  13 1.18442 4.09724   1
  -3  -3  13 7.58154 4.81930   1
  -3  -3  12 10.9774 3.96936   1
  -3  -3  12 10.4657 4.36988   1
  -3  -3  11 7.06428 4.17288   1
  -3  -3  10 52.9489 6.30439   1
  -3  -3   9 10.5664 3.59693   1
  -3  -3   8 11.0726 1.63201   2
  -3  -3   8 8.08055 3.08151   1
  -3  -3   7-2.38696 2.30506   1
  -3  -3   7-1.63937 1.20150   2
   3   3  -6 1.21415 2.46203   1
  -3  -3   6 4.17075 2.30046   1
  -3  -3   6 0.28508 1.08475   2
   3   3  -5 4.40038 2.76715   1
  -3  -3   5 1.60945 2.39761   1
   3   3  -4 10.4495 2.87633   1
  -3  -3   4 11.4643 2.88720   1
  -3  -3   3-0.82833 2.07625   1
   3   3  -3 5.22696 2.26951   1
  -3  -3   2 107.311 7.00423   1
   3   3  -2 99.4751 6.80508   1
  -3  -3   1 57.3844 5.33950   1
   3   3  -1 56.0521 5.32662   1
  -3  -3   0 12.7712 3.18222   1
   3   3   0 13.1596 3.00770   1
  -3  -3  -1 41.6408 4.70062   1
   3   3   1 37.1887 4.51407   1
  -3  -3  -2 66.6647 5.91069   1
   3   3   2 66.4435 5.94775   1
  -3  -3  -3 205.898 10.0728   1
   3   3   3 201.338 10.0053   1
  -3  -3  -4 10.4773 3.26924   1
   3   3   4 6.08558 2.98481   1
  -3  -3  -5 13.0234 3.88397   1
   3   3   5 14.4185 3.61607   1
  -3  -3  -6 6.24757 3.23282   1
   3   3   6 4.19275 3.03707   1
   3   3   7 9.24622 3.88066   1
  -3  -3  -7 3.70200 3.84184   1
  -3  -3  -8 63.4168 7.13559   1
   3   3   8 55.4898 6.67741   1
  -3  -3  -9 63.6053 7.57331   1
   3   3   9 69.4922 8.02564   1
  -3  -3 -10 91.3292 8.87688   1
   3   3  10 84.7589 8.77288   1
   3   3  11 24.6748 6.67518   1
  -3  -3 -11 36.3644 7.42584   1
  -3  -4  16-10.2065 5.83089   1
  -3  -4  16 1.24533 4.56798   1
  -3  -4  15-0.69732 5.65781   1
  -3  -4  15 7.87059 5.27004   1
  -3  -4  14 10.5649 6.03159   1
  -3  -4  14 1.20413 5.22294   1
  -3  -4  13 7.42115 5.01119   1
  -3  -4  13-0.31546 3.89739   1
  -3  -4  12-7.97876 4.44940   1
  -3  -4  11 4.96821 3.64504   1
  -3  -4  10 38.8158 5.55416   1
  -3  -4   9 75.5969 7.08751   1
  -3  -4   9 64.6643 4.24228   2
  -3  -4   8-2.46594 2.90692   1
  -3  -4   8-1.52914 1.72433   2
  -3  -4   7 169.444 9.80340   1
   3   4  -7 165.242 9.66100   1
  -3  -4   7 171.215 6.80411   2
  -3  -4   6 12.9957 3.38259   1
  -3  -4   6 8.62366 2.21148   2
   3   4  -6 8.62086 2.94101   1
   3   4  -5 7.61522 3.00414   1
  -3  -4   5 8.77054 3.13294   1
  -3  -4   4 34.9760 4.56739   1
   3   4  -4 34.2377 4.63473   1
  -3  -4   3 287.127 12.0468   1
   3   4  -3 282.108 11.8251   1
  -3  -4   2 37.2652 4.76725   1
   3   4  -2 31.1687 4.53907   1
  -3  -4   1 34.8334 4.71629   1
   3   4  -1 36.6101 4.84528   1
   3   4   0 6.42010 2.94579   1
  -3  -4   0 10.8446 3.35187   1
  -3  -4  -1 100.689 7.57105   1
   3   4   1 99.0151 7.59362   1
  -3  -4  -2 97.3867 7.55590   1
   3   4   2 83.2634 7.08492   1
  -3  -4  -3 58.1585 6.32242   1
   3   4   3 67.2912 6.60662   1
  -3  -4  -4 1.39680 2.65081   1
   3   4   4 2.86104 3.22684   1
  -3  -4  -5 17.3774 4.90614   1
   3   4   5 19.4929 4.37582   1
  -3  -4  -6 77.6121 7.62763   1
   3   4   6 70.9831 7.71241   1
   3   4   7-0.05942 4.22821   1
  -3  -4  -7 1.16237 3.94988   1
   3   4   8 3.66008 4.42564   1
  -3  -4  -8-5.37281 4.67800   1
   3   4   9-1.46906 5.25924   1
  -3  -4  -9 1.72582 5.06423   1
   3   4  10 16.3980 6.33044   1
  -3  -4 -10 1.01243 5.58916   1
  -3  -5  15 1.67487 5.86188   1
  -3  -5  15-12.2060 6.45711   1
  -3  -5  14 3.98622 4.77875   1
  -3  -5  14 4.76210 4.78354   1
  -3  -5  13 4.27275 4.57828   1
  -3  -5  12 1.09125 3.96484   1
  -3  -5  11 11.2678 4.60250   1
  -3  -5  11 8.97665 2.68923   2
  -3  -5  10 14.5513 4.27553   1
  -3  -5  10 19.2116 3.20087   2
  -3  -5   9 3.27554 3.03270   1
  -3  -5   9 0.76872 2.14561   2
  -3  -5   8 39.7909 5.49626   1
   3   5  -8 44.7541 5.94507   1
  -3  -5   8 37.8626 4.04380   2
  -3  -5   7 17.2687 4.39295   1
  -3  -5   7 20.0647 3.15156   2
   3   5  -7 21.1864 4.48917   1
  -3  -5   6 32.9288 5.17496   1
   3   5  -6 29.8469 4.87074   1
   3   5  -5 2.79093 2.97978   1
  -3  -5   5 3.05956 2.53077   1
   3   5  -4 5.07290 2.68416   1
  -3  -5   4 1.32203 2.08491   1
  -3  -5   3 454.747 15.9233   1
   3   5  -3 468.012 16.3688   1
  -3  -5   2 190.489 10.5816   1
   3   5  -2 180.825 10.5245   1
  -3  -5   1 6.22918 2.96673   1
   3   5  -1 1.88394 2.42902   1
  -3  -5   0 173.702 10.1993   1
   3   5   0 186.123 10.7989   1
   3   5   1 0.83143 2.99192   1
  -3  -5  -1 8.20984 3.38356   1
  -3  -5  -2-0.15813 3.14592   1
   3   5   2 2.20246 3.11881   1
  -3  -5  -3 7.47825 4.17509   1
   3   5   3 13.4952 4.39414   1
  -3  -5  -4 35.3340 6.11914   1
   3   5   4 31.4731 6.08497   1
  -3  -5  -5-1.97796 4.28905   1
   3   5   5 7.44568 3.99984   1
  -3  -5  -6 21.0036 5.19205   1
   3   5   6 20.8512 6.39949   1
   3   5   7-1.46440 4.66244   1
  -3  -5  -7 5.47784 5.53304   1
   3   5   8 15.3418 6.95381   1
  -3  -5  -8 18.2561 5.63581   1
   3   5   9 15.5555 7.31005   1
  -3  -5  -9 18.6545 6.86851   1
  -3  -6  15 5.44602 5.81790   1
  -3  -6  15 13.0834 6.73687   1
  -3  -6  14 16.2754 6.13729   1
  -3  -6  13 7.40917 4.91148   1
  -3  -6  12 15.3481 5.07772   1
  -3  -6  12 20.0081 4.01538   2
  -3  -6  11 5.34657 4.67322   1
  -3  -6  11-0.14447 2.69858   2
  -3  -6  10 32.4477 5.95765   1
  -3  -6  10 37.5160 4.80237   2
  -3  -6   9 3.97528 3.24654   1
   3   6  -9-2.51325 4.15281   1
  -3  -6   9-2.96197 2.65525   2
  -3  -6   8 1.99072 3.39751   1
  -3  -6   8 0.11001 2.43170   2
   3   6  -8 2.54269 3.82486   1
   3   6  -7 8.98872 4.24213   1
  -3  -6   7 4.63347 2.70733   2
  -3  -6   7 0.37913 3.19332   1
   3   6  -6-0.10813 2.70023   1
  -3  -6   6 4.69074 3.28376   1
  -3  -6   5 250.656 12.6916   1
   3   6  -5 253.331 12.8757   1
  -3  -6   4 60.4101 6.68366   1
   3   6  -4 51.3391 6.32776   1
  -3  -6   3 41.9155 5.75701   1
   3   6  -3 42.7218 6.08190   1
   3   6  -2-2.11822 2.86262   1
  -3  -6   2 4.55560 3.17839   1
  -3  -6   1 21.6807 4.85519   1
   3   6  -1 19.4713 4.82053   1
  -3  -6   0 10.7214 4.48572   1
   3   6   0 12.4426 4.14756   1
  -3  -6  -1-0.58700 3.15463   1
   3   6   1 0.17974 3.96158   1
  -3  -6  -2 9.06697 4.49276   1
   3   6   2 5.72298 4.32514   1
  -3  -6  -3 35.9799 6.63850   1
   3   6   3 36.6489 6.71072   1
  -3  -6  -4 19.7227 5.11094   1
   3   6   4 24.0105 6.18097   1
  -3  -6  -5 3.78448 5.42099   1
   3   6   5 2.16120 5.21843   1
   3   6   6 22.6320 6.54272   1
  -3  -6  -6 26.0772 6.41803   1
   3   6   7-1.27768 6.24729   1
  -3  -6  -7-8.07791 6.58952   1
  -3  -7  14-4.71936 5.29769   1
  -3  -7  13 4.63819 5.24212   1
  -3  -7  13 1.87117 4.03577   2
  -3  -7  12-6.60570 5.24889   1
  -3  -7  12-6.39627 3.58570   2
  -3  -7  11 7.88047 3.70190   2
  -3  -7  11-0.06417 3.98853   1
   3   7 -10 1.01182 4.12121   1
  -3  -7  10 6.91883 3.76171   2
  -3  -7  10-0.93743 4.24412   1
  -3  -7   9 1.85994 3.02362   2
  -3  -7   9 2.50381 4.03186   1
   3   7  -9 10.2513 5.02149   1
   3   7  -8 5.35611 4.36099   1
  -3  -7   8-0.85405 3.00744   2
  -3  -7   8 4.25780 3.99602   1
  -3  -7   7 7.49275 3.53846   2
   3   7  -7 6.24110 3.90696   1
  -3  -7   7 3.38921 4.01532   1
   3   7  -6 13.5159 4.66925   1
  -3  -7   6 3.66041 3.69306   1
  -3  -7   5 148.250 10.6527   1
   3   7  -5 138.582 10.3628   1
  -3  -7   4 1.73413 2.95547   1
   3   7  -4 3.42162 3.37849   1
  -3  -7   3 79.8970 8.30126   1
   3   7  -3 88.9489 8.93655   1
  -3  -7   2-0.31243 3.11889   1
   3   7  -2-3.55189 4.25611   1
  -3  -7   1 5.73019 4.32664   1
   3   7  -1 6.35923 4.64403   1
  -3  -7   0 24.0590 5.71835   1
   3   7   0 19.6164 5.09430   1
  -3  -7  -1 2.64488 4.71591   1
   3   7   1 6.00066 4.59618   1
  -3  -7  -2 88.2727 9.50554   1
   3   7   2 90.2409 9.66354   1
  -3  -7  -3 19.1225 6.28679   1
   3   7   3 10.9316 5.35156   1
  -3  -7  -4 5.72475 5.71552   1
   3   7   4-2.42841 5.71028   1
   3   7   5 5.17134 6.54642   1
  -3  -7  -5 2.83396 6.44118   1
   3   7   6 6.64160 6.97760   1
  -3  -7  -6 30.1065 8.61864   1
  -3  -8  14 12.3048 4.50811   1
  -3  -8  13 16.3631 6.75359   1
  -3  -8  13 7.78217 5.65060   2
  -3  -8  12 4.25913 4.98640   1
  -3  -8  12-4.02159 4.76999   2
   3   8 -11-12.1384 6.05160   1
  -3  -8  11-7.60935 5.19698   1
  -3  -8  11-1.16028 3.96887   2
   3   8 -10 11.3775 4.75225   1
  -3  -8  10-3.17426 5.21291   1
  -3  -8  10-2.05368 4.34611   2
   3   8  -9 3.98468 4.44199   1
  -3  -8   9 6.19869 4.81945   1
  -3  -8   9 9.28373 4.09194   2
  -3  -8   8 2.38023 4.37309   1
  -3  -8   8-2.15367 3.75824   2
   3   8  -8 0.47392 5.04105   1
   3   8  -7 5.82486 4.54986   1
  -3  -8   7 0.79421 4.42791   1
  -3  -8   7 1.61737 3.61761   2
   3   8  -6 16.9054 5.74738   1
  -3  -8   6 10.6685 5.07665   1
  -3  -8   5 5.21855 4.20812   1
   3   8  -5 1.97004 4.66543   1
  -3  -8   4 2.04705 3.97714   1
   3   8  -4 8.63425 4.93968   1
  -3  -8   3-2.15024 4.07039   1
   3   8  -3 3.40234 5.06125   1
  -3  -8   2 9.39184 5.51888   1
   3   8  -2 7.87806 4.86520   1
  -3  -8   1 1.51430 4.93269   1
   3   8  -1 1.26098 4.06058   1
  -3  -8   0 7.59475 5.52873   1
   3   8   0 7.18017 5.07178   1
  -3  -8  -1 24.0980 6.69141   1
   3   8   1 21.8909 6.04622   1
  -3  -8  -2 57.9664 9.61201   1
   3   8   2 39.2727 8.66647   1
  -3  -8  -3 5.83396 6.43887   1
   3   8   3 0.08539 6.19620   1
  -3  -8  -4 67.1949 10.3744   1
   3   8   4-6.23850 7.08333   1
  -3  -9  12 4.58277 6.41398   1
  -3  -9  12 4.17463 6.00048   2
  -3  -9  11 0.59568 5.64030   1
   3   9 -11-9.41349 6.62191   1
  -3  -9  10-6.58010 6.08933   1
   3   9 -10 1.71701 5.67340   1
  -3  -9  10-3.46188 5.46175   2
   3   9  -9 10.4311 5.92755   1
  -3  -9   9 6.54626 5.94545   1
  -3  -9   9 5.86747 5.51273   2
  -3  -9   8-3.30985 5.35433   1
   3   9  -8 7.87611 6.39567   1
  -3  -9   8 0.06338 4.88870   2
   3   9  -7-1.04401 5.58518   1
  -3  -9   7-4.13909 4.78108   1
  -3  -9   7 0.12761 5.20975   2
   3   9  -6 7.90601 5.32448   1
  -3  -9   6 1.04987 5.25662   1
  -3  -9   5-1.13677 4.99714   1
   3   9  -5-0.46056 5.92511   1
  -3  -9   4 3.76540 6.34999   1
   3   9  -4 8.37699 6.03729   1
  -3  -9   3 5.45665 6.75699   1
   3   9  -3 6.35602 6.07820   1
  -3  -9   2 4.16216 6.29450   1
   3   9  -2 1.80865 5.99444   1
  -3  -9   1-5.49582 6.35748   1
   3   9  -1-0.84497 5.13953   1
  -3  -9   0 9.00431 6.20492   1
   3   9   0 0.17400 6.57619   1
  -3  -9  -1 88.6153 11.2129   1
   3   9   1 62.1209 10.4843   1
  -3  -9  -2 10.3115 7.45885   1
   3   9   2 26.9434 8.03176   1
   3  10 -10 8.06317 5.61332   1
  -3 -10  10 48.6343 7.49293   2
  -3 -10   9 4.67739 6.38394   1
  -3 -10   9-3.91778 5.99642   2
   3  10  -9-5.99056 6.76492   1
  -3 -10   8 7.25313 6.87272   1
   3  10  -8 7.39607 7.13042   1
  -3 -10   8 10.2447 7.03228   2
   3  10  -7 5.65185 7.56898   1
  -3 -10   7 8.95516 7.20501   1
  -3 -10   7 5.81069 6.28895   2
   3  10  -6-1.01671 7.45722   1
  -3 -10   6 5.18298 6.31468   1
  -3 -10   6 7.30733 6.52884   2
  -3 -10   5 4.39626 6.89568   1
   3  10  -5-4.59355 6.49070   1
  -3 -10   4 1.55375 5.99422   1
   3  10  -4-5.98114 6.68268   1
  -3 -10   3 21.0820 7.59794   1
   3  10  -3 18.1234 7.81546   1
  -3 -10   2 16.5349 7.84785   1
   3  10  -2 12.6787 8.49079   1
  -4  10  -2-7.15214 4.84114   1
   4 -10   2-21.3790 6.78785   2
  -4  10  -3 23.6288 5.79944   1
   4 -10   3 8.50153 6.00154   2
  -4  10  -4 11.4356 4.53173   1
   4 -10   4-14.1451 7.36589   2
  -4  10  -5 22.9808 3.86228   1
   4 -10   5 30.4815 6.40417   2
  -4   9   3 11.0987 6.26096   1
   4  -9  -3 2.83310 4.73703   2
  -4   9   2-1.44623 6.70962   1
   4  -9  -2-1.80852 5.61805   2
  -4   9   1 4.21011 5.99752   1
   4  -9  -1 8.94887 5.37629   2
  -4   9   0 8.49366 4.86490   1
   4  -9   0 10.3758 5.43045   2
  -4   9  -1 33.4100 6.70940   1
   4  -9   1 38.8905 7.63745   2
  -4   9  -2 5.47907 4.68958   1
   4  -9   2 7.80577 4.98252   2
  -4   9  -3 3.15467 4.22770   1
   4  -9   3 10.2042 5.53034   2
  -4   9  -4 54.8011 6.17303   1
   4  -9   4 55.6445 8.22445   2
  -4   9  -5 5.71227 3.12418   1
   4  -9   5 4.51439 5.78169   2
  -4   9  -6 2.68898 2.28436   1
  -4   9  -6 1.58739 2.07802   1
   4  -9   6 0.07906 6.50531   2
  -4   8   5 3.93469 6.21444   1
   4  -8  -5 4.70143 5.14998   2
  -4   8   4 1.75166 5.57034   1
   4  -8  -4 5.83192 4.45981   2
  -4   8   3-1.10935 4.93141   1
   4  -8  -3-7.70282 4.89540   2
  -4   8   2 44.8678 7.73005   1
   4  -8  -2 41.8893 6.87603   2
  -4   8   1 14.3777 5.80656   1
   4  -8  -1 24.6010 5.95831   2
  -4   8   0 7.28054 4.44695   1
   4  -8   0 1.28915 4.07837   2
  -4   8  -1 14.7211 5.04813   1
   4  -8   1 13.5694 5.36946   2
  -4   8  -2 1.45249 3.69286   1
   4  -8   2 5.58415 4.84950   2
  -4   8  -3 8.86794 3.51726   1
   4  -8   3 6.57613 4.05372   2
  -4   8  -4 2.64302 2.80036   1
   4  -8   4 0.51979 5.14538   2
  -4   8  -5 21.6869 3.38839   1
  -4   8  -5 33.0026 3.98631   1
   4  -8   5 20.7371 5.77356   2
  -4   8  -6 0.51867 1.39281   1
  -4   8  -6 2.29243 1.51520   1
  -4   8  -9 0.82866 6.60882   2
  -4   8 -10 17.9865 8.25774   2
  -4   7   7 2.48092 7.28839   1
   4  -7  -7 1.37626 3.93718   2
  -4   7   6 2.21687 6.13596   1
   4  -7  -6-0.12383 4.06048   2
  -4   7   5 3.04498 5.14960   1
   4  -7  -5 3.65150 3.68246   2
   4  -7  -4 19.5933 4.46104   2
  -4   7   4 20.0648 6.89313   1
   4  -7  -3 2.72642 3.53202   2
  -4   7   3 3.27324 4.56095   1
  -4   7   2 43.6077 6.93826   1
   4  -7  -2 33.4349 5.36305   2
  -4   7   1 22.2621 4.92984   1
   4  -7  -1 22.1359 4.86835   2
  -4   7   0 0.20337 3.41086   1
   4  -7   0-0.67327 3.67917   2
  -4   7  -1 3.06053 3.51408   1
   4  -7   1 7.32162 3.85800   2
  -4   7  -2 20.7872 4.24489   1
   4  -7   2 25.2525 5.05922   2
  -4   7  -3 3.35130 2.71750   1
   4  -7   3 7.28063 4.30587   2
  -4   7  -4 10.3289 2.87024   1
  -4   7  -4 9.85546 3.00632   1
   4  -7   4 11.9879 4.77233   2
  -4   7  -5-2.15753 1.80746   1
  -4   7  -5 0.34102 1.92737   1
  -4   7  -6 0.10988 0.63240   1
  -4   7  -7 3.63419 4.88472   2
  -4   7  -8 21.3061 6.78069   2
  -4   7  -9-11.3832 6.55306   2
  -4   7 -10 14.2896 8.04815   2
  -4   7 -11 7.63482 7.54099   2
   4  -6  -9 24.0065 3.96784   2
  -4   6   9 49.1861 9.87169   1
   4  -6  -8 6.12337 3.37785   2
  -4   6   8 9.09219 5.81642   1
   4  -6  -7-2.59658 3.11225   2
  -4   6   7 0.39894 5.88506   1
   4  -6  -6 20.4097 3.80624   2
  -4   6   6 21.5036 6.44780   1
   4  -6  -5 3.41589 2.68084   2
  -4   6   5 6.51054 4.83086   1
   4  -6  -4 18.3119 3.81585   2
  -4   6   4 22.2242 5.45755   1
   4  -6  -3-4.71249 2.90055   2
  -4   6   3 2.33244 3.92372   1
  -4   6   2 74.0201 7.62431   1
   4  -6  -2 72.5896 6.23773   2
   4  -6  -1 18.9702 3.90091   2
  -4   6   1 14.7448 4.23241   1
  -4   6   0 53.3901 5.90811   1
   4  -6   0 47.6344 5.42253   2
  -4   6  -1 46.1129 5.15026   1
   4  -6   1 48.4279 5.61450   2
   4  -6   2 26.7346 4.63327   2
  -4   6  -2 17.8425 3.49762   1
  -4   6  -3 2.25853 2.14915   1
  -4   6  -3 0.74410 2.04440   1
  -4   6  -4 2.55677 1.85418   1
  -4   6  -4 1.62816 3.25647   2
  -4   6  -4-1.27947 2.11789   1
  -4   6  -5 4.58423 1.70903   1
  -4   6  -5 8.03886 4.29843   2
  -4   6  -5 5.41896 1.72278   1
  -4   6  -6 4.38909 4.42255   2
  -4   6  -7-2.86522 5.08966   2
  -4   6  -8 6.98026 5.27299   2
  -4   6  -9 8.59724 5.77144   2
  -4   6 -10 2.80422 5.11208   2
  -4   6 -11 32.6725 9.33086   2
   4  -5 -10 0.87699 1.64245   2
  -4   5  10-2.80076 7.27235   1
   4  -5  -9 0.61586 1.86271   2
  -4   5   9 9.81269 7.06558   1
   4  -5  -8 6.66391 2.50507   2
  -4   5   8 5.57863 5.51963   1
   4  -5  -7 1.86305 1.95471   2
  -4   5   7 8.55117 4.91587   1
   4  -5  -6 1.32676 2.03968   2
  -4   5   6 7.85617 4.16776   1
  -4   5   5 13.7324 4.85135   1
   4  -5  -5 15.2671 2.85110   2
  -4   5   4 19.3336 4.83355   1
   4  -5  -4 15.0961 3.11522   2
  -4   5   3-2.72707 2.89758   1
   4  -5  -3 1.75899 2.00247   2
  -4   5   2 2.79368 3.49347   1
   4  -5  -2 0.86983 1.96639   2
  -4   5   1 50.1985 5.55437   1
   4  -5  -1 50.4260 4.93900   2
  -4   5   0 4.67625 2.70397   1
   4  -5   0 1.27360 2.55022   2
  -4   5  -1 40.4494 4.61791   1
  -4   5  -2 2.72834 2.23993   1
  -4   5  -2 4.07001 2.92314   2
  -4   5  -2 0.03167 2.07235   1
  -4   5  -3 2.30721 2.77189   2
  -4   5  -3 1.05804 1.84323   1
  -4   5  -3 0.19351 1.98910   1
  -4   5  -4 25.3964 3.03950   1
  -4   5  -4 24.5915 2.97951   1
  -4   5  -4 29.0281 5.04933   2
  -4   5  -5 130.180 4.91445   1
  -4   5  -5 130.831 4.87896   1
  -4   5  -5 134.406 9.59404   2
  -4   5  -6 12.6728 3.94630   2
  -4   5  -7 9.17157 4.67911   2
  -4   5  -8 28.9563 6.01651   2
  -4   5  -9-1.14667 5.27739   2
  -4   5 -10-3.08981 5.48248   2
  -4   5 -11 16.0067 6.80230   2
  -4   5 -12-4.58114 7.61647   2
  -4   4  11-6.12486 7.06407   1
  -4   4  10 7.34101 6.54580   1
  -4   4   9-3.74883 6.13361   1
  -4   4   8 14.1232 5.47297   1
  -4   4   7 2.43427 3.98633   1
   4  -4  -7 2.64844 1.09952   2
  -4   4   6-4.22674 3.25943   1
   4  -4  -6 2.66339 1.33074   2
  -4   4   5 6.78091 3.85931   1
   4  -4  -5 8.10973 1.93306   2
  -4   4   4 110.217 8.58110   1
   4  -4  -4 126.567 5.59477   2
  -4   4   3 4.66228 3.34058   1
   4  -4  -3 8.60527 2.16821   2
  -4   4   2 42.3917 5.28578   1
  -4   4   1 2.01689 2.32544   1
  -4   4   0 2.84697 2.26268   1
  -4   4   0 2.42084 2.18860   1
  -4   4  -1 26.1329 3.67928   1
  -4   4  -1 20.8029 3.44016   1
  -4   4  -1 21.4587 3.60099   2
  -4   4  -2 134.671 6.99116   1
  -4   4  -2 133.677 7.10723   1
  -4   4  -2 134.784 8.10383   2
  -4   4  -3 88.0104 5.29882   1
  -4   4  -3 78.1006 5.10012   1
  -4   4  -3 83.0480 6.84822   2
  -4   4  -4 2.63955 1.64000   1
  -4   4  -4 3.28613 1.79681   1
  -4   4  -4 5.59528 3.16691   2
  -4   4  -5 35.5179 2.71548   1
  -4   4  -5 38.1525 2.82426   1
  -4   4  -5 31.9224 5.04684   2
  -4   4  -6 55.7862 6.99019   2
  -4   4  -7 54.5274 7.19640   2
  -4   4  -8 65.9113 8.29462   2
  -4   4  -9 16.4439 5.83628   2
  -4   4 -10 19.4181 6.75346   2
  -4   4 -11 14.1263 6.98134   2
  -4   4 -12 6.21694 6.67382   2
  -4   3  12 2.03380 6.94301   1
  -4   3  11 25.2224 6.67286   1
  -4   3  10 0.53432 5.30288   1
  -4   3   9-4.62152 4.85007   1
  -4   3   8-1.58196 4.10272   1
  -4   3   7 15.0136 4.39231   1
  -4   3   6 39.6617 6.12736   1
  -4   3   5 10.2797 3.84392   1
  -4   3   4 56.2328 6.16875   1
  -4   3   3 49.0292 5.64773   1
  -4   3   2 2.77568 2.55390   1
  -4   3   2 0.20761 2.35451   1
  -4   3   1 4.25065 2.64740   1
  -4   3   1 7.50650 2.70191   1
  -4   3   0 2.03182 2.24367   1
  -4   3   0 3.68358 2.11843   1
  -4   3   0 0.57010 1.99018   2
  -4   3  -1 4.85113 2.32438   1
  -4   3  -1 3.15050 2.01974   1
  -4   3  -1 5.41315 2.40426   2
  -4   3  -2 19.0610 3.03636   1
  -4   3  -2 19.6460 3.51101   2
  -4   3  -2 19.0542 3.08104   1
  -4   3  -3 359.992 10.3794   1
  -4   3  -3 360.430 13.0666   2
  -4   3  -3 368.084 10.5171   1
  -4   3  -4-1.60262 1.49582   1
  -4   3  -4 4.24542 1.85879   1
  -4   3  -4 5.86714 2.75810   2
  -4   3  -5 12.6511 2.03765   1
  -4   3  -5 8.22340 3.17628   2
  -4   3  -5 14.6175 2.14101   1
  -4   3  -6 3.22399 1.06493   1
  -4   3  -6 2.49757 1.12995   1
  -4   3  -7 64.0876 7.54074   2
  -4   3  -8 21.5939 5.37386   2
  -4   3  -9 13.3372 5.49089   2
  -4   3 -10 1.97509 5.12199   2
  -4   3 -11-9.90047 6.81665   2
  -4   3 -12 21.4431 8.08362   2
  -4   2  13-0.45539 6.23952   1
  -4   2  13-4.88048 6.13842   1
  -4   2  12 1.07650 5.37730   1
  -4   2  12 10.1828 6.14631   1
  -4   2  11 26.1961 7.21171   1
  -4   2  10 27.8449 6.94007   1
  -4   2   9 80.0466 8.60116   1
  -4   2   8 55.9630 7.06695   1
  -4   2   7-0.34591 3.35806   1
  -4   2   6 33.0474 5.53788   1
  -4   2   6 31.8164 5.05976   1
  -4   2   5 12.8325 3.82397   1
  -4   2   5 14.7872 3.93080   1
  -4   2   4 60.8059 6.30622   1
  -4   2   4 56.1661 5.88950   1
  -4   2   3 48.3321 5.36535   1
  -4   2   3 39.1273 5.00229   1
  -4   2   2 24.6572 4.13050   1
  -4   2   2 30.1696 2.76919   2
  -4   2   2 26.2159 4.01173   1
  -4   2   1 0.29608 2.30380   1
  -4   2   1 4.79864 1.85970   2
  -4   2   1 0.29709 2.34402   1
  -4   2   0 71.8005 5.64283   1
  -4   2   0 64.0863 4.73309   2
  -4   2   0 68.7212 5.56867   1
  -4   2  -1 15.3310 2.88028   2
  -4   2  -1 16.7006 2.98555   1
  -4   2  -2 1.30839 1.90415   1
  -4   2  -2-1.95812 1.97160   2
  -4   2  -3 23.6523 3.13422   1
  -4   2  -3 21.5708 3.73560   2
  -4   2  -4 5.42488 2.98344   2
  -4   2  -4 4.82799 1.88602   1
  -4   2  -5 23.4544 2.73038   1
  -4   2  -5 20.5102 4.55367   2
  -4   2  -6 5.46905 1.79486   1
  -4   2  -6 4.38470 3.32185   2
  -4   2  -7 5.29477 1.49742   1
  -4   2  -7 8.30370 4.09880   2
  -4   2  -8 1.16877 0.87367   1
  -4   2  -8 1.71718 4.14042   2
  -4   2  -9 11.1800 4.89658   2
  -4   2 -10 12.1891 5.56379   2
  -4   2 -11 1.73042 5.55228   2
  -4   2 -12 11.1238 6.52039   2
  -4   1  13 20.1586 8.05258   1
  -4   1  13 6.29566 7.68585   1
  -4   1  12 22.1270 6.77715   1
  -4   1  12 29.8435 7.53561   1
  -4   1  11 12.3860 5.91604   1
  -4   1  11 6.93951 5.16755   1
  -4   1  10 1.63483 4.24786   1
  -4   1  10-4.92844 4.54422   1
  -4   1   9 21.7283 5.47562   1
  -4   1   9 21.8859 4.92882   1
  -4   1   8 0.71330 3.58329   1
  -4   1   8 16.3331 4.85011   1
  -4   1   7 14.4792 4.23720   1
  -4   1   7 9.86028 3.91118   1
  -4   1   6 39.3809 5.32725   1
  -4   1   6 44.0123 5.60973   1
  -4   1   5 20.7809 3.98979   1
  -4   1   5 12.4409 3.47932   1
  -4   1   4 43.3098 5.35076   1
  -4   1   4 24.6767 4.15771   1
  -4   1   3 0.43086 0.82867   2
  -4   1   3 0.42219 2.56289   1
  -4   1   2 261.869 11.1127   1
  -4   1   2 261.600 7.25079   2
  -4   1   1 9.37692 2.83784   1
  -4   1   1 8.36962 2.04124   2
  -4   1   0 53.5679 5.04084   1
  -4   1   0 47.0806 4.12525   2
  -4   1  -1 96.7280 6.34380   1
  -4   1  -1 90.3671 5.91331   2
  -4   1  -2 13.6335 2.77623   1
  -4   1  -2 16.9889 3.39530   2
  -4   1  -3 139.341 7.05915   1
  -4   1  -3 138.081 8.22892   2
  -4   1  -4 69.9121 5.01929   1
  -4   1  -4 80.6944 6.87218   2
  -4   1  -5 154.678 7.03332   1
  -4   1  -5 148.562 9.65145   2
  -4   1  -6 9.21349 2.44858   1
   4  -1   6 6.96656 2.14457   1
  -4   1  -6 5.82841 3.98254   2
  -4   1  -7 28.5047 3.22262   1
   4  -1   7 27.2529 3.21306   1
  -4   1  -7 25.1572 5.76259   2
   4  -1   8-1.57542 1.99993   1
  -4   1  -8-0.91736 4.26561   2
  -4   1  -8-0.57851 2.08092   1
   4  -1   9 4.89024 1.93177   1
  -4   1  -9 2.07670 1.82132   1
  -4   1  -9-1.43094 5.00584   2
  -4   1 -10 20.4381 6.90887   2
  -4   1 -10 22.6860 2.67043   1
  -4   1 -11 0.42214 1.14605   1
  -4   1 -11-1.01786 7.47616   2
  -4   0  14-9.15694 6.82342   1
  -4   0  14 1.71216 6.52702   1
  -4   0  13 6.74799 6.33958   1
  -4   0  13 1.35931 5.16678   1
  -4   0  12 6.37192 5.73111   1
  -4   0  12 14.1096 6.41434   1
  -4   0  11-4.81057 5.30122   1
  -4   0  11 9.82562 5.42666   1
  -4   0  10 3.10080 3.86105   1
  -4   0  10 3.88401 4.22715   1
  -4   0   9 6.95522 4.12598   1
  -4   0   9 6.97521 4.41120   1
  -4   0   8-3.68463 3.77073   1
  -4   0   8 0.97527 2.88741   1
  -4   0   7 0.81301 2.69861   1
  -4   0   7 0.16167 3.34132   1
  -4   0   6-0.91526 2.66136   1
  -4   0   5 35.5108 5.14011   1
  -4   0   4 10.6672 3.35862   1
  -4   0   3 2.71222 2.20036   1
  -4   0   3 1.83753 1.06329   2
  -4   0   2 8.81312 1.82700   2
  -4   0   2 4.62818 2.74167   1
  -4   0   1 60.0630 5.54439   1
  -4   0   1 60.7495 4.29288   2
  -4   0   0 49.7724 5.04280   1
  -4   0  -1 130.324 7.49193   1
   4   0   1 141.236 7.83194   1
   4   0   2 0.06795 1.88960   1
  -4   0  -2 4.95222 2.24765   1
  -4   0  -3 54.5654 4.92424   1
   4   0   3 46.5529 4.54802   1
   4   0   4 4.41223 2.36483   1
  -4   0  -4 5.63879 2.36063   1
  -4   0  -5 162.626 8.01811   1
   4   0   5 168.326 8.21998   1
  -4   0  -6 1.54680 2.20033   1
   4   0   6 0.48454 2.27619   1
  -4   0  -7-2.53982 2.23674   1
   4   0   7 3.54374 2.74041   1
   4   0   8-2.50385 2.70909   1
  -4   0  -8-0.60181 2.66294   1
  -4   0  -9 33.7518 4.28163   1
   4   0   9 29.6211 4.07100   1
  -4   0 -10 37.5274 4.67809   1
   4   0  10 41.8460 4.83573   1
  -4   0 -10 39.1817 8.50544   2
  -4   0 -11 30.9450 4.14703   1
  -4   0 -11 22.6593 7.85402   2
  -4  -1  14 10.9642 7.21339   1
  -4  -1  14 15.0634 8.16493   1
  -4  -1  13-5.81744 6.05337   1
  -4  -1  13 5.46591 5.25615   1
  -4  -1  12 24.3463 5.93517   1
  -4  -1  12 29.6461 6.26858   1
  -4  -1  11 9.30178 5.09615   1
  -4  -1  11 14.3551 5.63970   1
  -4  -1  10 16.9142 5.63946   1
  -4  -1  10 15.4368 4.64475   1
  -4  -1   9 8.62901 3.96186   1
  -4  -1   9-1.57898 3.67133   1
  -4  -1   8-0.05689 2.80818   1
  -4  -1   7-0.10653 2.66432   1
  -4  -1   6 62.4928 6.38663   1
  -4  -1   5 7.12449 2.79038   1
  -4  -1   4 27.5257 4.45926   1
  -4  -1   4 22.8082 1.86035   2
  -4  -1   3 6.36449 3.19118   1
  -4  -1   2 106.063 7.38329   1
  -4  -1   1 84.0310 6.62569   1
   4   1  -1 72.3289 6.26867   1
  -4  -1   0 96.9267 6.91997   1
   4   1   0 82.1667 6.49064   1
  -4  -1  -1 47.5086 5.04457   1
   4   1   1 39.6813 4.64126   1
   4   1   2 2.49372 2.25027   1
  -4  -1  -2 5.32555 2.45435   1
  -4  -1  -3 105.121 7.09297   1
   4   1   3 99.0082 6.88249   1
   4   1   4 3.96453 2.67420   1
  -4  -1  -4 4.02350 2.55576   1
   4   1   5 15.6250 3.60678   1
  -4  -1  -5 17.4609 3.67760   1
   4   1   6 4.18018 3.17632   1
  -4  -1  -6-2.37887 2.54186   1
  -4  -1  -7 38.0573 5.17015   1
   4   1   7 42.4738 5.11072   1
  -4  -1  -8 225.764 10.6770   1
   4   1   8 233.384 10.9006   1
  -4  -1  -9-1.71247 3.12419   1
   4   1   9-1.83846 3.27329   1
  -4  -1 -10 3.21228 3.65736   1
   4   1  10-0.80430 3.61873   1
  -4  -2  14-12.9299 7.14348   1
  -4  -2  14-3.79245 5.64027   1
  -4  -2  13 15.8892 7.07665   1
  -4  -2  13-12.4578 5.28352   1
  -4  -2  12 6.45849 4.67664   1
  -4  -2  12 12.6490 5.07338   1
  -4  -2  11-1.07932 4.40653   1
  -4  -2  11 7.89674 4.62633   1
  -4  -2  10 11.2738 4.69820   1
  -4  -2  10 9.60245 4.83772   1
  -4  -2   9 24.4167 5.07417   1
  -4  -2   8-0.17002 3.01275   1
  -4  -2   7 31.6300 5.08902   1
  -4  -2   6 34.3906 5.32513   1
  -4  -2   5 170.822 10.1849   1
  -4  -2   4 15.4505 3.91278   1
   4   2  -3-3.30782 2.85683   1
  -4  -2   3-4.57246 3.00016   1
  -4  -2   2 42.1068 5.13566   1
   4   2  -2 42.3353 5.23231   1
  -4  -2   1 8.88663 3.20945   1
   4   2  -1 13.5621 3.53836   1
   4   2   0 2.39376 2.40843   1
  -4  -2   0 4.11578 2.38993   1
  -4  -2  -1 29.6015 4.40567   1
   4   2   1 25.8788 4.29960   1
   4   2   2 13.0097 3.67072   1
  -4  -2  -2 10.5274 3.15223   1
   4   2   3 8.52622 3.37692   1
  -4  -2  -3 7.15225 3.02251   1
   4   2   4-3.60860 2.73271   1
  -4  -2  -4 5.55312 3.18235   1
  -4  -2  -5 5.66737 3.51275   1
   4   2   5 4.99210 3.07754   1
  -4  -2  -6 17.4929 4.19940   1
   4   2   6 16.0200 4.25007   1
  -4  -2  -7 25.8816 5.08813   1
   4   2   7 22.9439 4.77843   1
   4   2   8 10.9080 4.84847   1
  -4  -2  -8 13.9698 4.69723   1
   4   2   9 13.1264 4.94463   1
  -4  -2  -9 19.1987 4.79572   1
   4   2  10 1.28837 4.67858   1
  -4  -2 -10-2.77619 4.59963   1
  -4  -3  15 13.0239 4.71406   1
  -4  -3  15 16.0054 5.09602   1
  -4  -3  14 10.8478 6.83531   1
  -4  -3  14 7.62704 7.31452   1
  -4  -3  13 4.92940 6.59613   1
  -4  -3  13-4.00438 5.52955   1
  -4  -3  12 9.11104 4.55979   1
  -4  -3  12 2.93233 5.26675   1
  -4  -3  11-0.88363 4.30070   1
  -4  -3  10 9.10103 4.44235   1
  -4  -3   9 8.36790 4.22420   1
  -4  -3   8 262.254 13.9091   1
  -4  -3   7 7.91252 4.05944   1
  -4  -3   7 5.81814 1.21730   2
  -4  -3   6 60.9627 6.87400   1
  -4  -3   6 58.6276 3.45560   2
  -4  -3   5 1.60196 3.22721   1
   4   3  -5 2.49131 3.33780   1
  -4  -3   4 63.9887 6.57167   1
   4   3  -4 61.0732 6.72509   1
  -4  -3   3 134.923 9.09891   1
   4   3  -3 140.552 9.32586   1
  -4  -3   2 152.574 9.49581   1
   4   3  -2 165.019 9.93813   1
   4   3  -1 26.5625 4.64358   1
  -4  -3   1 21.4410 4.30421   1
  -4  -3   0 118.510 8.36383   1
   4   3   0 119.543 8.58836   1
   4   3   1 4.44519 3.06282   1
  -4  -3  -1 8.39653 3.66510   1
   4   3   2 5.48275 3.31056   1
  -4  -3  -2 8.48552 3.33748   1
  -4  -3  -3 1.99871 2.90104   1
   4   3   3 0.91199 2.96459   1
  -4  -3  -4 10.7544 3.82099   1
   4   3   4 18.1707 4.45302   1
  -4  -3  -5 8.10648 3.86932   1
   4   3   5 9.45832 3.80501   1
  -4  -3  -6 12.2309 4.58851   1
   4   3   6 21.7224 4.77488   1
  -4  -3  -7 7.89919 4.99529   1
   4   3   7 3.52494 4.22050   1
   4   3   8 20.2627 5.30824   1
  -4  -3  -8 13.4687 4.99381   1
   4   3   9 12.7949 6.24677   1
  -4  -3  -9 13.6033 6.32464   1
  -4  -4  14 7.49392 6.49950   1
  -4  -4  14 35.2646 8.49101   1
  -4  -4  13 8.58561 5.60001   1
  -4  -4  13-4.85910 5.09095   1
  -4  -4  12 0.65958 5.81126   1
  -4  -4  11 3.69054 4.70721   1
  -4  -4  10 4.56832 3.59725   1
  -4  -4   9 14.1688 4.71358   1
  -4  -4   9 5.73512 1.36853   2
  -4  -4   8 0.84838 3.67214   1
  -4  -4   8 4.33194 1.58610   2
  -4  -4   7 38.3414 5.79365   1
  -4  -4   7 33.2150 3.21764   2
   4   4  -6 1.88323 2.92480   1
  -4  -4   6 0.95918 2.63845   1
  -4  -4   5 10.2355 3.53769   1
   4   4  -5 5.56898 2.90237   1
  -4  -4   4 18.5150 4.46783   1
   4   4  -4 22.6724 4.98436   1
  -4  -4   3 42.8670 5.98385   1
   4   4  -3 35.2372 5.45500   1
  -4  -4   2 56.2175 6.26342   1
   4   4  -2 62.6059 6.67188   1
  -4  -4   1 65.6510 7.06063   1
   4   4  -1 62.1144 6.89502   1
   4   4   0 7.30332 3.42502   1
  -4  -4   0 5.22468 3.57486   1
  -4  -4  -1 7.36427 3.93587   1
   4   4   1 12.6595 3.86585   1
  -4  -4  -2-0.16719 3.67132   1
   4   4   2-4.48933 4.24958   1
  -4  -4  -3 34.3174 5.93795   1
   4   4   3 36.5783 6.15472   1
  -4  -4  -4 15.4253 4.55339   1
   4   4   4 14.6657 4.36486   1
  -4  -4  -5 11.7612 5.27122   1
   4   4   5 15.2876 5.22427   1
  -4  -4  -6 13.3403 5.70026   1
   4   4   6 11.5135 5.87686   1
  -4  -4  -7 12.1424 5.56531   1
   4   4   7 17.6159 5.54151   1
   4   4   8 21.6085 7.18347   1
  -4  -4  -8 13.1668 6.49373   1
  -4  -5  14-8.63276 6.18401   1
  -4  -5  14-3.31729 6.69313   1
  -4  -5  13-1.16709 6.09265   1
  -4  -5  12-9.87898 5.84637   1
  -4  -5  11 28.3775 6.33822   1
  -4  -5  10 18.3435 5.30816   1
  -4  -5  10 21.9044 2.90862   2
  -4  -5   9 8.53951 5.09350   1
  -4  -5   9 0.32241 2.05497   2
  -4  -5   8 24.4795 5.49278   1
  -4  -5   8 20.9194 3.13901   2
  -4  -5   7 43.0403 6.54429   1
   4   5  -7 50.4780 6.92656   1
  -4  -5   7 47.6651 4.51337   2
  -4  -5   6 22.6749 5.08135   1
   4   5  -6 23.0146 5.35537   1
   4   5  -5-1.63442 4.13607   1
  -4  -5   5 5.08748 4.29058   1
   4   5  -4 8.04784 4.03751   1
  -4  -5   4 4.30396 3.68966   1
   4   5  -3 4.51502 4.06739   1
  -4  -5   3 5.39099 4.31727   1
   4   5  -2 26.7400 5.26672   1
  -4  -5   2 33.5648 5.95432   1
   4   5  -1 48.4338 6.92035   1
  -4  -5   1 27.8028 5.49364   1
  -4  -5   0 7.10809 3.63703   1
   4   5   0 3.31697 3.81482   1
  -4  -5  -1 27.1469 5.71071   1
   4   5   1 27.7895 6.16829   1
  -4  -5  -2 19.5836 5.68666   1
   4   5   2 20.1586 5.78886   1
  -4  -5  -3 57.1852 7.65890   1
   4   5   3 61.0708 7.90196   1
  -4  -5  -4-1.01930 4.39840   1
   4   5   4 11.1848 4.73426   1
  -4  -5  -5 16.0045 6.25237   1
   4   5   5 15.0493 6.21174   1
  -4  -5  -6 5.82210 5.30993   1
   4   5   6-1.41568 5.63117   1
   4   5   7-16.9436 6.97762   1
  -4  -5  -7-16.0332 6.64768   1
  -4  -6  14 24.0612 6.01534   1
  -4  -6  13-1.35102 5.70949   1
  -4  -6  12-6.50568 5.49744   1
  -4  -6  11-0.59189 5.10954   1
  -4  -6  11 2.09226 2.94854   2
  -4  -6  10-1.36883 4.86759   1
  -4  -6  10-5.84146 3.12252   2
  -4  -6   9 7.77879 5.37050   1
  -4  -6   9 3.24882 2.88413   2
  -4  -6   8 29.6047 5.99180   1
  -4  -6   8 35.1025 4.80758   2
   4   6  -8 32.6948 6.86272   1
  -4  -6   7 61.1160 7.90083   1
   4   6  -7 58.9573 8.14501   1
  -4  -6   7 42.0432 5.18684   2
   4   6  -6 4.66145 4.60340   1
  -4  -6   6 7.43252 4.36732   1
   4   6  -5 23.5994 5.18017   1
  -4  -6   5 25.9605 5.36015   1
   4   6  -4 21.7159 5.91884   1
  -4  -6   4 22.9732 5.81381   1
   4   6  -3 8.27958 4.68835   1
  -4  -6   3 2.86279 3.82732   1
   4   6  -2 5.34091 4.49106   1
  -4  -6   2 4.13547 4.94355   1
  -4  -6   1 37.2238 6.72219   1
   4   6  -1 29.7321 6.22218   1
  -4  -6   0 53.0803 7.97081   1
   4   6   0 67.9470 8.55009   1
  -4  -6  -1 2.93159 4.86730   1
   4   6   1 2.87499 5.41710   1
  -4  -6  -2 18.0829 6.27478   1
   4   6   2 22.9837 7.21805   1
  -4  -6  -3 11.7770 6.37965   1
   4   6   3 9.82086 5.50394   1
  -4  -6  -4 1.47843 6.22660   1
   4   6   4 0.71060 5.38267   1
  -4  -6  -5 18.4826 7.47775   1
   4   6   5-3.69383 5.98670   1
  -4  -7  13 3.58105 6.49350   1
  -4  -7  12-1.69766 6.35837   1
  -4  -7  12 8.30609 4.05943   2
  -4  -7  11 1.36092 3.69488   2
  -4  -7  11-6.74779 6.34285   1
  -4  -7  10 8.38202 4.00690   2
  -4  -7  10 10.0988 6.48642   1
   4   7  -9 8.49894 4.99414   1
  -4  -7   9 22.7388 4.99230   2
  -4  -7   9 26.9431 7.20982   1
  -4  -7   8 33.5852 5.22379   2
  -4  -7   8 32.6447 6.79603   1
   4   7  -8 29.9370 6.20401   1
   4   7  -7 1.17673 4.52774   1
  -4  -7   7-5.90441 4.17544   2
  -4  -7   7-0.87010 4.41223   1
  -4  -7   6 1.79817 5.24062   1
   4   7  -6-4.48860 5.11344   1
   4   7  -5 5.03940 5.07756   1
  -4  -7   5 6.95001 5.33611   1
   4   7  -4-6.40192 4.54208   1
  -4  -7   4 8.72074 5.45537   1
   4   7  -3-0.95793 4.99160   1
  -4  -7   3 7.78456 5.03035   1
  -4  -7   2 3.99815 4.81949   1
   4   7  -2 10.7538 5.28741   1
  -4  -7   1 172.271 13.0464   1
   4   7  -1 183.954 14.0185   1
  -4  -7   0 18.0380 7.26950   1
   4   7   0 19.4537 6.54361   1
  -4  -7  -1 2.81927 5.90596   1
   4   7   1 11.9551 6.09896   1
  -4  -7  -2 6.13700 5.75326   1
   4   7   2 1.50859 6.95043   1
  -4  -7  -3 84.1049 11.3459   1
   4   7   3-7.44783 7.97322   1
  -4  -8  11 9.42985 5.31613   2
  -4  -8  11 13.6257 7.87302   1
  -4  -8  10 12.2439 4.57445   2
  -4  -8  10 17.5087 5.86556   1
   4   8 -10 8.24548 5.67776   1
   4   8  -9 14.6981 5.91703   1
  -4  -8   9 14.5895 6.31421   1
  -4  -8   9 9.88007 4.92945   2
   4   8  -8 8.33286 6.46305   1
  -4  -8   8 15.8760 5.00852   2
   4   8  -7 15.4541 6.69588   1
  -4  -8   7 9.95724 5.44590   2
  -4  -8   7 10.4770 5.43954   1
  -4  -8   6-9.84089 5.73015   1
   4   8  -6 3.88123 6.57636   1
   4   8  -5 0.88629 6.40674   1
  -4  -8   5 2.06972 6.05163   1
   4   8  -4-6.81069 5.81935   1
  -4  -8   4 1.52672 4.97492   1
   4   8  -3 43.5557 8.33032   1
  -4  -8   3 28.4630 7.88537   1
  -4  -8   2 38.0243 8.84365   1
   4   8  -2 52.1450 9.65446   1
  -4  -8   1 0.92456 6.76680   1
   4   8  -1 4.96438 6.52302   1
  -4  -8   0 22.9453 7.60213   1
   4   8   0 8.94367 8.45031   1
  -4  -8  -1-10.8002 7.13623   1
   4   8   1 4.59823 6.05862   1
  -4  -9   9-5.62214 6.14397   1
   4   9  -9 5.77180 5.75458   1
   4   9  -8 4.91201 7.96909   1
  -4  -9   8-0.61201 6.10509   1
  -4  -9   8 2.61556 5.67313   2
  -4  -9   7 13.3988 6.39689   1
  -4  -9   7 7.44694 6.22371   2
   4   9  -7 5.00745 7.28127   1
  -4  -9   6-3.51595 7.26727   1
   4   9  -6-0.08932 6.02625   1
   4   9  -5-3.03785 6.23044   1
  -4  -9   5 1.69651 6.85249   1
   4   9  -4-6.17372 7.90658   1
  -4  -9   4-10.7137 7.55008   1
   4   9  -3 32.5281 8.54002   1
  -4  -9   3 8.82360 8.00239   1
  -5   8   2-1.20452 5.68878   1
   5  -8  -2-14.0122 5.05139   2
  -5   8   1 3.06389 5.87446   1
   5  -8  -1-8.60411 5.11092   2
  -5   8   0 0.63699 5.40735   1
   5  -8   0 1.29661 5.48612   2
  -5   8  -1 9.60784 4.86959   1
  -5   8  -1 13.0499 6.03496   1
  -5   8  -2 9.73591 4.90799   1
  -5   8  -2 9.44687 4.98258   1
  -5   8  -3-4.05698 4.64764   1
  -5   8  -3-8.26769 3.97915   1
  -5   8  -4 13.9325 3.93943   1
  -5   8  -4 17.4853 4.50909   1
  -5   8  -5 2.51203 2.90233   1
  -5   8  -5-0.83676 2.63659   1
   5  -7  -4 8.69056 4.61162   2
  -5   7   4-10.9595 7.08123   1
   5  -7  -3 7.68374 4.25768   2
  -5   7   3 6.23152 6.07296   1
  -5   7   2 2.78419 5.22942   1
  -5   7   1 1.31390 4.48744   1
  -5   7   0 14.5684 4.95490   1
  -5   7   0 4.17779 4.59756   1
  -5   7  -1 7.84103 4.57139   1
  -5   7  -1 10.1034 4.25916   1
  -5   7  -2 7.09006 4.28637   1
  -5   7  -2 3.07720 3.62352   1
  -5   7  -3 4.16589 3.70556   1
  -5   7  -3 1.15314 3.54712   1
  -5   7  -4 18.3899 3.97785   1
  -5   7  -4 20.3302 3.87474   1
  -5   7  -5 14.0149 2.68870   1
  -5   7  -5 12.1388 2.67811   1
  -5   7  -7 14.5559 7.34095   2
  -5   7  -8 57.4511 8.60282   2
  -5   6   7 75.7469 9.91942   1
  -5   6   6 28.5609 8.67673   1
  -5   6   5 6.54455 5.74394   1
  -5   6   4 11.6735 5.56664   1
  -5   6   3 16.3015 6.32575   1
  -5   6   2-1.47841 4.39735   1
  -5   6   1-2.20830 4.27951   1
  -5   6   1-0.51084 4.29978   1
  -5   6   0 6.35087 4.60613   1
  -5   6   0 2.28437 3.49183   1
  -5   6  -1 23.9686 4.98179   1
  -5   6  -1 18.2949 4.43479   1
  -5   6  -2 2.55809 3.34442   1
  -5   6  -2 1.13530 3.40093   1
  -5   6  -3 9.36203 3.45265   1
  -5   6  -3 7.93775 3.67177   1
  -5   6  -4 3.48878 2.59955   1
  -5   6  -4 9.41086 5.07924   2
  -5   6  -4 4.63532 2.79809   1
  -5   6  -5 15.6982 2.68288   1
  -5   6  -5 27.4261 6.76707   2
  -5   6  -6 11.2034 6.10976   2
  -5   6  -7 36.2759 7.36938   2
  -5   6  -8-0.08069 7.11960   2
  -5   6  -9 8.72847 5.01940   2
  -5   5   8-11.3797 6.55033   1
  -5   5   7 20.0188 7.67984   1
  -5   5   6 51.1632 8.67842   1
  -5   5   5 3.34044 4.42984   1
  -5   5   4 2.77992 4.67308   1
  -5   5   3 37.9148 6.52716   1
  -5   5   3 39.7365 6.63301   1
  -5   5   2 21.9447 5.37752   1
  -5   5   2 9.88216 4.37815   1
  -5   5   1 4.76487 3.55554   1
  -5   5   1 16.4928 4.92147   1
  -5   5   0 18.1350 4.61206   1
  -5   5   0 19.8204 4.52382   1
  -5   5  -1 10.2631 3.65764   1
  -5   5  -1 13.0759 4.02588   1
  -5   5  -2 1.81377 2.81366   1
  -5   5  -2 7.60695 3.66630   2
  -5   5  -2 0.19547 2.81185   1
  -5   5  -3 21.8142 4.98343   2
  -5   5  -3 16.2840 3.30623   1
  -5   5  -3 19.3237 3.57005   1
  -5   5  -4-0.36902 2.41693   1
  -5   5  -4-0.34540 3.98219   2
  -5   5  -4-0.53298 2.47556   1
  -5   5  -5 6.90274 5.59863   2
  -5   5  -5 5.84209 2.16478   1
  -5   5  -5 4.26997 1.98081   1
  -5   5  -6 6.49757 5.74661   2
  -5   5  -7 2.23802 5.35960   2
  -5   5  -8 11.6583 5.55064   2
  -5   5  -9 16.9705 7.24434   2
  -5   4   9 42.1639 9.94731   1
  -5   4   8 13.9193 7.02055   1
  -5   4   8 10.2240 5.71565   1
  -5   4   7 3.36584 5.43136   1
  -5   4   7 2.89651 5.66767   1
  -5   4   6 0.57117 5.13606   1
  -5   4   6 7.23458 5.72434   1
  -5   4   5 19.7958 5.79396   1
  -5   4   5 13.9853 5.13474   1
  -5   4   4 10.2386 4.36091   1
  -5   4   4 10.1110 4.65127   1
  -5   4   3-1.93923 3.37972   1
  -5   4   3 3.00555 4.29068   1
  -5   4   2 2.17738 3.90110   1
  -5   4   2-0.10748 3.47409   1
  -5   4   1 1.67613 3.10323   1
  -5   4   1 1.64168 3.28946   1
  -5   4   0 5.77865 3.07518   1
  -5   4   0 13.0849 4.05806   1
  -5   4  -1 3.54132 2.96553   1
  -5   4  -1 3.94051 3.04149   1
  -5   4  -1 1.10565 2.79789   2
  -5   4  -2 45.3058 4.97654   1
  -5   4  -2 42.5164 4.89088   1
  -5   4  -2 44.1094 5.70026   2
  -5   4  -3-1.66558 2.50683   1
  -5   4  -3 0.50111 2.40317   1
  -5   4  -3 0.05023 3.57728   2
  -5   4  -4-0.88232 2.18266   1
  -5   4  -4 2.24346 2.54923   1
  -5   4  -4 6.57782 3.65985   2
  -5   4  -5-0.02221 2.06209   1
  -5   4  -5 3.75984 4.27592   2
  -5   4  -5 1.36943 1.90329   1
  -5   4  -6-0.23559 1.13262   1
  -5   4  -6-4.27922 4.73974   2
  -5   4  -7 2.25008 5.25044   2
  -5   4  -8 12.7226 5.88343   2
  -5   4  -9 13.8355 7.44997   2
  -5   3  10 7.48687 6.53255   1
  -5   3  10 2.07695 7.99764   1
  -5   3   9 5.84848 5.42210   1
  -5   3   9-2.95690 6.47324   1
  -5   3   8 32.5583 7.79928   1
  -5   3   8 29.1437 7.13289   1
  -5   3   7 34.0433 7.61553   1
  -5   3   7 25.3628 6.13968   1
  -5   3   6 0.48168 4.71336   1
  -5   3   6 8.50454 4.50098   1
  -5   3   5 30.2965 5.94510   1
  -5   3   5 26.7596 5.75296   1
  -5   3   4 38.2449 6.22717   1
  -5   3   4 47.0344 6.43881   1
  -5   3   3 23.3597 4.99765   1
  -5   3   3 16.2744 4.64389   1
  -5   3   2 19.5751 4.62293   1
  -5   3   2 20.9765 4.87812   1
  -5   3   1 4.66620 2.88020   1
  -5   3   1 2.23659 2.97173   1
  -5   3   0 27.8018 4.61846   1
  -5   3   0 36.4984 4.38322   2
  -5   3   0 41.3117 5.24026   1
  -5   3  -1-2.25807 2.73971   1
  -5   3  -1-1.36939 2.58003   2
  -5   3  -1-0.50185 2.67253   1
  -5   3  -2 36.0724 4.67676   1
  -5   3  -2 33.8311 4.99939   2
  -5   3  -2 33.1270 4.56192   1
  -5   3  -3 4.69267 2.81936   1
  -5   3  -3 1.98351 2.69406   1
  -5   3  -3 5.68045 3.38293   2
  -5   3  -4 0.36916 2.52297   1
  -5   3  -4-2.67340 3.70432   2
  -5   3  -4-0.84956 2.22695   1
  -5   3  -5 22.5892 3.21621   1
  -5   3  -5 30.4501 5.73876   2
  -5   3  -5 21.3436 3.34772   1
  -5   3  -6 6.36506 1.84861   1
  -5   3  -6 1.92266 4.58206   2
  -5   3  -7 0.71352 0.96111   1
  -5   3  -7 1.25741 5.05214   2
  -5   3  -8 7.20703 5.87350   2
  -5   3  -9 50.5641 9.69819   2
  -5   3 -10 73.2331 9.61137   2
  -5   2  11 12.3909 7.09932   1
  -5   2  11 4.07213 6.86469   1
  -5   2  10-3.75903 6.41533   1
  -5   2  10 5.25589 6.50081   1
  -5   2   9 0.70554 5.50004   1
  -5   2   9-0.79402 5.99955   1
  -5   2   8 4.05964 5.03747   1
  -5   2   8 5.95883 4.05337   1
  -5   2   7 2.37357 4.38062   1
  -5   2   7-0.69329 3.86258   1
  -5   2   6 11.8003 5.01299   1
  -5   2   6 0.58670 4.03870   1
  -5   2   5 5.44840 3.91583   1
  -5   2   5 3.51291 4.33564   1
  -5   2   4 6.01646 3.95350   1
  -5   2   4 8.32282 4.02879   1
  -5   2   3-0.16248 3.17768   1
  -5   2   3 1.57729 3.27210   1
  -5   2   2-2.22467 3.01771   1
  -5   2   2 2.79587 3.04925   1
  -5   2   2-1.96901 1.91125   2
  -5   2   1 46.6375 5.69270   1
  -5   2   1 43.6863 4.27979   2
  -5   2   1 42.0278 5.65683   1
  -5   2   0 128.708 8.70774   1
  -5   2   0 118.674 7.12624   2
  -5   2   0 119.628 8.31425   1
  -5   2  -1 17.0193 3.83757   1
  -5   2  -1 23.0594 3.99769   2
  -5   2  -2 0.35083 2.47624   1
  -5   2  -2 1.47293 2.84213   2
  -5   2  -3 83.1439 6.39472   1
  -5   2  -3 55.8720 6.55710   2
  -5   2  -4 1.68625 2.60457   1
  -5   2  -4 5.09517 4.01284   2
  -5   2  -5-0.14933 2.24384   1
  -5   2  -5 1.35341 3.81208   2
  -5   2  -6 8.07185 2.43341   1
  -5   2  -6 2.18540 5.04528   2
  -5   2  -7-0.51836 2.05340   1
  -5   2  -7-0.35070 4.64415   2
  -5   2  -7 2.41372 2.03806   1
  -5   2  -8 5.07731 1.57307   1
  -5   2  -8-2.21357 5.28318   2
  -5   2  -8 1.04059 1.39037   1
  -5   2  -9 45.0837 9.27665   2
  -5   1  12-0.92847 6.15154   1
  -5   1  12 13.3674 6.97977   1
  -5   1  11 10.1076 5.88066   1
  -5   1  11 10.2849 6.79035   1
  -5   1  10 5.88742 6.70395   1
  -5   1  10 8.95506 6.92393   1
  -5   1   9 3.85581 4.77062   1
  -5   1   9-3.11366 4.94932   1
  -5   1   8 11.9165 4.87514   1
  -5   1   8 6.97155 4.17392   1
  -5   1   7 4.94555 4.50556   1
  -5   1   7 1.91076 3.76799   1
  -5   1   6 28.5517 6.41074   1
  -5   1   6 24.7425 5.85660   1
  -5   1   5 6.83811 3.83784   1
  -5   1   5 12.8107 4.17282   1
  -5   1   4-2.14543 3.97629   1
  -5   1   4-0.73761 3.67479   1
  -5   1   3 60.1249 6.97742   1
  -5   1   3 48.3768 3.14501   2
  -5   1   2 127.550 9.18776   1
  -5   1   2 132.284 6.13898   2
  -5   1   1 53.8817 6.25765   1
  -5   1   1 47.4583 4.45250   2
  -5   1   0-0.41378 2.70626   1
  -5   1   0 3.19746 2.56825   2
  -5   1  -1 3.37938 2.95290   1
  -5   1  -1 12.9315 3.24534   2
  -5   1  -2 68.8128 6.19230   1
  -5   1  -2 68.5735 6.41228   2
  -5   1  -3 16.7782 4.09969   2
  -5   1  -3 17.3264 3.59391   1
  -5   1  -4-0.99731 2.66200   1
  -5   1  -4 6.72623 3.52616   2
  -5   1  -5 4.14094 2.83142   1
  -5   1  -5 7.11743 4.31231   2
  -5   1  -6 6.30329 3.11388   1
  -5   1  -6-1.11423 4.30197   2
  -5   1  -7 0.55237 2.95583   1
  -5   1  -7 1.07364 5.08925   2
  -5   1  -8 19.0959 6.45684   2
  -5   1  -8 11.0120 3.13414   1
  -5   1  -9 11.2614 2.63508   1
  -5   1  -9 10.9883 7.38112   2
  -5   0  12 4.59595 7.04123   1
  -5   0  12 7.03263 7.41790   1
  -5   0  11 13.4274 6.36563   1
  -5   0  11-1.18732 7.18538   1
  -5   0  10 5.53468 6.36902   1
  -5   0  10-6.93603 4.53553   1
  -5   0   9 2.16513 5.15356   1
  -5   0   9 3.07188 4.43455   1
  -5   0   8 25.5111 6.61662   1
  -5   0   8 25.0290 5.77414   1
  -5   0   7 12.4510 5.13172   1
  -5   0   7 9.97857 4.88975   1
  -5   0   6 63.2102 7.51178   1
  -5   0   5 8.62934 3.71842   1
  -5   0   4 10.0200 3.87726   1
  -5   0   3 22.1674 2.50399   2
  -5   0   3 20.3201 5.13806   1
  -5   0   2 45.1349 5.95975   1
  -5   0   2 43.6567 3.94855   2
  -5   0   1 14.6753 3.85036   1
  -5   0   1 16.7387 3.08184   2
  -5   0   0 2.18897 2.99413   1
  -5   0   0 3.89056 2.69693   2
  -5   0  -1 36.7130 5.15416   1
  -5   0  -1 34.0249 4.76806   2
  -5   0  -2 30.9753 4.89653   1
  -5   0  -2 41.0987 5.63541   2
  -5   0  -3 8.66431 3.68937   1
  -5   0  -3 0.15513 3.43547   2
  -5   0  -4 20.7072 4.43052   1
  -5   0  -4 16.8045 5.07369   2
   5   0   5 25.7184 4.59827   1
  -5   0  -5 12.6824 3.70477   1
  -5   0  -5 15.5831 4.83497   2
  -5   0  -6 15.0706 4.21007   1
   5   0   6 11.1943 3.75133   1
  -5   0  -6 16.0967 5.80808   2
  -5   0  -7 34.6851 5.13390   1
   5   0   7 42.7734 5.38594   1
  -5   0  -7 28.0606 7.14618   2
   5   0   8-1.31260 3.45769   1
  -5   0  -8-1.13997 6.81351   2
  -5   0  -8-0.51998 3.96927   1
  -5   0  -9 64.0162 5.89196   1
  -5   0  -9 74.7520 11.2201   2
  -5  -1  12-10.0144 6.82998   1
  -5  -1  12-3.40032 7.06885   1
  -5  -1  11-0.65746 6.00208   1
  -5  -1  11 0.49493 5.54372   1
  -5  -1  10 0.30976 5.47431   1
  -5  -1  10 2.63712 5.00462   1
  -5  -1   9 8.93334 5.09790   1
  -5  -1   9 14.4512 5.84539   1
  -5  -1   8-2.99632 4.57708   1
  -5  -1   7 1.45956 4.49601   1
  -5  -1   6 8.96537 4.84004   1
  -5  -1   5 11.4957 4.65215   1
  -5  -1   4 129.358 9.99778   1
  -5  -1   4 123.343 4.71618   2
  -5  -1   3 65.1022 7.14035   1
  -5  -1   3 58.4126 4.25174   2
  -5  -1   2 3.76726 3.54069   1
  -5  -1   2 5.38684 2.32145   2
  -5  -1   1 21.6248 4.91895   1
  -5  -1   0 194.689 11.1881   1
  -5  -1  -1 34.0607 5.46871   1
   5   1   1 38.6554 5.78298   1
   5   1   2 7.78216 3.64630   1
  -5  -1  -2 8.85492 3.73191   1
   5   1   3 4.23665 3.09659   1
  -5  -1  -3 6.25004 3.63570   1
  -5  -1  -4 8.97231 3.81725   1
   5   1   4 9.54788 3.95361   1
  -5  -1  -5 47.8510 6.17805   1
   5   1   5 52.1011 6.21594   1
  -5  -1  -6 8.41860 4.29851   1
   5   1   6 7.60584 4.58220   1
  -5  -1  -7 8.73600 3.94658   1
   5   1   7 6.38378 3.89319   1
   5   1   8 6.82757 4.67637   1
  -5  -1  -8 15.0811 5.44834   1
  -5  -2  13 27.9066 8.14311   1
  -5  -2  13 11.2172 6.66656   1
  -5  -2  12 3.62671 6.95342   1
  -5  -2  12-2.41086 6.65653   1
  -5  -2  11 0.98383 5.70219   1
  -5  -2  11 4.98079 5.56731   1
  -5  -2  10-1.16366 5.54310   1
  -5  -2  10 11.3060 6.02498   1
  -5  -2   9 10.0339 4.49439   1
  -5  -2   8-3.20946 5.05014   1
  -5  -2   7 18.7646 5.45563   1
  -5  -2   6-0.26092 3.83496   1
  -5  -2   5-0.75067 3.05581   1
  -5  -2   5 2.57599 1.25292   2
  -5  -2   4 17.9402 4.81989   1
  -5  -2   3 39.7398 5.95292   1
  -5  -2   2 26.7415 5.22179   1
   5   2  -2 19.6320 4.95055   1
  -5  -2   1 24.2823 5.37620   1
   5   2  -1 12.0176 3.91416   1
   5   2   0 0.66344 3.60657   1
  -5  -2   0 12.9479 4.40129   1
   5   2   1-4.86990 3.18234   1
  -5  -2  -1 0.81196 3.70752   1
  -5  -2  -2 40.5338 5.94489   1
   5   2   2 33.1736 5.53793   1
   5   2   3 16.6920 4.32634   1
  -5  -2  -3 10.0400 4.35771   1
  -5  -2  -4 31.3218 5.94224   1
   5   2   4 30.6830 5.70005   1
  -5  -2  -5 65.9853 7.38858   1
   5   2   5 56.9716 7.29819   1
  -5  -2  -6-7.19374 4.66815   1
   5   2   6-4.61668 5.45078   1
  -5  -2  -7 48.4015 7.36480   1
   5   2   7 46.9669 6.87330   1
  -5  -3  13-21.1573 6.97541   1
  -5  -3  12 0.60452 6.95481   1
  -5  -3  12 0.70016 6.78617   1
  -5  -3  11 19.3101 7.48856   1
  -5  -3  10 8.99440 7.03140   1
  -5  -3   9 1.51747 4.30287   1
  -5  -3   8 11.2544 4.85922   1
  -5  -3   7 3.41631 4.37744   1
  -5  -3   6 3.15188 4.51679   1
  -5  -3   5-3.11518 4.52734   1
  -5  -3   4 6.76134 4.70136   1
  -5  -3   3 13.0824 5.02296   1
   5   3  -3 12.6095 4.70333   1
   5   3  -2-2.27164 4.11128   1
  -5  -3   2 5.13385 4.12275   1
   5   3  -1 3.46064 4.39656   1
  -5  -3   1-0.84132 3.82138   1
   5   3   0 8.92653 4.60410   1
  -5  -3   0 1.85290 4.22942   1
  -5  -3  -1 38.8611 6.50043   1
   5   3   1 26.4593 5.89884   1
  -5  -3  -2 35.7279 6.29523   1
   5   3   2 19.2477 5.26249   1
  -5  -3  -3 3.67210 4.10000   1
   5   3   3 9.03967 4.54513   1
  -5  -3  -4 20.2295 6.26063   1
   5   3   4 25.2934 6.20084   1
  -5  -3  -5 29.4338 6.62649   1
   5   3   5 38.6060 6.91113   1
  -5  -3  -6 5.15526 5.60983   1
   5   3   6-7.83684 5.62784   1
  -5  -4  12 16.4010 8.06139   1
  -5  -4  11 19.8183 7.03906   1
  -5  -4  10 29.8383 7.80431   1
  -5  -4   9-1.62892 4.88394   1
  -5  -4   8 4.63143 5.08221   1
  -5  -4   8 0.94577 0.84764   2
  -5  -4   7 2.81896 5.43533   1
  -5  -4   7-1.13104 1.68679   2
  -5  -4   6 4.85195 3.72279   1
  -5  -4   5 3.18241 4.15440   1
   5   4  -5-3.20329 5.10048   1
   5   4  -4 7.64349 4.75501   1
  -5  -4   4 6.30603 4.01498   1
   5   4  -3-1.40838 4.67839   1
  -5  -4   3 1.00004 4.42117   1
   5   4  -2 8.74430 5.16182   1
  -5  -4   2 10.5979 5.24286   1
   5   4  -1 5.85666 4.76367   1
  -5  -4   1 14.7577 4.84516   1
  -5  -4   0-3.09721 4.21347   1
   5   4   0-1.21354 4.25218   1
  -5  -4  -1 28.7255 6.06417   1
   5   4   1 29.2012 6.92684   1
  -5  -4  -2 15.8318 5.98048   1
   5   4   2 15.8381 5.63597   1
   5   4   3 21.2639 6.61692   1
  -5  -4  -3 11.5605 5.89085   1
  -5  -4  -4 64.7035 8.64425   1
   5   4   4 67.1329 8.85328   1
   5   4   5 3.74027 5.85471   1
  -5  -4  -5-0.21636 5.59816   1
  -5  -5  12-1.43328 6.92877   1
  -5  -5  11 4.48281 6.48224   1
  -5  -5  10 20.5501 6.97956   1
  -5  -5   9-2.49560 5.55802   1
  -5  -5   9 1.04991 1.74552   2
  -5  -5   8 10.8334 6.75463   1
  -5  -5   8-0.14572 2.48943   2
  -5  -5   7 4.68533 5.38067   1
  -5  -5   7 10.8847 3.40676   2
   5   5  -6 1.82174 5.19685   1
  -5  -5   6 6.31625 5.17228   1
   5   5  -5-6.61233 5.82820   1
  -5  -5   5 0.59037 4.87646   1
   5   5  -4 6.90100 5.76587   1
  -5  -5   4 2.25251 4.71964   1
   5   5  -3 12.4696 5.38078   1
  -5  -5   3 25.9858 6.71784   1
  -5  -5   2 11.9287 5.84592   1
   5   5  -2 11.0001 5.38199   1
  -5  -5   1 36.2522 7.40369   1
   5   5  -1 41.4492 7.30760   1
   5   5   0 15.6194 6.53244   1
  -5  -5   0 4.52959 5.34566   1
  -5  -5  -1 95.4797 10.4197   1
   5   5   1 57.6580 8.68639   1
   5   5   2-9.28172 6.38975   1
  -5  -5  -2 14.6955 6.22719   1
   5   5   3 7.77007 6.70868   1
  -5  -5  -3 3.04827 6.37743   1
   5   5   4-12.2084 6.73974   1
  -5  -5  -4-5.21782 5.90401   1
  -5  -6  11 13.3448 6.64033   1
  -5  -6  10 11.7418 6.89597   1
  -5  -6   9 11.5339 7.99757   1
  -5  -6   9 0.36239 3.22851   2
  -5  -6   8 2.79709 3.59396   2
  -5  -6   8-5.25277 6.36178   1
   5   6  -7-2.31948 6.27967   1
  -5  -6   7-1.02445 3.42556   2
  -5  -6   7 3.91885 5.85772   1
   5   6  -6 0.64952 5.58563   1
  -5  -6   6 1.12319 5.98001   1
   5   6  -5 3.85621 5.68282   1
  -5  -6   5 7.55122 5.54431   1
   5   6  -4-0.80725 5.83060   1
  -5  -6   4-1.34145 4.69335   1
  -5  -6   3-8.52545 6.51800   1
   5   6  -3-2.50900 4.92343   1
  -5  -6   2 48.5208 8.87378   1
   5   6  -2 62.8600 9.57217   1
   5   6  -1-8.21883 6.98030   1
  -5  -6   1-5.52895 6.94184   1
   5   6   0-8.69955 6.52911   1
  -5  -6   0 30.1157 7.46277   1
   5   6   1 2.00366 6.65359   1
  -5  -6  -1 5.12536 6.96108   1
   5   6   2 19.5961 7.59377   1
  -5  -6  -2 7.18786 7.22493   1
  -5  -7   9 5.20567 4.37484   2
  -5  -7   9 11.6442 7.91489   1
  -5  -7   8 23.3410 5.62774   2
   5   7  -8 40.4734 9.89439   1
  -5  -7   8 21.6967 8.28942   1
   5   7  -7 6.74233 8.26342   1
  -5  -7   7 4.76021 4.74842   2
  -5  -7   7 1.48865 7.29058   1
   5   7  -6 19.5932 8.59000   1
  -5  -7   6 31.9967 8.58551   1
   5   7  -5-2.63914 6.24268   1
  -5  -7   5 9.33297 7.00659   1
  -5  -7   4 2.76591 7.21210   1
   5   7  -4 6.73717 6.87007   1
  -5  -7   3 30.7104 9.26508   1
   5   7  -3 29.7908 8.86070   1
  -5  -7   2 3.17188 6.60893   1
   5   7  -2 5.79305 7.25330   1
   5   7  -1-2.07174 7.40664   1
  -5  -7   1 25.8325 7.96108   1
  -6   6   2 0.43653 4.11457   1
  -6   6   2-13.1211 4.48719   1
  -6   6   1-3.69395 5.80749   1
  -6   6   1-1.21791 6.08236   1
  -6   6   0 3.32634 5.56505   1
  -6   6   0-3.75448 5.05019   1
  -6   6  -1-1.38324 4.58942   1
  -6   6  -1-2.68852 4.81231   1
  -6   6  -2 1.83689 4.55832   1
  -6   6  -2 0.97826 4.78307   1
  -6   6  -3-4.80043 3.96564   1
  -6   6  -3-12.6054 4.35281   1
  -6   5   4-2.53406 6.29506   1
  -6   5   4-4.88962 6.15572   1
  -6   5   3-0.44738 6.66565   1
  -6   5   3 0.29122 6.23958   1
  -6   5   2 3.93711 5.85655   1
  -6   5   2-1.80245 5.86803   1
  -6   5   1 4.73115 5.18263   1
  -6   5   1 5.35621 5.47752   1
  -6   5   0 12.4499 5.62562   1
  -6   5   0 4.82303 5.10054   1
  -6   5  -1 4.38871 4.56255   1
  -6   5  -1-4.52026 4.47988   1
  -6   5  -2-0.72887 4.30160   1
  -6   5  -2-0.80468 4.12800   1
  -6   5  -3-0.25029 3.84645   1
  -6   5  -3 8.61223 5.80594   2
  -6   5  -4 11.8645 4.46149   1
  -6   5  -4 17.8320 6.83036   2
  -6   5  -5-10.9153 5.89505   2
  -6   4   6 2.39474 6.05674   1
  -6   4   6 2.17909 6.62191   1
  -6   4   5 7.74947 6.83366   1
  -6   4   5 9.91690 7.10293   1
  -6   4   4 12.1984 6.48758   1
  -6   4   4-2.04994 6.12921   1
  -6   4   3 4.18077 6.20143   1
  -6   4   3-9.78667 5.91142   1
  -6   4   2 15.1986 5.92761   1
  -6   4   2 17.7561 5.68905   1
  -6   4   1 2.57115 4.30866   1
  -6   4   1 2.06333 4.57826   1
  -6   4   0 4.17285 4.22999   1
  -6   4   0 3.84093 4.58608   1
  -6   4  -1 5.93513 3.84191   2
  -6   4  -1 4.31282 4.37306   1
  -6   4  -1-1.60899 3.96090   1
  -6   4  -2-3.63475 4.13332   1
  -6   4  -2 2.31368 3.73305   1
  -6   4  -2-1.01740 4.90967   2
  -6   4  -3 7.71594 4.02222   1
  -6   4  -3 4.82363 3.53044   1
  -6   4  -3 1.00329 5.58676   2
  -6   4  -4 0.79064 3.42896   1
  -6   4  -4 3.61775 5.16922   2
  -6   4  -4 2.66882 3.22402   1
  -6   4  -5 23.5664 3.94411   1
  -6   4  -5 13.6353 7.00681   2
  -6   4  -5 19.6345 3.85736   1
  -6   4  -6 22.3193 5.75370   2
  -6   3   7-0.68246 7.71232   1
  -6   3   7 4.11849 7.42247   1
  -6   3   6 1.04872 7.14577   1
  -6   3   6 1.15360 5.97216   1
  -6   3   5 21.7900 6.11568   1
  -6   3   5 20.2401 7.12404   1
  -6   3   4 10.5163 5.62972   1
  -6   3   4 7.62110 6.26029   1
  -6   3   3 1.08711 4.80699   1
  -6   3   3-0.81410 4.75205   1
  -6   3   2 5.00296 4.66762   1
  -6   3   2-2.04486 4.46367   1
  -6   3   1 14.0745 5.58896   1
  -6   3   1 23.1318 6.07148   1
  -6   3   0 7.23226 4.23093   1
  -6   3   0 10.5667 4.77368   1
  -6   3  -1 2.05786 4.36429   1
  -6   3  -1 2.73794 4.15563   1
  -6   3  -1 2.46027 3.80748   2
  -6   3  -2 2.89512 4.06517   1
  -6   3  -2-2.43888 3.65114   1
  -6   3  -2 0.57383 4.43832   2
  -6   3  -3-0.92607 3.82094   1
  -6   3  -3 5.23595 3.67912   1
  -6   3  -3-2.83388 4.98892   2
  -6   3  -4 12.8776 3.91544   1
  -6   3  -4 23.8637 5.81889   2
  -6   3  -4 12.7233 3.74336   1
  -6   3  -5-0.91802 3.37787   1
  -6   3  -5-0.16701 3.30332   1
  -6   3  -5 0.20906 5.69724   2
  -6   3  -6 14.0359 3.22336   1
  -6   3  -6 16.5424 3.34755   1
  -6   3  -6 10.8496 5.82139   2
  -6   2   8 8.24894 7.16848   1
  -6   2   8 6.52257 7.29667   1
  -6   2   7 2.02135 6.63787   1
  -6   2   7 4.48801 5.96009   1
  -6   2   6 14.6547 5.81251   1
  -6   2   6 2.83704 5.39571   1
  -6   2   5 1.49086 4.78931   1
  -6   2   5-0.89965 5.54310   1
  -6   2   4 3.95090 6.03533   1
  -6   2   4-0.85555 5.69031   1
  -6   2   3 11.4547 5.82774   1
  -6   2   3 4.17279 5.15420   1
  -6   2   2 2.09990 4.54664   1
  -6   2   2 0.64409 4.51809   1
  -6   2   1-0.54139 4.30765   1
  -6   2   1-0.36470 4.25704   1
  -6   2   1-0.20148 3.14229   2
  -6   2   0 15.9931 5.59015   1
  -6   2   0 20.5600 5.37261   1
  -6   2   0 18.8255 4.21688   2
  -6   2  -1-0.16009 3.94681   1
  -6   2  -1 4.89639 4.72466   1
  -6   2  -1 0.64567 3.69353   2
  -6   2  -2 51.4158 6.86190   1
  -6   2  -2 50.9966 7.05705   2
  -6   2  -2 40.4865 6.44199   1
  -6   2  -3 2.36211 3.96313   1
  -6   2  -3 1.97489 4.96017   2
  -6   2  -3 4.19234 4.00519   1
  -6   2  -4 7.78161 3.58499   1
  -6   2  -4 6.50896 4.03601   1
  -6   2  -4 2.94987 5.19282   2
  -6   2  -5 12.5148 4.08020   1
  -6   2  -5 17.4383 4.55545   1
  -6   2  -5 17.9369 6.34620   2
  -6   2  -6 2.09559 3.32608   1
  -6   2  -6 3.94284 3.71251   1
  -6   2  -6 1.61277 6.24562   2
  -6   1   9-1.46070 8.02226   1
  -6   1   9 7.97062 7.08126   1
  -6   1   8-0.08602 7.52385   1
  -6   1   8 3.37072 6.91854   1
  -6   1   7 2.44550 5.35411   1
  -6   1   7-0.24698 5.31932   1
  -6   1   6 8.00054 5.44055   1
  -6   1   6 0.15575 5.10905   1
  -6   1   5 4.20607 5.47239   1
  -6   1   5 0.44471 4.85774   1
  -6   1   4 5.84352 5.01818   1
  -6   1   4-10.0934 5.66299   1
  -6   1   3 64.2339 8.41182   1
  -6   1   3 68.3154 8.40508   1
  -6   1   2 108.490 9.89345   1
  -6   1   2 106.736 6.20715   2
  -6   1   1 70.9683 8.41016   1
  -6   1   1 77.9713 6.23771   2
  -6   1   0-5.46154 4.56939   1
  -6   1   0 4.52465 3.69931   2
  -6   1  -1-3.79415 4.85437   1
  -6   1  -1 5.79690 3.70948   2
  -6   1  -2 5.91284 4.54708   2
  -6   1  -2 3.96782 4.48600   1
  -6   1  -3 9.06281 4.69470   1
  -6   1  -3 12.0657 5.20099   2
  -6   1  -4 5.75998 3.89920   1
  -6   1  -4 7.93132 5.63040   2
  -6   1  -5-3.77707 4.08361   1
  -6   1  -5-4.02099 6.26818   2
  -6   1  -6-19.4386 6.79411   2
  -6   0   9-1.70211 6.64379   1
  -6   0   9-2.42680 7.03685   1
  -6   0   8 7.51076 6.46008   1
  -6   0   8 0.85199 6.77600   1
  -6   0   7 3.49064 6.58212   1
  -6   0   7-0.08157 5.24834   1
  -6   0   6 7.44866 5.72281   1
  -6   0   6 6.41643 5.36688   1
  -6   0   5 28.9557 7.17930   1
  -6   0   4 44.3298 7.23783   1
  -6   0   3 5.74892 5.49338   1
  -6   0   3 1.81641 2.08316   2
  -6   0   2 20.4117 5.51397   1
  -6   0   2 26.4108 3.83767   2
  -6   0   1 32.0107 6.37359   1
  -6   0   1 33.9386 4.96011   2
  -6   0   0 16.0364 5.27896   1
  -6   0   0 12.5907 4.49543   2
  -6   0  -1 12.7322 4.85698   2
  -6   0  -1 7.68468 4.55441   1
  -6   0  -2 8.74027 4.78241   1
  -6   0  -2 6.72726 4.64197   2
  -6   0  -3 0.81560 4.26348   1
  -6   0  -3 6.60561 4.87165   2
  -6   0  -4 18.3268 5.60575   1
  -6   0  -4 18.7745 5.99116   2
  -6   0  -5 4.42218 5.04160   1
  -6   0  -5 4.46359 6.06780   2
  -6  -1   9-4.28005 5.66514   1
  -6  -1   9-1.71308 7.28530   1
  -6  -1   8-1.27965 7.19629   1
  -6  -1   8-0.17271 7.07189   1
  -6  -1   7 1.32264 5.59017   1
  -6  -1   6-1.18494 5.37089   1
  -6  -1   5 12.0253 6.53773   1
  -6  -1   4 3.84570 5.83749   1
  -6  -1   4 7.38491 1.79986   2
  -6  -1   3 13.6911 5.51593   1
  -6  -1   3 8.99094 2.97702   2
  -6  -1   2 12.1763 5.62845   1
  -6  -1   2 8.26004 3.52524   2
  -6  -1   1 9.84986 5.08533   1
  -6  -1   1 7.34804 3.83431   2
  -6  -1   0 28.9298 5.33521   2
  -6  -1   0 21.1304 5.34743   1
  -6  -1  -1 3.61743 5.15098   1
  -6  -1  -1 5.94043 4.73694   2
  -6  -1  -2-0.30443 4.52343   1
  -6  -1  -2-0.35861 4.81550   2
  -6  -1  -3 13.4048 5.62393   1
  -6  -1  -3 17.5402 6.38667   2
  -6  -1  -4 20.6602 5.86135   1
  -6  -1  -4 25.0083 7.53276   2
  -6  -1  -5 14.9942 3.76742   1
  -6  -1  -5 31.3632 6.33180   2
  -6  -2   9 10.2567 7.16923   1
  -6  -2   8-0.95629 7.45416   1
  -6  -2   7-0.16688 6.56449   1
  -6  -2   6 0.80095 6.01480   1
  -6  -2   5 8.03566 6.66558   1
  -6  -2   5 4.95088 1.25578   2
  -6  -2   4 40.5399 8.19896   1
  -6  -2   4 36.9391 3.86454   2
  -6  -2   3 10.0293 6.08802   1
  -6  -2   3 5.99742 3.16366   2
  -6  -2   2-0.85853 5.40931   1
  -6  -2   2 0.47641 3.35221   2
  -6  -2   1-2.16518 5.13903   1
  -6  -2   0 1.84448 4.84093   1
  -6  -2  -1 5.71144 5.11581   1
  -6  -2  -2 23.8562 6.03746   1
   6   2   2 25.1517 6.34601   1
  -6  -2  -3 25.6899 6.82473   1
   6   2   3 19.5108 6.72012   1
  -6  -2  -4 21.8268 5.22635   1
   6   2   4 23.0571 5.34102   1
  -6  -3   9 7.34156 7.07930   1
  -6  -3   8 1.41264 6.64960   1
  -6  -3   7-0.59606 5.93354   1
  -6  -3   6 8.16826 5.66843   1
  -6  -3   6-0.52926 0.62849   2
  -6  -3   5-4.02646 5.39113   1
  -6  -3   5 1.34266 2.37653   2
  -6  -3   4-1.81426 5.47546   1
  -6  -3   3 25.2298 6.73272   1
  -6  -3   2 21.4546 6.68700   1
   6   3  -1 11.3749 5.68545   1
  -6  -3   1 7.00601 5.03948   1
   6   3   0 26.6806 7.65140   1
  -6  -3   0 30.7518 6.71622   1
   6   3   1-0.59987 5.92041   1
  -6  -3  -1-15.8408 7.08871   1
   6   3   2 75.1563 10.4236   1
  -6  -3  -2 59.7496 9.18913   1
  -6  -4   8 2.09243 7.40544   1
  -6  -4   7 2.13041 7.27712   1
  -6  -4   7 8.87994 1.07205   2
  -6  -4   6-5.90608 6.94632   1
  -6  -4   5-2.71898 6.66195   1
  -6  -4   4-3.74694 6.81569   1
   6   4  -3-2.82881 6.50365   1
  -6  -4   3-0.57152 6.70273   1
   6   4  -2-5.53570 6.36351   1
  -6  -4   2 8.09620 6.62938   1
   6   4  -1 0.73718 6.62101   1
  -6  -4   1 7.54338 6.99157   1
  -6  -4   0 43.0679 8.66872   1
   6   4   0-12.4251 6.54299   1
  -6  -4  -1 29.9254 6.65148   1
   6   4   1 33.8017 6.84463   1
  -6  -5   7 15.8341 2.89529   2
  -6  -5   6-1.18862 7.71290   1
  -6  -5   5 1.70299 5.88964   1
   6   5  -4-7.31725 7.22199   1
  -6  -5   4-2.12693 6.38369   1
  -6  -5   3 0.61406 6.35882   1
   0   0   0    0.00    0.00   0
TITL RT_III(1) in P-1
REM P-1 (#2 in standard setting)
CELL 0.71073   4.927195   8.607176  12.152520 108.6171  97.3704  92.7635
ZERR    2.00   0.000547   0.000889   0.001309   0.0097   0.0091   0.0087
LATT  1
SFAC C H N O
UNIT 22.00 20.00 2.00 2.00
TREF
HKLF 4
END
;
_shelx_hkl_checksum              65025
_shelx_res_file
;
TITL RT_III in P-1
    rt_iii(1).res
    created by SHELXL-2018/3 at 11:54:46 on 16-Jan-2019
REM P-1 (#2 in standard setting)
CELL 0.71073 4.927195 8.607176 12.15252 108.6171 97.3704 92.7635
ZERR 2 0.000547 0.000889 0.001309 0.0097 0.0091 0.0087
LATT 1
SFAC C H N O
UNIT 14 26 2 16
EQIV $1 -X,1-Y,-Z
EQIV $2 1+X,+Y,+Z
EQIV $3 2-X,2-Y,1-Z
EQIV $4 +X,-1+Y,+Z
EQIV $5 1-X,1-Y,-Z
EQIV $6 -1+X,-1+Y,+Z
DFIX 0.82 O3 H3
L.S. 10
PLAN  10
SIZE 0.034 0.071 0.434
TEMP 20
HTAB O4 O3_$2
HTAB O1 O7_$3
HTAB N1 O5_$1
HTAB N1 O2_$4
HTAB N1 O4_$5
HTAB N1 O5_$5
HTAB N1 O2_$6
BOND $H
BOND
CONF
fmap 2
acta
SHEL 40 0.8
REM <olex2.extras>
REM <HklSrc "%.\\RT_III(1).hkl">
REM </olex2.extras>
WGHT    0.042600    0.048900
FVAR       0.81124
O3    4    0.269530    0.993723    0.131673    11.00000    0.02045    0.02986 =
         0.03122    0.01203   -0.00102    0.00417
O6    4    0.194105    0.594505    0.065725    11.00000    0.02774    0.03072 =
         0.02959    0.00797   -0.00162   -0.01306
AFIX 147
H6    2    0.076497    0.528802    0.017048    10.50000   -1.20000
AFIX   0
O4    4    0.746739    0.846440    0.030259    11.00000    0.01965    0.03444 =
         0.03110    0.01013    0.00262   -0.00732
AFIX 147
H4    2    0.902047    0.876656    0.067126    11.00000   -1.20000
AFIX   0
O1    4    0.882910    0.976866    0.316684    11.00000    0.02549    0.02783 =
         0.03246    0.00516   -0.01166   -0.00263
AFIX 147
H1    2    0.992913    1.049294    0.364104    11.00000   -1.20000
AFIX   0
O5    4    0.320998    0.636265   -0.092879    11.00000    0.02799    0.04729 =
         0.02393    0.00657   -0.00265   -0.00730
O8    4    0.434626    0.854820    0.440167    11.00000    0.04673    0.02145 =
         0.03363    0.00222   -0.00344    0.00398
AFIX 147
H8    2    0.503776    0.948218    0.478322    10.50000   -1.20000
AFIX   0
O2    4    0.698111    1.188540    0.276509    11.00000    0.03807    0.02204 =
         0.06006    0.01054   -0.01507   -0.00514
C3    1    0.584391    0.780035    0.096110    11.00000    0.01747    0.02172 =
         0.02236    0.00981   -0.00066   -0.00260
AFIX  13
H3A   2    0.699831    0.719641    0.136917    11.00000   -1.20000
AFIX   0
C2    1    0.466695    0.916432    0.187096    11.00000    0.01771    0.02064 =
         0.02193    0.00787   -0.00083   -0.00131
AFIX  13
H2    2    0.375021    0.866781    0.236422    11.00000   -1.20000
AFIX   0
N1    3    0.208737    0.363339    0.230947    11.00000    0.02494    0.02499 =
         0.03291    0.00145   -0.00227   -0.00049
AFIX 137
H1A   2    0.315467    0.365144    0.177492    11.00000   -1.50000
H1B   2    0.034157    0.339115    0.196694    11.00000   -1.50000
H1C   2    0.257848    0.287437    0.263108    11.00000   -1.50000
AFIX   0
O7    4    0.767310    0.777952    0.548778    11.00000    0.05307    0.03357 =
         0.05176    0.00802   -0.02815   -0.01026
C5    1    0.586177    0.750436    0.463322    11.00000    0.02496    0.02536 =
         0.02906    0.00649   -0.00169   -0.00442
C1    1    0.693669    1.044420    0.265571    11.00000    0.02273    0.02300 =
         0.02198    0.00492    0.00009    0.00014
C4    1    0.349928    0.661038    0.013153    11.00000    0.01610    0.01861 =
         0.02717    0.00505   -0.00078    0.00061
C7    1    0.239839    0.526509    0.323134    11.00000    0.02478    0.02444 =
         0.02804   -0.00121    0.00002    0.00208
AFIX  23
H7A   2    0.137858    0.521518    0.385290    11.00000   -1.20000
H7B   2    0.164118    0.606729    0.290071    11.00000   -1.20000
AFIX   0
C6    1    0.536832    0.579943    0.373350    11.00000    0.02615    0.02703 =
         0.03538    0.00459   -0.00201    0.00234
AFIX  23
H6A   2    0.639097    0.576938    0.309723    11.00000   -1.20000
H6B   2    0.608012    0.501825    0.409568    11.00000   -1.20000
AFIX   0
H3    2    0.326090    1.023626    0.084571    11.00000    0.09385
HKLF 4
REM  RT_III in P-1
REM wR2 = 0.1047, GooF = S = 1.033, Restrained GooF = 1.034 for all data
REM R1 = 0.0456 for 1348 Fo > 4sig(Fo) and 0.0793 for all 1966 data
REM 154 parameters refined using 1 restraints
END
WGHT      0.0426      0.0489
REM Highest difference peak  0.213,  deepest hole -0.205,  1-sigma level  0.048
Q1    1   0.1344  0.9254  0.0817  11.00000  0.05    0.21
Q2    1   1.2011  1.0686  0.4181  11.00000  0.05    0.21
Q3    1   0.8618  0.8250  0.5020  11.00000  0.05    0.20
Q4    1   0.5927  0.9786  0.2184  11.00000  0.05    0.19
Q5    1   0.6330  0.8409 -0.0358  11.00000  0.05    0.18
Q6    1   0.0901  0.9663  0.1205  11.00000  0.05    0.17
Q7    1   0.6242  0.9242 -0.0035  11.00000  0.05    0.16
Q8    1   0.7162  0.9560  0.0566  11.00000  0.05    0.16
Q9    1   0.1762  0.4056 -0.0072  11.00000  0.05    0.16
Q10   1   0.1701  0.7203  0.1053  11.00000  0.05    0.15
;
_shelx_res_checksum              91545
loop_
_space_group_symop_operation_xyz
'x, y, z'
'-x, -y, -z'
loop_
_atom_site_type_symbol
_atom_site_label
_atom_site_fract_x
_atom_site_fract_y
_atom_site_fract_z
_atom_site_U_iso_or_equiv
_atom_site_adp_type
_atom_site_calc_flag
_atom_site_occupancy
O O3 0.2695(3) 0.99372(19) 0.13167(14) 0.0271(4) Uani d 1
O O6 0.1941(3) 0.5945(2) 0.06573(13) 0.0309(4) Uani d 1
H H6 0.076497 0.528802 0.017048 0.037 Uiso calc 0.5
O O4 0.7467(3) 0.84644(19) 0.03026(13) 0.0290(4) Uani d 1
H H4 0.902047 0.876656 0.067126 0.035 Uiso calc 1
O O1 0.8829(3) 0.97687(18) 0.31668(14) 0.0314(4) Uani d 1
H H1 0.992913 1.049294 0.364104 0.038 Uiso calc 1
O O5 0.3210(3) 0.6363(2) -0.09288(13) 0.0353(4) Uani d 1
O O8 0.4346(4) 0.85482(19) 0.44017(14) 0.0364(4) Uani d 1
H H8 0.503776 0.948218 0.478322 0.044 Uiso calc 0.5
O O2 0.6981(3) 1.1885(2) 0.27651(16) 0.0431(5) Uani d 1
C C3 0.5844(4) 0.7800(2) 0.09611(17) 0.0204(5) Uani d 1
H H3A 0.699831 0.719641 0.136917 0.024 Uiso calc 1
C C2 0.4667(4) 0.9164(2) 0.18710(18) 0.0203(5) Uani d 1
H H2 0.375021 0.866781 0.236422 0.024 Uiso calc 1
N N1 0.2087(4) 0.3633(2) 0.23095(16) 0.0303(5) Uani d 1
H H1A 0.315467 0.365144 0.177492 0.045 Uiso calc 1
H H1B 0.034157 0.339115 0.196694 0.045 Uiso calc 1
H H1C 0.257848 0.287437 0.263108 0.045 Uiso calc 1
O O7 0.7673(4) 0.7780(2) 0.54878(17) 0.0514(6) Uani d 1
C C5 0.5862(5) 0.7504(3) 0.4633(2) 0.0278(5) Uani d 1
C C1 0.6937(4) 1.0444(3) 0.26557(18) 0.0235(5) Uani d 1
C C4 0.3499(4) 0.6610(3) 0.01315(19) 0.0216(5) Uani d 1
C C7 0.2398(5) 0.5265(3) 0.3231(2) 0.0285(5) Uani d 1
H H7A 0.137858 0.521518 0.385290 0.034 Uiso calc 1
H H7B 0.164118 0.606729 0.290071 0.034 Uiso calc 1
C C6 0.5368(5) 0.5799(3) 0.3733(2) 0.0315(6) Uani d 1
H H6A 0.639097 0.576938 0.309723 0.038 Uiso calc 1
H H6B 0.608012 0.501825 0.409568 0.038 Uiso calc 1
H H3 0.326(7) 1.024(5) 0.085(3) 0.094(14) Uiso d 1
loop_
_atom_site_aniso_label
_atom_site_aniso_U_11
_atom_site_aniso_U_22
_atom_site_aniso_U_33
_atom_site_aniso_U_12
_atom_site_aniso_U_13
_atom_site_aniso_U_23
O3 0.0204(8) 0.0299(9) 0.0312(9) 0.0042(7) -0.0010(7) 0.0120(8)
O6 0.0277(9) 0.0307(10) 0.0296(9) -0.0131(7) -0.0016(7) 0.0080(8)
O4 0.0196(8) 0.0344(9) 0.0311(9) -0.0073(7) 0.0026(7) 0.0101(8)
O1 0.0255(9) 0.0278(9) 0.0325(9) -0.0026(7) -0.0117(7) 0.0052(7)
O5 0.0280(9) 0.0473(11) 0.0239(9) -0.0073(8) -0.0026(7) 0.0066(8)
O8 0.0467(11) 0.0214(9) 0.0336(10) 0.0040(8) -0.0034(8) 0.0022(8)
O2 0.0381(10) 0.0220(9) 0.0601(12) -0.0051(7) -0.0151(9) 0.0105(9)
C3 0.0175(10) 0.0217(11) 0.0224(11) -0.0026(8) -0.0007(9) 0.0098(10)
C2 0.0177(10) 0.0206(11) 0.0219(11) -0.0013(9) -0.0008(9) 0.0079(9)
N1 0.0249(10) 0.0250(11) 0.0329(11) -0.0005(8) -0.0023(9) 0.0014(9)
O7 0.0531(12) 0.0336(11) 0.0518(12) -0.0103(9) -0.0282(10) 0.0080(9)
C5 0.0250(12) 0.0254(12) 0.0291(12) -0.0044(10) -0.0017(10) 0.0065(10)
C1 0.0227(11) 0.0230(12) 0.0220(11) 0.0001(9) 0.0001(9) 0.0049(10)
C4 0.0161(11) 0.0186(11) 0.0272(12) 0.0006(8) -0.0008(9) 0.0050(9)
C7 0.0248(12) 0.0244(12) 0.0280(12) 0.0021(9) 0.0000(10) -0.0012(10)
C6 0.0262(12) 0.0270(13) 0.0354(13) 0.0023(10) -0.0020(11) 0.0046(11)
loop_
_atom_type_symbol
_atom_type_description
_atom_type_scat_dispersion_real
_atom_type_scat_dispersion_imag
_atom_type_scat_source
C C 0.0033 0.0016 'International Tables Vol C Tables 4.2.6.8 and 6.1.1.4'
H H 0.0000 0.0000 'International Tables Vol C Tables 4.2.6.8 and 6.1.1.4'
N N 0.0061 0.0033 'International Tables Vol C Tables 4.2.6.8 and 6.1.1.4'
O O 0.0106 0.0060 'International Tables Vol C Tables 4.2.6.8 and 6.1.1.4'
loop_
_exptl_crystal_face_index_h
_exptl_crystal_face_index_k
_exptl_crystal_face_index_l
_exptl_crystal_face_perp_dist
0 5 1 0.0120
0 -1 3 0.0420
0 1 -3 0.0290
-7 3 -2 0.1830
3 -1 1 0.2160
0 -5 -1 0.0220
loop_
_geom_angle_atom_site_label_1
_geom_angle_atom_site_label_2
_geom_angle_atom_site_label_3
_geom_angle
C2 O3 H3 112(3)
C4 O6 H6 109.5
C3 O4 H4 109.5
C1 O1 H1 109.5
C5 O8 H8 109.5
O4 C3 H3A 108.9
O4 C3 C2 111.09(16)
O4 C3 C4 109.52(16)
C2 C3 H3A 108.9
C4 C3 H3A 108.9
C4 C3 C2 109.59(17)
O3 C2 C3 110.99(16)
O3 C2 H2 108.3
O3 C2 C1 109.76(16)
C3 C2 H2 108.3
C1 C2 C3 110.99(17)
C1 C2 H2 108.3
H1A N1 H1B 109.5
H1A N1 H1C 109.5
H1B N1 H1C 109.5
C7 N1 H1A 109.5
C7 N1 H1B 109.5
C7 N1 H1C 109.5
O8 C5 C6 114.73(18)
O7 C5 O8 126.0(2)
O7 C5 C6 119.2(2)
O1 C1 C2 111.49(17)
O2 C1 O1 125.2(2)
O2 C1 C2 123.27(18)
O6 C4 C3 113.50(18)
O5 C4 O6 125.5(2)
O5 C4 C3 121.04(19)
N1 C7 H7A 109.5
N1 C7 H7B 109.5
N1 C7 C6 110.91(18)
H7A C7 H7B 108.0
C6 C7 H7A 109.5
C6 C7 H7B 109.5
C5 C6 H6A 108.8
C5 C6 H6B 108.8
C7 C6 C5 113.90(19)
C7 C6 H6A 108.8
C7 C6 H6B 108.8
H6A C6 H6B 107.7
loop_
_geom_bond_atom_site_label_1
_geom_bond_atom_site_label_2
_geom_bond_distance
O3 C2 1.421(2)
O3 H3 0.774(18)
O6 H6 0.8200
O6 C4 1.282(3)
O4 H4 0.8200
O4 C3 1.421(2)
O1 H1 0.8200
O1 C1 1.314(2)
O5 C4 1.225(2)
O8 H8 0.8200
O8 C5 1.271(3)
O2 C1 1.203(2)
C3 H3A 0.9800
C3 C2 1.529(3)
C3 C4 1.526(3)
C2 H2 0.9800
C2 C1 1.520(3)
N1 H1A 0.8900
N1 H1B 0.8900
N1 H1C 0.8900
N1 C7 1.477(3)
O7 C5 1.231(3)
C5 C6 1.510(3)
C7 H7A 0.9700
C7 H7B 0.9700
C7 C6 1.501(3)
C6 H6A 0.9700
C6 H6B 0.9700
loop_
_geom_hbond_atom_site_label_D
_geom_hbond_atom_site_label_H
_geom_hbond_atom_site_label_A
_geom_hbond_site_symmetry_A
_geom_hbond_distance_DH
_geom_hbond_distance_HA
_geom_hbond_distance_DA
_geom_hbond_angle_DHA
_geom_hbond_publ_flag
O4 H4 O3 1_655 0.82 1.97 2.763(2) 163.9 yes
O1 H1 O7 2_776 0.82 1.80 2.612(2) 171.4 yes
N1 H1A O4 2_665 0.89 2.57 3.153(2) 124.0 yes
N1 H1A O5 2_665 0.89 2.18 3.031(3) 160.9 yes
N1 H1B O5 2_565 0.89 2.08 2.917(2) 155.7 yes
N1 H1B O2 1_445 0.89 2.52 3.070(3) 120.2 yes
N1 H1C O2 1_545 0.89 2.37 2.987(2) 126.3 yes
loop_
_geom_torsion_atom_site_label_1
_geom_torsion_atom_site_label_2
_geom_torsion_atom_site_label_3
_geom_torsion_atom_site_label_4
_geom_torsion
O3 C2 C1 O1 -178.80(17)
O3 C2 C1 O2 -0.1(3)
O4 C3 C2 O3 67.8(2)
O4 C3 C2 C1 -54.6(2)
O4 C3 C4 O6 179.53(17)
O4 C3 C4 O5 -0.9(3)
O8 C5 C6 C7 -38.3(3)
C3 C2 C1 O1 -55.7(2)
C3 C2 C1 O2 123.0(2)
C2 C3 C4 O6 -58.4(2)
C2 C3 C4 O5 121.2(2)
N1 C7 C6 C5 176.59(19)
O7 C5 C6 C7 143.4(2)
C4 C3 C2 O3 -53.4(2)
C4 C3 C2 C1 -175.73(16)

_cod_database_fobs_code 2021489
