#------------------------------------------------------------------------------
#$Date: 2019-02-14 05:36:51 +0200 (Thu, 14 Feb 2019) $
#$Revision: 213640 $
#$URL: file:///home/coder/svn-repositories/cod/cif/2/02/14/2021495.cif $
#------------------------------------------------------------------------------
#
# This file is available in the Crystallography Open Database (COD),
# http://www.crystallography.net/. The original data for this entry
# were provided by IUCr Journals, http://journals.iucr.org/.
#
# The file may be used within the scientific community so long as
# proper attribution is given to the journal article from which the
# data were obtained.
#
data_2021495
loop_
_publ_author_name
'Losev, Evgeniy A.'
'Boldyreva, Elena'
_publ_section_title
;
 Concomitant cocrystal and salt: no interconversion in the solid state
;
_journal_coeditor_code           KU3233
_journal_issue                   3
_journal_name_full               'Acta Crystallographica Section C'
_journal_page_first
;
;
_journal_paper_doi               10.1107/S2053229619001372
_journal_volume                  75
_journal_year                    2019
_chemical_formula_iupac          'C3 H7.5 N O2 +, C4 H5.5 O6 -'
_chemical_formula_moiety         'C3 H7.5 N O2 +, C4 H5.5 O6 -'
_chemical_formula_sum            'C7 H13 N O8'
_chemical_formula_weight         239.18
_chemical_name_common            '\b-Alanine--<i>DL</i>-tartaric acid (1/1)'
_chemical_name_systematic        '\b-Alaninium <i>DL</i>-tartarate'
_space_group_crystal_system      triclinic
_space_group_IT_number           2
_space_group_name_Hall           '-P 1'
_space_group_name_H-M_alt        'P -1'
_symmetry_space_group_name_Hall  '-P 1'
_symmetry_space_group_name_H-M   'P -1'
_atom_sites_solution_hydrogens   mixed
_audit_creation_method
;
Olex2 1.2
(compiled 2018.05.29 svn.r3508 for OlexSys, GUI svn.r5506)
;
_cell_angle_alpha                108.411(8)
_cell_angle_beta                 96.813(8)
_cell_angle_gamma                92.501(7)
_cell_formula_units_Z            2
_cell_length_a                   4.9089(5)
_cell_length_b                   8.5742(7)
_cell_length_c                   11.9896(10)
_cell_measurement_reflns_used    2203
_cell_measurement_temperature    175
_cell_measurement_theta_max      29.4470
_cell_measurement_theta_min      2.5230
_cell_volume                     473.67(8)
_computing_cell_refinement
;
CrysAlis PRO (Agilent, 2014)
;
_computing_data_collection
;
CrysAlis PRO (Agilent, 2014)
;
_computing_data_reduction
;
CrysAlis PRO (Agilent, 2014)
;
_computing_molecular_graphics
;
OLEX2 (Dolomanov <i>et al.</i>,  2009)
;
_computing_publication_material
;
OLEX2 (Dolomanov <i>et al.</i>,  2009)
;
_computing_structure_refinement
;
SHELXL2018 (Sheldrick, 2015b)
;
_computing_structure_solution
;
olex2.solve (Bourhis <i>et al.</i>,  2015)
;
_diffrn_ambient_temperature      175
_diffrn_detector                 'CCD plate'
_diffrn_measured_fraction_theta_full 0.999
_diffrn_measured_fraction_theta_max 0.999
_diffrn_measurement_device_type  'Stoe IPDS'
_diffrn_measurement_method       '\w scans'
_diffrn_radiation_monochromator  graphite
_diffrn_radiation_probe          x-ray
_diffrn_radiation_type           MoK\a
_diffrn_radiation_wavelength     0.71073
_diffrn_reflns_av_R_equivalents  0.0572
_diffrn_reflns_av_unetI/netI     0.0626
_diffrn_reflns_limit_h_max       5
_diffrn_reflns_limit_h_min       -6
_diffrn_reflns_limit_k_max       10
_diffrn_reflns_limit_k_min       -10
_diffrn_reflns_limit_l_max       14
_diffrn_reflns_limit_l_min       -14
_diffrn_reflns_number            5870
_diffrn_reflns_theta_full        25.242
_diffrn_reflns_theta_max         26.366
_diffrn_reflns_theta_min         2.513
_diffrn_source                   'Enhance (Mo) X-ray Source'
_exptl_absorpt_coefficient_mu    0.155
_exptl_absorpt_correction_T_max  0.995
_exptl_absorpt_correction_T_min  0.963
_exptl_absorpt_correction_type   gaussian
_exptl_absorpt_process_details
;
(CrysAlis PRO; Agilent, 2014)
;
_exptl_crystal_colour            colourless
_exptl_crystal_density_diffrn    1.677
_exptl_crystal_description       ' '
_exptl_crystal_F_000             252
_exptl_crystal_size_max          0.4338
_exptl_crystal_size_mid          0.071
_exptl_crystal_size_min          0.034
_refine_diff_density_max         0.236
_refine_diff_density_min         -0.296
_refine_ls_extinction_method     none
_refine_ls_goodness_of_fit_ref   1.012
_refine_ls_hydrogen_treatment    mixed
_refine_ls_matrix_type           full
_refine_ls_number_parameters     154
_refine_ls_number_reflns         1931
_refine_ls_number_restraints     0
_refine_ls_restrained_S_all      1.012
_refine_ls_R_factor_all          0.0826
_refine_ls_R_factor_gt           0.0466
_refine_ls_shift/su_max          0.000
_refine_ls_shift/su_mean         0.000
_refine_ls_structure_factor_coef Fsqd
_refine_ls_weighting_details
'w=1/[\s^2^(Fo^2^)+(0.0422P)^2^+0.1465P] where P=(Fo^2^+2Fc^2^)/3'
_refine_ls_weighting_scheme      calc
_refine_ls_wR_factor_gt          0.0922
_refine_ls_wR_factor_ref         0.1028
_reflns_number_gt                1332
_reflns_number_total             1931
_reflns_threshold_expression     'I > 2\s(I)'
_cod_data_source_file            ku3233sup1.cif
_cod_data_source_block           175_salt_heating
_cod_original_cell_volume        473.67(7)
_cod_database_code               2021495
_shelx_space_group_comment
;
The symmetry employed for this shelxl refinement is uniquely defined
by the following loop, which should always be used as a source of
symmetry information in preference to the above space-group names.
They are only intended as comments.
;
_shelx_estimated_absorpt_t_min   0.936
_shelx_estimated_absorpt_t_max   0.995
_shelx_hkl_file
;
   0   0   2 72.7160 2.97328   1
   0   0  -2 73.1625 3.00101   1
   0   0  -3 117.732 4.58584   1
   0   0   3 122.088 4.61296   1
   0   0  -4 59.9569 4.00543   1
   0   0   4 58.5151 3.90293   1
   0   0   5 325.908 9.53567   1
   0   0  -5 310.941 9.49020   1
   0   0   6 115.556 6.57016   1
   0   0  -6 99.3516 6.21717   1
   0   0   7 50.7774 5.14124   1
   0   0  -7 51.3640 5.24484   1
   0   0   8 46.4327 5.62735   1
   0   0  -8 39.5968 5.24380   1
   0   0  -9 107.470 8.39620   1
   0   0   9 115.670 8.46953   1
   0   0 -10 8.67598 4.87713   1
   0   0  10 15.5657 5.01299   1
   0   0  11 65.8862 8.26446   1
   0   0 -11 59.4483 7.84104   1
   0   0 -12-0.72556 5.72711   1
   0   0  12-4.60642 6.32057   1
   0   0 -13-4.77164 6.98510   1
   0   0  13 4.77732 7.29994   1
   0   0 -13 17.3830 8.08184   2
   0   0 -14 27.4198 9.69429   1
   0   0  14 23.8955 9.64453   1
   0   0 -14 28.4087 10.9028   2
   0   0 -15-13.7150 12.1580   2
   0   0 -15 22.5807 10.8765   1
   0   0  15 6.31483 10.8885   1
   0  -1  16 16.6354 10.3282   1
   0   1 -16-25.5429 13.8365   2
   0   1 -15 15.1236 10.9196   2
   0  -1  15 16.1272 8.90854   1
   0   1 -15 37.4939 10.6408   1
   0  -1  14 17.6384 7.76679   1
   0   1 -14 6.65363 7.90219   1
   0   1 -14 12.4884 8.83522   2
   0   1 -13 76.0714 9.77466   1
   0  -1  13 80.9470 9.61015   1
   0   1 -13 107.224 12.0260   2
   0   1 -12 23.0173 6.83488   1
   0   1 -12 28.7852 7.48321   2
   0  -1  12 26.8517 6.53899   1
   0  -1  11 8.98680 4.81976   1
   0   1 -11 12.3442 5.21752   1
   0   1 -11 22.2133 5.83696   2
   0   1 -10 36.9805 5.80381   1
   0   1 -10 40.0036 6.61041   2
   0  -1  10 38.0404 5.69885   1
   0   1  -9 0.18962 3.69365   2
   0   1  -9-0.53986 3.38678   1
   0  -1   9 1.81626 3.02677   1
   0  -1   8 15.4131 3.50480   1
   0   1  -8 15.1503 3.68730   1
   0   1  -8 17.4957 4.19680   2
   0   1  -7 25.4436 4.06357   2
   0  -1   7 30.0457 3.80146   1
   0   1  -7 23.2387 3.67329   1
   0  -1   6 4.66965 2.22605   1
   0   1  -6 7.91341 2.53273   1
   0   1  -6 7.92081 2.73868   2
   0  -1   5 19.7269 2.63839   1
   0   1  -5 18.1548 2.54024   1
   0   1  -5 18.5776 2.93693   2
   0   1  -4 7.34732 2.10436   2
   0   1  -4 5.06564 1.64888   1
   0  -1   4 5.49626 1.61194   1
   0   1  -3 2180.18 19.0473   2
   0   1  -3 2213.52 15.9721   1
   0  -1   3 2185.30 15.6040   1
   0   1  -2 290.234 6.11084   2
   0  -1   2 304.247 6.24470   2
   0   1  -2 293.889 4.63858   1
   0  -1   2 287.378 4.61830   1
   0  -1   1 10.2376 1.13579   1
   0   1  -1 13.4409 1.60051   2
   0  -1   1 11.6871 1.51505   2
   0   1  -1 10.8172 1.14296   1
   0  -1   0 201.505 4.46886   1
   0   1   0 196.777 4.43051   1
   0   1   0 194.836 4.46706   2
   0  -1   0 194.201 4.46138   2
   0  -1  -1 108.152 4.17385   1
   0  -1  -1 104.481 3.86756   2
   0   1   1 104.269 3.86721   2
   0   1   1 103.041 4.10561   1
   0  -1  -2 38.9375 3.00193   2
   0  -1  -2 44.4934 3.35843   1
   0   1   2 40.8547 3.16571   1
   0   1   3 245.079 7.89447   1
   0  -1  -3 237.171 7.79006   1
   0   1   4 156.121 7.11300   1
   0  -1  -4 144.136 6.87632   1
   0   1   5 20.2664 3.63944   1
   0  -1  -5 22.4009 3.77004   1
   0  -1  -6 305.194 11.7101   1
   0   1   6 312.882 11.6850   1
   0   1   7 1083.22 22.8755   1
   0  -1  -7 987.811 22.2364   1
   0  -1  -8 1.31249 3.90440   1
   0   1   8-2.27791 3.88652   1
   0  -1  -9 4.85219 4.72470   1
   0   1   9 10.8299 4.83675   1
   0  -1 -10-0.80408 5.33000   1
   0   1  10-7.95814 5.63851   1
   0   1  11 14.8360 6.85434   1
   0  -1 -11 2.88057 6.22470   1
   0  -1 -12 4.27237 7.14031   1
   0   1  12 3.66940 7.10925   1
   0  -1 -12 4.29081 7.91894   2
   0  -1 -13 20.7636 8.88722   1
   0  -1 -13 16.7609 9.46677   2
   0   1  13 27.0293 8.62017   1
   0  -1 -14 24.9051 11.7995   1
   0   1  14-9.23851 9.50093   1
   0  -1 -14 2.38558 11.4411   2
   0  -1 -15-8.11989 12.2220   1
   0  -1 -15 7.60847 13.4417   2
   0  -1 -15 1.16198 12.5162   2
   0   1  15 9.65754 11.6868   1
   0   2 -16 113.719 16.4500   2
   0  -2  16 96.5498 12.1195   1
   0  -2  16 76.1558 12.0501   1
   0  -2  15 39.7717 9.46212   1
   0   2 -15 56.0954 12.2091   2
   0  -2  15 48.2615 9.42384   1
   0   2 -14 23.7648 9.19524   2
   0  -2  14 21.5634 6.95658   1
   0  -2  14 12.0499 6.55657   1
   0  -2  13 52.8176 7.38023   1
   0   2 -13 50.2915 8.99280   2
   0  -2  13 56.3449 7.77130   1
   0  -2  12 3.94436 4.84289   1
   0   2 -12-0.59236 5.83079   2
   0   2 -11 166.917 11.7821   2
   0  -2  11 188.982 10.1860   1
   0   2 -10 98.2901 8.68941   2
   0  -2  10 87.0980 6.81918   1
   0  -2   9 1.33625 2.68501   1
   0   2  -9-3.20802 3.83818   2
   0   2  -8 109.761 7.80909   2
   0  -2   8 116.999 6.49394   1
   0   2  -7 49.9021 5.27851   2
   0  -2   7 50.2270 4.04477   1
   0  -2   7 53.0486 4.29925   1
   0   2  -6 163.761 7.89270   2
   0  -2   6 168.316 6.35013   1
   0  -2   6 162.090 6.08919   1
   0  -2   5 103.828 4.48655   1
   0   2  -5 112.283 6.14005   2
   0  -2   5 102.490 5.80212   2
   0  -2   5 103.608 4.60319   1
   0  -2   4 42.2486 2.89198   1
   0  -2   4 46.4030 2.88005   1
   0   2  -4 47.7011 3.95452   2
   0  -2   4 42.1414 3.74173   2
   0  -2   3 113.672 3.96438   1
   0   2  -3 110.225 5.18178   2
   0  -2   3 108.158 5.09207   2
   0   2  -3 108.298 3.90217   1
   0   2  -2 2930.20 23.6708   2
   0  -2   2 2945.35 19.5214   1
   0   2  -2 2947.46 19.6277   1
   0  -2   2 2937.58 23.6726   2
   0  -2   1 13.8864 2.02509   1
   0  -2   1 10.9805 2.22518   2
   0   2  -1 13.5243 2.23636   2
   0   2  -1 10.7847 1.93073   1
   0   2   0 21.2110 2.49893   1
   0   2   0 25.0136 2.74636   2
   0  -2   0 20.1990 2.60041   2
   0  -2   0 23.5022 2.75112   1
   0   2   1 185.930 6.78164   1
   0  -2  -1 187.387 6.63220   2
   0  -2  -1 199.046 7.10440   1
   0   2   1 187.878 6.64929   2
   0  -2  -2 81.4643 4.95428   2
   0   2   2 84.4817 5.32011   1
   0   2   2 76.3884 4.86244   2
   0  -2  -2 74.7183 5.04324   1
   0  -2  -3 409.337 11.9758   1
   0   2   3 418.556 12.1075   1
   0  -2  -3 392.678 11.1200   2
   0   2   4 1109.46 21.0241   1
   0  -2  -4 1097.83 19.8518   2
   0  -2  -4 1096.97 20.9176   1
   0   2   5-4.33694 3.18549   1
   0  -2  -5 1.34054 3.02912   2
   0  -2  -5-1.14391 3.05565   1
   0   2   6 115.523 8.41544   1
   0  -2  -6 117.669 8.47754   1
   0  -2  -6 123.332 8.21333   2
   0  -2  -7 4.00888 4.20211   1
   0   2   7 4.65856 4.13542   1
   0  -2  -7 1.33040 3.84332   2
   0  -2  -8 42.1981 6.79657   1
   0  -2  -8 47.8871 6.84913   2
   0   2   8 55.8482 7.33288   1
   0  -2  -9 54.1739 7.68024   2
   0   2   9 35.8546 6.98400   1
   0  -2  -9 52.4696 8.08263   1
   0  -2 -10 85.1421 9.86105   2
   0  -2 -10 72.5912 9.73975   1
   0   2  10 71.8699 9.21949   1
   0  -2 -11 56.1548 9.51679   1
   0   2  11 64.6630 9.77369   1
   0  -2 -11 66.9292 9.82650   2
   0   2  12 19.1058 8.50618   1
   0  -2 -12 37.4645 9.73510   2
   0  -2 -12 27.7157 9.86942   1
   0  -2 -13 17.6900 11.0104   2
   0   2  13 6.07858 9.63523   1
   0  -2 -13 12.4625 10.5716   1
   0  -2 -14 19.4170 13.4469   1
   0   2  14 14.1298 11.6710   1
   0  -2 -14 24.4936 12.7320   2
   0   3 -16 5.58460 13.1899   2
   0  -3  16-8.96418 8.62101   1
   0  -3  16 0.31020 8.02504   1
   0  -3  15 82.0160 9.75481   1
   0   3 -15 81.9028 13.4341   2
   0  -3  15 49.0648 8.69144   1
   0   3 -14 5.04888 7.92981   2
   0  -3  14 14.3939 6.25836   1
   0  -3  14 1.00045 5.39058   1
   0  -3  13 103.424 8.47015   1
   0   3 -13 121.042 12.2034   2
   0  -3  13 123.673 9.18267   1
   0  -3  12 20.7494 5.07261   1
   0  -3  12 33.8200 5.67574   1
   0   3 -12 30.0568 7.48448   2
   0  -3  11 6.99797 3.84476   1
   0  -3  11 4.67994 3.70854   1
   0   3 -11 15.9034 5.58972   2
   0  -3  10 21.3426 4.07983   1
   0   3 -10 21.6153 5.66778   2
   0  -3  10 26.6754 4.21972   1
   0  -3   9 51.7603 4.80951   1
   0   3  -9 38.5627 5.85216   2
   0  -3   9 45.0580 4.63286   1
   0  -3   8 23.3465 3.35783   1
   0  -3   8 22.4713 3.29277   1
   0   3  -8 25.9433 4.76400   2
   0  -3   7 512.505 11.3243   1
   0  -3   7 524.997 11.6497   1
   0   3  -7 538.519 15.6031   2
   0  -3   6 14.0417 2.52489   1
   0  -3   6 17.2969 3.70646   2
   0  -3   6 14.4013 2.42783   1
   0   3  -6 18.7817 3.82893   2
   0  -3   5 94.1804 6.20772   2
   0   3  -5 86.7025 4.39412   1
   0   3  -5 93.8429 6.18784   2
   0  -3   5 90.6792 4.47610   1
   0  -3   4 162.585 7.43359   2
   0   3  -4 157.791 5.70182   1
   0   3  -4 166.267 7.57202   2
   0  -3   4 158.425 5.65065   1
   0  -3   3 262.606 8.96965   2
   0  -3   3 265.226 7.34082   1
   0   3  -3 274.908 9.18262   2
   0   3  -3 264.337 7.38181   1
   0  -3   2 0.11674 2.05143   2
   0  -3   2 0.91409 1.75321   1
   0   3  -2 3.83612 1.90719   1
   0   3  -2 0.13355 2.12858   2
   0  -3   1 63.4583 4.41208   1
   0   3  -1 63.5767 4.74429   2
   0  -3   1 58.7463 4.52323   2
   0   3  -1 61.1988 4.25692   1
   0  -3   0 14.5962 3.02533   2
   0   3   0 12.2179 2.84234   1
   0   3   0 17.1348 3.13145   2
   0  -3   0 13.3564 2.92401   1
   0   3   1 1258.11 20.3563   1
   0  -3  -1 1236.75 19.8949   2
   0  -3  -1 1283.01 21.0186   1
   0   3   1 1232.95 19.9302   2
   0   3   2 747.697 16.9461   1
   0   3   2 707.785 15.9979   2
   0  -3  -2 703.251 16.7485   1
   0  -3  -2 710.695 15.9450   2
   0   3   3 7.85879 3.18774   2
   0  -3  -3 0.25891 2.63678   2
   0   3   3 7.28668 3.20442   1
   0  -3  -3 7.57598 3.44258   1
   0  -3  -4 43.6503 5.67724   1
   0   3   4 39.5565 5.46430   1
   0  -3  -4 34.4519 4.88963   2
   0  -3  -5 36.4090 5.86326   1
   0   3   5 36.4482 5.66388   1
   0  -3  -5 35.8240 5.50773   2
   0  -3  -6 41.0908 6.01224   2
   0   3   6 37.9372 6.16854   1
   0  -3  -6 28.8460 6.02934   1
   0   3   7 58.3813 7.74127   1
   0  -3  -7 54.2983 7.73040   1
   0  -3  -7 64.1110 7.62537   2
   0   3   8 169.141 12.1945   1
   0  -3  -8 130.635 11.4244   1
   0  -3  -8 164.863 11.8123   2
   0  -3  -9 6.28018 5.98548   2
   0  -3  -9-10.5183 7.08948   1
   0   3   9 4.06520 5.88147   1
   0  -3 -10 12.5782 8.16779   1
   0   3  10 7.11513 6.87585   1
   0  -3 -10 19.7751 8.22069   2
   0  -3 -11 16.4716 9.65811   1
   0   3  11 26.2399 8.97548   1
   0  -3 -11 39.8139 10.5121   2
   0  -3 -12 8.17116 11.3970   1
   0  -3 -12 2.07423 10.6104   2
   0   3  12 16.6640 10.8552   1
   0  -3 -13-7.91631 12.7028   2
   0  -3 -13 3.50761 11.9742   1
   0   3  13 6.47042 12.4174   1
   0  -4  16 5.80329 6.90108   1
   0   4 -16 14.7668 12.4195   2
   0  -4  16 8.88225 7.46258   1
   0  -4  15 32.0987 7.15407   1
   0  -4  15 51.4003 7.92386   1
   0  -4  14 2.46110 5.05478   1
   0   4 -14 1.90676 8.32180   2
   0  -4  14 2.38985 5.15384   1
   0   4 -13 6.59067 7.30596   2
   0  -4  13 2.82888 4.54789   1
   0  -4  13-1.06508 4.27977   1
   0  -4  12 13.9114 4.51931   1
   0   4 -12 14.0143 6.97676   2
   0  -4  12 9.40627 4.29731   1
   0  -4  11 48.8447 5.32416   1
   0   4 -11 47.6624 7.92031   2
   0  -4  11 51.0273 5.43190   1
   0  -4  10 17.9806 3.73697   1
   0   4 -10 21.3334 6.18697   2
   0  -4  10 19.3593 3.69357   1
   0  -4   9 34.2652 4.10128   1
   0  -4   9 32.2237 4.11448   1
   0   4  -9 32.3286 6.01533   2
   0  -4   8 6.58291 2.68159   1
   0  -4   8 5.39016 2.49856   1
   0   4  -8 11.1783 4.29041   2
   0  -4   8 13.3468 4.58446   2
   0   4  -7 8.58870 3.73660   2
   0  -4   7 6.77065 2.44735   1
   0  -4   7 7.95642 3.84204   2
   0  -4   7 13.8287 2.93291   1
   0  -4   6 542.842 15.8633   2
   0   4  -6 548.054 16.0267   2
   0   4  -6 559.197 12.0874   1
   0  -4   6 533.139 11.7709   1
   0  -4   5 162.689 6.65002   1
   0  -4   5 168.320 8.82873   2
   0   4  -5 156.814 8.56127   2
   0   4  -5 168.935 6.90546   1
   0  -4   4 0.39772 1.85765   1
   0   4  -4 0.90653 2.74882   2
   0  -4   4-0.04745 2.69283   2
   0   4  -4 4.37453 2.24419   1
   0  -4   3 91.8101 6.48105   2
   0   4  -3 97.9598 5.67153   1
   0  -4   3 96.5484 5.66143   1
   0   4  -3 91.2731 6.41791   2
   0   4  -2 36.2862 4.48176   2
   0  -4   2 38.5435 4.55334   2
   0  -4   2 36.7565 4.03680   1
   0   4  -2 34.7286 3.92366   1
   0  -4   1 321.182 11.3163   2
   0   4  -1 306.869 11.1467   2
   0  -4   1 327.783 11.0914   1
   0   4  -1 321.800 10.8084   1
   0   4   0 22.2047 3.98543   2
   0   4   0 24.3455 4.00705   1
   0  -4   0 15.6761 3.62969   2
   0  -4   0 24.1456 4.00529   1
   0  -4  -1 417.632 13.5558   2
   0   4   1 418.319 13.6459   1
   0  -4  -1 425.373 14.0810   1
   0   4   1 424.048 13.7162   2
   0  -4  -2 78.2334 6.68743   2
   0   4   2 78.1446 6.74288   1
   0   4   2 83.7434 6.91180   2
   0  -4  -2 87.5929 7.27580   1
   0  -4  -3 205.401 10.5757   2
   0   4   3 200.304 10.5294   2
   0  -4  -3 189.273 10.8375   1
   0   4   3 186.224 10.4329   1
   0   4   4 217.134 11.9527   1
   0  -4  -4 217.250 11.3718   2
   0  -4  -4 217.817 12.2496   1
   0   4   5 281.480 14.0932   1
   0  -4  -5 254.215 13.8597   1
   0  -4  -5 290.286 13.7889   2
   0   4   6-0.34402 4.65315   1
   0  -4  -6 4.27107 5.07817   1
   0  -4  -6 3.83405 4.81939   2
   0  -4  -7 122.609 10.7337   2
   0  -4  -7 131.779 11.6304   1
   0   4   7 114.201 10.7679   1
   0   4   8 5.25675 6.42788   1
   0  -4  -8 10.2997 6.89192   1
   0  -4  -8 16.5360 6.68745   2
   0  -4  -9 5.65147 7.36044   2
   0   4   9 2.92702 7.18195   1
   0  -4  -9 1.75189 7.72313   1
   0  -4 -10 11.6537 8.92734   2
   0   4  10 4.79727 8.03267   1
   0  -4 -10 4.84003 8.99826   1
   0  -4 -11 5.13347 9.62538   2
   0  -4 -11 23.5870 11.2838   1
   0   4  11-3.28733 9.76412   1
   0   4  12-4.43456 12.4814   1
   0  -4 -12 2.58582 13.5075   1
   0  -4 -12-19.1046 11.8688   2
   0   4  13 31.0415 10.8837   1
   0  -4 -13 4.88637 8.84082   2
   0  -4 -13 1.35111 9.98603   1
   0  -5  16 2.29078 5.64608   1
   0   5 -16 11.0587 12.7436   2
   0  -5  15 5.18523 5.65881   1
   0   5 -15 9.95810 11.1113   2
   0  -5  15 7.61650 5.54074   1
   0  -5  14 6.42213 4.72470   1
   0  -5  14 13.7602 5.14162   1
   0   5 -14 16.1431 9.14420   2
   0  -5  13 3.16315 4.20622   1
   0  -5  13 1.55912 4.24026   1
   0   5 -13 9.09654 8.19761   2
   0  -5  12 41.7972 5.38692   1
   0  -5  12 47.0646 5.55037   1
   0   5 -12 46.0660 9.28012   2
   0   5 -11 6.15828 5.93718   2
   0  -5  11 0.84690 3.26955   1
   0  -5  11-1.28987 3.39726   1
   0  -5  10 0.14159 2.98042   1
   0   5 -10 0.29893 4.91017   2
   0  -5  10 0.31835 3.16940   1
   0  -5   9 64.7707 7.66573   2
   0   5  -9 57.1460 7.66747   2
   0  -5   9 62.3211 5.21871   1
   0  -5   9 66.6887 5.55019   1
   0  -5   8 261.444 9.91706   1
   0   5  -8 297.663 14.0752   2
   0  -5   8 275.570 9.63814   1
   0  -5   8 282.778 13.5321   2
   0  -5   7 76.9492 7.56959   2
   0  -5   7 63.7538 5.04689   1
   0   5  -7 74.8500 5.45654   1
   0   5  -7 73.2019 7.49053   2
   0  -5   6 85.6306 5.73868   1
   0  -5   6 87.2944 7.52501   2
   0   5  -6 84.8728 5.80474   1
   0   5  -6 80.1424 7.43588   2
   0   5  -5 17.3841 3.49383   1
   0   5  -5 7.73082 3.81539   2
   0  -5   5 6.80362 3.72741   2
   0  -5   5 12.5573 3.08953   1
   0   5  -4 204.490 8.89044   1
   0  -5   4 190.698 8.66331   1
   0  -5   4 196.729 10.2895   2
   0   5  -4 196.123 10.2768   2
   0   5  -3 56.0909 5.30735   1
   0  -5   3 51.6125 5.13202   1
   0  -5   3 52.2643 5.92337   2
   0   5  -3 54.6823 6.06186   2
   0   5  -2 30.3831 5.00040   2
   0   5  -2 29.5329 4.31791   1
   0  -5   2 29.6343 4.85740   2
   0  -5   2 26.6491 4.36022   1
   0  -5   1 89.9190 7.32098   2
   0   5  -1 99.4883 7.68526   2
   0   5  -1 88.1066 6.92762   1
   0  -5   1 82.4531 6.93340   1
   0   5   0 704.897 18.8337   1
   0  -5   0 718.087 19.3544   2
   0   5   0 725.724 19.4986   2
   0  -5   0 668.022 18.9418   1
   0  -5  -1 313.227 13.4111   2
   0  -5  -1 311.683 13.7368   1
   0   5   1 298.151 13.1867   2
   0   5   1 318.349 13.5281   1
   0  -5  -2 28.0524 5.44848   2
   0   5   2 19.8342 4.82260   1
   0  -5  -2 24.1645 5.33610   1
   0   5   2 27.0227 5.39603   2
   0  -5  -3 8.32862 4.77826   1
   0   5   3 2.07590 4.11898   2
   0   5   3 3.56649 4.09042   1
   0  -5  -3 6.44233 4.36178   2
   0   5   4 6.26880 4.67071   1
   0  -5  -4 12.1685 5.56940   1
   0  -5  -4 11.5413 5.05974   2
   0   5   5 409.844 18.5236   1
   0  -5  -5 466.320 18.7921   2
   0  -5  -5 404.358 18.8216   1
   0   5   6 72.6764 9.49893   1
   0  -5  -6 92.3262 10.1210   2
   0  -5  -6 68.7138 10.0430   1
   0  -5  -7 27.3056 7.76382   2
   0   5   7 6.15228 7.20618   1
   0  -5  -7 15.1279 7.61951   1
   0   5   8 53.1632 10.0592   1
   0  -5  -8 39.6444 10.1000   1
   0  -5  -9 33.2130 9.74098   2
   0  -5  -9 22.0667 10.6027   1
   0   5   9 32.7317 10.5584   1
   0  -5 -10 5.37748 11.6207   1
   0  -5 -10 24.0262 10.9902   2
   0   5  10 3.37893 10.0946   1
   0  -5 -11 33.1006 14.9033   1
   0  -5 -11 13.9478 12.3608   2
   0   5  11 7.53325 12.5592   1
   0  -5 -12 1.42440 11.6229   1
   0   5  12-17.8786 12.3067   1
   0   6 -16 6.72450 12.2651   2
   0  -6  16 1.65756 3.98118   1
   0  -6  16-1.23036 3.53912   1
   0  -6  15 12.0497 4.43575   1
   0   6 -15 15.9669 10.8114   2
   0  -6  15 11.4994 4.34182   1
   0   6 -14 10.4720 9.70440   2
   0  -6  14 12.9273 4.42129   1
   0  -6  14 9.00886 4.37664   1
   0  -6  13 13.2948 4.68520   1
   0   6 -13 12.5894 8.74592   2
   0  -6  13 12.8612 4.37564   1
   0  -6  12 76.5379 6.44482   1
   0   6 -12 78.3711 10.8958   2
   0  -6  12 74.3136 6.67663   1
   0  -6  11 95.5106 7.03256   1
   0   6 -11 100.382 11.0584   2
   0  -6  11 96.4543 6.85532   1
   0   6 -10 0.23566 5.55392   2
   0  -6  10 2.70419 3.14330   1
   0  -6  10 0.07114 3.50332   1
   0  -6  10 1.05382 5.80023   2
   0  -6   9 115.259 7.65295   1
   0  -6   9 139.996 7.77186   1
   0   6  -9 159.285 11.9123   2
   0  -6   9 144.603 11.3279   2
   0   6  -8 46.0840 7.26036   2
   0   6  -8 41.2941 4.96052   1
   0  -6   8 34.8203 4.60836   1
   0  -6   8 33.5585 6.52649   2
   0   6  -7 196.794 12.1857   2
   0  -6   7 189.992 9.11866   1
   0  -6   7 184.243 11.7988   2
   0   6  -7 191.452 9.24240   1
   0  -6   6-0.71763 4.23221   2
   0   6  -6-2.90924 3.08314   1
   0   6  -6 0.30196 4.28394   2
   0  -6   6 5.75088 3.47753   1
   0   6  -5 170.481 10.9733   2
   0  -6   5 181.496 11.2601   2
   0   6  -5 179.515 9.35190   1
   0  -6   5 156.418 8.79836   1
   0  -6   4 5.47639 4.32687   2
   0   6  -4 0.54804 4.19685   2
   0   6  -4 5.17595 3.32565   1
   0  -6   4 1.76215 3.40899   1
   0  -6   3 55.7071 6.25325   1
   0  -6   3 68.9695 7.45907   2
   0   6  -3 57.2397 6.96935   2
   0   6  -3 62.0708 6.36589   1
   0   6  -2 92.6277 7.73213   1
   0   6  -2 86.8473 8.16771   2
   0  -6   2 85.6107 8.16735   2
   0  -6   2 81.2279 7.57009   1
   0  -6   1 296.888 13.8951   1
   0   6  -1 301.751 14.1982   2
   0  -6   1 313.999 14.3609   2
   0   6  -1 288.175 13.2210   1
   0  -6   0 64.7725 7.53829   2
   0   6   0 74.8723 7.83767   1
   0   6   0 69.8101 7.83582   2
   0  -6   0 66.5546 7.68000   1
   0   6   1 18.0232 5.41672   1
   0   6   1 18.9438 5.56946   2
   0  -6  -1 19.5242 5.39687   1
   0  -6  -1 17.8161 5.66334   2
   0  -6  -2-0.99271 5.07290   1
   0   6   2-0.38074 4.79619   2
   0  -6  -2 2.17298 4.74158   2
   0   6   2 6.74811 5.29542   1
   0  -6  -3 75.2220 9.03104   2
   0  -6  -3 58.3175 8.52111   1
   0   6   3 73.1429 8.93970   1
   0   6   3 86.6337 9.52679   2
   0   6   4 68.7383 9.08652   1
   0  -6  -4 68.4097 9.87009   1
   0  -6  -4 60.7717 8.77606   2
   0  -6  -5 98.8794 10.7984   2
   0  -6  -5 77.4932 10.8570   1
   0   6   5 72.8716 10.0627   1
   0   6   6 30.6429 8.93749   1
   0  -6  -6 34.5347 9.62184   1
   0  -6  -6 37.8498 8.98518   2
   0   6   7 106.004 12.9001   1
   0  -6  -7 108.428 12.8397   2
   0  -6  -7 83.0400 12.7276   1
   0  -6  -8 25.2634 9.56146   2
   0  -6  -8-3.73106 10.6080   1
   0   6   8 29.5209 10.8659   1
   0  -6  -9 10.4726 10.5941   2
   0   6   9-0.22214 11.5012   1
   0  -6  -9-3.19295 12.8770   1
   0  -6 -10-14.2525 15.0960   1
   0  -6 -10 2.49546 11.6103   2
   0   6  10-18.7241 14.1162   1
   0  -7  15 9.69510 3.53569   1
   0  -7  15-0.65070 3.22073   1
   0   7 -15-10.9400 12.8003   2
   0  -7  14 1.60624 4.25081   1
   0  -7  14 3.51133 4.21295   1
   0  -7  13 14.6430 4.73409   1
   0   7 -13 16.0932 9.36220   2
   0  -7  13 22.3631 4.78283   1
   0   7 -12 10.2398 9.01650   2
   0  -7  12 16.6017 5.36178   1
   0  -7  12 20.1149 4.97603   1
   0  -7  11 67.3136 6.81876   1
   0  -7  11 82.2202 6.79844   1
   0  -7  11 100.800 11.7475   2
   0   7 -11 82.9302 11.2716   2
   0  -7  10 467.164 15.4042   1
   0  -7  10 518.986 15.3676   1
   0  -7  10 532.976 22.2512   2
   0   7 -10 517.514 22.1314   2
   0  -7   9 20.1869 7.00045   2
   0   7  -9 20.8100 7.12088   2
   0   7  -9 16.4907 4.64968   1
   0  -7   9 25.4497 4.90623   1
   0  -7   8 6.92221 5.84266   2
   0   7  -8 2.61821 5.57312   2
   0  -7   8-0.59095 3.58569   1
   0   7  -8 3.20456 4.08330   1
   0  -7   7-0.08849 3.53213   1
   0   7  -7 5.53703 5.61882   2
   0  -7   7 3.03354 5.23978   2
   0   7  -7 3.92652 4.21914   1
   0  -7   6 17.8699 4.88682   1
   0   7  -6 24.7297 5.03671   1
   0   7  -6 17.7706 6.36089   2
   0  -7   6 14.8747 6.25193   2
   0  -7   5 97.7586 9.55943   2
   0   7  -5 97.3610 8.09498   1
   0  -7   5 77.9647 7.60827   1
   0   7  -5 94.1764 9.60727   2
   0   7  -4 42.9706 7.27843   2
   0   7  -4 52.6360 6.71058   1
   0  -7   4 51.9688 7.63016   2
   0  -7   4 46.9143 6.63944   1
   0  -7   3 2.69503 4.86545   2
   0  -7   3-1.07143 4.64677   1
   0   7  -3 5.63220 5.20492   2
   0   7  -3 4.21563 4.31978   1
   0  -7   2 48.9905 7.20411   1
   0   7  -2 60.6014 8.10194   2
   0   7  -2 62.4517 7.49803   1
   0  -7   2 59.8675 8.06168   2
   0   7  -1-3.18104 4.67893   1
   0  -7   1-0.70667 4.80276   2
   0   7  -1 0.98305 5.08059   2
   0  -7   1-2.73821 4.63022   1
   0   7   0 13.1225 5.82477   1
   0  -7   0 2.09286 4.94163   1
   0   7   0 9.08654 5.88464   2
   0  -7   0-0.18118 5.30448   2
   0   7   1 12.9257 6.24961   2
   0  -7  -1 14.7305 6.70355   1
   0  -7  -1 21.3364 6.95394   2
   0   7   1 17.7056 6.20573   1
   0   7   2 3.68261 5.69660   1
   0   7   2 7.48961 6.35453   2
   0  -7  -2-4.24810 5.88448   2
   0  -7  -2 12.2603 6.92525   1
   0  -7  -3 30.1869 8.47425   1
   0   7   3 32.3405 8.39547   1
   0   7   3 34.0644 8.25941   2
   0  -7  -3 44.3521 8.58133   2
   0  -7  -4 17.8806 8.30031   2
   0  -7  -4-2.48360 7.70090   1
   0   7   4 4.36757 7.48554   1
   0   7   5 23.0305 8.51381   1
   0  -7  -5 16.6684 8.31059   2
   0  -7  -5 12.5010 8.59897   1
   0   7   6 24.7291 9.92547   1
   0  -7  -6 19.5974 10.3498   1
   0  -7  -6 17.0968 9.73209   2
   0   7   7 60.2888 12.4282   1
   0  -7  -7 48.9202 12.6124   1
   0  -7  -7 50.3553 11.7490   2
   0  -7  -8-16.3921 11.3634   2
   0   7   8 15.3051 12.7573   1
   0  -7  -8-15.4902 12.0560   1
   0  -7  -9-20.4308 14.0130   2
   0   7   9 3.53224 13.7908   1
   0  -7  -9 11.5652 14.9539   1
   0   8 -15 32.1003 16.0139   2
   0  -8  15 2.56377 2.80862   1
   0  -8  14 40.4170 5.54362   1
   0  -8  14 36.2444 5.25339   1
   0   8 -13 134.544 16.0430   2
   0  -8  13 101.656 8.13865   1
   0  -8  13 129.116 8.70882   1
   0   8 -12 10.1865 9.39376   2
   0  -8  12 29.8136 10.2240   2
   0  -8  12 28.1213 5.65047   1
   0  -8  12 18.7234 5.99902   1
   0  -8  11 4.50710 7.96800   2
   0  -8  11 2.45202 4.70793   1
   0  -8  11 0.94199 5.11282   1
   0   8 -11-5.57190 8.47658   2
   0   8 -10 52.7229 10.4562   2
   0  -8  10 55.9307 10.4311   2
   0   8 -10 34.7917 6.37570   1
   0  -8  10 38.1000 6.17000   1
   0   8  -9 36.7494 9.16650   2
   0   8  -9 35.6730 6.47134   1
   0  -8   9 53.7465 10.0678   2
   0  -8   9 44.9950 6.68324   1
   0  -8   8 5.57350 5.20600   1
   0  -8   8 2.85622 6.85281   2
   0   8  -8-3.60723 5.11532   1
   0   8  -8-4.98651 7.13306   2
   0  -8   7 18.6001 7.38161   2
   0   8  -7 31.2974 6.31235   1
   0  -8   7 22.1566 5.88496   1
   0   8  -7 23.4596 7.66626   2
   0  -8   6 4.39491 6.37594   2
   0   8  -6-1.86186 5.15158   1
   0   8  -6-5.40890 6.24158   2
   0  -8   6 6.98617 5.22817   1
   0  -8   5 101.887 11.1214   2
   0  -8   5 89.9353 9.30469   1
   0   8  -5 95.4140 9.21897   1
   0   8  -5 92.3901 10.7853   2
   0  -8   4 4.55294 5.70998   1
   0  -8   4 6.44178 6.36643   2
   0   8  -4 2.75035 5.05614   1
   0   8  -4-0.82136 5.79361   2
   0   8  -3 273.534 16.4859   2
   0  -8   3 238.648 14.5915   1
   0   8  -3 274.640 15.0867   1
   0  -8   3 278.689 16.4386   2
   0  -8   2 72.5082 9.32629   1
   0  -8   2 83.3343 10.3845   2
   0   8  -2 86.3778 9.83645   1
   0   8  -2 75.6908 10.3526   2
   0  -8   1 1.63478 6.19704   2
   0   8  -1-3.31824 6.14256   2
   0   8  -1 4.34725 5.59088   1
   0  -8   1-6.23636 6.50188   1
   0  -8   0 38.7196 8.73641   2
   0   8   0 42.5784 8.83451   2
   0   8   0 27.0593 7.46738   1
   0  -8   0 39.4993 8.70766   1
   0  -8  -1 18.6678 7.73750   2
   0   8   1 10.2667 7.10216   1
   0   8   1 17.9201 8.21073   2
   0  -8  -1 17.5350 8.14002   1
   0   8   2-3.17597 7.85972   2
   0  -8  -2 11.2186 7.85801   2
   0   8   2 13.3488 8.36171   1
   0  -8  -2 1.26517 8.07408   1
   0   8   3 1.37306 8.37067   2
   0   8   3-4.29610 8.07797   1
   0  -8  -3 11.2938 7.89944   2
   0  -8  -3 11.4611 9.25978   1
   0   8   4 4.66592 9.37680   1
   0  -8  -4 17.9396 10.3512   1
   0  -8  -4-0.85110 8.82373   2
   0  -8  -5 13.9164 10.3875   1
   0   8   5 13.8959 9.75833   1
   0  -8  -5 7.29508 10.3815   2
   0   8   6 14.3443 12.1676   1
   0  -8  -6-9.64615 11.7544   1
   0   8   7 8.97221 13.4646   1
   0  -8  -7 1.86750 12.5317   2
   0  -8  -7 5.98303 14.1213   1
   0   8   8 12.4576 12.6547   1
   0  -8  -8 23.6012 14.2779   1
   0  -8  -8-15.1278 13.3272   2
   0   9 -14 4.83183 14.0011   2
   0  -9  14 6.16630 5.16032   1
   0  -9  14 2.08871 5.35969   1
   0  -9  13-5.48766 6.43340   1
   0  -9  13-1.38623 6.24964   1
   0   9 -12-2.30155 11.3798   2
   0  -9  12 1.55439 6.27883   1
   0  -9  12-3.31697 6.52450   1
   0  -9  12-13.0143 12.2557   2
   0  -9  11 5.86714 10.1740   2
   0  -9  11 5.92114 6.48405   1
   0   9 -11 8.49565 10.5017   2
   0  -9  10 25.5397 10.7395   2
   0   9 -10 26.7763 7.33536   1
   0   9 -10 21.4098 10.9062   2
   0  -9  10 27.2373 6.98960   1
   0  -9   9 13.1559 9.55047   2
   0   9  -9 7.47353 9.10704   2
   0   9  -9-3.30351 6.11470   1
   0  -9   9 2.39517 6.24482   1
   0   9  -8 6.97437 8.42916   2
   0  -9   8-12.0184 8.89288   2
   0  -9   8-8.92813 6.84340   1
   0   9  -8 12.4229 6.47026   1
   0  -9   7 65.8054 8.98380   1
   0   9  -7 58.6359 8.35229   1
   0  -9   7 65.8432 10.9455   2
   0   9  -7 72.9038 11.4837   2
   0  -9   6 196.260 15.9132   2
   0   9  -6 186.127 13.2851   1
   0  -9   6 174.320 13.1511   1
   0   9  -6 189.821 15.7673   2
   0  -9   5-3.42362 6.40152   1
   0  -9   5 3.73524 7.44545   2
   0   9  -5 0.06023 7.58214   2
   0   9  -5-5.05215 6.28067   1
   0  -9   4 33.8409 8.19729   1
   0   9  -4 39.9057 9.79336   2
   0  -9   4 51.4030 10.3822   2
   0   9  -4 33.1949 8.01275   1
   0  -9   3 24.9818 8.31495   1
   0  -9   3 9.86082 8.00497   2
   0   9  -3 5.46349 7.71607   2
   0   9  -3 6.51760 6.97849   1
   0  -9   2 101.463 12.6480   2
   0  -9   2 76.1807 11.0475   1
   0   9  -2 118.161 13.2276   2
   0   9  -2 95.2221 11.7745   1
   0  -9   1-0.12408 8.39810   2
   0  -9   1 2.57905 8.02992   1
   0   9  -1 10.6080 8.26296   2
   0   9  -1-6.52041 8.11050   1
   0   9   0 17.9253 8.42234   1
   0  -9   0 9.24881 9.17804   2
   0   9   0 5.15458 9.09425   2
   0  -9   0 13.1868 9.29938   1
   0   9   1-5.86317 8.82288   2
   0  -9  -1 7.63760 9.19923   2
   0  -9  -1-16.1514 9.35630   1
   0   9   1 2.51375 8.48156   1
   0   9   2 33.7428 10.7262   2
   0   9   2 5.47560 9.68600   1
   0  -9  -2 19.7664 10.5128   1
   0  -9  -2 12.3405 9.40175   2
   0   9   3-4.66862 11.6739   1
   0  -9  -3 5.48078 11.7705   1
   0  -9  -3-3.99776 10.0896   2
   0   9   3 7.62169 11.2162   2
   0   9   4 23.8388 13.0304   1
   0  -9  -4-5.32150 11.1925   2
   0  -9  -4-7.17580 12.0406   1
   0  -9  -5 4.54154 14.1870   1
   0  -9  -5 33.7060 13.0353   2
   0   9   5 38.3683 14.1439   1
   0   9   6 67.0735 17.4913   1
   0  -9  -6 52.3668 18.6337   1
   0  -9  -6 22.5295 15.4084   2
   0 -10  13 3.71626 6.94110   1
   0 -10  13-3.38112 6.51027   1
   0 -10  12-13.6312 14.2011   2
   0 -10  12-9.92243 8.44274   1
   0 -10  12 3.37806 8.59806   1
   0 -10  11 16.2937 8.46472   1
   0  10 -11 11.4393 8.27007   1
   0 -10  11 37.4456 14.0176   2
   0  10 -10-3.26685 11.4987   2
   0  10 -10-2.60756 7.42250   1
   0 -10  10-20.6211 11.8227   2
   0 -10  10 3.78570 8.21679   1
   0  10  -9 31.6914 11.7063   2
   0  10  -9 47.3337 9.52584   1
   0 -10   9 19.3722 8.39638   1
   0 -10   9 14.5307 10.8589   2
   0 -10   8 2.20994 7.57902   1
   0  10  -8-1.86470 7.98970   1
   0 -10   8 8.40191 10.1311   2
   0  10  -8-10.4307 10.4925   2
   0 -10   7 12.4512 10.0104   2
   0 -10   7 1.79203 7.63081   1
   0  10  -7 6.18373 7.55617   1
   0  10  -7 12.5989 10.1063   2
   0  10  -6-17.2245 9.91630   2
   0 -10   6 8.59167 10.0137   2
   0 -10   6-4.98381 8.64968   1
   0  10  -6-7.66269 8.46506   1
   0 -10   5 20.3432 8.88765   1
   0 -10   5 16.4479 10.1948   2
   0  10  -5 5.79051 8.24282   1
   0  10  -5 17.8405 11.0324   2
   0  10  -4 146.790 13.9669   1
   0 -10   4 161.865 16.5970   2
   0 -10   4 130.500 14.0803   1
   0  10  -4 144.725 15.9328   2
   0 -10   3 27.3410 11.1269   2
   0  10  -3 30.6585 11.0391   2
   0 -10   3 27.0355 9.74741   1
   0  10  -3 19.5576 9.16108   1
   0 -10   2 17.1500 10.0906   1
   0 -10   2 51.3631 12.0312   2
   0  10  -2 47.0851 11.0759   1
   0  10  -2 48.3617 12.0154   2
   0  10  -1-4.58228 11.5541   2
   0  10  -1-7.97299 10.0659   1
   0 -10   1 1.30051 10.5237   2
   0 -10   1 20.4872 11.2928   1
   0 -10   0 21.2743 11.2361   2
   0  10   0 18.9271 10.6780   1
   0 -10   0-7.75190 12.2069   1
   0  10   1 17.2568 12.6432   2
   0 -10  -1 47.3736 14.0308   1
   0 -10  -1 57.5235 14.4318   2
   0  10   1 43.6165 13.8378   1
   0  10   2-0.64708 12.8682   2
   0 -10  -2-0.17002 13.3049   1
   0 -10  -2-13.9140 13.5893   2
   0  10   2 14.8376 12.2165   1
   0 -10  -3-7.66510 15.3068   1
   0 -10  -3-4.13096 14.2937   2
   0  10   3 18.9747 12.9184   1
   0 -10  -4 5.76513 12.2328   2
   0  11 -11-22.7580 13.0466   2
   0  11 -10-18.1860 15.5431   2
   0 -11  10 8.17358 14.7370   2
   0 -11  10 6.53244 10.2268   1
   0  11 -10 6.43156 10.1248   1
   0 -11   9 21.9192 10.1785   1
   0 -11   9 7.71860 13.8575   2
   0  11  -9 6.02888 10.1579   1
   0  11  -9 28.3654 13.6109   2
   0  11  -8 24.3122 10.1789   1
   0  11  -8 31.1848 13.3369   2
   0 -11   8 41.1996 13.9817   2
   0 -11   8 32.4669 10.4981   1
   0  11  -7 23.7557 13.7904   2
   0  11  -7-2.22531 10.3320   1
   0 -11   7 1.28872 10.4895   1
   0 -11   7 10.3924 12.3210   2
   0  11  -6 17.1662 10.5612   1
   0 -11   6 16.3472 10.6704   1
   0 -11   6 38.7921 14.6131   2
   0  11  -6 40.1864 14.5042   2
   0  11  -5 68.3567 13.1262   1
   0  11  -5 27.9326 13.9440   2
   0 -11   5 53.2201 15.0099   2
   0 -11   5 50.5048 12.9589   1
   0 -11   4 4.55167 13.1102   2
   0 -11   4-6.06942 11.0027   1
   0  11  -4 5.97940 10.7814   1
   0  11  -4 22.3140 13.8934   2
   0  11  -3 5.49575 11.0975   1
   0  11  -3-5.50870 13.5560   2
   0 -11   3 10.2146 11.8450   1
   0 -11   2 47.0887 14.2551   1
   0  11  -2 66.3249 15.5870   2
   0 -11   2 89.0975 16.6687   2
   0  11  -2 60.4571 13.8277   1
   0 -11   1-15.2011 15.0022   1
   0 -11   1 30.0351 13.8983   2
   0  11  -1 0.94455 14.4745   2
   0  11  -1 9.81306 13.0895   1
   0  11   0 4.64768 15.2639   2
   0 -11   0 22.5555 15.4376   1
   0  11   0-7.16520 13.5611   1
   0 -11   0-10.6416 14.8966   2
   0 -11  -1 36.4807 14.9114   2
   0 -11  -1 48.8200 16.1025   1
   0  11   1 47.5216 15.6983   2
   0  11   1 44.6830 15.7594   1
  -1  11   1 24.5230 16.1393   2
  -1  11   1 5.96213 14.3446   1
   1 -11  -1 27.4725 14.7353   2
   1 -11  -1 30.2280 16.1895   1
  -1  11   0-30.1373 16.6228   2
   1 -11   0 9.49887 14.5209   1
   1 -11   0 16.6985 14.9453   2
  -1  11   0 19.2704 13.4660   1
  -1  11  -1 59.9972 15.6955   2
   1 -11   1 38.7876 13.8708   1
  -1  11  -1 45.6046 13.7980   1
   1 -11   2-7.27652 13.4994   2
  -1  11  -2 24.3462 13.4000   2
   1 -11   2-6.82668 12.3617   1
  -1  11  -2 24.6284 11.8528   1
  -1  11  -3 20.6407 13.7573   2
   1 -11   3 10.9623 11.9715   1
  -1  11  -3 25.6248 11.1001   1
   1 -11   3 0.64016 12.3297   2
  -1  11  -4 5.24504 10.0037   1
   1 -11   4-5.60573 12.6200   2
   1 -11   4 17.9286 11.4797   1
  -1  11  -4-11.1111 12.9941   2
  -1  11  -5 12.8389 10.0164   1
  -1  11  -5 40.2461 14.6097   2
   1 -11   5 18.6713 14.0200   2
   1 -11   5 25.1033 11.2725   1
   1 -11   6-15.1595 12.5974   2
  -1  11  -6 16.1396 13.2363   2
   1 -11   6 1.31375 10.4242   1
  -1  11  -6 21.5956 10.4952   1
  -1  11  -7 14.8519 13.4741   2
   1 -11   7-1.37050 9.36966   1
  -1  11  -7 4.92904 8.93165   1
   1 -11   7 17.5650 13.2930   2
   1 -11   8 18.1453 9.51931   1
   1 -11   8 0.66329 13.4775   2
  -1  11  -8-0.37708 9.39569   1
  -1  11  -8-22.4189 14.4523   2
  -1  11  -9-3.64480 8.90981   1
   1 -11   9-29.6091 16.4476   2
  -1  11  -9-5.81431 15.9410   2
   1 -11   9 21.3910 8.88945   1
  -1  11 -10-19.4323 15.0994   2
   1 -11  10-8.65004 8.06656   1
  -1  11 -10 8.17334 8.28992   1
   1 -10  -4-23.4711 15.4160   2
   1 -10  -4 33.3720 16.0525   1
   1 -10  -3 17.3019 13.7110   2
  -1  10   3-17.1688 14.4125   1
  -1  10   3-10.2313 15.3735   2
   1 -10  -3-7.15529 15.8029   1
  -1  10   2 48.6797 14.3117   1
  -1  10   2 72.6877 15.3109   2
   1 -10  -2 65.4040 15.8478   1
  -1  10   1 29.1146 13.7279   2
   1 -10  -1 2.28818 11.0121   2
   1 -10  -1-1.47443 11.9952   1
  -1  10   1 43.4867 13.0095   1
  -1  10   0 36.1385 11.3073   1
   1 -10   0 25.5829 11.4700   2
  -1  10   0 34.7742 11.8937   2
   1 -10   0 22.6135 10.9361   1
   1 -10   1 54.8558 12.5072   2
  -1  10  -1 25.8789 11.2315   2
  -1  10  -1 48.7469 11.0146   1
   1 -10   1 17.4928 10.4467   1
  -1  10  -2 1.79869 8.57575   1
   1 -10   2 30.7651 10.4671   1
   1 -10   2-0.70155 10.1826   2
  -1  10  -2 1.77306 10.3300   2
  -1  10  -3 19.0129 10.4527   2
   1 -10   3 8.80941 10.1690   2
  -1  10  -3 7.22357 8.14228   1
   1 -10   3 0.83808 8.81553   1
  -1  10  -4 6.06072 7.88388   1
   1 -10   4-10.4866 9.58142   2
  -1  10  -4 9.43273 10.3919   2
   1 -10   4-4.96588 7.79392   1
  -1  10  -5 26.8205 11.0780   2
  -1  10  -5 26.3054 8.60970   1
   1 -10   5 37.9815 9.71044   1
   1 -10   5 37.1851 12.2756   2
   1 -10   6-7.12717 10.0893   2
   1 -10   6 5.47937 7.04138   1
  -1  10  -6-4.62676 7.66722   1
  -1  10  -6-7.90256 9.95805   2
   1 -10   7 22.5591 7.78682   1
  -1  10  -7 3.96067 10.7382   2
  -1  10  -7 7.50211 6.99309   1
   1 -10   7 35.1960 11.2476   2
   1 -10   8 79.7237 13.7966   2
  -1  10  -8 45.9076 8.29293   1
   1 -10   8 58.8145 8.79617   1
  -1  10  -8 43.9033 12.4348   2
   1 -10   9 13.0203 12.2564   2
  -1  10  -9 18.4301 7.41020   1
   1 -10   9 4.35987 6.50487   1
  -1  10 -10 1.07802 6.28336   1
   1 -10  10 3.65087 6.03006   1
   1 -10  10-7.14076 11.9006   2
   1 -10  11 50.1427 15.3437   2
   1 -10  11 21.2222 4.87057   1
  -1  10 -11 57.7994 14.8542   2
  -1  10 -12-3.50296 14.1211   2
   1 -10  12-10.7216 15.2943   2
   1  -9  -6 14.5516 13.9888   2
   1  -9  -6-15.5197 16.3315   1
   1  -9  -5 30.2539 14.3347   1
  -1   9   5 44.3051 13.9192   1
   1  -9  -4 39.6126 14.2737   1
  -1   9   4 60.6229 14.5584   1
   1  -9  -4 56.3822 13.7337   2
  -1   9   4 73.6249 14.1532   2
  -1   9   3 19.4933 10.3674   2
  -1   9   3-2.00639 10.1176   1
   1  -9  -3 16.3363 10.5502   2
   1  -9  -3 15.9841 11.4310   1
  -1   9   2-5.69378 8.78037   1
   1  -9  -2-0.64477 9.75688   1
   1  -9  -2-0.32701 9.02368   2
  -1   9   2 19.8518 9.95174   2
  -1   9   1 15.9345 9.69039   2
   1  -9  -1 14.3890 9.48676   1
   1  -9  -1 20.4508 9.90374   2
  -1   9   1 17.4635 9.40127   1
   1  -9   0 6.05210 8.42236   2
   1  -9   0-8.03466 8.92502   1
  -1   9   0 3.02695 8.70413   2
  -1   9   0-8.46914 8.44046   1
  -1   9  -1 71.7557 11.2903   2
   1  -9   1 84.9006 11.5417   2
   1  -9   1 69.0528 10.8249   1
  -1   9  -1 69.2601 10.3909   1
   1  -9   2 18.7080 8.46497   2
  -1   9  -2 16.8650 8.57536   2
   1  -9   2 0.65073 7.20033   1
  -1   9  -2 9.18157 6.63917   1
   1  -9   3 12.3667 8.11313   2
   1  -9   3 8.31978 6.94265   1
  -1   9  -3 1.88171 7.55373   2
  -1   9  -3 7.04299 6.44258   1
  -1   9  -4 30.6206 7.93227   1
   1  -9   4 31.8953 7.93279   1
  -1   9  -4 36.6260 9.44120   2
   1  -9   4 25.8441 8.91575   2
  -1   9  -5 54.2986 10.6187   2
   1  -9   5 36.9663 9.91440   2
   1  -9   5 23.5882 7.31921   1
  -1   9  -5 41.7676 7.40900   1
  -1   9  -6-0.15327 5.46135   1
  -1   9  -6 6.82308 7.83036   2
   1  -9   6-9.33104 6.03689   1
  -1   9  -7 6.96828 5.41297   1
   1  -9   7 7.19077 7.96011   2
  -1   9  -7 18.3264 9.56152   2
   1  -9   7-1.37434 5.80938   1
   1  -9   8 55.5958 7.41671   1
  -1   9  -8 70.0543 7.88509   1
  -1   9  -8 77.1205 12.3570   2
   1  -9   8 89.6077 12.6510   2
   1  -9   9 38.4011 11.4075   2
  -1   9  -9 36.9149 6.42275   1
  -1   9  -9 40.2172 11.3505   2
   1  -9   9 38.6606 6.33471   1
  -1   9 -10 27.2250 11.3216   2
   1  -9  10 19.1352 4.88151   1
   1  -9  10 36.6424 11.7338   2
   1  -9  11 35.0052 12.0364   2
   1  -9  11 34.5617 3.55774   1
  -1   9 -12 46.4498 14.8192   2
   1  -9  12 26.4752 13.8842   2
  -1   9 -13 15.0038 14.1014   2
   1  -8  -8-2.13465 17.1146   1
  -1   8   8 12.6867 16.3754   1
   1  -8  -8 44.0401 16.0008   2
   1  -8  -7-8.62998 13.6981   1
  -1   8   7 10.8087 12.5830   1
   1  -8  -6 101.463 15.4500   2
   1  -8  -6 56.3573 14.4804   1
  -1   8   6 77.3499 15.2953   1
  -1   8   5 28.0487 11.2893   1
   1  -8  -5 27.6789 10.0788   2
   1  -8  -5 19.5251 11.1377   1
  -1   8   4 6.42651 8.68483   1
   1  -8  -4 2.46196 8.11343   2
  -1   8   4-5.26849 8.73301   2
   1  -8  -4 0.57177 9.04045   1
  -1   8   3 38.8561 9.45440   2
   1  -8  -3 38.6026 9.42807   2
   1  -8  -3 30.5976 10.1838   1
  -1   8   3 18.5539 8.71713   1
  -1   8   2-3.69760 7.37202   1
   1  -8  -2-0.66734 7.23192   2
   1  -8  -2 3.12681 7.75809   1
  -1   8   2-5.92842 7.35979   2
   1  -8  -1 168.608 14.0179   2
   1  -8  -1 119.467 12.6334   1
  -1   8   1 161.543 14.0065   2
  -1   8   1 160.108 13.5098   1
  -1   8   0 5.32254 6.65105   2
  -1   8   0-9.70767 6.49298   1
   1  -8   0 4.92639 6.35361   2
   1  -8   0 5.24720 6.61700   1
   1  -8   1 30.5419 7.76217   1
  -1   8  -1 38.0224 8.31149   2
   1  -8   1 36.5437 8.09133   2
  -1   8  -1 37.5999 7.69759   1
   1  -8   2 91.0799 10.7490   2
   1  -8   2 78.7512 9.41844   1
  -1   8  -2 110.903 11.4319   2
  -1   8  -2 102.214 9.91260   1
  -1   8  -3 505.249 21.7381   2
   1  -8   3 491.496 21.2856   2
  -1   8  -3 459.961 18.0046   1
   1  -8   4 5.22510 5.52829   1
  -1   8  -4 4.04830 6.30737   2
  -1   8  -4 10.6435 5.46573   1
   1  -8   4 2.63127 6.30093   2
  -1   8  -5 14.1793 7.01787   2
   1  -8   5 19.7323 5.66875   1
  -1   8  -5 19.3373 5.27219   1
   1  -8   5 11.0190 6.72301   2
   1  -8   6 239.785 15.8818   2
  -1   8  -6 230.574 15.8181   2
   1  -8   6 213.126 11.4253   1
  -1   8  -6 214.727 11.2892   1
  -1   8  -7 0.11251 4.07236   1
  -1   8  -7 1.45248 6.89125   2
   1  -8   7 2.37551 7.04941   2
   1  -8   7 4.15531 4.35099   1
   1  -8   8-1.54341 7.18933   2
  -1   8  -8-13.5839 7.86171   2
   1  -8   8 5.93886 3.99946   1
  -1   8  -8-7.87470 4.22737   1
  -1   8  -9 2.62569 7.83747   2
   1  -8   9 7.36753 7.76417   2
   1  -8   9 2.93856 3.44753   1
  -1   8  -9 5.24922 3.73308   1
  -1   8 -10 40.4749 10.2531   2
   1  -8  10 25.4931 3.49893   1
   1  -8  10 49.0879 10.4822   2
   1  -8  10 17.0563 3.38888   1
  -1   8 -11 19.8018 10.6840   2
   1  -8  11 34.2986 10.7268   2
  -1   8 -12 5.85546 10.7401   2
  -1   8 -13 9.39607 12.6763   2
  -1   8 -14-9.33697 14.0350   2
   1  -7  -9-2.51920 13.4457   2
  -1   7   9-11.1566 14.8444   1
   1  -7  -9 19.1263 15.2023   1
   1  -7  -8 46.1237 12.5902   2
   1  -7  -8 37.1918 14.6188   1
  -1   7   8 15.0975 12.6094   1
   1  -7  -7 112.821 13.6398   2
  -1   7   7 85.3492 13.9263   1
   1  -7  -7 80.7397 14.9286   1
   1  -7  -6 50.8419 10.6461   2
   1  -7  -6 48.2326 11.4589   1
  -1   7   6 52.9469 11.6672   1
  -1   7   5 23.7180 8.41852   1
   1  -7  -5 4.88995 8.59744   1
   1  -7  -5 24.4561 7.95166   2
   1  -7  -4 3.01085 6.48320   2
   1  -7  -4 3.51509 7.68715   1
  -1   7   4 4.42473 6.66556   2
  -1   7   4 2.54695 6.95399   1
  -1   7   3 3.96733 6.13532   1
   1  -7  -3 3.63939 5.79081   2
  -1   7   3 5.62037 6.28392   2
   1  -7  -3 3.58339 6.39034   1
   1  -7  -2 40.2411 7.84334   2
  -1   7   2 39.1563 8.00620   2
   1  -7  -2 36.2273 8.40532   1
  -1   7   2 34.3655 7.73859   1
  -1   7   1 366.433 17.5993   2
  -1   7   1 346.287 16.9914   1
   1  -7  -1 375.522 17.6082   2
   1  -7  -1 322.714 17.0155   1
   1  -7   0 22.5742 6.43535   1
  -1   7   0 21.9038 6.70057   2
  -1   7   0 15.0710 5.87768   1
   1  -7   0 27.7911 6.82705   2
   1  -7   1 78.2811 8.57373   1
  -1   7  -1 63.6591 7.67509   1
  -1   7  -1 69.0311 8.69728   2
   1  -7   1 66.5433 8.50866   2
   1  -7   2-5.01405 5.56006   2
   1  -7   2-4.42515 4.56651   1
  -1   7  -2 6.17054 5.27995   2
  -1   7  -2-3.32176 4.49461   1
  -1   7  -3-1.22139 3.84922   1
  -1   7  -3 1.32733 5.03836   2
   1  -7   3 0.78730 4.06407   1
   1  -7   3-0.77915 5.29677   2
  -1   7  -4 50.3804 7.96859   2
   1  -7   4 56.2534 8.08044   2
   1  -7   4 59.4716 6.79304   1
  -1   7  -4 55.8898 6.12839   1
   1  -7   5 0.40788 5.16914   2
  -1   7  -5 5.97918 3.65422   1
   1  -7   5-3.69362 3.58963   1
  -1   7  -5 5.36996 5.45779   2
   1  -7   6 142.100 8.33393   1
   1  -7   6 173.914 12.6236   2
  -1   7  -6 166.235 8.72880   1
  -1   7  -6 151.588 12.1097   2
  -1   7  -7 8.60577 5.98088   2
   1  -7   7 7.76010 3.49098   1
  -1   7  -7 5.93488 3.34022   1
   1  -7   7 3.14610 5.54157   2
  -1   7  -8 19.0298 3.71524   1
   1  -7   8 14.2456 3.43829   1
  -1   7  -8 15.8935 7.20493   2
  -1   7  -9 4.15444 6.63302   2
   1  -7   9 3.59349 2.30052   1
   1  -7   9 2.41883 2.41555   1
   1  -7   9 8.45388 6.59403   2
   1  -7  10 285.976 17.8337   2
  -1   7 -10 257.978 17.4696   2
  -1   7 -11 4.69158 8.36671   2
  -1   7 -12 28.0251 10.4640   2
  -1   7 -13-11.0056 11.0585   2
  -1   7 -14-11.8688 11.9130   2
  -1   7 -15-15.3822 14.0170   2
   1  -6 -11 10.7274 11.3068   2
  -1   6  11 40.8316 14.4754   1
   1  -6 -11 57.4031 16.5867   1
  -1   6  10-5.52358 13.9143   1
   1  -6 -10 20.5713 10.7571   2
   1  -6  -9 81.2304 13.2109   2
   1  -6  -9 67.6636 14.5696   1
  -1   6   9 67.8566 14.5582   1
   1  -6  -8 52.5247 9.84298   2
  -1   6   8 29.7728 10.9656   1
   1  -6  -8 39.4044 12.4141   1
  -1   6   7 57.3031 11.1920   1
   1  -6  -7 56.6667 9.60302   2
   1  -6  -7 60.4415 11.7011   1
   1  -6  -6 5.30709 7.98839   1
   1  -6  -6 15.9482 7.27417   2
  -1   6   6-0.95286 6.84656   1
   1  -6  -5 1.83984 5.67596   2
   1  -6  -5-5.72387 7.31284   1
  -1   6   5-1.80688 6.47475   1
   1  -6  -4 62.6909 9.40158   1
   1  -6  -4 77.6476 9.17096   2
  -1   6   4 67.6701 9.44607   1
  -1   6   4 79.0920 9.13417   2
  -1   6   3 15.8184 5.81845   2
   1  -6  -3 4.45106 5.75794   1
  -1   6   3 0.82781 4.84601   1
   1  -6  -3 12.9248 5.38951   2
  -1   6   2 86.7574 8.61940   2
   1  -6  -2 79.6291 8.45076   2
  -1   6   2 71.7149 8.24485   1
   1  -6  -2 70.5730 8.53386   1
   1  -6  -1 107.933 9.17074   2
  -1   6   1 109.199 9.24572   2
  -1   6   1 102.449 9.15788   1
   1  -6  -1 105.262 9.44011   1
   1  -6   0 11.4594 4.83094   1
   1  -6   0 11.1400 4.79982   2
  -1   6   0 7.50645 4.24105   1
  -1   6   0 11.3208 4.65507   2
   1  -6   1 352.301 14.4966   1
  -1   6  -1 380.413 15.7280   2
   1  -6   1 371.821 15.3792   2
  -1   6  -1 370.205 14.4037   1
  -1   6  -2 14.3885 4.87741   2
  -1   6  -2 10.9842 3.96798   1
   1  -6   2 15.8763 5.02631   2
   1  -6   2-1.32631 3.43724   1
  -1   6  -3 15.5672 5.12312   2
  -1   6  -3 24.3039 4.30757   1
   1  -6   3 28.8480 5.69179   2
   1  -6   3 23.3305 4.35234   1
  -1   6  -4 15.3628 5.22620   2
   1  -6   4 12.7104 4.80543   2
   1  -6   4 9.02614 3.40396   1
  -1   6  -4 9.50953 3.33805   1
   1  -6   5 129.430 7.25390   1
  -1   6  -5 128.135 7.02160   1
  -1   6  -5 126.599 10.0634   2
   1  -6   5 131.536 10.0480   2
   1  -6   6 280.805 9.48218   1
   1  -6   6 324.673 15.4365   2
  -1   6  -6 296.719 14.9394   2
  -1   6  -6 304.586 9.71525   1
  -1   6  -7 62.6402 4.38635   1
   1  -6   7 73.5879 8.59759   2
   1  -6   7 60.7593 4.44966   1
  -1   6  -7 63.8147 8.39548   2
  -1   6  -8 36.8657 7.54339   2
   1  -6   8 20.1027 2.53990   1
   1  -6   8 26.2185 2.68008   1
   1  -6   8 32.0258 7.11390   2
  -1   6  -9 26.6326 7.34491   2
   1  -6   9 36.4808 7.76747   2
  -1   6 -10 13.0835 7.22649   2
  -1   6 -11 0.56968 6.98920   2
  -1   6 -12 2.69853 8.68539   2
  -1   6 -13 62.8199 11.7067   2
  -1   6 -14 61.7776 14.1109   2
  -1   6 -15 20.1527 13.3184   2
  -1   5  12-3.31279 14.4724   1
   1  -5 -12-0.91177 14.9033   1
   1  -5 -12 9.35647 12.1566   2
   1  -5 -11-6.48561 13.0783   1
   1  -5 -11 1.04407 11.3301   2
  -1   5  11-14.6466 13.5149   1
  -1   5  10 62.8085 12.8332   1
   1  -5 -10 38.2071 12.5362   1
   1  -5 -10 82.9714 12.1929   2
   1  -5  -9 53.0231 9.69233   2
  -1   5   9 60.1827 12.3878   1
   1  -5  -9 69.5622 13.2754   1
   1  -5  -8 33.3510 9.90749   1
   1  -5  -8 31.8465 7.92355   2
  -1   5   8 16.8405 9.28198   1
   1  -5  -7 34.7210 7.18568   2
  -1   5   7 20.0584 7.89255   1
   1  -5  -7 16.2650 7.99029   1
  -1   5   6 8.83983 6.52148   1
   1  -5  -6 2.86299 5.31331   2
   1  -5  -6 6.49464 6.39100   1
   1  -5  -5 13.5832 5.26499   2
   1  -5  -5 11.8772 6.18543   1
  -1   5   5 22.6277 6.87258   1
  -1   5   4 61.4354 7.15867   2
   1  -5  -4 74.3882 7.80123   2
  -1   5   4 66.7800 8.47987   1
   1  -5  -4 62.3937 8.26389   1
   1  -5  -3-1.23246 3.77600   2
   1  -5  -3-0.52863 4.25901   1
  -1   5   3 3.16798 3.97246   2
  -1   5   3 4.93623 4.34370   1
  -1   5   2 110.724 8.89565   1
  -1   5   2 120.472 8.63608   2
   1  -5  -2 128.334 8.84098   2
   1  -5  -2 118.316 9.34364   1
   1  -5  -1 115.114 8.74648   1
  -1   5   1 111.086 8.19117   2
   1  -5  -1 113.930 8.23499   2
  -1   5   1 113.520 8.47718   1
  -1   5   0 18.3736 4.25119   1
   1  -5   0 16.6501 4.25705   1
  -1   5   0 16.6303 4.33985   2
   1  -5   0 22.5489 4.52400   2
   1  -5   1 19.8837 4.16539   1
   1  -5   1 9.02240 3.65391   2
  -1   5  -1 17.4291 4.40264   2
  -1   5  -1 11.2829 3.50418   1
   1  -5   2 18.7177 3.78536   1
   1  -5   2 25.6776 4.81517   2
  -1   5  -2 23.7657 4.72959   2
  -1   5  -2 19.3439 3.64832   1
  -1   5  -3 181.717 10.1553   2
   1  -5   3 190.677 10.3552   2
   1  -5   3 184.275 8.22518   1
  -1   5  -3 188.825 8.06205   1
  -1   5  -4 113.558 8.48492   2
  -1   5  -4 113.119 5.90478   1
   1  -5   4 104.171 5.85057   1
   1  -5   4 120.107 8.59471   2
  -1   5  -5 109.738 8.64948   2
   1  -5   5 102.484 5.26291   1
   1  -5   5 101.146 8.30989   2
  -1   5  -5 94.3775 4.97366   1
   1  -5   6 15.6889 4.80228   2
  -1   5  -6 15.6181 2.34615   1
   1  -5   6 14.6739 2.31149   1
  -1   5  -6 14.9111 4.94629   2
   1  -5   7 1.13875 1.15440   1
   1  -5   7 3.48143 4.19765   2
   1  -5   7-1.13032 1.22284   1
  -1   5  -8 257.861 14.1007   2
   1  -5   8 247.925 13.6395   2
  -1   5  -9 5.20865 5.44551   2
  -1   5 -10 40.4172 8.24827   2
  -1   5 -11 188.805 14.4245   2
  -1   5 -12 56.2399 10.3550   2
  -1   5 -13 148.866 15.4353   2
  -1   5 -14-0.55366 10.9583   2
  -1   5 -15 28.2330 12.3914   2
  -1   5 -16-8.10648 12.9911   2
  -1   4  13-7.37571 13.8959   1
   1  -4 -13 10.1055 15.1520   1
   1  -4 -13-3.64852 12.4291   2
   1  -4 -12-10.3995 13.4108   1
   1  -4 -12 14.1659 9.84048   2
  -1   4  12 12.1815 12.0888   1
   1  -4 -11 5.35561 8.82332   2
  -1   4  11-7.50702 10.8631   1
   1  -4 -11 6.19113 10.4966   1
  -1   4  10 25.5912 10.4421   1
   1  -4 -10 21.9849 7.88113   2
   1  -4 -10 26.0797 10.2349   1
   1  -4  -9-0.18839 7.74013   1
  -1   4   9 17.0651 8.43317   1
   1  -4  -9 17.9632 6.79299   2
  -1   4   8 74.9378 10.3887   1
   1  -4  -8 82.9260 11.3594   1
   1  -4  -8 89.7765 9.25655   2
   1  -4  -7 10.1920 6.21285   1
  -1   4   7 10.6275 6.29668   1
   1  -4  -7 11.5139 4.97237   2
   1  -4  -6 29.3090 7.21483   1
   1  -4  -6 31.4987 5.68479   2
  -1   4   6 34.1010 7.00010   1
   1  -4  -5 121.958 10.1234   1
   1  -4  -5 135.842 8.98561   2
  -1   4   5 117.818 10.0762   1
  -1   4   4-0.14275 3.19611   2
   1  -4  -4 3.64968 3.44555   2
  -1   4   4 3.21317 4.29168   1
   1  -4  -4 0.26423 4.19168   1
   1  -4  -3 638.125 16.9730   2
  -1   4   3 615.302 16.7565   2
  -1   4   3 626.864 18.9150   1
   1  -4  -3 607.732 18.7453   1
  -1   4   2 226.119 10.0313   2
   1  -4  -2 242.110 10.3033   2
  -1   4   2 228.459 11.0451   1
   1  -4  -2 219.089 10.9412   1
   1  -4  -1 112.268 7.13318   2
  -1   4   1 118.477 7.67005   1
  -1   4   1 116.189 7.24150   2
   1  -4  -1 115.419 7.66076   1
  -1   4   0 68.7254 5.66651   1
   1  -4   0 74.3948 5.91402   2
  -1   4   0 74.5594 6.00285   2
   1  -4   0 74.7634 5.94148   1
  -1   4  -1 119.136 7.25637   2
   1  -4   1 119.584 6.66501   1
   1  -4   1 116.553 7.19157   2
  -1   4  -1 125.006 6.72707   1
   1  -4   2 182.805 7.37920   1
  -1   4  -2 175.747 8.77218   2
   1  -4   2 185.554 8.93987   2
  -1   4  -2 179.147 7.15044   1
   1  -4   3 144.813 5.98096   1
  -1   4  -3 148.208 8.35531   2
  -1   4  -3 149.443 5.94079   1
   1  -4   3 147.332 8.30584   2
   1  -4   4 59.3684 3.55086   1
  -1   4  -4 58.2749 5.90815   2
   1  -4   4 60.7322 5.98650   2
  -1   4  -4 59.7522 3.48400   1
   1  -4   5 39.8245 2.45831   1
   1  -4   5 43.3647 5.45312   2
  -1   4  -5 36.0349 2.36386   1
  -1   4  -5 43.5958 5.51397   2
  -1   4  -6 196.336 10.7752   2
   1  -4   6 195.608 10.5328   2
   1  -4   7 9.75291 4.32920   2
  -1   4  -7 15.5653 4.73779   2
  -1   4  -8 96.9523 8.97856   2
  -1   4  -9 14.1732 5.73346   2
  -1   4 -10 24.2430 6.79263   2
  -1   4 -11 58.6007 9.02498   2
  -1   4 -12 6.79901 7.13628   2
  -1   4 -13 17.8585 8.83631   2
  -1   4 -14 29.6660 11.5490   2
  -1   4 -15 12.1591 11.2821   2
  -1   4 -16 3.31255 13.2101   2
   1  -3 -14 0.37676 9.84261   2
  -1   3  14-13.5528 13.0673   1
   1  -3 -14-22.6870 13.5103   1
   1  -3 -13 15.3801 12.7172   1
   1  -3 -13 1.49832 10.4054   2
  -1   3  13-9.28189 12.4848   1
   1  -3 -12 26.3348 12.1476   1
  -1   3  12 31.7392 11.0023   1
   1  -3 -12 23.0086 8.97545   2
   1  -3 -11-4.36760 8.60174   1
   1  -3 -11 3.20592 7.17155   2
  -1   3  11-5.93952 8.17682   1
   1  -3 -10 5.31434 6.14203   2
   1  -3 -10 6.80182 8.19638   1
  -1   3  10 15.1285 7.87769   1
   1  -3  -9 66.0730 8.24099   2
   1  -3  -9 56.6920 9.21889   1
  -1   3   9 59.5617 9.69245   1
   1  -3  -8 21.9783 5.52834   2
   1  -3  -8 16.6873 6.59396   1
  -1   3   8 13.5886 6.34661   1
  -1   3   7 0.77543 4.52294   1
   1  -3  -7-2.53506 3.67803   2
   1  -3  -7 9.21820 5.39932   1
   1  -3  -6 15.8920 4.07097   2
   1  -3  -6 11.5644 5.17798   1
  -1   3   6 10.5843 5.08531   1
   1  -3  -5 271.209 10.8966   2
   1  -3  -5 262.070 13.0079   1
  -1   3   5 261.772 12.8629   1
  -1   3   4 212.303 10.9790   1
   1  -3  -4 215.787 11.0919   1
   1  -3  -4 219.982 9.28316   2
  -1   3   4 200.592 8.89132   2
   1  -3  -3 98.7878 6.17977   2
   1  -3  -3 97.2672 7.38702   1
  -1   3   3 102.785 7.42936   1
  -1   3   3 98.9774 6.24908   2
  -1   3   2 38.3421 4.74807   1
  -1   3   2 34.4847 3.90504   2
   1  -3  -2 34.5570 4.66842   1
   1  -3  -2 32.4878 3.84930   2
  -1   3   1 127.386 6.96856   1
  -1   3   1 124.460 6.31501   2
   1  -3  -1 123.657 6.25516   2
   1  -3  -1 133.688 7.20591   1
   1  -3   0 123.456 6.26761   1
  -1   3   0 130.628 6.39299   1
   1  -3   0 129.983 6.37691   2
  -1   3   0 126.745 6.36993   2
  -1   3  -1 321.812 8.79317   1
   1  -3   1 332.292 10.0387   2
   1  -3   1 327.724 8.84700   1
  -1   3  -1 325.054 9.97785   2
  -1   3  -2 2576.65 21.2675   1
   1  -3   2 2537.73 28.1763   2
  -1   3  -2 2557.41 28.3452   2
   1  -3   2 2607.10 21.5044   1
   1  -3   3 44.7053 4.60156   2
  -1   3  -3 43.7209 2.53147   1
  -1   3  -3 42.1422 4.48448   2
   1  -3   3 43.4290 2.56343   1
   1  -3   4 108.535 6.85194   2
  -1   3  -4 107.110 6.89366   2
   1  -3   4 103.017 2.57960   1
  -1   3  -5 25.7226 4.34471   2
   1  -3   5 25.3849 4.23805   2
  -1   3  -6 59.4919 6.16286   2
  -1   3  -7 41.3153 5.73557   2
  -1   3  -8 67.5352 7.32291   2
   1  -3   9 87.1558 3.39157   1
  -1   3  -9 99.6053 9.26018   2
   1  -3   9 78.8512 3.29535   1
   1  -3  10 6.10087 1.79169   1
   1  -3  10 6.14452 1.79737   1
  -1   3 -10 6.12364 5.37100   2
   1  -3  11 128.520 5.51307   1
   1  -3  11 120.213 5.45255   1
   1  -3  12 1.56797 2.63589   1
  -1   3 -12-1.46628 7.30171   2
   1  -3  12 0.77816 2.48053   1
   1  -3  13 0.40247 3.04653   1
   1  -3  13 1.76894 3.12986   1
  -1   3 -13-2.39538 7.76209   2
   1  -3  14-2.46058 3.35657   1
  -1   3 -14-5.13201 9.67179   2
   1  -3  14 5.85535 3.69636   1
   1  -3  15 109.181 6.88695   1
  -1   3 -15 146.432 16.9466   2
   1  -3  16 17.3167 4.10375   1
  -1   3 -16 10.5592 12.3927   2
   1  -2 -14 31.2375 11.4804   2
   1  -2 -14 31.3630 13.2251   1
  -1   2  14 59.4985 14.2904   1
  -1   2  13 2.78939 10.7916   1
   1  -2 -13-8.47230 11.6113   1
   1  -2 -13 11.3087 8.61629   2
   1  -2 -12 6.04588 7.24694   2
  -1   2  12-6.00780 8.29595   1
   1  -2 -12 12.9025 9.29373   1
   1  -2 -11 19.4895 8.06248   1
  -1   2  11 42.1008 9.73599   1
   1  -2 -11 29.2818 7.23638   2
   1  -2 -10 26.8142 7.86132   1
  -1   2  10 32.7809 8.22341   1
   1  -2 -10 48.3552 7.34716   2
   1  -2  -9 226.161 11.9639   2
  -1   2   9 212.425 13.7774   1
   1  -2  -9 198.855 13.6693   1
   1  -2  -8 13.5157 5.73673   1
  -1   2   8 18.6343 5.66721   1
   1  -2  -8 21.8618 4.86632   2
   1  -2  -7 72.6362 6.45143   2
   1  -2  -7 64.2016 7.57144   1
  -1   2   7 66.9498 7.50753   1
  -1   2   6 63.5424 6.82639   1
   1  -2  -6 56.8496 6.82083   1
   1  -2  -6 57.2967 5.26357   2
   1  -2  -5 778.293 15.7994   2
   1  -2  -5 828.301 20.7080   1
  -1   2   5 847.844 20.4885   1
   1  -2  -4 145.567 6.54266   2
   1  -2  -4 149.239 8.64879   1
  -1   2   4 145.416 8.34027   1
  -1   2   3 219.104 7.30669   2
   1  -2  -3 214.642 7.18457   2
   1  -2  -3 233.813 9.68356   1
  -1   2   3 239.046 9.63072   1
   1  -2  -2 2585.87 22.8759   2
  -1   2   2 2641.28 22.9884   2
   1  -2  -2 2708.08 29.3609   1
  -1   2   2 2599.69 28.4288   1
  -1   2   1 1148.16 17.1633   1
  -1   2   1 1118.59 14.5763   2
   1  -2  -1 1122.14 17.1908   1
   1  -2  -1 1108.02 14.4400   2
   1  -2   0 862.041 13.3731   1
  -1   2   0 866.492 13.0121   2
   1  -2   0 883.065 13.0774   2
  -1   2   0 869.842 13.2739   1
   1  -2   1 477.902 10.1759   2
   1  -2   1 442.648 8.25257   1
  -1   2  -1 464.879 10.1031   2
  -1   2  -1 470.252 8.34806   1
  -1   2  -2 1168.16 17.1230   2
   1  -2   2 1142.81 16.8023   2
  -1   2  -2 1203.16 10.3898   1
   1  -2   2 1202.99 10.5792   1
  -1   2  -3 752.789 14.8678   2
   1  -2   3 731.935 14.5074   2
  -1   2  -4 758.154 16.1321   2
  -1   2  -5 1.77404 2.72953   2
   1  -2   6 1.93771 0.78175   1
  -1   2  -6 2.66880 3.08409   2
   1  -2   6 2.20062 0.77637   1
   1  -2   7 15.8278 1.88174   1
  -1   2  -7 9.40439 1.72731   1
  -1   2  -7 18.3445 4.45629   2
   1  -2   8 329.576 8.04162   1
  -1   2  -8 314.491 13.8421   2
  -1   2  -8 273.353 7.60979   1
  -1   2  -9-1.99911 2.32921   1
   1  -2   9 2.36167 2.22994   1
  -1   2  -9 0.54185 4.28313   2
   1  -2  10 13.4587 3.13696   1
  -1   2 -10 10.7009 5.66439   2
  -1   2 -10 7.94507 3.23662   1
   1  -2  11 14.7769 3.71772   1
  -1   2 -11 24.0988 7.01737   2
  -1   2 -11 11.6622 4.07813   1
  -1   2 -12 102.428 11.5448   2
   1  -2  12 86.0751 6.79855   1
  -1   2 -13 28.7804 9.29963   2
   1  -2  13 16.4965 5.25217   1
   1  -2  14 5.19809 5.46357   1
  -1   2 -14-7.87299 10.5237   2
   1  -2  14 7.08732 5.47944   1
   1  -2  15 4.14768 6.42142   1
  -1   2 -15 10.7636 12.1245   2
   1  -2  15 7.72958 6.47342   1
   1  -1 -15 22.3535 11.9052   2
   1  -1 -15 3.94568 12.0377   2
  -1   1  15 10.2717 12.7555   1
   1  -1 -15 12.8365 13.7822   1
   1  -1 -14 60.1318 14.1173   1
  -1   1  14 54.8299 13.0965   1
   1  -1 -14 52.2274 11.1020   2
   1  -1 -14 68.9439 12.0044   2
   1  -1 -13-3.17646 7.58662   2
  -1   1  13 22.4426 9.38235   1
   1  -1 -12 17.3455 7.12201   2
  -1   1  12 12.8052 7.97968   1
   1  -1 -11 23.6338 6.24946   2
  -1   1  11 36.1218 8.15700   1
   1  -1 -10 8.06343 4.71077   2
   1  -1 -10 9.28687 6.18979   1
  -1   1  10-0.04535 5.53390   1
   1  -1  -9 20.9491 4.87069   2
   1  -1  -9 16.0504 5.80106   1
  -1   1   9 24.5956 6.27588   1
   1  -1  -8 30.7333 6.07046   1
  -1   1   8 36.1277 6.13033   1
   1  -1  -8 35.4004 4.85433   2
   1  -1  -7 284.604 13.0886   1
  -1   1   7 307.117 13.3170   1
   1  -1  -7 299.313 10.5699   2
   1  -1  -6 8.24185 2.70461   2
  -1   1   6 6.50473 3.60312   1
   1  -1  -6 5.37767 3.68065   1
   1  -1  -5 189.799 9.41840   1
  -1   1   5 184.896 9.22267   1
   1  -1  -5 191.079 6.95050   2
   1  -1  -4 156.279 5.54009   2
   1  -1  -4 151.935 7.77016   1
  -1   1   4 159.096 7.91247   1
   1  -1  -3 215.040 8.37426   1
   1  -1  -3 213.729 5.47670   2
  -1   1   3 215.416 8.38040   1
   1  -1  -2 1100.50 16.7267   1
  -1   1   2 1115.89 10.6442   2
  -1   1   2 1106.55 16.7205   1
   1  -1  -2 1090.32 10.5746   2
  -1   1   1 1866.77 13.3179   2
   1  -1  -1 1834.98 13.2048   2
   1  -1  -1 1890.70 19.3650   1
  -1   1   1 1851.23 19.1541   1
   1  -1   0 5.07092 1.43957   2
  -1   1   0 2.48392 1.49983   1
  -1   1   0 2.52466 1.32960   2
   1  -1   0 6.17975 1.73421   1
   1  -1   1 113.848 4.46805   2
  -1   1  -1 117.604 4.60446   2
  -1   1  -1 119.778 3.61647   1
  -1   1  -2 66.3415 2.11277   1
  -1   1  -2 65.8767 4.09106   2
  -1   1  -3 0.41000 0.65038   1
   1  -1   3 0.97625 0.65179   1
  -1   1  -3-0.73383 1.96551   2
   1  -1   4 10.8454 1.31725   1
  -1   1  -4 9.49766 1.30443   1
   1  -1   5 740.714 10.1472   1
  -1   1  -5 727.048 10.3130   1
   1  -1   6 395.125 8.76183   1
  -1   1  -6 367.463 8.66573   1
  -1   1  -7 115.728 5.73557   1
   1  -1   7 131.387 5.92859   1
  -1   1  -8 1.04321 2.42643   1
   1  -1   8 4.43657 2.58087   1
   1  -1   9 84.4185 6.10003   1
  -1   1  -9 84.5434 6.26522   1
  -1   1 -10 9.04951 5.72955   2
   1  -1  10-0.38513 3.32057   1
  -1   1 -10-0.60782 3.40985   1
  -1   1 -11 26.3095 5.29610   1
  -1   1 -11 43.8309 8.29700   2
   1  -1  11 34.5172 5.53270   1
   1  -1  12 13.6280 5.08510   1
  -1   1 -12 7.95050 5.07743   1
  -1   1 -12 17.2699 8.00466   2
  -1   1 -13 127.852 13.3930   2
   1  -1  13 105.046 9.42191   1
   1  -1  14 13.7637 7.21810   1
  -1   1 -14-3.86737 9.77854   2
  -1   1 -14 9.10983 7.65864   1
   1  -1  15 21.2994 8.50511   1
  -1   1 -15 22.4838 12.1539   2
  -1   1 -15 21.5743 9.23061   1
   1   0 -15 2.20411 9.73079   2
   1   0 -15 12.1538 10.1226   2
  -1   0  15-20.7382 12.3106   1
   1   0 -15-5.21247 12.5038   1
   1   0 -14 14.4156 8.86498   2
  -1   0  14 14.6001 9.02834   1
   1   0 -14 3.42850 8.01519   2
   1   0 -14-8.95473 10.2647   1
   1   0 -13 30.6099 7.79837   2
  -1   0  13 42.8487 9.42821   1
   1   0 -13 33.4354 10.0566   1
   1   0 -12 26.8680 6.65194   2
   1   0 -12 23.5924 8.29739   1
  -1   0  12 19.0466 7.53639   1
  -1   0  11 437.716 18.8645   1
   1   0 -11 406.577 15.7902   2
   1   0 -11 425.630 19.0447   1
   1   0 -10 19.8729 5.97951   1
  -1   0  10 33.2787 6.43202   1
  -1   0   9-1.37201 4.26103   1
   1   0  -9-1.99711 4.47670   1
   1   0  -8 97.5543 8.22991   1
  -1   0   8 79.8252 7.42762   1
  -1   0   7 0.71589 3.07993   1
   1   0  -7 1.26716 3.22604   1
  -1   0   6 96.8706 6.97573   1
   1   0  -6 88.7269 6.78411   1
   1   0  -5 23.9790 3.92239   1
  -1   0   5 19.3321 3.65211   1
  -1   0   4 632.273 14.1871   1
   1   0  -4 602.796 13.9245   1
   1   0  -3 736.785 14.1077   1
  -1   0   3 735.400 13.9696   1
   1   0  -2 105.966 5.19652   1
  -1   0   2 102.905 5.09245   1
  -1   0   1 33.8852 2.77137   1
  -1   0   1 38.5522 3.17016   1
   1   0   0 1495.26 14.3100   1
  -1   0   0 1542.32 14.5726   1
  -1   0  -1 4.24172 1.36594   1
   1   0   1 2.62640 1.27757   1
  -1   0  -2 309.973 6.49885   1
   1   0   2 302.752 6.41246   1
   1   0   3 8.01034 1.72668   1
  -1   0  -3 9.54021 1.78217   1
  -1   0  -4 696.155 11.9958   1
   1   0   4 690.741 11.6985   1
  -1   0  -5 15.0241 2.73345   1
   1   0   5 17.5933 2.68919   1
   1   0   6 23.1543 3.31362   1
  -1   0  -6 25.8916 3.58713   1
   1   0   7 96.4840 6.28088   1
  -1   0  -7 92.2078 6.18976   1
   1   0   8 9.13427 3.56591   1
  -1   0  -8 9.18993 3.73384   1
  -1   0  -9 17.8631 4.64302   1
   1   0   9 9.48072 3.92378   1
  -1   0 -10 76.8269 7.67818   1
   1   0  10 69.4085 7.16223   1
  -1   0 -11 20.4872 6.27165   1
   1   0  11 24.4565 6.03554   1
   1   0  12 91.3315 9.40899   1
  -1   0 -12 97.3388 10.1239   1
   1   0  13 52.8337 8.58330   1
  -1   0 -13 55.6602 9.21026   1
  -1   0 -14 6.05878 8.84860   1
  -1   0 -14-3.88917 10.5774   2
   1   0  14 6.68775 7.88135   1
   1   0  15 5.86029 9.65145   1
  -1   0 -15 21.6055 11.2242   1
  -1   0 -15 16.1489 14.3674   2
   1   1 -16-9.71198 10.5983   2
  -1  -1  16 0.57200 11.8110   1
  -1  -1  16-1.16957 12.1535   1
   1   1 -15 14.3363 8.89030   2
  -1  -1  15-7.15249 9.63562   1
   1   1 -14 59.4153 9.49765   2
  -1  -1  14 48.8963 10.0969   1
  -1  -1  13 10.0242 7.43851   1
   1   1 -13 6.72632 6.40331   2
   1   1 -13 17.8557 8.55782   1
   1   1 -12 84.6867 8.96074   2
   1   1 -12 63.3375 8.93408   1
   1   1 -11 46.6804 6.56809   2
   1   1 -11 38.5348 7.47069   1
  -1  -1  11 56.6815 7.83413   1
   1   1 -10 59.6836 7.71681   1
  -1  -1  10 58.7098 7.50983   1
   1   1 -10 59.2814 6.43061   2
  -1  -1   9-2.37876 3.69790   1
   1   1  -9 1.04304 3.00512   2
   1   1  -9 4.44233 4.33476   1
   1   1  -8 24.6880 3.83230   2
   1   1  -8 22.6123 4.86931   1
  -1  -1   8 30.5799 5.07277   1
   1   1  -7 33.7419 4.90215   1
  -1  -1   7 37.9991 5.03981   1
   1   1  -7 30.1486 3.66146   2
  -1  -1   6 146.316 7.91346   1
   1   1  -6 145.660 8.08939   1
   1   1  -6 139.283 5.89165   2
  -1  -1   5 649.007 14.9077   1
   1   1  -5 622.082 10.4896   2
   1   1  -5 646.581 15.1068   1
  -1  -1   4 3827.38 33.4468   1
   1   1  -4 3792.54 22.0816   2
  -1  -1   4 3860.85 32.3597   1
  -1  -1   3 4118.29 32.6791   1
   1   1  -3 4078.09 19.5815   2
  -1  -1   3 4063.19 19.4551   2
  -1  -1   3 4159.50 31.2908   1
  -1  -1   2 4.52549 1.14101   2
  -1  -1   2 2.79955 2.03459   1
   1   1  -2 3.40329 1.09413   2
   1   1  -2 7.68774 2.24903   1
  -1  -1   1 5.98423 1.90947   1
   1   1  -1 5.25813 2.03909   1
  -1  -1   1 6.77799 1.46766   2
   1   1  -1 3.55812 1.33119   2
  -1  -1   0 50.1297 3.23838   2
   1   1   0 52.8945 3.59049   1
  -1  -1   0 49.8475 3.48472   1
  -1  -1  -1 258.349 7.30923   1
   1   1   1 250.016 7.21218   1
   1   1   2 381.765 9.30052   1
  -1  -1  -2 379.845 9.36182   1
  -1  -1  -3 16.4948 2.83472   1
   1   1   3 17.4291 2.77811   1
  -1  -1  -4 556.103 13.2648   1
   1   1   4 572.559 13.1648   1
   1   1   5 34.2547 4.24165   1
  -1  -1  -5 37.6439 4.34178   1
   1   1   6 137.255 7.86380   1
  -1  -1  -6 134.980 7.88858   1
  -1  -1  -7 16.5615 4.33224   1
   1   1   7 13.6802 4.04479   1
  -1  -1  -8 111.551 8.38943   1
   1   1   8 128.150 8.79676   1
  -1  -1  -9 52.5942 6.88234   1
   1   1   9 52.8238 6.68244   1
   1   1  10 63.6301 7.87977   1
  -1  -1 -10 59.8902 8.46209   1
  -1  -1 -11 14.9987 6.57024   1
   1   1  11 21.7203 6.18543   1
   1   1  12-8.81413 7.15250   1
  -1  -1 -12-3.69905 7.46798   1
   1   1  13 21.8669 9.50602   1
  -1  -1 -13 21.9907 10.0254   1
  -1  -1 -13 23.4207 11.5979   2
   1   1  14 15.4361 9.58599   1
  -1  -1 -14 9.18906 13.1144   2
  -1  -1 -14 5.53707 10.2950   1
   1   2 -16 17.9734 10.6132   2
  -1  -2  16 1.51170 11.5637   1
  -1  -2  15-14.2291 8.77550   1
  -1  -2  15-9.68316 8.48864   1
   1   2 -15 0.71216 9.24300   2
   1   2 -14 20.1918 7.92892   2
  -1  -2  14 18.7636 7.68844   1
  -1  -2  14 21.9666 7.41715   1
  -1  -2  13-2.28562 6.52841   1
   1   2 -13 5.74844 5.95163   2
  -1  -2  13-1.21855 6.65037   1
  -1  -2  12 6.86920 5.87178   1
   1   2 -12 6.18797 5.57004   2
  -1  -2  12-4.11727 5.07121   1
   1   2 -11 3.40875 4.47118   2
  -1  -2  11 6.22612 5.07822   1
  -1  -2  11 1.95535 4.76884   1
   1   2 -10 16.8466 4.57615   2
  -1  -2  10 8.39821 4.57412   1
  -1  -2  10 13.8788 4.79008   1
   1   2  -9 4.30518 3.18861   2
  -1  -2   9-1.77057 3.39543   1
  -1  -2   9 2.96519 3.37193   1
  -1  -2   8 3.96187 3.51692   1
  -1  -2   8 9.31155 3.67098   1
   1   2  -8 6.25138 2.92675   2
  -1  -2   7 78.0126 6.31255   1
   1   2  -7 66.3959 5.04625   2
  -1  -2   7 68.5484 5.74704   1
  -1  -2   6 138.337 7.36047   1
   1   2  -6 136.826 6.25878   2
  -1  -2   6 133.163 7.45890   1
  -1  -2   5 93.9658 6.12024   1
  -1  -2   5 92.6792 5.83963   1
   1   2  -5 87.9268 4.72550   2
  -1  -2   5 92.4604 4.76553   2
   1   2  -4 156.606 6.94888   1
  -1  -2   4 163.803 7.17526   1
  -1  -2   4 164.628 5.83862   2
   1   2  -4 166.422 5.88518   2
  -1  -2   3 183.718 5.95764   2
  -1  -2   3 179.249 7.22916   1
   1   2  -3 179.812 5.91238   2
   1   2  -3 180.643 7.22327   1
   1   2  -2 10.6651 2.06417   2
   1   2  -2 13.6241 2.66429   1
  -1  -2   2 12.9170 2.51793   1
  -1  -2   2 12.2441 2.17586   2
   1   2  -1 341.864 9.55935   1
  -1  -2   1 341.475 8.63234   2
   1   2  -1 346.171 8.72677   2
  -1  -2   1 351.984 9.65664   1
  -1  -2   0 2.68073 2.09908   2
   1   2   0 3.14225 2.09412   1
  -1  -2   0 2.10349 1.90281   1
   1   2   0 0.78980 1.97469   2
  -1  -2  -1 1319.95 19.7285   2
  -1  -2  -1 1334.19 19.6585   1
   1   2   1 1341.54 19.6201   1
  -1  -2  -2 3137.43 31.7955   1
   1   2   2 3126.77 31.3775   1
  -1  -2  -2 2993.15 32.0340   2
   1   2   3 788.401 16.8614   1
  -1  -2  -3 793.183 17.8473   2
  -1  -2  -3 770.569 17.1230   1
  -1  -2  -4 32.3268 4.81996   2
  -1  -2  -4 32.6609 4.58355   1
   1   2   4 38.7917 4.70311   1
   1   2   5 8.69682 3.50025   1
  -1  -2  -5 8.26859 3.65456   1
  -1  -2  -5 14.5490 4.31118   2
   1   2   6 1.23169 3.59590   1
  -1  -2  -6-0.12566 3.67216   1
  -1  -2  -6 3.72318 3.98714   2
   1   2   7 26.5481 5.38761   1
  -1  -2  -7 20.4710 5.66747   2
  -1  -2  -7 28.4736 5.60976   1
   1   2   8 26.4932 5.91214   1
  -1  -2  -8 18.8839 5.74432   1
  -1  -2  -8 16.4524 5.97215   2
  -1  -2  -9 47.3801 8.51124   2
   1   2   9 62.7270 8.17882   1
  -1  -2  -9 37.8253 7.24616   1
   1   2  10 5.69317 6.12617   1
  -1  -2 -10 6.68374 7.53250   2
  -1  -2 -10 3.21413 6.56746   1
  -1  -2 -11 4.24999 8.65870   2
  -1  -2 -11 12.5735 7.85217   1
   1   2  11-8.42771 6.70568   1
  -1  -2 -12 8.32621 8.69448   1
  -1  -2 -12 8.31925 9.51334   2
   1   2  12 14.4095 8.44782   1
  -1  -2 -13 3.68101 11.1336   1
   1   2  13 3.76390 10.2757   1
  -1  -2 -13-0.07409 11.8202   2
   1   2  14-1.99174 11.2821   1
  -1  -2 -14-4.44783 11.7354   1
  -1  -2 -14 15.3576 14.1025   2
  -1  -3  16 33.3763 10.3062   1
  -1  -3  16-5.00076 10.3156   1
   1   3 -16 7.77489 11.0683   2
  -1  -3  15 17.5686 9.24638   1
   1   3 -15 27.1623 10.0292   2
  -1  -3  15 17.1977 8.93823   1
  -1  -3  14 5.55844 6.98034   1
   1   3 -14 4.43670 7.61467   2
  -1  -3  14-8.03458 7.00431   1
  -1  -3  13 10.5382 6.47371   1
   1   3 -13 23.7940 6.93220   2
  -1  -3  13 19.3403 6.61347   1
   1   3 -12 12.4971 5.92264   2
  -1  -3  12-6.68291 5.40345   1
  -1  -3  12 3.14323 5.11090   1
  -1  -3  11 151.390 10.2031   1
   1   3 -11 146.486 10.0131   2
  -1  -3  11 159.879 10.6845   1
  -1  -3  10-0.52628 4.00346   1
   1   3 -10 3.17546 4.13409   2
  -1  -3  10-0.03152 4.03415   1
  -1  -3   9 378.853 13.8399   1
  -1  -3   9 363.418 13.9222   1
   1   3  -9 357.558 13.0360   2
  -1  -3   8 17.1678 3.97494   1
   1   3  -8 27.1129 4.38102   2
  -1  -3   8 29.2796 4.88990   1
  -1  -3   7 9.03457 3.42638   1
   1   3  -7 12.5647 3.22928   2
  -1  -3   7 10.5539 3.10841   2
  -1  -3   7 12.1446 3.54227   1
  -1  -3   6 70.2184 5.66075   1
  -1  -3   6 71.4199 5.30856   2
   1   3  -6 72.3687 5.36141   2
   1   3  -5 266.601 9.12461   2
  -1  -3   5 266.604 9.12073   2
  -1  -3   5 242.218 9.44373   1
   1   3  -5 249.652 9.52766   1
   1   3  -4 237.983 8.39400   2
  -1  -3   4 232.442 8.98572   1
   1   3  -4 234.565 9.08573   1
  -1  -3   4 238.789 8.39384   2
   1   3  -3 517.927 13.1941   1
   1   3  -3 507.567 12.0461   2
  -1  -3   3 502.834 11.9572   2
  -1  -3   3 504.959 12.8980   1
   1   3  -2 551.721 12.7760   2
  -1  -3   2 538.776 12.6541   2
   1   3  -2 542.314 13.4548   1
  -1  -3   2 533.899 13.3155   1
  -1  -3   1 14.6482 3.07318   1
  -1  -3   1 8.82226 2.77724   2
   1   3  -1 12.8363 3.01235   2
   1   3  -1 11.6128 2.87315   1
   1   3   0 1204.50 20.5232   2
  -1  -3   0 1191.56 20.2689   2
  -1  -3   0 1174.81 20.6097   1
   1   3   0 1199.79 20.7348   1
  -1  -3  -1 242.659 10.0889   1
  -1  -3  -1 235.850 9.80630   2
   1   3   1 250.295 10.1198   2
   1   3   1 236.824 9.80128   1
  -1  -3  -2 2.13630 2.93131   2
   1   3   2 1.69683 2.88741   1
  -1  -3  -2 5.48960 3.02403   1
  -1  -3  -3 16.5969 4.13849   2
   1   3   3 17.1098 4.03235   1
  -1  -3  -3 10.3989 3.76001   1
  -1  -3  -4 21.9398 4.88542   2
  -1  -3  -4 25.3815 4.93775   1
   1   3   4 33.9287 5.24414   1
  -1  -3  -5 82.0102 7.95714   2
  -1  -3  -5 69.6995 7.38948   1
   1   3   5 71.4211 7.29319   1
  -1  -3  -6 499.394 18.8298   2
  -1  -3  -6 445.484 17.4960   1
   1   3   6 460.520 17.2268   1
  -1  -3  -7 9.60026 5.61289   1
  -1  -3  -7 10.0926 5.83768   2
   1   3   7 7.80963 5.23760   1
  -1  -3  -8 549.807 22.0955   2
   1   3   8 507.186 19.9629   1
  -1  -3  -8 473.879 19.9232   1
  -1  -3  -9 41.6116 9.18890   2
   1   3   9 28.9973 7.70762   1
  -1  -3  -9 30.8806 8.28056   1
   1   3  10 36.1308 9.18866   1
  -1  -3 -10 42.3043 9.94845   1
  -1  -3 -10 32.8390 9.78055   2
  -1  -3 -11 0.98861 9.59713   1
  -1  -3 -11-10.4056 10.6397   2
   1   3  11 8.36702 8.38011   1
  -1  -3 -12 4.54465 12.0655   2
   1   3  12-8.69404 9.58014   1
  -1  -3 -12 22.3837 12.4804   1
   1   3  13-0.73535 11.8684   1
  -1  -3 -13 28.0802 14.4859   1
  -1  -3 -13 0.64155 14.4110   2
  -1  -4  16 16.4092 9.43313   1
  -1  -4  16 8.16535 8.90249   1
   1   4 -16 12.8202 11.2609   2
  -1  -4  15 16.7559 8.68483   1
   1   4 -15 13.3692 9.28050   2
  -1  -4  15 7.60830 7.87150   1
  -1  -4  14 28.8957 7.59429   1
  -1  -4  14 33.3174 7.91868   1
   1   4 -14 35.1177 8.55033   2
  -1  -4  13 11.0022 6.46604   1
   1   4 -13 11.2092 6.54586   2
  -1  -4  13 15.5001 6.62803   1
  -1  -4  12 7.61974 5.39436   1
  -1  -4  12 5.96261 5.09985   1
   1   4 -12 13.4529 5.86054   2
   1   4 -11 108.396 9.38242   2
  -1  -4  11 115.620 9.02698   1
  -1  -4  11 108.427 9.25621   1
   1   4 -10 43.4563 6.29874   2
  -1  -4  10 41.2271 6.09446   1
  -1  -4  10 48.2676 6.48202   1
   1   4  -9 97.0687 7.92212   2
  -1  -4   9 99.3329 7.71638   1
  -1  -4   9 101.205 7.88619   2
  -1  -4   9 105.236 8.21948   1
   1   4  -8 83.4650 7.06408   2
  -1  -4   8 85.5901 7.00559   2
  -1  -4   8 90.7602 7.19522   1
  -1  -4   8 86.9602 7.25969   1
   1   4  -7 189.909 9.46437   1
  -1  -4   7 173.522 9.11834   2
  -1  -4   7 171.951 9.11325   1
   1   4  -7 169.847 8.96391   2
  -1  -4   6 42.9052 4.98862   2
   1   4  -6 38.3513 4.66714   2
   1   4  -6 42.7050 5.06633   1
  -1  -4   6 38.4489 4.83699   1
   1   4  -5 50.8266 5.21248   1
  -1  -4   5 36.9110 4.67864   1
  -1  -4   5 41.8048 4.81124   2
   1   4  -5 39.3429 4.69234   2
  -1  -4   4 3.67276 2.78254   1
  -1  -4   4 7.87349 3.04893   2
   1   4  -4 9.96012 3.28791   2
   1   4  -4 10.8945 3.32853   1
  -1  -4   3 44.6525 4.98973   1
   1   4  -3 42.2716 4.81558   2
   1   4  -3 42.8015 4.87256   1
  -1  -4   3 47.3421 4.98271   2
  -1  -4   2 815.739 18.3787   1
  -1  -4   2 837.719 18.2858   2
   1   4  -2 772.948 17.6355   2
   1   4  -2 820.462 18.4520   1
   1   4  -1 8.81830 3.21736   1
  -1  -4   1 11.6584 3.39660   1
   1   4  -1 9.83406 3.48971   2
  -1  -4   1 9.25201 3.38360   2
  -1  -4   0 44.4155 5.49122   1
  -1  -4   0 43.0838 5.33719   2
   1   4   0 50.6613 5.62644   2
   1   4   0 49.0457 5.49738   1
  -1  -4  -1 24.9187 4.64733   2
   1   4   1 23.5451 4.64415   2
  -1  -4  -1 21.6012 4.52330   1
   1   4   1 20.9558 4.55276   1
   1   4   2-2.69619 3.20797   1
  -1  -4  -2-1.98989 3.60829   2
  -1  -4  -2 2.98917 3.86486   1
  -1  -4  -3 13.8410 4.67341   2
  -1  -4  -3 19.8886 5.14016   1
   1   4   3 14.1270 4.33269   1
  -1  -4  -4-0.03830 4.34503   2
   1   4   4 1.82032 4.07824   1
  -1  -4  -4-3.60227 4.30758   1
   1   4   5 196.305 12.3178   1
  -1  -4  -5 229.159 13.5040   2
  -1  -4  -5 192.567 12.5641   1
   1   4   6 29.4763 6.54152   1
  -1  -4  -6 27.0463 6.85210   1
  -1  -4  -6 36.1006 7.52534   2
  -1  -4  -7 3.79999 6.09984   1
  -1  -4  -7 6.31807 6.52881   2
   1   4   7 4.78606 5.93198   1
  -1  -4  -8 3.97053 7.13705   2
  -1  -4  -8 3.85814 7.14739   1
   1   4   8 1.82054 6.75875   1
  -1  -4  -9 20.0466 9.25228   1
  -1  -4  -9 21.7107 8.79063   2
   1   4   9 2.71096 7.55768   1
   1   4  10-9.61065 9.55524   1
  -1  -4 -10-0.98423 9.73697   1
  -1  -4 -10-3.15253 9.71275   2
  -1  -4 -11 12.0168 11.3711   1
   1   4  11-7.73863 9.97448   1
  -1  -4 -11-11.9469 10.9011   2
   1   4  12-0.64117 12.5064   1
  -1  -4 -12 25.8970 13.5503   1
  -1  -4 -12-8.30038 13.2818   2
  -1  -5  16 2.85396 9.56038   1
   1   5 -16-9.11377 11.7109   2
  -1  -5  16 5.24092 9.45702   1
  -1  -5  15 3.11834 7.93698   1
  -1  -5  15 9.31318 7.94268   1
   1   5 -15 2.99936 9.68423   2
  -1  -5  14 3.94060 7.11717   1
  -1  -5  14-0.48698 6.43753   1
   1   5 -14-4.97819 8.05939   2
   1   5 -13 113.813 11.7217   2
  -1  -5  13 113.880 10.1352   1
  -1  -5  13 118.010 10.6801   1
  -1  -5  12 23.5752 6.36485   1
  -1  -5  12 40.6024 7.41897   1
   1   5 -12 30.3177 7.21383   2
  -1  -5  11 116.777 9.22295   1
   1   5 -11 108.017 9.97710   2
  -1  -5  11 113.972 9.53288   1
  -1  -5  10 157.820 10.8251   2
  -1  -5  10 144.442 9.69676   1
   1   5 -10 150.627 10.5473   2
  -1  -5  10 147.207 10.0906   1
  -1  -5   9-2.07623 3.49816   1
   1   5  -9 4.25054 4.43107   2
  -1  -5   9 5.97441 4.36826   2
  -1  -5   9-3.38830 3.78320   1
   1   5  -8 76.0256 7.32456   2
  -1  -5   8 90.9062 7.57332   1
   1   5  -8 81.7091 7.28127   1
  -1  -5   8 88.6995 7.84982   2
  -1  -5   7 51.5517 6.03954   1
  -1  -5   7 41.3733 5.89482   2
   1   5  -7 45.2464 6.02209   2
   1   5  -7 44.8526 5.80239   1
  -1  -5   6 91.5912 7.26755   1
   1   5  -6 91.6619 7.45180   2
   1   5  -6 103.538 7.72570   1
  -1  -5   6 106.260 7.95551   2
   1   5  -5 101.824 7.88905   2
  -1  -5   5 95.7430 7.57337   2
   1   5  -5 100.632 7.62981   1
  -1  -5   5 97.9680 7.47088   1
  -1  -5   4-3.29482 3.47238   2
   1   5  -4 2.76539 3.29496   2
  -1  -5   4 1.01617 3.17113   1
   1   5  -4 1.32912 3.41220   1
   1   5  -3 377.121 13.8785   1
   1   5  -3 367.769 13.7803   2
  -1  -5   3 350.585 13.3897   1
  -1  -5   3 373.166 13.8502   2
   1   5  -2 20.3098 4.47400   1
  -1  -5   2 22.5025 4.80648   1
   1   5  -2 27.3461 4.93546   2
  -1  -5   2 30.2060 5.04407   2
   1   5  -1 7.65571 3.97080   1
  -1  -5   1 8.52247 4.02125   1
   1   5  -1 11.7933 4.24546   2
  -1  -5   1 15.4372 4.56434   2
  -1  -5   0 1.13524 3.45928   1
   1   5   0 8.58944 4.25774   2
  -1  -5   0 3.54433 3.88382   2
   1   5   0 12.8146 4.46951   1
  -1  -5  -1 137.583 10.0293   1
   1   5   1 122.836 9.26348   1
  -1  -5  -1 129.382 9.55406   2
   1   5   1 138.822 9.95580   2
   1   5   2 442.529 17.1537   1
  -1  -5  -2 418.106 16.7766   2
  -1  -5  -2 421.178 17.3966   1
   1   5   2 436.854 17.2503   2
  -1  -5  -3 83.9503 8.87808   2
  -1  -5  -3 78.3944 8.80495   1
   1   5   3 89.9406 9.00213   1
  -1  -5  -4 189.197 12.9537   2
   1   5   4 198.690 12.9809   1
  -1  -5  -4 179.732 12.8770   1
  -1  -5  -5 52.4627 8.76222   2
  -1  -5  -5 56.0427 9.16091   1
   1   5   5 45.0847 7.85035   1
  -1  -5  -6 5.13102 6.36359   2
  -1  -5  -6 3.09439 6.59265   1
   1   5   6 11.1956 6.53876   1
  -1  -5  -7-5.36402 7.14599   1
   1   5   7-0.72803 6.89391   1
  -1  -5  -7-6.80928 7.51206   2
  -1  -5  -8-4.08383 8.34737   2
  -1  -5  -8 3.60605 8.78376   1
   1   5   8 0.78683 7.92457   1
  -1  -5  -9 32.7155 11.0923   1
  -1  -5  -9 28.9219 10.8770   2
   1   5   9 40.4842 11.1916   1
  -1  -5 -10 11.2890 12.1714   1
  -1  -5 -10-13.1568 12.0465   2
   1   5  10-15.5674 10.9348   1
   1   5  11 72.2882 16.2709   1
  -1  -5 -11 70.8300 17.2466   1
  -1  -6  16 6.65357 9.38246   1
  -1  -6  16 0.45855 9.22931   1
   1   6 -16 23.2470 12.9987   2
  -1  -6  15 13.8696 8.42387   1
  -1  -6  15 18.2537 8.69279   1
   1   6 -15 35.3251 10.8208   2
   1   6 -14 4.63530 8.76129   2
  -1  -6  14-2.92702 7.03528   1
  -1  -6  14-1.55220 7.33137   1
  -1  -6  13 11.0076 6.76122   1
  -1  -6  13 2.90151 6.21851   1
   1   6 -13-6.54401 7.66526   2
  -1  -6  12 43.9289 7.26608   1
   1   6 -12 40.8088 8.30713   2
  -1  -6  12 44.0313 7.66347   1
  -1  -6  11 96.0639 9.49714   1
  -1  -6  11 96.0284 10.1423   2
   1   6 -11 84.8798 9.67529   2
  -1  -6  11 89.3009 8.57341   1
   1   6 -10 98.0223 9.91427   2
  -1  -6  10 86.6746 9.36867   2
  -1  -6  10 80.6022 8.60876   1
  -1  -6  10 98.6542 8.72151   1
  -1  -6   9 16.1684 5.40755   2
   1   6  -9 35.9436 6.02604   1
   1   6  -9 26.1107 6.48248   2
  -1  -6   9 22.4389 5.38840   1
  -1  -6   8 2.74104 4.52610   2
   1   6  -8 4.85832 4.54676   1
  -1  -6   8 5.73772 4.29039   1
   1   6  -8 8.48347 4.88568   2
  -1  -6   7 95.2341 8.71424   2
  -1  -6   7 100.673 8.22391   1
   1   6  -7 96.3663 8.22795   1
   1   6  -7 114.746 9.42494   2
   1   6  -6-1.01050 3.86635   1
   1   6  -6 6.91317 4.53803   2
  -1  -6   6 2.25410 3.86981   1
  -1  -6   6 0.18000 4.13899   2
  -1  -6   5 222.849 12.1241   2
   1   6  -5 218.093 11.7334   1
  -1  -6   5 205.253 11.2813   1
   1   6  -5 219.730 12.1321   2
   1   6  -4 182.268 11.1020   2
   1   6  -4 180.640 10.8191   1
  -1  -6   4 176.024 10.6529   1
  -1  -6   4 191.555 11.3645   2
  -1  -6   3 8.04391 4.49718   1
   1   6  -3-4.57982 4.40239   2
   1   6  -3-1.45256 4.18115   1
  -1  -6   3 3.26992 4.15455   2
   1   6  -2-1.03442 4.29844   1
  -1  -6   2-0.52471 3.90865   1
  -1  -6   2 14.2744 5.07022   2
   1   6  -2 6.48853 4.44420   2
   1   6  -1 11.7655 4.87158   1
  -1  -6   1 0.11729 4.40490   2
   1   6  -1 8.31111 5.02615   2
  -1  -6   1 5.67585 4.62431   1
  -1  -6   0 9.20649 5.40362   1
  -1  -6   0 10.4903 5.16549   2
   1   6   0 15.7467 5.16442   1
   1   6   0 18.9174 5.77986   2
  -1  -6  -1 161.219 11.6592   2
   1   6   1 155.735 11.7062   2
   1   6   1 159.353 11.5103   1
  -1  -6  -1 142.722 11.3635   1
  -1  -6  -2 46.2753 8.30027   1
   1   6   2 63.5661 8.66306   2
   1   6   2 53.8220 8.03294   1
  -1  -6  -2 62.0536 8.67118   2
  -1  -6  -3 0.14661 5.81393   2
  -1  -6  -3 5.62499 6.57119   1
   1   6   3-2.97165 5.29164   1
  -1  -6  -4 17.7990 7.32231   1
  -1  -6  -4 18.4325 7.01738   2
   1   6   4 22.4694 7.34345   1
  -1  -6  -5 20.6745 8.19368   2
   1   6   5 30.8217 8.81117   1
  -1  -6  -5 33.9997 9.34080   1
  -1  -6  -6-3.35781 7.85937   1
  -1  -6  -6 1.82387 8.30506   2
   1   6   6-0.66337 7.77953   1
  -1  -6  -7 15.7026 9.60301   1
   1   6   7-0.38895 8.78950   1
  -1  -6  -7 8.35256 9.24276   2
  -1  -6  -8 64.9693 13.0232   1
  -1  -6  -8 81.8656 14.6326   2
   1   6   8 68.8559 12.7275   1
  -1  -6  -9 16.4317 12.0023   2
   1   6   9 23.3655 12.0203   1
   1   6  10 13.8021 14.4225   1
  -1  -6 -10 22.9649 15.0470   2
  -1  -6 -10 11.3738 15.8272   1
   1   7 -15 51.9335 12.5482   2
  -1  -7  15 78.5951 10.3165   1
  -1  -7  15 64.2652 10.4149   1
  -1  -7  14 13.7397 8.48683   1
   1   7 -14 14.8317 10.8025   2
  -1  -7  14 40.2149 8.87829   1
   1   7 -13 49.2898 10.4527   2
  -1  -7  13 77.0993 9.33229   1
  -1  -7  13 56.5469 9.09867   1
  -1  -7  12 8.51900 6.96475   1
   1   7 -12 17.8356 8.77598   2
  -1  -7  12 8.23367 8.18540   2
  -1  -7  12 9.57993 6.48134   1
  -1  -7  11 7.37075 7.08609   2
   1   7 -11-1.36808 7.40400   2
  -1  -7  11 5.12955 5.47559   1
  -1  -7  11 2.86856 5.96155   1
   1   7 -10 16.1773 7.04518   2
  -1  -7  10 4.46167 6.84752   2
  -1  -7  10 2.41903 5.17737   1
   1   7  -9 8.96658 6.03480   2
  -1  -7   9 17.7615 6.85562   2
  -1  -7   9 3.14756 4.97479   1
   1   7  -9 12.3706 5.56682   1
  -1  -7   8 29.5693 7.01947   2
   1   7  -8 19.0618 6.58740   2
  -1  -7   8 32.3265 6.47628   1
   1   7  -8 29.5118 6.57185   1
   1   7  -7 46.1093 7.63890   2
  -1  -7   7 32.5212 6.39370   1
  -1  -7   7 49.3754 7.95258   2
   1   7  -7 52.1750 7.24983   1
  -1  -7   6 8.92607 5.07156   1
   1   7  -6 12.7221 5.53934   2
  -1  -7   6 8.45135 5.66094   2
   1   7  -6 13.6515 5.22618   1
  -1  -7   5 99.4502 9.86182   2
  -1  -7   5 86.0598 8.90191   1
   1   7  -5 96.1136 9.85964   2
   1   7  -5 100.904 9.40275   1
   1   7  -4 87.2064 9.29580   2
  -1  -7   4 85.3707 9.28841   2
   1   7  -4 78.4378 8.73930   1
  -1  -7   4 78.1607 8.72263   1
   1   7  -3 59.9403 8.37195   2
  -1  -7   3 50.5261 7.84483   2
  -1  -7   3 39.9542 7.22330   1
   1   7  -3 50.2729 7.59179   1
   1   7  -2 17.8345 5.83368   1
   1   7  -2 9.89775 5.77250   2
  -1  -7   2 18.3693 6.09392   2
  -1  -7   2 17.9806 6.37848   1
  -1  -7   1 6.88882 5.46442   1
  -1  -7   1 5.40749 5.49694   2
   1   7  -1 5.91173 5.61501   1
   1   7  -1 5.90029 5.39930   2
  -1  -7   0 51.0004 8.54889   2
  -1  -7   0 45.2885 8.29417   1
   1   7   0 47.9072 7.96099   1
   1   7   0 46.6478 8.34090   2
   1   7   1 70.2073 9.99576   2
  -1  -7  -1 51.7217 9.31433   1
   1   7   1 54.6354 9.14198   1
  -1  -7  -1 48.3491 8.79699   2
  -1  -7  -2 224.528 15.4768   2
  -1  -7  -2 196.512 15.1678   1
   1   7   2 238.693 15.9510   2
   1   7   2 205.882 14.8518   1
  -1  -7  -3 40.2381 9.54502   2
   1   7   3 42.8495 9.24811   1
  -1  -7  -3 33.6516 9.09641   1
  -1  -7  -4-2.42884 8.63391   1
  -1  -7  -4 0.36659 7.98687   2
   1   7   4-2.19473 7.94700   1
  -1  -7  -5-5.96337 8.88194   1
   1   7   5-9.76865 8.10387   1
  -1  -7  -5 6.13828 9.01498   2
   1   7   6-6.26691 10.1210   1
  -1  -7  -6 13.5455 10.1045   2
  -1  -7  -6 24.4600 11.1248   1
   1   7   7 102.329 16.3038   1
  -1  -7  -7 91.3631 16.4814   1
  -1  -7  -8-7.30710 13.3456   2
  -1  -7  -8 0.42911 14.2295   1
   1   7   8-16.3426 14.2525   1
   1   7   9 27.7100 10.7280   1
  -1  -7  -9 32.7495 10.6671   2
  -1  -7  -9 58.3293 13.0970   1
  -1  -8  15-9.42429 9.17790   1
  -1  -8  15-2.08230 8.83034   1
   1   8 -15 3.74083 12.8856   2
  -1  -8  14 18.5225 9.07461   1
   1   8 -14 14.2391 11.5514   2
  -1  -8  14 30.0902 8.63766   1
   1   8 -13 86.9622 13.8937   2
  -1  -8  13 81.1169 10.6910   1
  -1  -8  13 66.1028 12.1015   2
  -1  -8  13 60.9213 10.1434   1
   1   8 -12 2.10580 9.72576   2
  -1  -8  12-1.26383 6.78245   1
  -1  -8  12 18.2680 9.65504   2
  -1  -8  12 11.0419 7.46775   1
  -1  -8  11-1.18700 6.51372   1
  -1  -8  11-0.17002 8.60499   2
   1   8 -11 4.98680 8.52352   2
  -1  -8  11-4.83710 7.40276   1
   1   8 -10-3.54469 8.02216   2
   1   8 -10 10.6875 6.16359   1
  -1  -8  10 20.5646 7.81690   2
  -1  -8  10 2.34629 5.82445   1
   1   8  -9 5.11227 7.44120   2
  -1  -8   9-0.81878 5.71581   1
   1   8  -9-2.41299 6.05840   1
  -1  -8   9 6.22640 6.86778   2
   1   8  -8 27.6050 8.44916   2
  -1  -8   8 36.0573 7.42391   1
   1   8  -8 46.4772 8.35018   1
  -1  -8   8 33.8218 8.65972   2
  -1  -8   7 56.5023 9.13381   2
   1   8  -7 48.3229 9.11451   2
   1   8  -7 51.9445 8.37447   1
  -1  -8   7 46.3410 8.14097   1
  -1  -8   6 203.351 14.5781   2
   1   8  -6 187.079 13.9183   2
  -1  -8   6 176.834 12.8084   1
   1   8  -6 182.160 12.9733   1
   1   8  -5-0.10290 6.20424   2
  -1  -8   5-2.09224 6.38683   2
   1   8  -5-6.61645 6.13888   1
  -1  -8   5 7.94449 6.00654   1
   1   8  -4 39.6831 7.73826   1
  -1  -8   4 32.1399 8.09798   2
   1   8  -4 20.5026 7.48419   2
  -1  -8   4 21.9453 6.99734   1
   1   8  -3 71.9274 10.0023   2
  -1  -8   3 70.8148 9.72565   2
   1   8  -3 71.9303 9.44247   1
  -1  -8   3 54.6285 8.91240   1
  -1  -8   2 121.245 11.9556   2
   1   8  -2 145.911 13.0126   2
  -1  -8   2 112.901 11.9578   1
   1   8  -2 109.265 11.3618   1
  -1  -8   1-2.36697 6.53416   2
   1   8  -1-10.3831 7.40849   1
  -1  -8   1 3.87062 7.07607   1
   1   8  -1-1.98539 7.29160   2
   1   8   0 6.16453 7.54657   2
  -1  -8   0 16.7043 8.08352   2
  -1  -8   0 14.2340 8.12019   1
   1   8   0 9.58398 7.50241   1
   1   8   1 21.2624 8.82423   2
  -1  -8  -1 18.1589 8.75327   2
  -1  -8  -1 26.6055 8.86182   1
   1   8   1 22.2171 8.51942   1
  -1  -8  -2 3.57312 9.03622   1
  -1  -8  -2 3.84135 8.07425   2
   1   8   2-0.76843 7.91198   2
   1   8   2-7.96353 8.86592   1
  -1  -8  -3 14.6324 9.32418   2
  -1  -8  -3-1.86387 8.73328   1
   1   8   3 18.2536 10.0197   1
  -1  -8  -4 15.2293 10.7170   2
  -1  -8  -4 18.2168 10.4775   1
   1   8   4 15.8921 10.1107   1
  -1  -8  -5 16.0129 11.7950   2
  -1  -8  -5 9.31423 12.8924   1
   1   8   5 13.5085 11.9910   1
  -1  -8  -6 29.4461 14.4858   1
   1   8   6 37.9687 13.9476   1
  -1  -8  -6 19.4390 12.2166   2
  -1  -8  -7 12.3037 15.6932   1
   1   8   7 18.0450 15.6377   1
  -1  -8  -7 2.63961 15.7550   2
  -1  -9  14-2.19496 10.3213   1
  -1  -9  14 0.49004 9.52186   1
   1   9 -14 27.7883 13.7676   2
  -1  -9  13 0.04963 9.32656   1
   1   9 -13 33.3327 12.1867   2
  -1  -9  13 22.9942 8.75515   1
  -1  -9  13 18.6609 12.4974   2
  -1  -9  12 1.35624 8.21475   1
   1   9 -12-13.3929 10.5319   2
  -1  -9  12 11.4914 10.6584   2
  -1  -9  12 22.1647 9.84175   1
  -1  -9  11 3.14528 8.28249   1
   1   9 -11-7.39786 8.28404   1
   1   9 -11 25.0030 10.8718   2
  -1  -9  11-7.15171 10.4588   2
  -1  -9  10 6.56360 7.33929   1
   1   9 -10 10.2192 9.23670   2
   1   9 -10 24.4557 8.40346   1
  -1  -9  10 4.46000 9.82965   2
   1   9  -9 151.999 15.4095   2
  -1  -9   9 136.258 12.9241   1
  -1  -9   9 154.617 15.5123   2
   1   9  -9 137.177 12.7984   1
  -1  -9   8 28.8077 8.66665   1
   1   9  -8 18.3614 7.77497   1
  -1  -9   8 35.9769 10.2231   2
   1   9  -8 7.47077 8.88697   2
   1   9  -7 41.9913 8.95347   1
   1   9  -7 50.4861 10.7033   2
  -1  -9   7 44.5607 9.10334   1
  -1  -9   7 46.8954 10.2587   2
   1   9  -6 29.2658 9.13217   2
  -1  -9   6 60.9448 10.9748   2
   1   9  -6 42.5708 9.07537   1
  -1  -9   6 43.2958 9.08702   1
   1   9  -5 66.8576 10.2964   1
  -1  -9   5 65.6943 10.8504   2
  -1  -9   5 77.2941 10.7418   1
   1   9  -5 66.9993 11.2626   2
  -1  -9   4 92.2114 11.8674   2
   1   9  -4 106.637 12.0698   1
  -1  -9   4 71.8428 10.9471   1
   1   9  -4 89.9935 12.2496   2
   1   9  -3 10.7674 8.24819   2
   1   9  -3-5.95870 8.04096   1
  -1  -9   3 2.83184 7.58154   2
  -1  -9   3-2.95689 8.28834   1
   1   9  -2 4.99735 7.79473   1
  -1  -9   2 8.65530 8.87328   2
  -1  -9   2 1.09704 8.16294   1
   1   9  -2-8.42759 8.71027   2
   1   9  -1 30.5414 10.2075   2
   1   9  -1 15.0683 8.98395   1
  -1  -9   1 33.3467 10.3109   2
  -1  -9   1 0.40506 8.92077   1
   1   9   0 12.0503 9.59272   1
  -1  -9   0 25.3755 10.1678   2
  -1  -9   0 22.5285 10.3823   1
   1   9   0-1.44504 9.53924   2
   1   9   1 12.6212 10.3764   2
  -1  -9  -1 17.1222 10.7288   2
  -1  -9  -1 32.3950 11.3938   1
   1   9   1 23.3079 10.5177   1
  -1  -9  -2 9.31943 10.5486   2
  -1  -9  -2-7.29390 10.8400   1
   1   9   2-9.54688 11.1041   1
  -1  -9  -3 31.3593 14.4648   1
   1   9   3 22.2415 12.3292   1
  -1  -9  -4 29.5640 13.5204   2
  -1  -9  -4-6.66774 13.9385   1
   1   9   4-6.14468 12.7957   1
   1   9   5 20.2185 14.8957   1
  -1  -9  -5 15.6012 15.4998   2
  -1  -9  -5 21.6592 15.6713   1
  -1 -10  13 25.1373 7.25123   1
   1  10 -13 3.71175 7.61243   2
  -1 -10  13 22.8317 9.40097   2
  -1 -10  13 26.7007 7.86331   1
  -1 -10  12-5.78047 10.6714   1
   1  10 -12-0.99321 13.3623   2
  -1 -10  12 8.37565 13.9263   2
   1  10 -11 4.49995 9.42407   1
   1  10 -11 1.33701 12.9085   2
  -1 -10  11 5.66382 9.77317   1
  -1 -10  11-7.01044 12.2467   2
  -1 -10  10 52.2934 11.7373   1
   1  10 -10 49.6997 13.7825   2
  -1 -10  10 34.8533 12.8520   2
   1  10 -10 44.6825 11.0577   1
   1  10  -9 0.28522 11.1069   2
  -1 -10   9 0.39813 8.42140   1
   1  10  -9-13.7410 10.5333   1
  -1 -10   8 19.6061 9.63163   1
   1  10  -8 18.2293 9.09867   1
   1  10  -8 41.4612 11.9679   2
  -1 -10   8 19.4357 10.6546   2
  -1 -10   7-12.4853 11.3915   2
   1  10  -7 1.81944 9.82981   2
   1  10  -7-1.33338 9.30290   1
  -1 -10   7-4.83486 9.70907   1
   1  10  -6-6.93910 10.6329   2
  -1 -10   6 6.79125 9.89878   2
   1  10  -6 6.10212 8.94969   1
  -1 -10   6 16.8026 9.63427   1
   1  10  -5 55.3480 12.3393   2
  -1 -10   5 25.4987 11.0136   2
   1  10  -5 32.9734 10.0221   1
  -1 -10   5 16.1183 10.1545   1
   1  10  -4 70.4054 12.6378   1
   1  10  -4 54.7406 12.5217   2
  -1 -10   4 65.2521 12.4403   1
  -1 -10   4 58.3528 12.5888   2
   1  10  -3 52.7841 11.8186   1
   1  10  -3 54.5432 12.8361   2
  -1 -10   3 49.8997 12.5063   2
  -1 -10   3 61.7489 12.9754   1
  -1 -10   2 84.9190 14.5469   1
   1  10  -2 105.819 14.9488   2
   1  10  -2 98.9616 14.4847   1
  -1 -10   2 90.5023 14.0590   2
   1  10  -1 9.86924 11.8770   2
  -1 -10   1 22.5314 12.5692   2
   1  10  -1 7.30566 10.8798   1
  -1 -10   1 3.73131 11.7948   1
   1  10   0 27.5400 13.0792   2
  -1 -10   0 3.35345 12.3451   2
   1  10   0 0.92510 11.3793   1
  -1 -10   0-7.01382 12.2601   1
   1  10   1-16.1517 12.5842   1
   1  10   1-6.25362 13.1607   2
  -1 -10  -1 4.20109 12.9356   2
  -1 -10  -1-4.63302 12.9836   1
  -1 -10  -2 8.42104 13.5902   2
  -1 -10  -2 46.8045 16.1397   1
   1  10   2 21.5464 14.6933   1
  -1 -10  -3 32.1951 18.1248   1
  -1 -10  -3 97.8208 19.3495   2
   1  10   3 71.2414 18.5472   1
   1  11 -10 26.3365 16.0338   2
  -1 -11  10 4.49012 14.9980   2
   1  11 -10-1.07831 11.8689   1
  -1 -11  10 16.7354 12.2696   1
   1  11  -9 11.9448 14.0252   2
   1  11  -9 24.6912 12.2440   1
  -1 -11   9 27.5709 13.8575   2
  -1 -11   9 31.0437 12.5844   1
   1  11  -8 11.1628 13.3183   2
  -1 -11   8 7.18657 13.3720   2
   1  11  -8 46.0772 12.8811   1
  -1 -11   8 2.97273 12.2872   1
   1  11  -7 25.4463 13.2303   2
  -1 -11   7 30.0904 13.3812   2
  -1 -11   7 0.57232 12.1902   1
   1  11  -7 24.6881 11.4477   1
   1  11  -6-4.69266 13.2012   2
  -1 -11   6-11.5768 13.5109   2
   1  11  -6 9.04261 12.1092   1
  -1 -11   6 9.62596 12.3544   1
   1  11  -5 47.6099 13.0534   1
  -1 -11   5 73.6056 15.9736   2
   1  11  -5 50.9273 14.3286   2
  -1 -11   5 26.9202 12.7494   1
   1  11  -4 3.48791 14.1008   2
   1  11  -4-9.98976 13.1861   1
  -1 -11   4 24.9723 13.0479   2
  -1 -11   4 3.96074 12.9884   1
   1  11  -3 6.97069 13.8073   2
  -1 -11   3 38.7391 13.6347   2
   1  11  -3 27.6684 13.5561   1
  -1 -11   3 12.0696 13.6721   1
   1  11  -2 32.4933 14.6679   2
   1  11  -2 14.2174 13.5441   1
  -1 -11   2 29.9343 14.6921   2
  -1 -11   2 30.4764 15.2663   1
   1  11  -1 9.32550 14.8137   1
   1  11  -1 19.3712 16.4167   2
  -1 -11   1-3.05589 15.2500   2
  -1 -11   1-9.31227 14.8970   1
   1  11   0 1.06388 12.7687   1
  -1 -11   0 13.0387 13.9772   1
  -2  11   0 7.57503 15.2175   2
  -2  11   0 15.4539 13.9430   1
   2 -11   0 16.2253 14.1780   2
   2 -11   0 1.67962 14.6909   1
  -2  11  -1-25.6173 13.8272   2
   2 -11   1 1.64866 13.5504   1
   2 -11   1-11.6040 13.7306   2
  -2  11  -1 3.01391 12.9113   1
  -2  11  -2 15.0094 14.3203   2
   2 -11   2 3.66240 13.1775   1
  -2  11  -2 22.0742 11.7787   1
   2 -11   2 3.92534 14.5198   2
   2 -11   3 20.0992 12.7128   1
  -2  11  -3 10.5505 14.5846   2
   2 -11   3 17.8190 14.6245   2
  -2  11  -3 8.70377 11.3234   1
  -2  11  -4-14.5810 14.6942   2
   2 -11   4 5.89085 11.5020   1
   2 -11   4 5.44238 13.2430   2
  -2  11  -4-19.5376 11.0035   1
   2 -11   5 26.8518 10.5851   1
  -2  11  -5 5.19982 14.4662   2
  -2  11  -5 31.5948 10.1490   1
   2 -11   5 9.34659 13.2513   2
  -2  11  -6-0.77211 9.85717   1
   2 -11   6 18.2402 14.0395   2
  -2  11  -6 20.1609 13.7934   2
   2 -11   6-10.5262 10.8869   1
   2 -11   7 2.85318 9.46662   1
  -2  11  -7 7.12813 14.7140   2
   2 -11   7-8.55236 15.6409   2
  -2  11  -8 59.8707 18.3834   2
   2 -11   8 34.5940 16.2772   2
  -2  11  -8 35.3406 9.39188   1
   2 -11   8 41.6864 9.98370   1
   2 -11   9 2.90106 4.92745   1
  -2  11  -9 8.36675 4.86020   1
   2 -10  -3 98.1093 17.8526   2
  -2  10   3 97.7457 17.2452   1
  -2  10   3 58.8812 14.8677   2
   2 -10  -3 72.0633 18.6674   1
  -2  10   2 64.1191 14.5112   2
   2 -10  -2 34.3592 13.8923   1
  -2  10   2 87.7622 15.6575   1
   2 -10  -2 23.1809 12.6936   2
  -2  10   1 9.03724 12.4502   2
   2 -10  -1 3.27391 11.7537   2
   2 -10  -1-6.98065 12.8294   1
  -2  10   1-14.4844 11.1440   1
  -2  10   0-9.10209 11.2575   2
   2 -10   0-5.70705 10.7696   1
   2 -10   0-3.64090 10.6593   2
  -2  10   0 12.9825 11.3398   1
   2 -10   1 0.54449 10.7857   1
  -2  10  -1-10.4357 10.2601   1
  -2  10  -1 13.7428 10.9776   2
   2 -10   1 9.91221 11.2639   2
   2 -10   2 23.4129 10.6150   2
  -2  10  -2 29.0271 11.6632   2
   2 -10   2 25.0817 10.5677   1
  -2  10  -2 30.2169 9.71146   1
   2 -10   3 4.37902 9.17428   1
  -2  10  -3 17.9980 11.0171   2
   2 -10   3 12.3420 10.7082   2
  -2  10  -3-4.05627 8.75424   1
   2 -10   4 6.36889 8.56614   1
  -2  10  -4 8.79354 10.2892   2
   2 -10   4 9.34540 10.3761   2
  -2  10  -4 1.67546 7.74238   1
   2 -10   5 15.0815 8.56366   1
   2 -10   5 19.4493 10.6950   2
  -2  10  -5 28.5174 11.6597   2
  -2  10  -5 28.9549 8.42063   1
   2 -10   6 23.6642 8.33290   1
  -2  10  -6 44.3713 12.8643   2
   2 -10   6 64.2082 13.2836   2
  -2  10  -6 35.1465 8.59034   1
   2 -10   7 3.93904 6.85873   1
  -2  10  -7 18.3814 12.3335   2
  -2  10  -7 4.56661 7.02489   1
   2 -10   8-3.90924 6.05507   1
   2 -10   8 15.2623 13.2315   2
  -2  10  -8 0.50448 5.66192   1
   2 -10   9-3.80338 13.2890   2
   2 -10   9-3.47048 3.88654   1
  -2  10  -9 5.71713 4.15874   1
  -2  10 -10-4.49266 14.8180   2
   2 -10  10-1.56184 13.5328   2
   2 -10  11 12.2615 15.5584   2
  -2  10 -11 9.48677 16.0700   2
  -2   9   6 64.0388 17.0821   1
   2  -9  -6 30.8453 12.5757   2
   2  -9  -6 16.5116 16.0246   1
  -2   9   5 29.2443 13.9344   1
   2  -9  -5 28.7282 15.0686   1
   2  -9  -5 38.5809 13.1228   2
   2  -9  -4 16.8462 13.5091   1
  -2   9   4 17.6571 13.1298   1
   2  -9  -4 7.43403 11.4782   2
  -2   9   4 23.6931 12.2124   2
   2  -9  -3 72.3432 13.8438   2
   2  -9  -3 65.2826 14.8969   1
  -2   9   3 44.8253 11.9275   2
  -2   9   3 82.9403 14.6651   1
  -2   9   2-14.5349 10.6988   2
   2  -9  -2 0.36647 10.4894   1
   2  -9  -2 14.2830 9.43219   2
  -2   9   2 13.3345 9.61254   1
  -2   9   1-9.71987 9.65827   2
   2  -9  -1 0.13635 9.56841   1
   2  -9  -1 0.43658 9.01483   2
  -2   9   1-13.2574 8.86031   1
   2  -9   0 36.6309 10.5475   1
  -2   9   0 61.4465 11.9015   2
   2  -9   0 42.6741 10.7327   2
  -2   9   0 29.4718 9.73416   1
   2  -9   1 58.2695 10.8006   2
   2  -9   1 55.0455 10.7221   1
  -2   9  -1 72.8281 11.9774   2
  -2   9  -1 49.2808 9.49710   1
   2  -9   2-6.12637 7.14982   1
  -2   9  -2 18.9442 9.39779   2
   2  -9   2 9.73570 8.53800   2
  -2   9  -2 8.22607 6.78832   1
  -2   9  -3 15.7962 7.11943   1
  -2   9  -3 19.6980 9.57168   2
   2  -9   3 10.2983 7.38322   1
   2  -9   3 22.5088 9.47283   2
   2  -9   4 23.9779 7.86883   1
  -2   9  -4 6.49314 8.35430   2
   2  -9   4 30.7011 9.72816   2
  -2   9  -4 22.7856 6.84435   1
  -2   9  -5 49.0769 11.2305   2
   2  -9   5 51.7334 10.6949   2
  -2   9  -5 43.6593 7.27409   1
   2  -9   5 44.4315 8.10928   1
   2  -9   6-3.97366 5.55058   1
  -2   9  -6-2.28097 5.11830   1
  -2   9  -6-14.2964 9.80249   2
   2  -9   6 14.2505 9.19569   2
   2  -9   7 1.65665 5.22509   1
  -2   9  -7-1.29318 9.40108   2
  -2   9  -7-1.60377 4.67069   1
   2  -9   7-0.93424 9.39875   2
  -2   9  -8 42.2380 5.35834   1
   2  -9   8 51.1588 12.2105   2
  -2   9  -8 36.0299 11.8176   2
   2  -9   8 24.0492 4.78563   1
  -2   9  -9 25.5665 10.8912   2
   2  -9   9 27.9317 11.6112   2
  -2   9 -10 0.77572 12.5787   2
   2  -9  10 36.6969 13.3561   2
  -2   9 -11 24.3221 14.4674   2
  -2   9 -12 39.9693 14.9858   2
   2  -8  -8 39.5757 9.86978   2
  -2   8   7 24.1430 13.1695   1
   2  -8  -7-15.3028 16.2549   1
   2  -8  -7 20.8380 12.1726   2
  -2   8   6 13.5356 12.9693   1
   2  -8  -6-6.04361 12.5675   1
   2  -8  -6 2.35502 10.0354   2
   2  -8  -5 85.8165 12.5884   2
  -2   8   5 73.3549 14.1224   1
   2  -8  -5 77.4253 15.0730   1
  -2   8   5 92.9463 13.1557   2
  -2   8   4-5.14662 8.73161   2
  -2   8   4 10.1559 9.52335   1
   2  -8  -4-4.32365 10.1794   1
   2  -8  -4 5.70926 8.33219   2
   2  -8  -3-5.49545 8.79797   1
   2  -8  -3 1.60262 8.30740   2
  -2   8   3 3.91624 8.62570   2
  -2   8   3 0.57025 8.20521   1
   2  -8  -2 34.6220 9.42285   1
  -2   8   2 57.5862 10.3372   1
   2  -8  -2 38.7955 8.70766   2
  -2   8   2 48.9711 9.65537   2
   2  -8  -1 91.6621 11.3719   2
  -2   8   1 93.7422 11.5914   1
  -2   8   1 91.4602 11.4470   2
   2  -8  -1 92.6852 11.8433   1
  -2   8   0-0.10009 6.38509   1
  -2   8   0 5.89587 6.95403   2
   2  -8   0 5.70186 7.58357   2
   2  -8   0 14.2531 7.40726   1
   2  -8   1 27.6856 8.01294   1
  -2   8  -1 30.1506 7.58074   1
  -2   8  -1 41.6583 8.96263   2
   2  -8   1 35.8505 8.20814   2
  -2   8  -2 5.66679 5.24291   1
  -2   8  -2 6.08534 6.68650   2
   2  -8   2 9.76933 6.74148   2
   2  -8   2 2.50746 6.19551   1
  -2   8  -3 20.2032 5.99587   1
   2  -8   3 13.6488 6.34748   1
  -2   8  -3 21.8448 7.70737   2
   2  -8   3 2.55674 6.48263   2
  -2   8  -4 11.8357 5.03576   1
   2  -8   4 21.5393 6.11277   1
  -2   8  -4 14.3101 7.70517   2
   2  -8   4 12.9293 6.81045   2
   2  -8   5 34.2874 8.95044   2
  -2   8  -5 32.2815 8.61364   2
  -2   8  -5 18.9619 5.27193   1
   2  -8   5 25.9734 5.75277   1
  -2   8  -6-3.19630 3.93983   1
   2  -8   6 1.86329 4.18324   1
  -2   8  -6-1.16666 7.25943   2
   2  -8   6 3.53767 7.52984   2
  -2   8  -7 41.1784 10.1033   2
  -2   8  -7 44.2072 4.97328   1
   2  -8   7 39.7051 4.82813   1
   2  -8   8 0.65631 1.91521   1
   2  -8   8-1.77662 8.15694   2
  -2   8  -8-0.31868 8.68565   2
  -2   8  -9-3.00893 8.83969   2
   2  -8   9-14.6354 10.1025   2
   2  -8  10-19.4443 9.89377   2
  -2   8 -10-4.93765 9.94167   2
  -2   8 -11-3.88163 11.4002   2
  -2   8 -12 40.2224 14.6021   2
  -2   8 -13 46.5611 14.8565   2
  -2   7   9-10.5066 15.4076   1
   2  -7  -9-15.4908 16.3825   1
   2  -7  -9 19.6256 12.6101   2
  -2   7   8 58.1291 15.1872   1
   2  -7  -8 57.8545 15.4556   1
   2  -7  -8 67.9303 12.0143   2
  -2   7   7 9.09757 10.4252   1
   2  -7  -7-10.4187 11.1445   1
   2  -7  -7 2.47839 9.16894   2
   2  -7  -6-13.6062 10.4438   1
   2  -7  -6-2.20127 7.53266   2
  -2   7   6-2.57969 9.93802   1
  -2   7   5-0.60858 7.48737   2
   2  -7  -5 9.79128 7.14992   2
   2  -7  -5 10.6949 9.57469   1
  -2   7   5-0.66220 8.68545   1
  -2   7   4 57.1699 9.54444   2
   2  -7  -4 65.3181 9.71618   2
  -2   7   4 42.9724 9.95968   1
   2  -7  -4 36.3693 9.85495   1
   2  -7  -3-8.26703 7.50331   1
  -2   7   3-7.53673 5.78817   2
   2  -7  -3 6.54287 6.30522   2
  -2   7   3-0.39445 6.71897   1
  -2   7   2 4.38937 6.05816   1
  -2   7   2 5.98089 6.16751   2
   2  -7  -2-4.53896 6.16195   1
   2  -7  -2-3.34635 5.85351   2
  -2   7   1 307.643 16.0779   2
   2  -7  -1 314.626 16.2505   2
  -2   7   1 285.230 15.9502   1
   2  -7  -1 271.419 16.0491   1
  -2   7   0 146.024 11.6712   2
   2  -7   0 159.936 12.0262   2
  -2   7   0 160.200 11.7833   1
   2  -7   0 155.960 11.9758   1
  -2   7  -1 23.3601 5.75290   1
   2  -7   1 39.4530 7.28143   2
  -2   7  -1 28.1011 7.06060   2
   2  -7   1 32.8744 7.03860   1
   2  -7   2 0.40520 5.33424   2
  -2   7  -2-0.87127 4.18790   1
  -2   7  -2-2.43860 5.64570   2
   2  -7   2-1.86632 4.58071   1
   2  -7   3 181.528 12.8060   2
  -2   7  -3 183.511 10.3387   1
  -2   7  -3 176.312 12.8881   2
   2  -7   3 188.121 10.9506   1
  -2   7  -4 15.1821 4.24956   1
   2  -7   4 12.1384 4.47884   1
  -2   7  -4 16.2010 6.35674   2
   2  -7   4 14.0572 6.07227   2
  -2   7  -5 24.6795 7.53261   2
   2  -7   5 17.3686 6.55337   2
  -2   7  -5 22.3015 4.18637   1
   2  -7   5 20.5789 4.39185   1
   2  -7   6 117.431 11.6035   2
  -2   7  -6 129.029 12.1066   2
   2  -7   6 96.7748 6.16895   1
  -2   7  -6 103.539 6.15774   1
  -2   7  -7 15.5537 2.41053   1
  -2   7  -7 25.1176 7.91319   2
   2  -7   7 21.5499 7.29223   2
   2  -7   7 15.9663 2.51808   1
  -2   7  -8 143.144 13.4001   2
   2  -7   8 110.051 11.7634   2
  -2   7  -9-1.40279 7.57497   2
   2  -7   9-3.21954 7.45295   2
  -2   7 -10 33.0238 10.5287   2
  -2   7 -11 36.3501 11.4469   2
  -2   7 -12-3.63905 11.0189   2
  -2   7 -13 101.831 16.0606   2
  -2   7 -14 28.0932 15.6247   2
   2  -6 -10 7.33344 14.1683   1
   2  -6 -10 18.2356 10.5022   2
  -2   6  10 5.32947 14.0878   1
   2  -6  -9 1.77734 12.9543   1
   2  -6  -9 21.9161 9.80056   2
  -2   6   9 0.89107 12.2059   1
   2  -6  -8 12.8249 10.7214   1
   2  -6  -8 8.28871 7.73196   2
  -2   6   8 18.1342 11.0942   1
   2  -6  -7-4.11473 8.78625   1
   2  -6  -7 10.3413 6.99429   2
  -2   6   7 1.58859 9.39085   1
   2  -6  -6-2.26426 8.00171   1
   2  -6  -6 2.88279 5.59877   2
  -2   6   6 9.73716 7.86809   1
  -2   6   5 4.79492 5.64601   2
   2  -6  -5 13.6574 8.06093   1
   2  -6  -5 8.90393 6.07847   2
  -2   6   5 2.34091 7.16121   1
  -2   6   4 28.7943 7.53227   1
   2  -6  -4 35.6638 7.02589   2
   2  -6  -4 41.8004 8.84162   1
  -2   6   4 30.6656 6.53267   2
   2  -6  -3 65.2695 7.91615   2
  -2   6   3 62.8084 9.11266   1
  -2   6   3 65.3446 8.07049   2
   2  -6  -3 46.1538 8.61500   1
   2  -6  -2-4.75273 5.76334   1
   2  -6  -2-5.89102 4.84102   2
  -2   6   2 5.17095 4.83581   2
  -2   6   2 0.80896 5.11781   1
   2  -6  -1-4.73431 5.00140   1
  -2   6   1 1.34041 4.68443   2
   2  -6  -1-2.79465 4.49035   2
  -2   6   1-1.83785 4.42428   1
  -2   6   0 32.5396 6.22322   2
  -2   6   0 36.1875 6.13430   1
   2  -6   0 35.8034 6.37349   2
   2  -6   0 29.5306 6.17139   1
  -2   6  -1 146.640 9.66606   1
   2  -6   1 151.107 10.6305   2
  -2   6  -1 148.061 10.6750   2
   2  -6   1 143.571 9.85012   1
  -2   6  -2 12.3062 4.15561   1
   2  -6   2 14.8323 4.25406   1
  -2   6  -2 19.8335 5.54077   2
   2  -6   2 15.1657 5.37898   2
  -2   6  -3 235.784 13.2356   2
   2  -6   3 256.749 13.6240   2
  -2   6  -3 231.722 10.2003   1
   2  -6   3 253.150 10.9495   1
   2  -6   4 7.32538 3.34406   1
   2  -6   4 1.41710 4.81660   2
  -2   6  -4 1.28820 2.89439   1
  -2   6  -4 0.12422 4.61572   2
  -2   6  -5 61.6571 8.16831   2
   2  -6   5 55.9963 7.87409   2
  -2   6  -5 55.7563 4.46227   1
   2  -6   5 60.0212 4.80793   1
  -2   6  -6 9.70748 1.98155   1
   2  -6   6 8.88995 2.12662   1
  -2   6  -6 7.91574 5.90547   2
   2  -6   6 11.2413 5.71737   2
  -2   6  -7 33.7660 7.84666   2
   2  -6   7 34.6246 7.26189   2
  -2   6  -8 39.1086 8.20608   2
   2  -6   8 11.5906 6.78692   2
  -2   6  -9 10.4206 7.60375   2
  -2   6 -10 13.3075 8.21769   2
  -2   6 -11-0.06490 8.67832   2
  -2   6 -12-6.02371 10.3588   2
  -2   6 -13 0.45301 11.4879   2
  -2   6 -14-2.35989 14.2327   2
  -2   6 -15 25.7661 9.79330   2
   2  -5 -12 68.3392 10.5162   2
   2  -5 -12 14.9043 12.8173   1
   2  -5 -11 2.30191 14.3631   1
   2  -5 -11 2.34572 9.86217   2
  -2   5  11-7.25054 14.3013   1
   2  -5 -10 56.8461 10.8185   2
   2  -5 -10 32.5762 13.5417   1
  -2   5  10 30.3060 13.2732   1
   2  -5  -9-2.10928 9.71483   1
   2  -5  -9 10.0872 7.25290   2
  -2   5   9 8.61242 10.0180   1
   2  -5  -8 5.31911 8.40692   1
  -2   5   8 13.1136 8.41089   1
   2  -5  -8 5.63604 6.43705   2
   2  -5  -7 9.45163 5.68676   2
   2  -5  -7 3.04725 7.97302   1
  -2   5   7 6.85107 7.43523   1
  -2   5   6 128.676 12.5781   1
   2  -5  -6 146.231 10.3405   2
  -2   5   5 86.5535 8.15581   2
   2  -5  -5 106.346 8.79097   2
  -2   5   5 96.6991 10.4455   1
   2  -5  -5 94.4292 10.8871   1
   2  -5  -4 8.78331 5.80505   1
  -2   5   4 11.8053 4.54067   2
   2  -5  -4 6.36011 4.01830   2
  -2   5   4 11.9388 6.16041   1
  -2   5   3 221.208 13.1749   1
  -2   5   3 215.435 11.2983   2
   2  -5  -3 248.375 11.9431   2
   2  -5  -3 225.400 13.6737   1
  -2   5   2 35.5537 5.71713   2
  -2   5   2 46.4341 6.86739   1
   2  -5  -2 33.7076 5.45188   2
   2  -5  -2 44.9137 6.87854   1
  -2   5   1 26.7456 5.33746   1
  -2   5   1 20.7649 4.89972   2
   2  -5  -1 25.8835 5.45231   1
   2  -5  -1 27.4181 4.97590   2
  -2   5   0 681.276 18.9115   2
  -2   5   0 691.604 18.9905   1
   2  -5   0 691.852 18.8023   2
   2  -5   0 670.925 19.1277   1
  -2   5  -1 138.196 8.37962   1
   2  -5   1 144.915 9.28348   2
  -2   5  -1 132.256 8.97934   2
   2  -5   1 140.696 8.71960   1
  -2   5  -2 222.094 11.4879   2
  -2   5  -2 221.016 9.57911   1
   2  -5   2 217.868 11.3253   2
   2  -5   2 233.399 10.0337   1
  -2   5  -3 35.7284 5.77597   2
  -2   5  -3 31.6928 3.95832   1
   2  -5   3 31.9427 5.49835   2
   2  -5   3 34.7727 4.16703   1
  -2   5  -4 42.0038 6.49229   2
   2  -5   4 47.0110 6.61671   2
  -2   5  -4 34.0140 3.50835   1
   2  -5   4 39.8939 3.88575   1
  -2   5  -5 120.592 9.73630   2
   2  -5   5 112.657 9.20822   2
  -2   5  -5 107.286 4.29113   1
   2  -5   5 107.216 4.45213   1
  -2   5  -6 26.9724 6.18553   2
   2  -5   6 24.1608 5.98252   2
  -2   5  -7 28.4954 6.71412   2
  -2   5  -8 8.40734 6.03387   2
  -2   5  -9 61.6081 9.59079   2
  -2   5 -10 161.650 14.1347   2
  -2   5 -11 142.109 14.1658   2
  -2   5 -12 49.3318 11.8480   2
  -2   5 -13 20.2708 11.3381   2
  -2   5 -14 34.4597 13.6445   2
  -2   5 -15 10.3678 14.9514   2
   2  -4 -13 57.9676 9.53518   2
   2  -4 -13 69.9183 14.8070   1
   2  -4 -12 43.5200 14.6669   1
   2  -4 -12 60.9441 10.8310   2
  -2   4  12 19.9223 12.9287   1
   2  -4 -11-0.63861 11.5587   1
   2  -4 -11 3.46331 7.91194   2
  -2   4  11-0.22917 11.5933   1
  -2   4  10 42.2354 11.6558   1
   2  -4 -10 26.8037 10.5634   1
   2  -4 -10 25.5254 7.43702   2
   2  -4  -9-4.15999 8.91572   1
   2  -4  -9-3.62820 5.99739   2
  -2   4   9-8.46452 8.21281   1
   2  -4  -8 15.4615 8.72625   1
  -2   4   8 8.81215 7.08480   1
   2  -4  -8 12.6965 5.55692   2
   2  -4  -7 7.34867 4.53567   2
   2  -4  -7 4.86634 6.59805   1
  -2   4   7 11.8612 7.41139   1
   2  -4  -6 2.64856 5.93643   1
   2  -4  -6 4.38484 3.80967   2
  -2   4   6 4.64673 5.50427   1
   2  -4  -5 33.4375 5.06733   2
  -2   4   5 39.0816 6.98455   1
  -2   4   5 46.2642 5.58046   2
   2  -4  -5 43.4032 7.35213   1
   2  -4  -4 1.75685 4.44294   1
  -2   4   4 3.17195 3.29825   2
   2  -4  -4 1.74805 3.09775   2
  -2   4   4-2.97732 4.21166   1
  -2   4   3 123.976 7.67032   2
  -2   4   3 125.623 9.48104   1
   2  -4  -3 128.976 7.66714   2
   2  -4  -3 130.248 9.89835   1
  -2   4   2 60.0555 6.59676   1
   2  -4  -2 49.0993 5.22906   2
  -2   4   2 49.5296 5.23951   2
   2  -4  -2 49.2455 6.25927   1
  -2   4   1 324.328 12.7923   1
  -2   4   1 309.331 11.4383   2
   2  -4  -1 307.846 11.2801   2
   2  -4  -1 325.527 13.0775   1
   2  -4   0 81.1028 6.41456   2
  -2   4   0 81.0364 6.50402   1
  -2   4   0 81.0275 6.35619   2
   2  -4   0 83.6590 6.69111   1
  -2   4  -1 696.739 17.3932   2
   2  -4   1 667.750 16.8662   2
  -2   4  -1 677.422 15.7497   1
   2  -4   1 667.124 15.9356   1
  -2   4  -2 2.92208 3.18085   2
   2  -4   2 2.78756 3.11842   2
  -2   4  -2 4.76285 2.53690   1
   2  -4   2 3.27459 2.49084   1
  -2   4  -3 256.117 7.91795   1
  -2   4  -3 268.418 11.8433   2
   2  -4   3 263.571 8.22843   1
   2  -4   3 259.214 11.5564   2
  -2   4  -4 176.036 5.27638   1
  -2   4  -4 176.748 10.2709   2
   2  -4   4 174.416 9.96413   2
   2  -4   4 179.516 5.63319   1
  -2   4  -5 74.2962 7.46770   2
   2  -4   5 67.2997 7.03824   2
  -2   4  -6 54.7928 7.16097   2
  -2   4  -7 559.797 20.0361   2
  -2   4  -8-1.34859 5.18518   2
  -2   4  -9 5.01849 6.09316   2
  -2   4 -10 75.5658 10.2788   2
  -2   4 -11 7.67465 7.42986   2
  -2   4 -12 7.40887 8.99833   2
  -2   4 -13-5.88440 11.4520   2
  -2   4 -14-12.7634 12.4409   2
  -2   4 -15-4.67914 13.6108   2
   2  -3 -13-7.85573 14.2219   1
   2  -3 -13 16.8810 8.67349   2
  -2   3  13-12.5432 14.2619   1
   2  -3 -12 17.3584 8.23442   2
   2  -3 -12 22.7717 12.4108   1
  -2   3  12 23.5609 11.2560   1
   2  -3 -11 2.80513 9.20203   1
   2  -3 -11 0.07582 6.48862   2
  -2   3  11-7.42927 9.31752   1
   2  -3 -10-5.27569 5.66965   2
   2  -3 -10 4.99967 8.63334   1
  -2   3  10 5.35400 7.78393   1
   2  -3  -9 7.78869 5.01701   2
  -2   3   9 8.97699 7.43352   1
   2  -3  -9-1.61816 6.98342   1
  -2   3   8 54.9716 9.34104   1
   2  -3  -8 53.0474 6.19666   2
   2  -3  -8 62.2158 9.53715   1
   2  -3  -7 104.964 7.30688   2
   2  -3  -7 79.6511 9.80935   1
  -2   3   7 96.9716 10.3620   1
   2  -3  -6 175.053 8.54896   2
   2  -3  -6 150.688 11.6318   1
  -2   3   6 174.440 12.1069   1
   2  -3  -5 1.12997 2.56758   2
   2  -3  -5-3.03161 4.66935   1
  -2   3   5-1.75323 4.44791   1
   2  -3  -4 24.5062 3.53509   2
   2  -3  -4 34.7385 5.92676   1
  -2   3   4 23.0210 3.55918   2
  -2   3   4 24.4235 5.07982   1
   2  -3  -3 13.3775 4.34269   1
  -2   3   3 6.85528 2.64585   2
  -2   3   3 10.3050 4.11899   1
   2  -3  -3 8.67973 2.70694   2
  -2   3   2 35.8550 3.90453   2
   2  -3  -2 41.4529 4.02054   2
   2  -3  -2 39.3286 5.29202   1
  -2   3   2 38.5830 5.17318   1
   2  -3  -1 52.9061 4.50978   2
  -2   3   1 46.0854 4.28551   2
   2  -3  -1 44.2940 5.09365   1
  -2   3   1 57.1216 5.50433   1
  -2   3   0 25.6818 3.68956   2
   2  -3   0 26.7973 3.54833   2
   2  -3   0 20.6062 3.60942   1
  -2   3   0 22.4151 3.69880   1
  -2   3  -1 45.5894 4.57006   2
   2  -3   1 41.7909 4.46207   2
   2  -3   1 43.7572 4.23752   1
  -2   3  -1 44.9273 4.08353   1
  -2   3  -2 32.8781 4.35984   2
   2  -3   2 27.1505 4.09826   2
   2  -3   2 32.8023 3.36561   1
  -2   3  -2 36.1153 3.34097   1
  -2   3  -3 210.952 5.97905   1
   2  -3   3 205.501 9.58634   2
  -2   3  -3 214.448 9.99642   2
  -2   3  -3 217.979 6.16462   1
  -2   3  -4 761.105 8.01480   1
  -2   3  -4 762.015 19.2030   2
  -2   3  -5 2.06272 3.42906   2
  -2   3  -6 1.33821 3.91069   2
  -2   3  -7 200.294 12.2209   2
  -2   3  -8 13.9901 5.89801   2
  -2   3  -9 17.1818 6.71499   2
  -2   3 -10 62.6248 9.42775   2
  -2   3 -11 27.0768 8.68447   2
  -2   3 -12 17.5416 9.46966   2
  -2   3 -13 5.94176 9.88778   2
  -2   3 -14 51.4235 13.8947   2
  -2   3 -15 6.25336 13.9974   2
   2  -2 -14 21.9830 10.1384   2
   2  -2 -14 19.1397 8.85053   2
  -2   2  14 20.3374 13.3420   1
   2  -2 -14 4.16532 14.2111   1
   2  -2 -13 42.2113 8.80759   2
  -2   2  13 30.7786 13.2203   1
   2  -2 -13 26.0553 13.4548   1
   2  -2 -12 1.99789 10.2351   1
  -2   2  12 1.02164 9.41541   1
   2  -2 -12 2.64847 6.22067   2
   2  -2 -11 9.72140 8.52558   1
   2  -2 -11 0.64766 5.33293   2
  -2   2  11 6.10849 8.03243   1
  -2   2  10 78.5262 10.8679   1
   2  -2 -10 75.5594 7.33898   2
   2  -2 -10 84.5147 11.5352   1
   2  -2  -9 130.356 8.16733   2
   2  -2  -9 106.960 11.6751   1
  -2   2   9 135.451 12.2358   1
   2  -2  -8 7.82084 3.29309   2
   2  -2  -8 2.30335 5.53216   1
  -2   2   8 7.94626 5.67825   1
   2  -2  -7 14.4049 3.20166   2
  -2   2   7 14.1987 5.39848   1
   2  -2  -7 18.0310 5.93724   1
   2  -2  -6 0.67843 4.47553   1
   2  -2  -6 1.38116 2.29150   2
  -2   2   6-2.00538 4.18373   1
   2  -2  -5 203.998 6.98005   2
   2  -2  -5 196.766 11.5597   1
  -2   2   5 192.594 11.2397   1
  -2   2   4 9.35177 2.15567   2
   2  -2  -4 10.2063 4.14733   1
   2  -2  -4 11.2739 2.23740   2
  -2   2   4 10.5247 4.02014   1
   2  -2  -3 6.91686 3.42220   1
  -2   2   3 3.46192 3.00509   1
   2  -2  -3 1.87017 1.65127   2
  -2   2   3 2.88781 1.74132   2
  -2   2   2 47.8995 3.44118   2
   2  -2  -2 46.6758 3.35583   2
   2  -2  -2 46.5127 5.19422   1
  -2   2   2 55.1859 5.52391   1
  -2   2   1 725.945 12.5082   2
   2  -2  -1 736.864 12.4627   2
   2  -2  -1 767.390 16.7314   1
  -2   2   1 750.695 16.4468   1
  -2   2   0 77.6422 4.74354   2
   2  -2   0 71.3066 4.52874   2
   2  -2   0 84.2291 5.49620   1
  -2   2   0 73.8049 5.16813   1
  -2   2  -1 315.891 9.71867   2
   2  -2   1 296.854 9.29550   2
   2  -2   1 323.274 9.33932   1
  -2   2  -1 311.353 8.98402   1
  -2   2  -2 13.7497 3.13395   2
  -2   2  -2 14.3358 2.23925   1
  -2   2  -2 13.9185 2.27722   1
  -2   2  -3 54.9766 5.26765   2
  -2   2  -3 55.4740 3.11231   1
  -2   2  -3 55.1451 3.19513   1
  -2   2  -4 353.020 12.7682   2
  -2   2  -4 340.097 5.79534   1
  -2   2  -4 310.976 5.86889   1
  -2   2  -5 9.11520 3.74044   2
  -2   2  -6-0.36934 3.56221   2
  -2   2  -7-2.41185 4.03694   2
  -2   2  -8 119.971 3.36063   1
   2  -2   8 174.425 3.87541   1
   2  -2   9 8.08531 1.45496   1
  -2   2  -9 7.44727 5.77493   2
  -2   2  -9 3.08367 1.35020   1
   2  -2  10-0.64650 1.44101   1
  -2   2 -10 1.26061 1.64958   1
   2  -2  11 86.8719 4.28465   1
  -2   2 -11 65.4191 4.08264   1
   2  -2  12 42.2655 3.53219   1
   2  -2  12 55.9943 3.92377   1
  -2   2 -13 26.7395 10.8790   2
   2  -2  13 8.36243 2.59326   1
  -2   2 -14 55.9635 14.7315   2
   2  -2  14 21.0653 2.85284   1
  -2   2 -15 20.5244 13.6536   2
   2  -1 -15 3.85484 9.36163   2
   2  -1 -15-3.23927 9.23634   2
   2  -1 -15-19.7046 15.7057   1
   2  -1 -14-1.32560 7.85490   2
  -2   1  14-5.90968 11.5141   1
   2  -1 -14 3.56179 7.66400   2
   2  -1 -14 3.94394 12.8098   1
  -2   1  13-6.18057 10.6723   1
   2  -1 -13-2.99674 6.14767   2
   2  -1 -13-1.91211 7.03822   2
   2  -1 -13 7.34159 10.3805   1
   2  -1 -12 211.365 11.9589   2
   2  -1 -12 191.152 11.1023   2
   2  -1 -12 190.280 16.4748   1
  -2   1  12 180.228 15.6514   1
   2  -1 -11 9.22019 8.03120   1
   2  -1 -11 5.07262 4.31139   2
  -2   1  11 14.6089 7.89270   1
   2  -1 -11 2.78479 4.05441   2
   2  -1 -10 11.2380 4.03373   2
  -2   1  10 14.5900 6.73475   1
   2  -1 -10 9.85024 6.53997   1
   2  -1  -9 164.671 7.97752   2
   2  -1  -9 156.122 12.4043   1
  -2   1   9 154.702 12.1736   1
   2  -1  -8 154.713 6.97713   2
   2  -1  -8 163.091 11.8980   1
  -2   1   8 162.142 11.8059   1
   2  -1  -7 132.638 5.71647   2
   2  -1  -7 140.520 10.4780   1
  -2   1   7 147.023 10.5983   1
   2  -1  -6 233.092 6.36440   2
   2  -1  -6 235.992 12.4532   1
  -2   1   6 235.850 12.4375   1
   2  -1  -5 179.625 4.65496   2
   2  -1  -5 192.608 10.7568   1
  -2   1   5 191.391 10.5444   1
   2  -1  -4 72.2793 2.48421   2
   2  -1  -4 67.1033 6.45813   1
  -2   1   4 77.1864 6.64829   1
  -2   1   3 79.0383 2.55732   2
   2  -1  -3 82.1111 2.57210   2
   2  -1  -3 89.8345 6.86099   1
  -2   1   3 79.6187 6.41229   1
  -2   1   2 206.442 4.85021   2
   2  -1  -2 211.894 9.37563   1
  -2   1   2 201.855 8.92548   1
  -2   1   1-0.77554 2.31540   1
  -2   1   1 1.00151 1.39930   2
  -2   1   0 230.452 7.06251   2
  -2   1   0 244.207 8.52942   1
  -2   1   0 229.886 7.98381   1
  -2   1  -1 8.58945 2.13808   1
  -2   1  -1 7.53026 2.36369   2
  -2   1  -1 11.4674 2.41935   1
  -2   1  -2 0.58527 1.62206   1
  -2   1  -2-1.15580 2.18097   2
  -2   1  -3 148.149 5.37203   1
   2  -1   3 162.079 5.62663   1
  -2   1  -4 905.753 12.7271   1
   2  -1   4 875.530 12.6324   1
  -2   1  -5 85.7754 4.37063   1
   2  -1   5 83.2708 4.27724   1
  -2   1  -6 82.0719 4.57103   1
   2  -1   6 82.7226 4.49013   1
  -2   1  -7 17.2426 2.90168   1
   2  -1   7 20.3383 2.94787   1
   2  -1   8 96.1320 5.53286   1
  -2   1  -8 94.5552 5.72032   1
   2  -1   9 10.8464 3.26172   1
  -2   1  -9 7.53251 3.31564   1
  -2   1  -9 15.8423 6.58436   2
   2  -1  10 94.6682 6.39116   1
  -2   1 -10 81.4019 6.37657   1
  -2   1 -11-1.90462 4.38925   1
  -2   1 -11-13.0903 8.79045   2
   2  -1  11-1.00452 3.65444   1
  -2   1 -12-0.52663 4.70717   1
  -2   1 -12-5.96425 9.10581   2
   2  -1  12-4.08088 4.67000   1
  -2   1 -13 0.31105 5.70044   1
   2  -1  13-1.39766 5.26471   1
  -2   1 -13 11.6770 11.0037   2
   2  -1  14 6.34749 5.94362   1
  -2   1 -14 2.99200 6.66961   1
  -2   0  15-16.7832 14.0018   1
   2   0 -15-0.61609 9.28185   2
   2   0 -15 1.77694 9.06041   2
   2   0 -14-2.23109 7.24985   2
  -2   0  14 5.93349 11.1844   1
   2   0 -14-1.96677 6.72266   2
   2   0 -14-1.52762 11.2329   1
   2   0 -13 2.44359 5.60751   2
  -2   0  13 19.1347 9.07284   1
   2   0 -13 6.99739 5.41828   2
   2   0 -13 4.62543 9.42659   1
   2   0 -12 7.28451 4.83671   2
  -2   0  12-1.54689 7.31648   1
   2   0 -12 0.54127 4.44638   2
   2   0 -12 4.30016 8.18757   1
   2   0 -11 42.2668 5.60393   2
   2   0 -11 44.2989 9.07212   1
  -2   0  11 48.8792 9.12946   1
   2   0 -11 43.1047 5.63813   2
   2   0 -10 35.9631 4.68866   2
   2   0 -10 40.2503 8.00830   1
  -2   0  10 44.0983 8.07877   1
   2   0 -10 33.0508 4.68112   2
   2   0  -9 1.66109 2.70804   2
   2   0  -9 1.59008 2.57517   2
  -2   0   9-0.35339 4.70444   1
   2   0  -9 2.03616 5.37171   1
   2   0  -8 103.597 5.13314   2
   2   0  -8 104.767 5.20603   2
   2   0  -8 99.3968 9.50692   1
  -2   0   8 109.664 9.53935   1
   2   0  -7 480.487 8.77461   2
   2   0  -7 480.886 8.81775   2
   2   0  -7 482.579 17.7934   1
  -2   0   7 498.970 17.8246   1
   2   0  -6 8.10846 1.19012   2
   2   0  -6 8.88538 1.20085   2
  -2   0   6 9.08891 3.96703   1
   2   0  -6 11.7175 4.42232   1
   2   0  -5 700.106 19.1319   1
  -2   0   5 719.058 19.0565   1
  -2   0   4-2.50995 3.13605   1
  -2   0   3 7.91781 3.25317   1
  -2   0   3 10.8916 3.03614   1
  -2   0   2 151.081 3.60012   2
  -2   0   2 162.968 8.04528   1
  -2   0   2 165.791 7.80253   1
  -2   0   1 83.5057 5.53367   1
  -2   0   1 85.1347 5.84246   1
   2   0   0 1460.16 20.1810   1
  -2   0   0 1499.39 20.6054   1
  -2   0  -1 1273.29 18.3379   1
   2   0   1 1286.99 18.4656   1
   2   0   2 69.9672 4.61819   1
  -2   0  -2 78.0016 4.77119   1
  -2   0  -3 222.747 7.68057   1
   2   0   3 238.527 8.12159   1
   2   0   4 334.377 9.70997   1
  -2   0  -4 332.768 9.71770   1
   2   0   5-1.34126 2.36893   1
  -2   0  -5 2.13698 2.38299   1
  -2   0  -6 60.5034 5.18062   1
   2   0   6 53.8788 4.76442   1
  -2   0  -7 31.3218 4.50695   1
   2   0   7 31.5999 4.24636   1
  -2   0  -8 2.66418 3.56235   1
   2   0   8 7.72727 3.41519   1
  -2   0  -9 10.0807 4.39476   1
   2   0   9 14.7400 4.26008   1
   2   0  10 197.968 10.6258   1
  -2   0 -10 176.846 10.5341   1
  -2   0 -11 26.2681 6.39383   1
   2   0  11 11.4662 5.65361   1
   2   0  12 9.03264 5.70337   1
  -2   0 -12 4.30667 6.56167   1
  -2   0 -13 13.0706 7.79860   1
  -2   0 -13 28.0361 12.2368   2
   2   0  13 8.71644 6.91020   1
  -2   0 -14-5.68987 8.62225   1
  -2   0 -14-12.3118 13.3370   2
   2   0  14-6.68552 8.07594   1
  -2  -1  16 0.07193 10.8562   1
   2   1 -16-11.2067 8.26915   2
  -2  -1  16-8.37351 11.5220   1
   2   1 -15 44.9155 9.37973   2
  -2  -1  15 41.6117 12.4057   1
  -2  -1  15 51.4694 13.4046   1
   2   1 -15 35.3101 8.82072   2
  -2  -1  14 62.6821 11.4730   1
   2   1 -14 65.0289 8.73639   2
  -2  -1  14 48.7766 11.3124   1
   2   1 -14 58.1773 8.47640   2
  -2  -1  13 33.2893 9.46111   1
   2   1 -13 38.0116 6.73423   2
  -2  -1  13 48.4126 10.1830   1
   2   1 -12 38.0891 5.76814   2
  -2  -1  12 34.9561 8.71005   1
  -2  -1  12 35.1626 8.23118   1
  -2  -1  11 1.79329 6.10888   1
   2   1 -11 2.68842 3.52089   2
  -2  -1  11-1.85881 5.70649   1
   2   1 -10 29.9425 4.26665   2
  -2  -1  10 31.2012 6.86064   1
  -2  -1  10 34.9498 7.17441   1
   2   1  -9 113.333 5.96552   2
  -2  -1   9 102.328 9.17300   1
  -2  -1   9 101.942 9.45317   1
  -2  -1   8 2.71108 4.07307   1
  -2  -1   8 2.88793 4.18468   1
   2   1  -8 0.38678 1.92512   2
  -2  -1   7 313.305 13.4472   1
   2   1  -7 305.826 6.91435   2
  -2  -1   7 325.746 14.2881   1
  -2  -1   6 212.511 10.6875   1
   2   1  -6 205.238 4.54553   2
  -2  -1   6 217.212 11.1890   1
  -2  -1   5 176.587 9.71396   1
  -2  -1   5 176.677 9.31564   1
  -2  -1   4 6.80403 3.16473   1
  -2  -1   4 3.54604 3.12952   1
  -2  -1   3 306.903 5.51343   2
  -2  -1   3 301.052 11.0391   1
  -2  -1   2 253.043 6.27459   2
  -2  -1   2 250.737 9.77567   1
   2   1  -2 255.962 9.81891   1
  -2  -1   1 1341.81 16.6013   2
  -2  -1   1 1357.90 21.5633   1
   2   1  -1 1331.13 21.2751   1
  -2  -1   0 90.5452 5.79879   1
   2   1   0 97.6963 6.05804   1
  -2  -1  -1 1135.83 19.1521   1
   2   1   1 1151.53 19.4495   1
  -2  -1  -2 31.6371 3.86249   1
   2   1   2 30.9432 3.89546   1
  -2  -1  -3 51.2467 4.78777   1
   2   1   3 52.5045 4.87545   1
  -2  -1  -4 173.380 8.41836   1
   2   1   4 181.309 8.51467   1
   2   1   5 4.65095 3.03881   1
  -2  -1  -5 4.90530 3.22308   1
  -2  -1  -6 120.528 8.12560   1
   2   1   6 132.934 8.15246   1
  -2  -1  -7 204.110 10.6252   1
   2   1   7 213.747 10.6334   1
   2   1   8 552.910 17.3138   1
  -2  -1  -8 517.534 17.2102   1
  -2  -1  -9 10.4976 5.52188   1
   2   1   9 17.1760 5.75709   1
  -2  -1 -10 3.00757 5.75116   1
   2   1  10-1.93951 5.62837   1
  -2  -1 -11 11.7100 7.54890   1
   2   1  11 12.7512 6.35111   1
  -2  -1 -12 14.3604 8.28164   1
   2   1  12 10.1202 7.95812   1
  -2  -1 -13-5.26953 10.0736   1
   2   1  13 6.20072 8.91047   1
   2   2 -16 35.3026 10.5616   2
  -2  -2  16 46.6930 14.1973   1
  -2  -2  16 59.3315 14.4889   1
  -2  -2  15 19.8055 11.1144   1
  -2  -2  15 14.5730 10.7541   1
   2   2 -15 21.1241 8.04110   2
  -2  -2  14 0.05995 8.85795   1
  -2  -2  14 2.14251 8.56305   1
   2   2 -14 9.66635 6.06692   2
  -2  -2  13 18.2231 8.40688   1
   2   2 -13 3.38065 5.19125   2
  -2  -2  13 7.16832 7.64598   1
  -2  -2  12-0.57005 6.37274   1
   2   2 -12 5.48817 4.35805   2
  -2  -2  12-4.43309 6.45981   1
   2   2 -11 64.6490 6.05567   2
  -2  -2  11 56.7333 8.54717   1
  -2  -2  11 50.7582 8.06931   1
   2   2 -10 175.610 8.22137   2
  -2  -2  10 168.776 12.1876   1
  -2  -2  10 168.123 11.6852   1
   2   2  -9 214.776 8.23249   2
  -2  -2   9 218.566 12.9193   1
  -2  -2   9 235.276 12.8858   1
   2   2  -8 224.083 7.64940   2
  -2  -2   8 204.696 11.5646   1
  -2  -2   8 217.406 12.3501   1
  -2  -2   7 223.219 11.4961   1
  -2  -2   7 223.380 11.9281   1
   2   2  -7 225.442 6.96428   2
   2   2  -6 493.338 9.50012   2
  -2  -2   6 481.731 9.17997   2
  -2  -2   6 504.028 16.1612   1
  -2  -2   6 520.611 17.0693   1
  -2  -2   5 117.969 4.62177   2
  -2  -2   5 119.706 7.99381   1
   2   2  -5 119.260 4.67937   2
  -2  -2   5 127.800 8.64723   1
   2   2  -4 119.292 4.81777   2
   2   2  -4 116.022 7.52603   1
  -2  -2   4 123.511 4.87683   2
  -2  -2   4 115.643 7.58749   1
   2   2  -3 3.37427 1.81535   2
   2   2  -3 2.80265 3.01026   1
  -2  -2   3 3.50794 1.83104   2
  -2  -2   3-0.10026 2.46934   1
  -2  -2   2 135.976 5.96413   2
  -2  -2   2 144.523 7.96408   1
   2   2  -2 141.237 7.99346   1
  -2  -2   1 47.3810 4.24000   2
   2   2  -1 49.0086 5.02766   1
  -2  -2   1 46.8694 4.84149   1
  -2  -2   0 102.973 6.31233   2
   2   2   0 107.119 6.97567   1
  -2  -2   0 100.177 6.73624   1
   2   2   1 355.777 12.1981   1
  -2  -2  -1 350.934 12.0404   1
  -2  -2  -1 367.482 12.2160   2
  -2  -2  -2 22.5901 4.25751   2
  -2  -2  -2 17.4655 3.90845   1
   2   2   2 17.0051 3.84960   1
   2   2   3 5.84339 3.20038   1
  -2  -2  -3 4.29646 3.18027   1
  -2  -2  -3 7.05352 3.71113   2
  -2  -2  -4 36.8432 5.22097   1
   2   2   4 32.9892 5.03339   1
   2   2   5 164.757 9.71898   1
  -2  -2  -5 160.589 9.92528   1
  -2  -2  -6 246.143 12.5411   1
   2   2   6 224.436 11.6204   1
  -2  -2  -7 49.0105 6.95746   1
   2   2   7 43.6941 6.42228   1
  -2  -2  -8-4.41784 5.56449   1
   2   2   8 4.17362 4.67915   1
  -2  -2  -9 18.1034 8.26996   2
  -2  -2  -9 12.6999 6.72962   1
   2   2   9 14.8213 6.31714   1
  -2  -2 -10-15.3373 9.75452   2
  -2  -2 -10 2.46685 7.14043   1
   2   2  10 7.88275 6.77696   1
  -2  -2 -11 0.78047 11.1247   2
   2   2  11 12.6313 7.84512   1
  -2  -2 -11-0.52712 8.36175   1
  -2  -2 -12 5.14280 11.9448   2
   2   2  12 2.43907 9.24605   1
  -2  -2 -12 12.2709 10.2343   1
  -2  -2 -13 1.28139 11.5251   1
  -2  -2 -13 1.36830 15.2140   2
   2   2  13-4.01088 10.7458   1
  -2  -3  16-2.95145 12.4104   1
   2   3 -16-8.69025 9.22510   2
  -2  -3  16 4.57973 12.3044   1
   2   3 -15-11.1610 7.66298   2
  -2  -3  15-7.58610 10.4703   1
  -2  -3  14 4.46145 8.89585   1
   2   3 -14-8.35935 6.85297   2
  -2  -3  14 10.4375 7.92182   1
  -2  -3  13 32.6664 9.00240   1
  -2  -3  13 42.0819 9.49717   1
   2   3 -13 30.4326 6.63930   2
  -2  -3  12 14.4223 7.13363   1
   2   3 -12 24.0594 5.48995   2
  -2  -3  12 22.8905 7.30003   1
   2   3 -11 110.312 7.83158   2
  -2  -3  11 111.902 10.5150   1
  -2  -3  11 130.453 11.5887   1
  -2  -3  10 4.29873 5.18981   1
   2   3 -10 12.6901 3.93567   2
  -2  -3  10 14.2331 5.42893   1
   2   3  -9 113.804 6.85202   2
  -2  -3   9 120.557 9.71128   1
  -2  -3   9 111.797 9.82927   1
  -2  -3   8 168.567 10.8008   1
   2   3  -8 172.655 7.69729   2
  -2  -3   8 169.784 11.1977   1
  -2  -3   7-2.15286 3.95298   1
   2   3  -7 1.70892 2.37998   2
  -2  -3   7 0.23550 2.33009   2
  -2  -3   7-2.36486 4.14123   1
   2   3  -6 13.1766 2.85885   2
  -2  -3   6 13.5646 2.87863   2
  -2  -3   6 12.8571 4.10968   1
  -2  -3   5 609.621 12.9962   2
  -2  -3   5 569.291 17.2594   1
   2   3  -5 585.414 12.7374   2
   2   3  -5 604.435 17.5490   1
   2   3  -4 49.0553 4.34100   2
  -2  -3   4 49.7563 5.83522   1
  -2  -3   4 48.3640 4.24470   2
   2   3  -4 50.2370 5.83144   1
  -2  -3   3 1428.39 21.0822   2
   2   3  -3 1477.07 26.4507   1
   2   3  -3 1389.65 20.8029   2
  -2  -3   3 1440.93 25.9648   1
  -2  -3   2 104.617 6.40408   2
   2   3  -2 97.2519 7.42244   1
   2   3  -2 94.2519 6.15245   2
  -2  -3   2 95.9136 7.18223   1
   2   3  -1 111.667 7.72998   1
  -2  -3   1 99.5319 6.59306   2
  -2  -3   1 110.457 7.64621   1
  -2  -3   0 210.515 9.84571   2
  -2  -3   0 213.704 10.4710   1
   2   3   0 207.839 10.3046   1
  -2  -3  -1 5.91718 3.58070   2
   2   3   1 1.75480 3.31287   1
  -2  -3  -1 1.32196 3.29431   1
   2   3   2 0.92274 3.51566   1
  -2  -3  -2 4.68978 3.86058   2
  -2  -3  -2 4.41280 3.54392   1
  -2  -3  -3 40.5139 6.29442   2
  -2  -3  -3 39.1764 5.73671   1
   2   3   3 35.7936 5.74719   1
  -2  -3  -4 74.5972 8.14352   2
  -2  -3  -4 66.8850 7.58772   1
   2   3   4 73.1809 7.52835   1
  -2  -3  -5 56.3689 7.99185   2
  -2  -3  -5 51.1664 7.30441   1
   2   3   5 54.7316 7.17439   1
  -2  -3  -6 128.695 11.4305   2
  -2  -3  -6 119.487 10.2865   1
   2   3   6 118.114 10.0193   1
  -2  -3  -7 2.29140 6.32895   2
  -2  -3  -7-4.85034 5.97140   1
   2   3   7 3.71115 5.34710   1
  -2  -3  -8 11.2102 8.08414   2
  -2  -3  -8 5.38408 6.78580   1
   2   3   8 11.2725 6.40045   1
   2   3   9 53.4594 9.35303   1
  -2  -3  -9 44.6480 9.39833   1
  -2  -3 -10-2.11925 9.73074   2
  -2  -3 -10 8.70237 8.40110   1
   2   3  10 5.07026 7.99397   1
  -2  -3 -11-8.18296 11.6561   2
  -2  -3 -11 10.4031 10.2937   1
   2   3  11-0.23362 9.37665   1
  -2  -3 -12 17.4780 15.6616   2
   2   3  12 0.31195 11.4370   1
   2   4 -16 37.4366 10.0296   2
  -2  -4  16 33.2126 13.2749   1
  -2  -4  16 2.27627 12.0064   1
  -2  -4  15 15.8126 10.1503   1
   2   4 -15 28.7658 8.81334   2
  -2  -4  14 17.7275 9.06931   1
  -2  -4  14 0.38322 7.91882   1
   2   4 -14 12.6100 6.67437   2
  -2  -4  13 6.15007 7.41437   1
  -2  -4  13 22.9520 8.14988   1
   2   4 -13 7.29817 6.15029   2
   2   4 -12 39.1549 6.65388   2
  -2  -4  12 51.0226 8.43878   1
  -2  -4  12 35.6896 8.37410   1
  -2  -4  11 5.34261 5.78454   1
  -2  -4  11 12.2119 6.22669   1
   2   4 -11 6.53086 4.61767   2
  -2  -4  10 2.70891 5.31205   1
   2   4 -10 19.4471 4.70433   2
  -2  -4  10 7.08386 5.28456   1
  -2  -4   9 22.8630 4.51178   2
   2   4  -9 16.5332 4.31197   2
  -2  -4   9 25.7491 6.34602   1
  -2  -4   9 16.5840 5.56925   1
   2   4  -8 8.03513 3.58369   2
  -2  -4   8 8.41931 3.51733   2
  -2  -4   8 5.53544 4.63708   1
  -2  -4   8 10.1773 5.13328   1
  -2  -4   7 44.8091 6.44180   1
   2   4  -7 53.8820 6.76720   1
  -2  -4   7 46.1488 4.98009   2
   2   4  -7 53.9958 5.36360   2
   2   4  -6 455.383 13.3523   2
  -2  -4   6 444.948 13.1332   2
  -2  -4   6 420.876 15.9010   1
   2   4  -6 452.879 16.3587   1
   2   4  -5 36.2363 4.58549   2
  -2  -4   5 37.5196 4.61439   2
   2   4  -5 41.1366 5.98770   1
  -2  -4   5 32.8565 5.25591   1
   2   4  -4 110.527 7.14572   2
  -2  -4   4 104.540 6.97859   2
   2   4  -4 97.3675 8.05881   1
  -2  -4   4 91.5196 7.73804   1
   2   4  -3 71.1891 6.14511   2
  -2  -4   3 70.5617 6.20534   2
   2   4  -3 72.5620 7.15072   1
  -2  -4   3 72.6664 7.02761   1
   2   4  -2 81.3895 6.70629   2
  -2  -4   2 79.1454 6.53216   2
  -2  -4   2 86.2918 7.45598   1
   2   4  -2 81.0583 7.45388   1
   2   4  -1 0.57966 3.19086   2
  -2  -4   1 0.57314 3.14920   2
   2   4  -1 0.43124 3.53434   1
  -2  -4   1 2.09200 3.35032   1
  -2  -4   0 145.459 9.38947   2
  -2  -4   0 142.162 9.57059   1
   2   4   0 141.767 9.54485   1
  -2  -4  -1 94.5898 8.18509   2
  -2  -4  -1 102.110 8.63836   1
   2   4   1 93.7080 8.36604   1
  -2  -4  -2 206.686 12.0322   1
   2   4   2 226.954 12.4249   1
  -2  -4  -2 228.171 12.5843   2
   2   4   3 21.1618 5.67245   1
  -2  -4  -3 28.2909 6.12953   1
  -2  -4  -3 26.6895 6.21447   2
  -2  -4  -4 448.261 18.9085   1
   2   4   4 488.971 18.9987   1
  -2  -4  -5 14.6827 6.49370   2
  -2  -4  -5 4.13210 5.66997   1
   2   4   5 8.88797 5.64631   1
  -2  -4  -6 15.9467 7.38813   2
  -2  -4  -6 19.2235 7.07124   1
   2   4   6 11.3561 6.22831   1
  -2  -4  -7 13.1097 8.36235   2
  -2  -4  -7 16.4560 7.81999   1
   2   4   7 3.86728 6.60697   1
  -2  -4  -8 4.32772 8.00773   1
   2   4   8 2.15657 8.02346   1
  -2  -4  -8 12.8397 9.46904   2
  -2  -4  -9 73.6216 13.3401   2
   2   4   9 37.9577 9.85226   1
  -2  -4  -9 49.1915 11.5477   1
  -2  -4 -10 28.4418 13.7804   2
  -2  -4 -10 12.8352 11.7412   1
   2   4  10 8.44621 10.2775   1
  -2  -4 -11 2.86385 15.2259   2
  -2  -4 -11-0.43476 13.5667   1
   2   4  11 9.84052 11.8957   1
  -2  -5  16 28.4126 13.1020   1
   2   5 -16 34.4403 11.3082   2
  -2  -5  16 53.5566 13.6078   1
  -2  -5  15 30.3568 10.9006   1
   2   5 -15 21.1049 9.20892   2
  -2  -5  15 21.4955 10.1652   1
  -2  -5  14 8.49878 8.96190   1
   2   5 -14-10.6868 7.94599   2
  -2  -5  14 10.5925 8.34461   1
  -2  -5  13 10.5051 8.30538   1
   2   5 -13 2.44857 6.02349   2
  -2  -5  13 21.1332 8.44513   1
  -2  -5  12 5.76175 7.07578   1
   2   5 -12 4.63097 5.59424   2
  -2  -5  12 0.72668 6.48632   1
  -2  -5  11-7.53827 6.72275   1
   2   5 -11 3.68116 5.19272   2
  -2  -5  11-5.68785 5.96789   1
   2   5 -10 7.17127 4.84593   2
  -2  -5  10 5.14016 5.32174   1
  -2  -5  10 2.15408 4.51051   2
  -2  -5  10 2.38869 5.52771   1
   2   5  -9-4.84623 4.52348   2
  -2  -5   9 1.16174 4.92043   1
  -2  -5   9 6.03695 4.30000   2
  -2  -5   9-0.13633 5.43338   1
   2   5  -8 7.17900 4.31114   2
  -2  -5   8 0.35700 4.55489   1
  -2  -5   8 6.41802 4.08653   2
   2   5  -8-2.58206 4.96057   1
  -2  -5   7 243.095 11.4633   2
   2   5  -7 228.708 11.1361   2
   2   5  -7 245.331 13.2889   1
  -2  -5   7 224.716 12.7266   1
   2   5  -6 21.1488 4.62977   2
  -2  -5   6 25.8262 4.85611   2
   2   5  -6 31.0862 6.12448   1
  -2  -5   6 21.2684 5.58153   1
   2   5  -5 56.8743 6.29763   2
  -2  -5   5 47.1244 5.86713   2
   2   5  -5 55.9895 7.00953   1
  -2  -5   5 68.6100 7.53005   1
   2   5  -4-0.60236 3.95192   1
   2   5  -4-2.41599 3.60185   2
  -2  -5   4 2.83849 3.60124   2
  -2  -5   4-3.31944 4.29265   1
   2   5  -3 29.1894 5.45480   2
  -2  -5   3 34.3494 5.63760   2
   2   5  -3 39.8071 6.45827   1
  -2  -5   3 28.5315 5.55108   1
   2   5  -2 286.970 14.0969   1
  -2  -5   2 268.252 12.7769   2
  -2  -5   2 272.977 13.6350   1
   2   5  -2 283.378 13.1854   2
   2   5  -1 31.7581 6.16360   1
   2   5  -1 26.6770 5.50309   2
  -2  -5   1 19.5011 5.16142   2
  -2  -5   1 20.2300 5.32252   1
  -2  -5   0 15.1408 5.50232   1
   2   5   0 8.50084 4.99098   1
  -2  -5   0 3.06901 4.52326   2
   2   5   0 4.94297 4.45799   2
  -2  -5  -1 102.166 9.76093   1
  -2  -5  -1 102.460 9.49623   2
   2   5   1 103.191 9.56688   1
  -2  -5  -2 7.83999 5.76095   1
   2   5   2 3.36752 5.22680   1
  -2  -5  -2 3.39272 5.32517   2
   2   5   3 11.9613 5.67932   1
  -2  -5  -3 6.13789 5.74991   2
  -2  -5  -3 7.55035 6.17053   1
  -2  -5  -4 20.7789 7.43119   2
  -2  -5  -4 15.6296 7.21399   1
   2   5   4 16.5119 6.71028   1
  -2  -5  -5 7.97895 7.38340   2
  -2  -5  -5-2.62756 6.79624   1
   2   5   5-1.79775 6.22197   1
  -2  -5  -6 14.2552 8.31209   2
  -2  -5  -6-2.80704 7.88358   1
   2   5   6 1.52205 7.30328   1
  -2  -5  -7 13.8329 9.71241   2
  -2  -5  -7 14.3233 9.33608   1
   2   5   7 0.54121 8.21599   1
  -2  -5  -8 94.8648 14.3258   2
   2   5   8 65.3585 11.8544   1
  -2  -5  -8 67.4903 12.8223   1
  -2  -5  -9 57.9715 14.0017   1
   2   5   9 81.8024 14.3303   1
  -2  -5 -10 31.6362 16.4334   2
  -2  -5 -10 17.4392 14.2291   1
   2   5  10 15.9253 12.9509   1
  -2  -6  16 40.8363 10.3046   1
  -2  -6  16 27.2813 9.38138   1
   2   6 -16 35.9440 8.71784   2
  -2  -6  15-3.82628 12.1096   1
  -2  -6  15-8.10865 11.0525   1
   2   6 -15 8.01820 9.84094   2
  -2  -6  14-8.53279 8.40727   1
  -2  -6  14-6.06329 9.59607   1
   2   6 -14-2.30865 8.33478   2
  -2  -6  13 19.3586 8.48414   1
  -2  -6  13-5.27001 8.26035   1
   2   6 -13 15.1153 7.46456   2
  -2  -6  12-11.4874 7.63600   1
  -2  -6  12-3.16747 6.98885   1
   2   6 -12-5.68094 6.36669   2
  -2  -6  11 5.04197 6.23483   1
   2   6 -11 5.26334 5.50799   2
  -2  -6  11 1.48993 5.99041   2
  -2  -6  11 5.98977 6.50832   1
   2   6 -10 38.1297 7.10365   2
  -2  -6  10 39.6218 6.98878   2
  -2  -6  10 26.3799 7.15399   1
  -2  -6  10 31.4593 8.23014   1
   2   6  -9 4.24523 5.06538   2
  -2  -6   9 13.6258 5.58571   2
   2   6  -9 9.67008 6.29550   1
  -2  -6   9 17.0412 6.38392   1
   2   6  -8 28.2753 6.16974   2
  -2  -6   8 17.6173 6.15009   1
  -2  -6   8 34.3256 6.43562   2
   2   6  -8 31.8840 6.98952   1
   2   6  -7 63.8389 7.54891   2
  -2  -6   7 75.4277 7.88651   2
   2   6  -7 77.5794 8.93870   1
  -2  -6   7 61.0925 8.12057   1
   2   6  -6 3.44904 4.23866   2
   2   6  -6 8.38256 5.38605   1
  -2  -6   6 1.98513 4.58978   2
  -2  -6   6 2.53186 5.04033   1
   2   6  -5 64.9522 7.53783   2
  -2  -6   5 67.7671 7.62833   2
   2   6  -5 54.8683 7.85713   1
  -2  -6   5 54.8067 7.82657   1
   2   6  -4 64.4948 7.81491   2
  -2  -6   4 65.8458 7.57920   2
   2   6  -4 68.7069 8.34426   1
  -2  -6   4 75.8189 8.62504   1
   2   6  -3 159.775 11.1076   2
  -2  -6   3 147.366 10.5755   2
   2   6  -3 167.014 12.0425   1
  -2  -6   3 144.692 11.3230   1
   2   6  -2 207.108 12.7592   2
  -2  -6   2 222.424 13.0865   2
   2   6  -2 201.592 13.0854   1
  -2  -6   2 195.469 12.9145   1
   2   6  -1 230.902 13.8128   2
  -2  -6   1 232.055 13.8198   2
  -2  -6   1 197.330 13.4088   1
   2   6  -1 216.758 13.6552   1
  -2  -6   0 319.228 16.4744   2
  -2  -6   0 281.106 15.8015   1
   2   6   0 328.262 16.6566   2
   2   6   0 325.715 16.7608   1
   2   6   1 18.3943 6.73256   1
  -2  -6  -1 33.0809 7.74001   1
  -2  -6  -1 35.6228 7.59910   2
  -2  -6  -2 43.7912 8.57901   2
  -2  -6  -2 41.3845 8.32410   1
   2   6   2 39.4346 8.45583   1
   2   6   3-0.27514 7.02767   1
  -2  -6  -3 11.1379 7.23508   2
  -2  -6  -3 7.94521 7.13522   1
  -2  -6  -4 5.34604 7.82476   2
  -2  -6  -4-0.36997 8.00781   1
   2   6   4 8.67313 7.55818   1
  -2  -6  -5 60.1386 10.9222   2
   2   6   5 50.8049 10.1754   1
  -2  -6  -5 42.4343 10.8629   1
  -2  -6  -6 81.1752 12.9555   1
  -2  -6  -6 109.053 14.6380   2
   2   6   6 103.234 13.9073   1
  -2  -6  -7 8.85601 11.4907   2
  -2  -6  -7-7.27367 11.4086   1
   2   6   7 8.22177 10.3870   1
  -2  -6  -8 50.9925 15.2701   1
   2   6   8-9.86946 12.0836   1
  -2  -6  -9-3.20750 14.4122   2
  -2  -6  -9-10.8378 14.1037   1
   2   6   9-6.08446 13.6808   1
   2   7 -15 59.4068 13.6660   2
  -2  -7  15 42.4129 11.7500   1
  -2  -7  15 74.6236 14.6543   1
  -2  -7  14 1.65582 9.71942   1
  -2  -7  14-10.7205 9.90716   1
   2   7 -14 7.60046 9.37647   2
  -2  -7  13 5.14800 9.78901   1
  -2  -7  13-4.31018 8.89954   1
   2   7 -13 4.36716 8.17917   2
  -2  -7  12 0.05232 7.53405   1
   2   7 -12 4.23791 7.19532   2
  -2  -7  12-1.18411 7.58106   2
  -2  -7  12 9.69817 8.06756   1
   2   7 -11 39.6059 8.89123   2
  -2  -7  11 49.2229 8.89871   2
  -2  -7  11 59.1351 10.6698   1
  -2  -7  11 58.3181 10.0583   1
   2   7 -10-1.41821 5.97682   2
   2   7 -10 11.1394 7.46467   1
  -2  -7  10 11.3318 7.04357   2
  -2  -7  10-3.58345 7.02154   1
  -2  -7   9 77.3972 9.71054   2
   2   7  -9 86.7347 9.75581   2
  -2  -7   9 101.506 10.9189   1
   2   7  -9 98.6481 11.0910   1
   2   7  -8-5.68250 6.68646   1
   2   7  -8 7.55686 6.41342   2
  -2  -7   8-2.45725 6.14818   2
  -2  -7   8 8.45822 6.45851   1
   2   7  -7 38.3484 7.33396   2
  -2  -7   7 28.2563 6.88380   2
   2   7  -7 26.8752 7.40723   1
  -2  -7   7 38.3837 7.59772   1
   2   7  -6 17.5198 6.93322   1
   2   7  -6 4.04595 5.22024   2
  -2  -7   6 1.48571 5.55839   2
  -2  -7   6 13.7463 6.48220   1
   2   7  -5 7.39227 5.60381   2
  -2  -7   5 8.05562 5.54345   2
  -2  -7   5 4.11272 5.56418   1
   2   7  -5 9.67636 6.61179   1
   2   7  -4 44.6533 8.23520   2
  -2  -7   4 35.2518 7.45402   2
   2   7  -4 28.6308 7.49785   1
  -2  -7   4 30.7952 7.67798   1
   2   7  -3-3.20153 5.65844   2
  -2  -7   3 4.29130 5.92874   1
  -2  -7   3 3.43897 5.64003   2
   2   7  -3 1.41975 6.08605   1
  -2  -7   2-9.17839 6.03326   1
   2   7  -2 2.42729 5.98297   2
  -2  -7   2 11.2269 6.76929   2
   2   7  -2 1.08725 6.00100   1
  -2  -7   1 191.921 14.2836   2
   2   7  -1 220.167 15.1162   2
  -2  -7   1 194.518 14.5033   1
   2   7  -1 192.466 14.5408   1
  -2  -7   0 42.0897 8.60551   2
   2   7   0 35.8716 8.22590   2
  -2  -7   0 41.5590 8.83758   1
   2   7   0 47.8413 9.27355   1
   2   7   1 22.6949 8.08742   1
  -2  -7  -1 43.6621 9.44832   2
  -2  -7  -1 27.0732 8.86436   1
   2   7   2 11.1274 7.52461   1
  -2  -7  -2 9.48690 8.22293   2
  -2  -7  -2 3.55244 7.87943   1
   2   7   3 6.97088 8.34179   1
  -2  -7  -3 30.9297 9.98467   2
  -2  -7  -3 10.1394 8.78644   1
   2   7   4-4.32273 8.57230   1
  -2  -7  -4 8.03441 9.83540   2
  -2  -7  -4-3.35673 9.81503   1
  -2  -7  -5 101.487 14.4575   2
  -2  -7  -5 57.5769 13.1657   1
   2   7   5 91.3914 13.9051   1
  -2  -7  -6 108.864 17.2771   1
  -2  -7  -6 100.253 16.8052   2
  -2  -7  -7 79.8207 16.1846   1
  -2  -7  -7 67.0074 15.9015   2
   2   7   7 36.3818 14.2793   1
  -2  -8  14 56.6426 13.0276   1
   2   8 -14 41.9253 13.0260   2
  -2  -8  13-7.10572 9.86074   1
   2   8 -13 6.84967 9.47750   2
  -2  -8  13 25.2495 10.8040   2
  -2  -8  13 0.34052 9.71543   1
   2   8 -12 1.17951 9.07564   2
  -2  -8  12 5.33588 9.14547   2
  -2  -8  12 0.89261 9.38506   1
  -2  -8  12-2.84748 10.2183   1
   2   8 -11 82.4431 11.0588   2
  -2  -8  11 68.4917 10.8089   1
  -2  -8  11 49.3948 10.7642   2
   2   8 -10-1.33395 8.02201   2
   2   8 -10-1.87365 7.94881   1
  -2  -8  10-12.0130 7.44827   2
  -2  -8  10-13.1291 7.86372   1
  -2  -8   9 36.7303 9.18860   2
   2   8  -9 35.1647 8.90646   1
   2   8  -9 19.6064 8.37125   2
  -2  -8   9 40.5113 9.29676   1
  -2  -8   8 53.1641 9.15459   2
   2   8  -8 48.2075 9.36631   2
  -2  -8   8 37.7290 8.59112   1
   2   8  -8 45.8230 9.27265   1
   2   8  -7 5.15371 7.00249   2
   2   8  -7 14.3153 7.64637   1
  -2  -8   7 4.28794 6.84780   1
  -2  -8   7 14.3360 7.22710   2
   2   8  -6 8.97625 7.64694   1
   2   8  -6 11.2352 7.18453   2
  -2  -8   6 6.42908 6.63138   1
  -2  -8   6 9.66695 7.13177   2
  -2  -8   5 95.6770 11.4565   2
   2   8  -5 86.1718 11.5491   1
  -2  -8   5 76.7423 10.8247   1
   2   8  -5 100.708 11.5275   2
  -2  -8   4 27.6203 8.25424   1
   2   8  -4 29.0150 8.72337   2
  -2  -8   4 24.2817 8.27577   2
   2   8  -4 17.3881 8.51071   1
   2   8  -3 96.0587 11.8288   1
  -2  -8   3 107.437 12.3468   2
  -2  -8   3 81.5500 11.2339   1
   2   8  -3 114.430 12.6717   2
  -2  -8   2 261.008 17.2748   2
   2   8  -2 241.714 17.1256   2
  -2  -8   2 215.921 16.6673   1
   2   8  -2 258.931 17.6598   1
  -2  -8   1 12.2831 7.90295   1
   2   8  -1 3.22533 7.58486   2
   2   8  -1-3.52489 8.54476   1
  -2  -8   1 3.34654 7.65970   2
   2   8   0 6.46540 8.31030   2
  -2  -8   0 24.2213 8.96606   2
   2   8   0 14.9106 8.18471   1
  -2  -8   0 3.10469 9.14616   1
  -2  -8  -1-2.38352 8.88393   2
  -2  -8  -1-2.71004 8.89017   1
   2   8   2 46.2477 11.6106   1
  -2  -8  -2 41.8396 11.3846   2
  -2  -8  -2 30.8349 12.1982   1
   2   8   3 7.76028 10.2754   1
  -2  -8  -3 19.0581 11.0195   1
  -2  -8  -3 44.6203 12.8762   2
  -2  -8  -4 51.6005 14.6066   2
  -2  -8  -4 91.1275 16.9058   1
   2   8   4 62.6923 14.7855   1
  -2  -8  -5 10.6385 13.2288   2
   2   8   5-11.3233 14.1499   1
  -2  -8  -5 9.42143 13.8595   1
   2   8   6-26.8799 14.8589   1
  -2  -8  -6-26.0235 15.0268   1
   2   9 -13 14.9243 13.8641   2
  -2  -9  13 11.1717 11.5898   1
  -2  -9  13 16.7910 11.7645   2
  -2  -9  13 3.15033 11.7594   1
   2   9 -12 5.44992 11.0683   2
  -2  -9  12-10.9566 11.0764   1
  -2  -9  12 13.6432 10.8272   2
   2   9 -11 47.2767 12.7869   2
  -2  -9  11 70.3453 13.7947   2
   2   9 -11 36.3383 10.7639   1
  -2  -9  11 51.9612 12.4762   1
   2   9 -10 3.20831 10.0843   2
  -2  -9  10 12.3904 9.68735   1
  -2  -9  10 18.5716 10.1859   2
   2   9 -10 6.89784 9.26923   1
   2   9  -9 45.4152 11.1439   1
   2   9  -9 66.4599 11.4391   2
  -2  -9   9 57.1732 10.7610   1
  -2  -9   9 49.6474 11.3411   2
   2   9  -8-3.83967 8.67108   2
  -2  -9   8 12.7104 8.44138   1
  -2  -9   8 9.47969 8.60518   2
   2   9  -8 3.35370 8.82256   1
   2   9  -7-8.77894 8.20475   1
  -2  -9   7 2.16199 8.38448   1
   2   9  -7 2.56384 8.45729   2
  -2  -9   7 8.89857 9.11352   2
   2   9  -6-11.3259 9.59161   1
  -2  -9   6 9.07675 8.71272   1
  -2  -9   6 4.82771 8.59813   2
   2   9  -6-12.3265 8.33076   2
   2   9  -5 52.0277 11.3614   2
   2   9  -5 47.8203 11.2175   1
  -2  -9   5 73.5023 12.2701   2
  -2  -9   5 66.1470 11.7410   1
  -2  -9   4 8.18297 9.23195   1
  -2  -9   4 2.59653 8.77499   2
   2   9  -4 9.16648 9.27874   1
   2   9  -4-2.13468 8.64196   2
  -2  -9   3 10.1693 9.75088   1
   2   9  -3-5.10127 8.83351   2
  -2  -9   3 7.08641 9.13032   2
   2   9  -3 4.25333 8.90693   1
  -2  -9   2-12.3005 9.85886   1
   2   9  -2 11.4614 10.2971   2
  -2  -9   2 7.94862 9.47583   2
   2   9  -2 11.9749 10.0390   1
   2   9  -1 11.3406 9.55725   1
  -2  -9   1 9.15582 9.79784   2
   2   9  -1 2.96802 9.67097   2
  -2  -9   1-5.63279 11.0772   1
   2   9   0 6.22232 10.2475   1
  -2  -9   0 21.5820 11.4989   1
  -2  -9   0 42.9228 11.6431   2
   2   9   1 21.8043 12.2159   1
  -2  -9  -1-16.6159 12.8756   2
  -2  -9  -1-3.20466 11.4650   1
   2   9   2-16.0306 12.3397   1
  -2  -9  -2 4.10119 12.2442   1
   2   9   3 10.1830 14.5444   1
  -2  -9  -3-16.6904 15.4241   2
  -2  -9  -3 12.7527 14.2346   1
   2   9   4 33.5334 16.3397   1
  -2  -9  -4 24.7565 15.9482   2
  -2  -9  -4-16.1844 15.9986   1
   2  10 -12 20.8298 10.7624   2
  -2 -10  12 21.1842 10.2899   2
  -2 -10  11 6.15257 12.6448   1
   2  10 -11 12.0315 12.6713   1
   2  10 -11 20.6722 14.0717   2
  -2 -10  11 8.31018 13.0059   2
   2  10 -10 17.9400 12.4794   2
   2  10 -10 52.6554 12.8260   1
  -2 -10  10 29.7513 11.6604   1
  -2 -10  10 10.7222 12.1620   2
  -2 -10   9 16.8412 11.0950   1
   2  10  -9 23.7361 11.7321   2
  -2 -10   9 0.91811 11.4298   2
   2  10  -9 39.6022 12.1930   1
   2  10  -8 57.5866 14.1284   2
  -2 -10   8 49.2387 13.5143   2
  -2 -10   8 35.9847 12.5198   1
  -2 -10   7 33.2856 12.7370   1
   2  10  -7 22.9802 12.3741   2
  -2 -10   7 34.2439 12.4596   2
   2  10  -7 48.1823 13.2349   1
   2  10  -6-12.0206 11.9469   1
  -2 -10   6 0.07185 11.0185   1
   2  10  -6-15.5727 10.3657   2
  -2 -10   6-2.84544 11.4341   2
  -2 -10   5 24.6903 12.0903   1
   2  10  -5 0.58821 11.3058   2
  -2 -10   5 8.36201 11.4370   2
   2  10  -5 6.88753 11.5399   1
  -2 -10   4 5.15730 11.9059   1
   2  10  -4 34.8243 13.0680   2
  -2 -10   4 17.3511 11.9081   2
   2  10  -4 5.43482 11.9104   1
   2  10  -3 1.23216 12.3967   2
  -2 -10   3-5.97610 11.6451   2
   2  10  -3 3.40472 11.3344   1
  -2 -10   3 27.0309 13.0463   1
   2  10  -2 6.01510 12.8303   2
  -2 -10   2 14.6156 12.6043   2
   2  10  -2-11.0274 12.2229   1
  -2 -10   2-12.1185 12.4059   1
   2  10  -1 9.62703 12.8827   2
   2  10  -1 60.1635 15.0490   1
  -2 -10   1 31.4293 13.2990   2
  -2 -10   1 57.5464 15.3968   1
   2  10   0-15.4564 14.9747   1
  -2 -10   0 4.41413 13.9879   2
  -2 -10   0-13.4842 16.1761   1
   2  10   1 20.4254 15.8729   1
  -2 -10  -1 28.7255 16.3864   2
  -2 -10  -1 18.4139 16.5601   1
   2  11  -9 22.8583 9.31418   2
  -2 -11   9 17.5851 9.38150   2
   2  11  -9 20.9323 9.55000   1
  -2 -11   9 32.9340 9.98036   1
  -2 -11   8 30.4836 15.1403   1
   2  11  -8 49.7497 15.9251   2
   2  11  -8 70.7634 17.1941   1
  -2 -11   8 57.3149 17.2375   2
  -2 -11   7 2.25213 14.1368   1
   2  11  -7-3.70438 14.3041   2
  -2 -11   7-17.0000 14.3299   2
   2  11  -7 25.2220 15.9270   1
   2  11  -6-4.76320 13.9431   1
  -2 -11   6-3.82253 14.2594   1
  -2 -11   6 28.7399 14.9824   2
   2  11  -6 1.66993 13.9534   2
   2  11  -5 43.5076 16.4312   2
  -2 -11   5 13.7304 14.7432   2
   2  11  -5-5.13165 14.3440   1
  -2 -11   5 37.9734 16.2057   1
   2  11  -4-0.77755 14.6585   2
  -2 -11   4 25.5358 16.3474   2
   2  11  -4-12.5759 14.4745   1
  -2 -11   4-18.0430 14.2636   1
   2  11  -3 14.7926 15.0698   2
  -2 -11   3 11.3018 15.5869   2
   2  11  -3-15.2733 15.0522   1
   3 -11   4 30.4318 8.55664   1
  -3  11  -4 11.8450 8.47826   2
   3 -11   4 12.3043 8.47485   2
  -3  11  -4 9.76838 6.63645   1
  -3  10   2 23.0145 14.2314   1
   3 -10  -2 7.24586 15.5216   1
  -3  10   2 23.2354 14.7632   2
   3 -10  -2 9.35580 13.2079   2
   3 -10  -1 19.3369 14.8506   1
  -3  10   1-16.5942 12.4645   1
  -3  10   1-3.17194 13.0532   2
   3 -10  -1 5.32656 13.2250   2
   3 -10   0 23.6649 12.7860   1
  -3  10   0-13.4890 12.7146   1
   3 -10   0-21.1483 13.7599   2
  -3  10   0 0.87826 13.3173   2
   3 -10   1 2.59245 11.9488   1
  -3  10  -1 24.1170 10.5621   1
  -3  10  -1-18.4316 13.0588   2
   3 -10   1 12.2902 12.0842   2
   3 -10   2 21.9715 11.6367   1
  -3  10  -2 26.2047 13.2606   2
  -3  10  -2 23.5091 10.8167   1
   3 -10   2 15.8427 12.6496   2
   3 -10   3-7.44180 9.81141   1
  -3  10  -3-2.17818 11.3700   2
  -3  10  -3 0.57667 9.51941   1
   3 -10   3 16.1246 12.0227   2
   3 -10   4 2.11005 9.24481   1
  -3  10  -4-10.6997 8.27753   1
   3 -10   4-3.64756 11.6735   2
   3 -10   5 18.2197 8.77387   1
  -3  10  -5 25.3942 13.2123   2
   3 -10   5-7.97981 11.8866   2
  -3  10  -5 5.95000 7.94837   1
   3 -10   6 22.2148 7.85898   1
  -3  10  -6 14.9931 7.08018   1
  -3  10  -6 25.5366 13.5886   2
   3 -10   6 8.92587 12.2523   2
   3 -10   7-4.30787 6.31757   1
  -3  10  -7-15.9508 15.0164   2
  -3  10  -7-6.44088 5.91022   1
   3 -10   7-15.0154 14.4758   2
  -3  10  -8 33.7765 15.2528   2
   3 -10   8-31.3724 16.7463   2
  -3  10  -9 26.1708 16.9040   2
   3 -10   9 21.8274 15.2364   2
  -3   9   5-0.19844 9.43782   2
  -3   9   5 1.92507 12.5637   1
   3  -9  -5-1.42740 13.6791   1
   3  -9  -5-9.36255 10.1963   2
  -3   9   4 18.8344 13.2388   1
   3  -9  -4-8.43523 15.7312   1
  -3   9   4 2.43139 12.2537   2
   3  -9  -4 15.7938 11.8056   2
  -3   9   3 34.4441 13.2577   1
   3  -9  -3 1.65710 13.0947   1
  -3   9   3 24.4128 12.0255   2
   3  -9  -3 49.5096 12.9236   2
  -3   9   2 8.77392 11.6368   1
  -3   9   2 7.22099 10.8909   2
   3  -9  -2 9.03566 12.4716   1
   3  -9  -2-4.65375 9.79504   2
  -3   9   1 0.06495 10.0982   1
   3  -9  -1 8.58593 10.8798   1
  -3   9   1-1.32986 10.3831   2
   3  -9  -1 4.21522 10.7963   2
  -3   9   0-0.48096 9.47404   1
   3  -9   0 8.70648 10.3510   1
  -3   9   0-20.2187 10.4356   2
   3  -9   0-8.33551 9.95350   2
  -3   9  -1 16.9870 8.88874   1
   3  -9   1 8.49617 9.47141   1
  -3   9  -1 21.5917 9.71274   2
   3  -9   1 17.6379 9.59884   2
   3  -9   2-10.2055 8.33118   1
  -3   9  -2-12.7129 8.40550   1
  -3   9  -2 1.94177 9.41669   2
   3  -9   2-6.93316 8.70498   2
   3  -9   3 29.0800 8.98153   1
  -3   9  -3 13.4440 7.91944   1
  -3   9  -3 13.2377 10.2140   2
   3  -9   3 30.4366 10.8045   2
   3  -9   4-5.22726 7.09423   1
  -3   9  -4-17.4347 10.9507   2
  -3   9  -4-10.5671 6.74613   1
   3  -9   4 3.14484 9.68873   2
   3  -9   5-4.64325 6.35073   1
  -3   9  -5-7.47983 10.0964   2
  -3   9  -5 12.8902 6.15390   1
   3  -9   5-2.02279 10.2920   2
  -3   9  -6 4.17815 5.11234   1
  -3   9  -6 6.06554 10.8087   2
   3  -9   6-1.17428 10.3647   2
   3  -9   6-2.06719 6.05941   1
  -3   9  -7 4.38183 11.2098   2
  -3   9  -7 2.47001 3.43670   1
   3  -9   7 18.6134 11.7040   2
   3  -9   7 6.83557 4.07508   1
  -3   9  -8 17.7987 13.2498   2
   3  -9   8 34.2284 13.6287   2
  -3   9  -9 14.7437 13.4699   2
   3  -9   9 0.07778 12.8258   2
  -3   9 -10 45.4865 14.8286   2
  -3   9 -11 9.60384 15.5835   2
   3  -8  -7 38.0625 16.8680   1
   3  -8  -7 5.27019 10.3950   2
  -3   8   7 57.5206 17.7965   1
   3  -8  -6-21.6345 16.2822   1
   3  -8  -6 6.46068 10.4001   2
  -3   8   6 21.9117 14.2158   1
   3  -8  -5 21.9780 13.1993   1
  -3   8   5 5.19593 9.37479   2
   3  -8  -5 4.14004 9.74451   2
  -3   8   5 3.03588 13.3629   1
  -3   8   4 51.2472 11.3430   2
   3  -8  -4 53.6245 11.4119   2
   3  -8  -4 36.0676 13.4171   1
  -3   8   4 30.4691 11.9259   1
   3  -8  -3-17.8576 11.5402   1
  -3   8   3 13.4837 8.75338   2
   3  -8  -3 3.17555 7.87335   2
  -3   8   3 4.60222 10.1234   1
   3  -8  -2-5.50064 9.15308   1
  -3   8   2 2.76952 7.68485   2
   3  -8  -2-8.18330 7.96390   2
  -3   8   2 1.95991 8.90792   1
   3  -8  -1 46.3155 10.0490   2
  -3   8   1 40.9392 9.24408   2
  -3   8   1 60.3417 11.2326   1
   3  -8  -1 47.0015 10.8153   1
  -3   8   0-0.10556 7.21765   1
   3  -8   0-9.73487 8.86542   1
  -3   8   0-2.77964 7.19817   2
   3  -8   0-5.57542 8.10152   2
  -3   8  -1 61.3410 10.5432   2
   3  -8   1 65.1120 10.1969   2
  -3   8  -1 63.9663 9.59708   1
   3  -8   1 43.6070 9.04415   1
  -3   8  -2 0.38654 6.23911   1
   3  -8   2 8.23618 6.73257   1
  -3   8  -2 8.71520 7.71834   2
   3  -8   2 9.97762 7.81441   2
   3  -8   3 5.86175 5.96846   1
  -3   8  -3 16.3184 6.00527   1
  -3   8  -3 27.5390 9.13710   2
   3  -8   3 19.2145 8.94559   2
   3  -8   4 0.85696 5.54323   1
  -3   8  -4 1.21650 4.99093   1
  -3   8  -4 14.6849 8.67821   2
   3  -8   4 5.20518 7.47820   2
   3  -8   5 50.3556 10.5563   2
  -3   8  -5 36.5154 10.0386   2
  -3   8  -5 38.9113 5.85770   1
   3  -8   5 34.7022 6.39600   1
  -3   8  -6-2.31490 8.46776   2
   3  -8   6 15.6709 9.35142   2
  -3   8  -6 4.62669 3.89383   1
   3  -8   6 1.16173 3.80124   1
  -3   8  -7-2.55904 8.84671   2
   3  -8   7 15.5608 9.57062   2
  -3   8  -8-0.77691 10.5965   2
   3  -8   8-19.8670 10.3885   2
  -3   8  -9 2.53298 11.9597   2
  -3   8 -10 30.0125 13.5917   2
  -3   8 -11-5.42997 14.4265   2
  -3   8 -12 23.9630 16.7380   2
   3  -7  -8 22.7465 16.0756   1
   3  -7  -8 32.0826 10.5656   2
  -3   7   8 31.9264 15.1946   1
   3  -7  -7 13.6676 13.1502   1
   3  -7  -7 12.9612 9.24701   2
  -3   7   7 4.24651 12.2160   1
   3  -7  -6 34.5586 9.66593   2
   3  -7  -6 28.3422 12.1626   1
  -3   7   6 26.3952 11.5950   1
   3  -7  -5 32.2998 11.1934   1
  -3   7   5 39.8284 8.98056   2
   3  -7  -5 38.8130 8.88073   2
  -3   7   5 31.5656 11.1631   1
   3  -7  -4 3.38448 9.18941   1
  -3   7   4 9.40222 7.58363   2
   3  -7  -4 0.04574 6.50882   2
  -3   7   4-12.1466 8.90048   1
   3  -7  -3 35.2312 7.85155   2
   3  -7  -3 31.2087 9.91885   1
  -3   7   3 25.5564 7.37288   2
  -3   7   3 15.5855 8.21601   1
  -3   7   2 79.6050 9.94130   2
  -3   7   2 64.0349 10.2466   1
   3  -7  -2 60.6531 9.14697   2
   3  -7  -2 83.7837 11.6310   1
  -3   7   1 48.2505 8.35134   2
  -3   7   1 39.5606 8.65804   1
   3  -7  -1 52.1051 8.91680   2
   3  -7  -1 50.9084 9.58435   1
   3  -7   0 4.29691 6.60935   1
  -3   7   0 6.77963 6.48433   2
   3  -7   0 9.35468 6.18166   2
  -3   7   0-1.21565 5.96221   1
   3  -7   1-6.25888 6.25302   1
  -3   7  -1 10.0893 6.59085   2
   3  -7   1-2.21123 5.88798   2
  -3   7  -1 8.01043 5.84134   1
  -3   7  -2 247.843 15.2629   2
   3  -7   2 243.861 15.2139   2
   3  -7   2 215.225 12.7849   1
  -3   7  -2 257.350 13.4299   1
  -3   7  -3 182.860 10.7979   1
  -3   7  -3 188.028 13.8449   2
   3  -7   3 207.816 14.3091   2
   3  -7   3 183.581 11.2345   1
   3  -7   4 12.6952 4.85857   1
  -3   7  -4 14.2105 4.49177   1
  -3   7  -4 20.5944 7.89641   2
   3  -7   4 27.8512 7.84455   2
  -3   7  -5 65.3337 10.6397   2
   3  -7   5 73.4752 10.5023   2
  -3   7  -5 50.1795 5.30506   1
   3  -7   5 53.8934 5.89800   1
  -3   7  -6-2.83377 7.12098   2
  -3   7  -6-1.83309 2.08825   1
   3  -7   6-1.10967 7.37285   2
  -3   7  -6 0.98403 2.24435   1
  -3   7  -7 1.46648 8.18827   2
   3  -7   7-9.57518 7.89171   2
  -3   7  -8-0.58418 8.45360   2
  -3   7  -9 6.42410 9.41156   2
  -3   7 -10 20.7125 11.8928   2
  -3   7 -11 29.5682 13.3632   2
  -3   7 -12-11.3046 15.4101   2
   3  -6 -10 5.20585 16.4856   1
   3  -6 -10 18.0460 10.0811   2
  -3   6  10-18.0466 16.2147   1
   3  -6  -9 12.1930 13.7635   1
   3  -6  -9 6.09276 8.48413   2
  -3   6   9 23.3124 13.1187   1
   3  -6  -8-22.0804 11.9483   1
   3  -6  -8 7.33846 8.15970   2
  -3   6   8-8.25438 12.1121   1
   3  -6  -7 39.4091 12.3363   1
   3  -6  -7 21.9798 7.50187   2
  -3   6   7 18.3391 11.1630   1
   3  -6  -6 21.9569 10.6814   1
   3  -6  -6 8.06591 6.21432   2
  -3   6   6 8.05878 9.62150   1
  -3   6   5 49.1476 7.80609   2
   3  -6  -5 35.4594 10.0217   1
   3  -6  -5 44.3843 7.48032   2
  -3   6   5 39.2404 10.2266   1
  -3   6   4 42.3400 7.42819   2
  -3   6   4 65.9936 10.6063   1
   3  -6  -4 40.4931 7.41255   2
   3  -6  -4 41.8297 9.96527   1
  -3   6   3 83.4192 8.59457   2
  -3   6   3 75.1600 10.3535   1
   3  -6  -3 73.3618 10.3069   1
   3  -6  -3 93.3815 8.88306   2
   3  -6  -2-6.64137 6.77481   1
  -3   6   2 4.14749 5.24482   2
   3  -6  -2 3.13412 4.89621   2
  -3   6   2-1.02245 5.71784   1
   3  -6  -1 13.1097 5.96915   1
  -3   6   1 10.5700 5.37315   2
   3  -6  -1 6.13516 5.11383   2
  -3   6   1 14.9027 6.12536   1
  -3   6   0 205.899 12.5714   2
  -3   6   0 193.197 12.2095   1
   3  -6   0 201.766 12.0837   2
   3  -6   0 199.030 12.8247   1
  -3   6  -1 201.961 12.5249   2
  -3   6  -1 191.524 11.3853   1
   3  -6   1 215.230 12.7057   2
   3  -6   1 200.000 11.9964   1
  -3   6  -2 77.1500 8.65607   2
  -3   6  -2 74.6501 7.26496   1
   3  -6   2 82.5679 8.81454   2
   3  -6   2 84.7873 7.94297   1
  -3   6  -3 35.7082 5.52614   1
   3  -6   3 29.5333 6.69184   2
  -3   6  -3 24.1739 6.76675   2
   3  -6   3 22.8684 4.94746   1
  -3   6  -4 40.0185 7.82373   2
  -3   6  -4 48.2446 5.19550   1
   3  -6   4 49.3732 8.11183   2
   3  -6   4 46.1012 5.47591   1
  -3   6  -5 120.035 5.99062   1
  -3   6  -5 141.022 12.1179   2
  -3   6  -5 135.098 6.23719   1
   3  -6   6 46.6947 8.38554   2
  -3   6  -6 37.2460 8.21966   2
  -3   6  -7 12.7357 7.48975   2
  -3   6  -8 12.7156 7.82285   2
  -3   6  -9 101.431 13.4634   2
  -3   6 -10 21.0757 10.4461   2
  -3   6 -11 32.9284 12.6276   2
  -3   6 -12 12.6898 12.6167   2
  -3   6 -13 0.69118 14.3326   2
   3  -5 -11 21.7487 17.0630   1
   3  -5 -11-8.40324 8.63833   2
  -3   5  11 5.94667 16.2067   1
   3  -5 -10-4.00004 13.1350   1
   3  -5 -10 3.26271 7.34382   2
  -3   5  10 23.1514 13.0710   1
   3  -5  -9 3.20156 12.1556   1
   3  -5  -9 3.10468 6.45666   2
  -3   5   9-16.5653 11.9258   1
   3  -5  -8 6.50879 10.3580   1
   3  -5  -8 6.91989 6.06064   2
  -3   5   8 13.0476 10.9271   1
   3  -5  -7 5.60554 5.22947   2
  -3   5   7 16.1017 8.77710   1
   3  -5  -7 9.97528 9.69141   1
   3  -5  -6-2.11844 8.08208   1
   3  -5  -6 12.4854 4.92187   2
  -3   5   6 0.36748 7.65452   1
  -3   5   5 8.09368 4.87472   2
   3  -5  -5-4.11643 6.67551   1
   3  -5  -5 11.9480 5.02400   2
  -3   5   5-3.20734 7.32252   1
   3  -5  -4 13.7379 6.70823   1
  -3   5   4 19.1232 5.03282   2
   3  -5  -4 13.4426 4.75228   2
  -3   5   4 13.7763 7.06312   1
   3  -5  -3-2.16503 5.33152   1
  -3   5   3-1.08463 4.15364   2
   3  -5  -3-4.94187 4.48547   2
  -3   5   3 7.12429 5.61341   1
   3  -5  -2 7.25021 5.55247   1
  -3   5   2 15.4206 4.65887   2
   3  -5  -2 7.31998 3.98028   2
  -3   5   2 17.6035 5.92063   1
  -3   5   1 105.454 8.37506   2
  -3   5   1 109.291 9.46197   1
   3  -5  -1 89.3516 7.63799   2
   3  -5  -1 100.417 9.48701   1
  -3   5   0 230.487 12.1554   1
  -3   5   0 246.925 12.2412   2
   3  -5   0 245.445 12.0937   2
   3  -5   0 243.535 12.7815   1
  -3   5  -1 145.420 9.39536   1
   3  -5   1 142.498 9.64422   2
  -3   5  -1 144.457 9.86034   2
   3  -5   1 131.471 9.17088   1
   3  -5   2 1.32480 3.53817   1
  -3   5  -2-1.71426 4.33025   2
   3  -5   2-2.24837 4.47293   2
  -3   5  -2-0.45349 3.32355   1
  -3   5  -3 1.87039 4.46311   2
   3  -5   3 6.40510 4.72497   2
  -3   5  -3 5.48002 3.31359   1
   3  -5   3 11.1550 3.75471   1
  -3   5  -4 1.25637 4.90304   2
  -3   5  -4 1.75445 2.55483   1
   3  -5   4 6.51550 5.02212   2
  -3   5  -4 7.09914 2.85889   1
  -3   5  -5 18.8343 2.30889   1
  -3   5  -5 16.4143 2.20485   1
  -3   5  -5 23.9200 6.57804   2
  -3   5  -6 25.4923 7.28844   2
  -3   5  -7 55.2232 9.10828   2
  -3   5  -8 6.14063 7.55697   2
  -3   5  -9 77.1838 11.4729   2
  -3   5 -10 17.5781 10.0338   2
  -3   5 -11 9.71169 10.1578   2
  -3   5 -12-8.19004 11.6794   2
  -3   5 -13 3.09127 14.2898   2
   3  -4 -12 43.9216 9.40045   2
   3  -4 -12 50.4950 19.2498   1
   3  -4 -11 9.99372 13.5444   1
   3  -4 -11 19.5047 7.03889   2
  -3   4  10 119.132 16.2759   1
   3  -4 -10 121.824 9.38971   2
   3  -4  -9 4.98854 9.86281   1
   3  -4  -9 0.58421 4.85582   2
  -3   4   9 3.55012 9.55160   1
   3  -4  -8 5.40473 8.24058   1
   3  -4  -8 13.8315 4.74813   2
  -3   4   8 13.7849 8.59226   1
   3  -4  -7 34.0564 9.43492   1
   3  -4  -7 41.3434 5.59550   2
  -3   4   7 47.5785 10.3322   1
   3  -4  -6 56.1086 5.74788   2
   3  -4  -6 65.5452 10.0663   1
  -3   4   6 52.8849 9.01176   1
   3  -4  -5 18.3617 7.23341   1
   3  -4  -5 16.3126 4.14459   2
  -3   4   5 19.6766 6.86120   1
  -3   4   5 15.8129 4.21483   2
  -3   4   4 77.5021 6.28308   2
   3  -4  -4 76.8473 6.26293   2
   3  -4  -4 97.3968 10.3424   1
  -3   4   4 76.3883 9.15040   1
  -3   4   3 171.435 8.73565   2
   3  -4  -3 163.975 8.45373   2
   3  -4  -3 168.760 12.0321   1
  -3   4   3 159.526 11.5132   1
  -3   4   2 1.21051 3.20016   2
  -3   4   2 5.68842 4.67631   1
   3  -4  -2 1.69907 3.21987   2
   3  -4  -2-0.15886 4.58528   1
  -3   4   1 134.658 8.16555   2
   3  -4  -1 139.602 8.16265   2
   3  -4  -1 146.860 10.1569   1
  -3   4   1 143.072 9.80548   1
   3  -4   0 1.40758 3.57963   1
  -3   4   0 2.67149 3.61144   1
  -3   4   0 2.13545 3.45090   2
   3  -4   0 2.61536 3.36924   2
  -3   4  -1 26.6855 4.98827   2
   3  -4   1 23.3430 4.56297   2
   3  -4   1 20.6103 4.52863   1
  -3   4  -1 23.6337 4.47555   1
  -3   4  -2 4.07130 3.10532   1
  -3   4  -2 0.03211 3.80705   2
   3  -4   2 5.02611 3.94661   2
   3  -4   2-0.61662 3.18926   1
  -3   4  -3 15.9757 4.97062   2
  -3   4  -3 17.8209 3.36654   1
  -3   4  -3 16.6473 3.31642   1
  -3   4  -4 2.27325 2.11645   1
  -3   4  -4 3.14397 4.33500   2
  -3   4  -4 2.95196 2.18158   1
  -3   4  -5 15.4870 1.74200   1
  -3   4  -5 21.2478 6.29354   2
  -3   4  -5 14.5398 1.62450   1
  -3   4  -6 256.211 14.7031   2
  -3   4  -7 221.577 14.6386   2
  -3   4  -8 37.3386 8.36746   2
  -3   4  -9 13.9516 7.76132   2
  -3   4 -10 9.44992 9.11838   2
  -3   4 -11 12.0912 9.82232   2
  -3   4 -12 13.5256 12.0333   2
  -3   4 -13 24.9934 12.8157   2
   3  -3 -13 12.0301 6.88862   2
  -3   3  13 16.1127 15.7656   1
   3  -3 -13 11.5434 7.11489   2
   3  -3 -13 34.9868 18.8448   1
   3  -3 -12 2.30749 5.95157   2
  -3   3  12 2.82013 12.9148   1
   3  -3 -12 2.71314 13.2564   1
   3  -3 -11 1.20954 12.4738   1
   3  -3 -11 5.14236 5.23254   2
  -3   3  11 12.8554 10.5817   1
   3  -3 -10-8.58041 9.70132   1
   3  -3 -10 2.57206 4.17443   2
  -3   3  10-1.40495 9.67287   1
   3  -3  -9 1.89475 3.61707   2
  -3   3   9 3.23314 7.68056   1
   3  -3  -9 6.38663 8.68068   1
   3  -3  -8-4.18076 7.51561   1
   3  -3  -8 2.92082 3.15859   2
  -3   3   8-6.54456 7.00899   1
   3  -3  -7-0.22871 6.62151   1
  -3   3   7-2.88347 6.38293   1
   3  -3  -7 3.03460 2.66467   2
   3  -3  -6 5.07650 5.71987   1
  -3   3   6 8.06392 5.54078   1
   3  -3  -6 1.74587 2.49795   2
   3  -3  -5 20.6032 6.92174   1
   3  -3  -5 26.1459 3.47953   2
  -3   3   5 20.9259 6.27807   1
  -3   3   4 93.8558 5.48419   2
   3  -3  -4 86.3001 5.20702   2
   3  -3  -4 75.9168 8.65992   1
  -3   3   4 94.3221 9.21867   1
  -3   3   3 25.1445 3.54008   2
   3  -3  -3 20.2368 3.27120   2
  -3   3   3 20.5219 5.32087   1
   3  -3  -3 23.7329 5.77557   1
   3  -3  -2 11.3650 4.87199   1
  -3   3   2 8.29385 4.32409   1
  -3   3   2 13.3043 3.17013   2
   3  -3  -2 9.57327 2.76708   2
  -3   3   1 204.907 8.75451   2
   3  -3  -1 192.229 8.24269   2
   3  -3  -1 205.712 11.1070   1
  -3   3   1 192.163 10.5155   1
  -3   3   0 15.5988 4.11444   1
  -3   3   0 13.7725 3.52007   2
   3  -3   0 9.67622 3.21411   2
   3  -3   0 14.0227 4.08199   1
  -3   3  -1 366.759 12.8604   2
  -3   3  -1 351.095 11.9441   1
  -3   3  -1 380.122 12.7939   1
  -3   3  -2 151.657 9.10972   2
  -3   3  -2 159.836 7.89019   1
  -3   3  -2 146.329 7.40912   1
  -3   3  -3 176.906 10.2783   2
  -3   3  -3 183.490 7.52975   1
  -3   3  -3 193.624 7.85810   1
  -3   3  -4 40.3725 6.34698   2
  -3   3  -4 42.5325 3.68968   1
  -3   3  -4 41.5776 3.56585   1
  -3   3  -5 10.1482 1.67724   1
  -3   3  -5 9.80118 4.92836   2
  -3   3  -5 8.27215 1.71743   1
  -3   3  -6 5.08318 5.11844   2
  -3   3  -7 39.2259 7.84380   2
  -3   3  -8 16.4793 6.88880   2
  -3   3  -9 13.3020 7.75429   2
  -3   3 -10 3.39014 8.23767   2
  -3   3 -11 13.4897 9.67487   2
  -3   3 -12 4.33472 11.4502   2
  -3   3 -13 0.73307 13.4280   2
   3  -2 -14 29.8233 4.73892   2
   3  -2 -14 26.5986 4.69702   2
   3  -2 -14 33.2719 12.8129   1
   3  -2 -13-2.29484 5.35840   2
  -3   2  13-11.5317 14.3313   1
   3  -2 -13 8.56531 4.95389   2
   3  -2 -12 12.0681 4.61427   2
  -3   2  12 2.44294 11.3025   1
   3  -2 -12 15.8736 4.64402   2
   3  -2 -11 1.93196 3.43406   2
  -3   2  11-2.32795 9.07837   1
   3  -2 -11 1.75403 3.19771   2
   3  -2 -11-5.98307 9.72963   1
   3  -2 -10 133.565 6.17903   2
   3  -2 -10 130.223 6.00486   2
   3  -2 -10 149.991 15.5800   1
  -3   2  10 151.088 15.1123   1
   3  -2  -9 12.5577 2.56059   2
  -3   2   9 9.68209 7.83304   1
   3  -2  -9 7.06168 7.83908   1
  -3   2   8 1.70465 6.58593   1
   3  -2  -8 1.53460 1.52770   2
   3  -2  -8 4.79249 7.21114   1
  -3   2   7 14.6826 6.46572   1
   3  -2  -7 11.0894 1.63904   2
   3  -2  -7 17.4017 7.04431   1
   3  -2  -6 23.1426 1.84122   2
  -3   2   6 28.6108 6.63655   1
   3  -2  -6 22.5459 6.82309   1
  -3   2   5 15.3665 5.46838   1
   3  -2  -5 8.01525 1.39620   2
   3  -2  -5 13.0649 6.00786   1
  -3   2   4 0.62453 1.32864   2
  -3   2   4-3.58093 4.53709   1
   3  -2  -4 1.34265 1.30255   2
   3  -2  -4-2.72319 4.20177   1
  -3   2   3 85.7049 4.28408   2
   3  -2  -3 88.5566 8.38194   1
  -3   2   3 94.1116 8.45905   1
  -3   2   2 16.9364 2.79979   2
  -3   2   2 17.8960 4.71278   1
   3  -2  -2 14.0203 4.54150   1
  -3   2   1 134.970 6.52240   2
  -3   2   1 144.490 8.71962   1
  -3   2   1 134.769 8.63549   1
  -3   2   0 276.345 9.90651   2
  -3   2   0 281.853 11.1273   1
  -3   2   0 274.390 11.3609   1
  -3   2  -1 133.022 7.67074   2
  -3   2  -1 141.483 7.65625   1
  -3   2  -1 134.413 7.75238   1
  -3   2  -2 273.316 11.3253   2
  -3   2  -2 269.994 9.76292   1
  -3   2  -2 275.870 10.1266   1
  -3   2  -3 626.702 13.5958   1
  -3   2  -3 621.590 17.9698   2
  -3   2  -3 639.878 14.1749   1
  -3   2  -4 43.8377 6.09558   2
  -3   2  -4 48.3111 3.97452   1
  -3   2  -4 46.4334 4.16722   1
  -3   2  -5 151.337 10.5044   2
  -3   2  -5 157.721 6.01440   1
  -3   2  -5 151.265 6.24706   1
  -3   2  -6 30.0163 2.86985   1
  -3   2  -6 33.7126 6.73480   2
  -3   2  -6 31.7069 3.00125   1
  -3   2  -7 43.6093 7.80564   2
  -3   2  -7 30.8722 2.61335   1
  -3   2  -7 35.3295 2.63645   1
  -3   2  -8 410.184 19.6018   2
  -3   2  -8 187.588 4.34681   1
  -3   2  -9 8.23693 7.52114   2
  -3   2 -10 110.957 13.1869   2
  -3   2 -11 11.3771 10.1770   2
  -3   2 -12 16.6604 12.4796   2
  -3   2 -13 15.3055 13.0918   2
   3  -1 -14 12.6088 4.26326   2
  -3   1  14 26.8999 14.6130   1
   3  -1 -13 18.2039 4.01679   2
   3  -1 -13 23.0410 4.29078   2
  -3   1  13 7.41511 11.4502   1
   3  -1 -13 22.6503 13.6830   1
  -3   1  12 17.2941 9.78838   1
   3  -1 -12-0.02569 2.79150   2
   3  -1 -12-5.10494 11.1089   1
   3  -1 -11 0.60313 1.81568   2
  -3   1  11 0.65851 8.30368   1
   3  -1 -11 0.40393 1.87088   2
   3  -1 -11-1.82707 8.87312   1
  -3   1  10 10.3996 8.44815   1
   3  -1 -10 2.20369 1.10424   2
   3  -1 -10 0.51763 7.61007   1
  -3   1   9 14.2689 7.08354   1
   3  -1  -9 25.3391 8.05935   1
   3  -1  -8 65.6989 9.45873   1
  -3   1   8 62.7199 9.09630   1
  -3   1   7-4.14017 5.35960   1
   3  -1  -7 4.05812 6.17663   1
  -3   1   6 2.78256 4.78405   1
   3  -1  -6-3.62706 5.15614   1
  -3   1   5 10.7872 5.03438   1
   3  -1  -5 17.4556 5.44106   1
  -3   1   4 172.042 10.9079   1
  -3   1   3 2.55655 1.10920   2
  -3   1   3 4.94168 3.66633   1
  -3   1   2 373.753 14.2739   1
  -3   1   2 371.294 8.38475   2
  -3   1   2 386.983 14.0547   1
  -3   1   1 13.0869 3.90245   1
  -3   1   1 14.8440 2.69807   2
  -3   1   1 17.9976 4.04773   1
  -3   1   0 1.93287 2.89351   1
  -3   1   0-2.18818 3.01330   1
  -3   1   0-0.51724 2.42614   2
  -3   1  -1 28.0232 3.96568   2
  -3   1  -1 36.3540 4.60485   1
  -3   1  -1 34.3495 4.66035   1
  -3   1  -2 8.05661 2.98236   1
  -3   1  -2 6.75454 3.45205   2
  -3   1  -2 15.5859 3.64777   1
   3  -1   3 69.2409 5.29150   1
  -3   1  -3 87.4774 7.36426   2
  -3   1  -3 76.3183 5.51242   1
   3  -1   4 6.76649 2.79063   1
  -3   1  -4 5.99484 2.69407   1
  -3   1  -4 12.5749 4.40451   2
  -3   1  -5 461.376 11.9904   1
  -3   1  -5 450.533 17.2974   2
   3  -1   5 421.483 11.4626   1
  -3   1  -6 329.086 10.3432   1
  -3   1  -6 330.896 15.9345   2
   3  -1   6 308.862 9.91513   1
  -3   1  -7 139.494 11.8016   2
   3  -1   7 110.312 6.34744   1
  -3   1  -7 112.910 6.48939   1
  -3   1  -8 57.6946 9.05760   2
   3  -1   8 42.0848 4.52238   1
  -3   1  -8 41.4608 4.64352   1
   3  -1   9 146.309 7.45515   1
  -3   1  -9 175.888 8.26111   1
  -3   1 -10 10.5579 4.01468   1
   3  -1  10 15.6808 4.08091   1
  -3   1 -10 8.29202 8.45301   2
   3  -1  11 2.40807 3.73884   1
  -3   1 -11-1.08848 4.11947   1
  -3   1 -11-7.30759 10.6128   2
  -3   1 -12 0.46951 3.86488   1
   3  -1  12 0.83450 3.79564   1
  -3   1 -12 14.0872 11.9758   2
  -3   1 -13 0.16601 13.5140   2
   3  -1  13-6.12722 3.64138   1
  -3   1 -13 0.54772 3.71972   1
   3   0 -15 20.2619 3.73311   2
  -3   0  15 20.3267 14.6995   1
  -3   0  14-8.94494 12.9690   1
   3   0 -14-4.83105 3.18809   2
  -3   0  14-1.25403 12.5264   1
   3   0 -14 0.84703 3.10024   2
   3   0 -13 14.5182 2.76037   2
  -3   0  13 19.3699 12.0101   1
  -3   0  13 32.0145 11.8635   1
   3   0 -12 133.179 4.17984   2
  -3   0  12 158.999 15.4764   1
  -3   0  12 142.398 15.6209   1
  -3   0  11 46.0499 10.0053   1
  -3   0  11 47.8323 10.3009   1
  -3   0  10 5.15535 7.06834   1
  -3   0  10 10.8134 7.70449   1
  -3   0   9 0.97380 5.90940   1
  -3   0   9-10.9806 6.05738   1
  -3   0   8 519.710 20.8518   1
  -3   0   8 530.053 21.6032   1
  -3   0   7 151.887 11.4570   1
  -3   0   7 145.802 11.5388   1
  -3   0   6 42.2158 6.52666   1
  -3   0   6 52.3972 7.40284   1
  -3   0   5 2.19512 4.48967   1
  -3   0   5 7.29081 4.58751   1
  -3   0   4-2.65659 4.12563   1
  -3   0   4 2.17145 3.70957   1
  -3   0   3 43.0181 2.24108   2
  -3   0   3 43.2208 2.30703   2
  -3   0   3 49.7108 6.19060   1
  -3   0   3 43.6541 6.17825   1
  -3   0   2 5.75198 3.56280   1
  -3   0   2 0.93801 1.61411   2
  -3   0   2 5.19910 3.65223   1
  -3   0   1-2.14045 3.22787   1
  -3   0   1 2.98933 3.47915   1
   3   0   0 2.55568 3.13983   1
  -3   0   0 3.15637 3.12796   1
  -3   0  -1 455.591 13.9529   1
   3   0   1 444.559 13.7581   1
  -3   0  -2 4.83330 2.92933   1
   3   0   2 5.48662 3.06955   1
   3   0   3 86.2823 6.42237   1
  -3   0  -3 83.9623 6.32924   1
   3   0   4 43.4326 5.01351   1
  -3   0  -4 42.9217 4.90190   1
  -3   0  -5 138.273 8.00478   1
   3   0   5 143.100 8.09708   1
  -3   0  -6 110.277 7.63413   1
   3   0   6 115.195 7.55833   1
  -3   0  -7 62.0126 6.44819   1
   3   0   7 60.2756 6.28794   1
  -3   0  -8 4.51079 4.22171   1
   3   0   8 0.51808 4.08450   1
  -3   0  -9-1.72031 4.60853   1
   3   0   9-2.66012 4.36176   1
  -3   0 -10 19.0866 6.33979   1
   3   0  10 25.7747 6.00774   1
  -3   0 -11 3.35566 6.15042   1
   3   0  11 9.77164 5.83021   1
  -3   0 -12 25.2552 7.86421   1
   3   0  12 28.3520 7.71076   1
  -3   0 -13 7.27823 7.86045   1
   3   0  13 2.60977 7.59551   1
  -3   0 -13 7.66987 15.1632   2
   3   1 -15 4.21879 3.23563   2
   3   1 -15 8.33624 3.48580   2
  -3  -1  15 4.48006 13.9411   1
  -3  -1  15 2.78561 13.2078   1
   3   1 -14 6.33028 2.87450   2
  -3  -1  14-2.31876 11.2754   1
   3   1 -14 4.49848 2.83042   2
  -3  -1  14-13.6867 11.2917   1
   3   1 -13 1.52920 1.85409   2
  -3  -1  13 6.48720 9.73457   1
   3   1 -13 0.43675 1.92682   2
  -3  -1  13-5.94823 9.33911   1
  -3  -1  12-7.03605 8.18430   1
   3   1 -12 3.48879 1.10898   2
  -3  -1  12 4.71121 8.30544   1
  -3  -1  11 51.7077 9.51586   1
  -3  -1  11 30.2387 8.88958   1
  -3  -1  10 415.549 20.6715   1
  -3  -1  10 383.319 19.3969   1
  -3  -1   9 72.8486 10.0346   1
  -3  -1   9 71.4529 9.40150   1
  -3  -1   8 14.2577 5.94445   1
  -3  -1   8 15.7218 5.66333   1
  -3  -1   7 21.8723 6.35375   1
  -3  -1   7 14.7044 5.57478   1
  -3  -1   6 0.84048 4.22384   1
  -3  -1   6 2.37365 4.24154   1
  -3  -1   5 527.568 18.4378   1
  -3  -1   5 533.860 19.1066   1
  -3  -1   4 290.469 4.77562   2
  -3  -1   4 285.479 13.4151   1
  -3  -1   4 309.633 14.3493   1
  -3  -1   3 19.3381 2.42065   2
  -3  -1   3 19.2336 4.58148   1
  -3  -1   3 23.1158 5.18663   1
  -3  -1   2 2.98187 2.11890   2
   3   1  -2-0.06125 3.32193   1
  -3  -1   2 4.08582 3.69399   1
  -3  -1   1 117.727 6.42115   2
  -3  -1   1 125.365 8.45364   1
   3   1  -1 110.586 7.97945   1
  -3  -1   0 68.5255 6.44140   1
   3   1   0 64.0108 6.38334   1
   3   1   1 195.699 10.1188   1
  -3  -1  -1 200.811 10.1608   1
   3   1   2 23.9445 4.70136   1
  -3  -1  -2 21.0786 4.55253   1
   3   1   3-5.01686 3.68895   1
  -3  -1  -3-4.70286 3.71402   1
  -3  -1  -4 10.3115 4.17488   1
   3   1   4 8.09617 3.89145   1
   3   1   5-0.54836 3.85355   1
  -3  -1  -5 0.06073 3.87244   1
   3   1   6 86.8256 7.90269   1
  -3  -1  -6 80.6115 7.78588   1
   3   1   7 12.3588 5.06477   1
  -3  -1  -7 14.1087 5.10514   1
   3   1   8 11.4931 5.41784   1
  -3  -1  -8 5.98948 5.29510   1
   3   1   9 9.21172 5.94639   1
  -3  -1  -9 0.97111 5.66514   1
   3   1  10-6.95586 6.57274   1
  -3  -1 -10-1.80882 6.72866   1
  -3  -1 -11 3.74783 8.23678   1
   3   1  11-2.05391 7.62307   1
  -3  -1 -12 59.6978 11.0515   1
   3   1  12 56.5515 10.0897   1
   3   2 -15-0.15094 3.65110   2
  -3  -2  15 3.22569 13.0343   1
  -3  -2  14-3.84434 10.3267   1
   3   2 -14-2.20860 3.05956   2
   3   2 -14 0.31684 3.06480   2
  -3  -2  13 7.28946 9.33768   1
   3   2 -13 1.91281 2.38764   2
  -3  -2  13 15.6300 9.60436   1
   3   2 -13 2.77853 2.45866   2
  -3  -2  12 17.7430 9.14465   1
   3   2 -12 9.85602 2.19319   2
  -3  -2  12 17.6372 9.75633   1
  -3  -2  11 24.4522 7.97783   1
   3   2 -11 14.3032 1.60029   2
  -3  -2  11 12.7596 8.11355   1
  -3  -2  10 119.961 11.7956   1
  -3  -2  10 105.737 11.8340   1
  -3  -2   9 21.6497 7.08358   1
  -3  -2   9 8.41663 6.32923   1
  -3  -2   8 32.9571 7.08357   1
  -3  -2   8 33.7611 7.31936   1
  -3  -2   7 12.5610 5.71589   1
  -3  -2   7 15.2998 5.68760   1
  -3  -2   6 32.3934 1.77014   2
  -3  -2   6 44.3251 6.82234   1
  -3  -2   6 37.7371 6.91569   1
  -3  -2   5 412.960 7.93013   2
  -3  -2   5 422.762 16.9762   1
  -3  -2   5 412.079 17.3417   1
  -3  -2   4 356.362 8.77642   2
   3   2  -4 330.362 14.4553   1
  -3  -2   4 365.925 15.4018   1
   3   2  -3 416.833 15.8952   1
  -3  -2   3 433.369 10.8811   2
  -3  -2   3 423.795 16.1762   1
  -3  -2   2 89.8875 5.93250   2
  -3  -2   2 83.8597 7.61258   1
   3   2  -2 96.6326 8.14334   1
  -3  -2   1 35.2635 4.58968   2
   3   2  -1 42.3318 5.90750   1
  -3  -2   1 40.4098 5.72981   1
  -3  -2   0 1.48492 3.53055   1
  -3  -2   0 3.73176 3.27422   2
   3   2   0 0.68454 3.43159   1
   3   2   1 1.47901 3.58356   1
  -3  -2  -1-2.38229 3.77165   2
  -3  -2  -1-0.58027 3.46125   1
  -3  -2  -2 311.715 13.6993   2
   3   2   2 328.149 13.9557   1
  -3  -2  -2 293.935 13.1006   1
  -3  -2  -3 25.8262 5.75654   2
   3   2   3 29.8866 5.54470   1
  -3  -2  -3 27.2952 5.37797   1
   3   2   4 218.036 12.0613   1
  -3  -2  -4 224.880 12.2440   1
   3   2   5 30.5698 6.10188   1
  -3  -2  -5 32.1036 6.18701   1
   3   2   6 3.39142 5.37621   1
  -3  -2  -6-8.90450 5.54652   1
   3   2   7 2.31974 5.29690   1
  -3  -2  -7-4.57587 5.31808   1
  -3  -2  -8-3.01554 8.67970   2
   3   2   8 13.9557 6.25620   1
  -3  -2  -8 5.08631 6.60311   1
  -3  -2  -9-3.99838 9.27212   2
   3   2   9 2.55749 7.66724   1
  -3  -2  -9 1.05922 7.00869   1
  -3  -2 -10 14.5856 11.9977   2
   3   2  10 8.74738 8.24012   1
  -3  -2 -10 1.22242 8.40198   1
  -3  -2 -11 17.2255 13.0535   2
   3   2  11-2.95513 8.95967   1
  -3  -2 -11 10.0895 9.93282   1
   3   3 -15 6.85423 4.53074   2
  -3  -3  15 19.7540 12.8526   1
   3   3 -15 7.75245 4.74178   2
  -3  -3  15-7.92335 13.2693   1
   3   3 -14 18.1475 4.83055   2
  -3  -3  14 24.2885 12.0303   1
  -3  -3  13 0.73752 9.88423   1
   3   3 -13 5.96208 3.41286   2
  -3  -3  13-15.4591 9.23155   1
  -3  -3  12 16.4337 9.28943   1
   3   3 -12 7.47585 3.17772   2
  -3  -3  12-2.56626 8.33641   1
   3   3 -11 41.3131 3.86770   2
  -3  -3  11 56.2971 9.92169   1
  -3  -3  11 38.7546 9.44080   1
   3   3 -10 55.1491 4.02477   2
  -3  -3  10 68.9852 9.82036   1
  -3  -3  10 61.4193 9.82288   1
  -3  -3   9 19.3365 7.22378   1
   3   3  -9 18.4417 2.79236   2
  -3  -3   9 15.0260 6.53086   1
  -3  -3   8 21.2214 6.53891   1
   3   3  -8 23.1060 2.89603   2
  -3  -3   8 19.6947 6.08579   1
  -3  -3   7 3.85194 5.38903   1
   3   3  -7 0.37028 2.11595   2
  -3  -3   7-0.65554 2.17568   2
  -3  -3   7-1.91335 5.35189   1
   3   3  -6 9.71073 2.74173   2
  -3  -3   6 10.9604 2.72810   2
  -3  -3   6 11.7198 5.84817   1
  -3  -3   6 16.5336 5.57695   1
   3   3  -5 0.83557 4.14533   1
  -3  -3   5 1.43981 2.45843   2
  -3  -3   5 3.51680 4.35275   1
  -3  -3   4 21.2792 3.70168   2
  -3  -3   4 16.7895 5.48507   1
   3   3  -4 15.7559 5.04719   1
   3   3  -3 5.50013 4.56060   1
  -3  -3   3 0.32934 2.73832   2
  -3  -3   3 0.63848 3.81394   1
  -3  -3   2 101.782 7.07640   2
   3   3  -2 114.023 9.28855   1
  -3  -3   2 112.066 9.34727   1
  -3  -3   1 69.2335 6.54290   2
   3   3  -1 72.0908 7.61734   1
  -3  -3   1 67.2773 7.54119   1
  -3  -3   0 7.41177 3.98672   2
   3   3   0 2.59654 4.27418   1
  -3  -3   0 11.3565 4.66193   1
  -3  -3  -1 40.3067 6.32742   2
   3   3   1 38.9822 6.56267   1
  -3  -3  -1 35.7088 6.36178   1
   3   3   2 83.9772 8.50704   1
  -3  -3  -2 83.8015 8.47425   1
  -3  -3  -2 88.5147 8.81531   2
  -3  -3  -3 242.417 14.1668   2
   3   3   3 240.135 13.4517   1
  -3  -3  -3 217.521 13.0219   1
  -3  -3  -4 6.39641 5.28161   1
  -3  -3  -4 14.9535 6.41133   2
   3   3   4 10.4932 5.61532   1
  -3  -3  -5 23.3890 7.39777   2
   3   3   5 15.4371 6.55423   1
  -3  -3  -5 10.9768 5.95474   1
  -3  -3  -6 2.41766 7.15615   2
   3   3   6 1.98123 6.02666   1
  -3  -3  -6 12.5458 6.61404   1
  -3  -3  -7 7.88563 8.24424   2
   3   3   7-3.41379 6.85750   1
  -3  -3  -7-4.04774 7.29088   1
  -3  -3  -8 72.9772 10.8890   1
   3   3   8 55.2219 10.0921   1
   3   3   9 78.0707 12.1118   1
  -3  -3  -9 79.6067 12.7366   1
  -3  -3 -10 84.7112 14.2353   1
   3   3  10 113.512 14.7287   1
  -3  -3 -11 59.1531 17.8260   2
   3   3  11 33.6526 13.4459   1
  -3  -3 -11 45.5188 13.1132   1
  -3  -4  15 0.07167 12.3075   1
  -3  -4  15-0.52620 12.6537   1
   3   4 -15 5.68691 5.87688   2
  -3  -4  14 3.91768 10.2600   1
  -3  -4  14 13.3853 11.4137   1
   3   4 -14-3.15840 5.27622   2
  -3  -4  13-0.70072 8.67261   1
  -3  -4  13 11.8518 9.61788   1
   3   4 -13 2.13459 4.71608   2
  -3  -4  12-13.4603 8.54303   1
   3   4 -12 0.47915 4.04527   2
  -3  -4  12 4.62572 8.03832   1
  -3  -4  11 9.78622 8.03106   1
   3   4 -11 2.91429 3.77036   2
  -3  -4  11 11.8604 7.50749   1
   3   4 -10 37.1557 4.87379   2
  -3  -4  10 42.0969 9.09722   1
   3   4  -9 157.386 7.88524   2
  -3  -4   9 165.651 13.3237   1
  -3  -4   9 164.290 13.6461   1
  -3  -4   9 150.971 7.65511   2
   3   4  -8 8.67825 3.63478   2
  -3  -4   8 4.85249 3.17108   2
  -3  -4   8 8.99059 6.30473   1
  -3  -4   8 12.0268 6.69040   1
   3   4  -7 281.507 10.4334   2
  -3  -4   7 286.318 15.8363   1
  -3  -4   7 274.679 10.2983   2
   3   4  -6 11.9006 3.68219   2
   3   4  -6 7.63553 5.36550   1
  -3  -4   6 17.7909 6.03567   1
  -3  -4   6 11.7025 3.58933   2
   3   4  -5 7.76069 3.64742   2
   3   4  -5 3.94020 5.05719   1
  -3  -4   5 6.76826 4.97344   1
  -3  -4   5 1.00822 3.10073   2
   3   4  -4 8.43600 3.74137   2
  -3  -4   4 8.73754 5.46230   1
  -3  -4   4 10.3381 3.88989   2
   3   4  -4 15.3436 5.79302   1
  -3  -4   3 315.551 12.6339   2
   3   4  -3 336.409 16.0737   1
  -3  -4   3 322.563 15.5723   1
  -3  -4   2 52.0930 6.41662   2
   3   4  -2 58.9976 7.65902   1
  -3  -4   2 52.0835 7.30403   1
  -3  -4   1 54.9574 6.89982   2
   3   4  -1 58.5075 7.74878   1
  -3  -4   1 55.3522 7.44033   1
  -3  -4   0-0.33479 4.41745   2
  -3  -4   0 0.97515 4.85517   1
   3   4   0 5.68759 4.86746   1
  -3  -4  -1 154.589 11.3073   2
   3   4   1 147.183 11.5639   1
  -3  -4  -1 127.530 10.7415   1
  -3  -4  -2 101.902 10.1401   2
   3   4   2 100.812 10.0331   1
  -3  -4  -2 106.377 10.2567   1
   3   4   3 81.4948 9.56931   1
  -3  -4  -3 84.1334 10.0241   2
  -3  -4  -3 63.0806 9.05968   1
  -3  -4  -4 12.0533 6.54993   1
  -3  -4  -4 4.23376 6.53573   2
   3   4   4 4.36415 5.91759   1
  -3  -4  -5 37.9766 9.61843   2
   3   4   5 30.0338 8.35581   1
  -3  -4  -5 27.5105 8.34227   1
  -3  -4  -6 110.688 13.3386   2
  -3  -4  -6 87.9959 11.9118   1
   3   4   6 98.4891 11.7802   1
   3   4   7 1.96273 8.35536   1
  -3  -4  -7 1.80991 9.57733   2
  -3  -4  -7 10.9293 8.28256   1
   3   4   8 15.7403 9.61278   1
  -3  -4  -8 5.75719 11.0006   2
  -3  -4  -8 16.6667 10.6610   1
   3   4   9 21.5789 11.3237   1
  -3  -4  -9 25.2852 14.0046   2
  -3  -4  -9 9.53463 10.9214   1
   3   4  10 28.4513 13.8722   1
  -3  -4 -10 52.4177 17.6954   2
  -3  -5  15-3.14418 12.8036   1
   3   5 -15 13.1072 8.04655   2
  -3  -5  15 12.1140 12.7782   1
  -3  -5  14 32.0168 12.5571   1
   3   5 -14-5.34576 6.72318   2
  -3  -5  14 18.5538 11.4619   1
  -3  -5  13 2.29383 10.2218   1
   3   5 -13 9.22060 6.35140   2
  -3  -5  13 30.5610 11.0797   1
  -3  -5  12 12.3962 9.50564   1
   3   5 -12 0.48599 5.23602   2
  -3  -5  12 0.48849 8.35605   1
  -3  -5  11 20.6470 8.94446   1
   3   5 -11 15.9620 5.48443   2
  -3  -5  11 7.72909 7.54331   1
   3   5 -10 35.0510 5.70813   2
  -3  -5  10 43.3139 9.20608   1
  -3  -5  10 34.4163 5.78845   2
  -3  -5  10 34.0851 9.51111   1
   3   5  -9 7.52249 4.62712   2
  -3  -5   9 17.0262 7.15211   1
  -3  -5   9 0.89097 4.15396   2
  -3  -5   9 12.0286 7.99450   1
  -3  -5   8 53.2801 8.87006   1
   3   5  -8 58.0670 6.60891   2
  -3  -5   8 49.3089 6.14108   2
   3   5  -8 53.4346 9.11342   1
   3   5  -7 9.90290 6.02021   1
   3   5  -7 14.1941 4.76412   2
  -3  -5   7 22.0952 6.88035   1
  -3  -5   7 19.4987 4.98302   2
   3   5  -6 44.0415 6.07231   2
  -3  -5   6 43.2168 5.84474   2
   3   5  -6 34.5562 7.41475   1
  -3  -5   6 37.5685 7.39783   1
  -3  -5   5 7.02214 5.96002   1
   3   5  -5-3.01423 4.22352   2
  -3  -5   5 7.81284 4.50892   2
   3   5  -5 4.65680 5.52744   1
  -3  -5   4-1.09061 4.27055   2
   3   5  -4 4.62005 4.51945   2
   3   5  -4 11.2894 5.97109   1
  -3  -5   4-5.12625 5.50584   1
  -3  -5   3 522.680 18.0945   2
   3   5  -3 516.146 20.8447   1
  -3  -5   3 488.960 20.2077   1
  -3  -5   2 285.046 14.0758   2
   3   5  -2 294.573 16.1566   1
  -3  -5   2 265.930 15.2875   1
  -3  -5   1 7.99298 5.23679   2
  -3  -5   1-3.40138 5.55756   1
   3   5  -1-4.54324 5.85213   1
  -3  -5   0 243.545 14.1704   2
   3   5   0 242.925 15.1167   1
  -3  -5   0 236.531 15.0340   1
  -3  -5  -1 14.5791 7.01265   1
  -3  -5  -1 6.97761 6.20467   2
   3   5   1-2.90574 5.67323   1
  -3  -5  -2 9.81539 6.67192   1
  -3  -5  -2-7.01331 6.79394   2
   3   5   2 4.56835 6.19728   1
  -3  -5  -3 28.8370 8.79275   1
  -3  -5  -3 13.7159 7.60835   2
   3   5   3 19.1553 7.99672   1
  -3  -5  -4 51.5421 10.2090   2
   3   5   4 33.6774 9.42257   1
  -3  -5  -4 27.1072 8.93294   1
  -3  -5  -5 12.4227 9.42745   2
   3   5   5-1.62663 8.47157   1
  -3  -5  -5 12.8490 9.24994   1
   3   5   6 42.4034 10.9593   1
  -3  -5  -6 51.1241 12.1434   2
  -3  -5  -6 32.7149 10.7012   1
   3   5   7 25.9276 11.5170   1
  -3  -5  -7 1.14918 11.8439   2
  -3  -5  -7-3.30730 10.5277   1
   3   5   8 44.7566 13.1509   1
  -3  -5  -8 18.4095 13.6177   2
  -3  -5  -8 8.33798 12.5755   1
   3   5   9 58.6327 15.0394   1
  -3  -5  -9 50.8359 15.2844   1
  -3  -6  15 44.4214 15.5091   1
   3   6 -15 20.9812 9.14484   2
  -3  -6  15 13.4386 12.9933   1
  -3  -6  14 2.89706 11.7480   1
   3   6 -14 23.7865 8.02744   2
  -3  -6  14 28.9659 11.8816   1
  -3  -6  13 31.9324 12.4350   1
   3   6 -13 20.1862 7.76675   2
  -3  -6  13 23.0731 11.4022   1
  -3  -6  12 53.0947 12.0765   1
   3   6 -12 40.3012 7.47990   2
  -3  -6  12 34.9912 10.1031   1
   3   6 -11 27.5515 6.91857   2
  -3  -6  11 31.6649 9.77463   1
  -3  -6  11 26.2235 6.91097   2
  -3  -6  11 24.1653 10.0403   1
   3   6 -10 57.8058 7.97238   2
  -3  -6  10 58.7341 7.77213   2
  -3  -6  10 62.1145 11.2947   1
  -3  -6  10 60.1474 10.1983   1
  -3  -6   9-1.46476 6.88616   1
   3   6  -9 2.93178 5.07985   2
   3   6  -9 7.46905 7.94634   1
  -3  -6   9 7.28758 5.38806   2
  -3  -6   8 5.28061 7.16986   1
   3   6  -8-0.49612 6.99668   1
   3   6  -8 4.30927 5.31375   2
  -3  -6   8 4.36758 5.42761   2
  -3  -6   7 8.07490 6.73998   1
   3   6  -7 2.35466 4.97371   2
   3   6  -7 15.9907 7.21173   1
  -3  -6   7 11.7168 5.56458   2
   3   6  -6 1.56297 4.81324   2
  -3  -6   6 2.94943 5.02100   2
   3   6  -6 6.50851 6.07057   1
  -3  -6   6-7.00784 6.52724   1
   3   6  -5 359.621 16.1493   2
  -3  -6   5 356.045 15.9391   2
   3   6  -5 361.614 18.8938   1
  -3  -6   5 325.435 17.9325   1
   3   6  -4 76.1143 8.98180   2
  -3  -6   4 87.0537 9.13622   2
   3   6  -4 91.8623 10.8799   1
  -3  -6   4 71.0103 9.92276   1
  -3  -6   3 59.3886 8.41565   2
   3   6  -3 67.5768 9.76385   1
  -3  -6   3 68.7682 9.86714   1
   3   6  -3 66.2645 8.68833   2
  -3  -6   2-4.06433 5.62877   2
  -3  -6   2 2.04875 6.47747   1
   3   6  -2-1.80383 6.37532   1
  -3  -6   1 27.9199 7.63286   1
  -3  -6   1 12.5155 6.28704   2
   3   6  -1 17.9823 7.13002   1
  -3  -6   0 7.19244 6.87307   1
  -3  -6   0 15.7596 7.15481   2
   3   6   0 20.8452 7.99496   1
  -3  -6  -1 17.4071 8.59565   1
  -3  -6  -1-1.64824 7.17606   2
   3   6   1-1.22996 7.23907   1
  -3  -6  -2 11.5207 7.88940   1
  -3  -6  -2 8.89271 7.71201   2
   3   6   2 14.1822 8.49552   1
  -3  -6  -3 43.5630 10.5319   2
   3   6   3 41.6885 10.2600   1
  -3  -6  -3 32.0444 10.6818   1
  -3  -6  -4 11.7066 9.89817   2
   3   6   4 23.2140 10.5151   1
  -3  -6  -4 15.1848 9.76064   1
   3   6   5 20.7591 10.7032   1
  -3  -6  -5 28.8202 11.7693   2
  -3  -6  -5 27.5430 11.8399   1
   3   6   6 10.0802 12.2036   1
  -3  -6  -6 49.5719 14.3574   2
  -3  -6  -6 23.3494 12.6959   1
   3   6   7 10.7683 12.7918   1
  -3  -6  -7 8.64115 14.8153   2
  -3  -6  -7-8.27380 15.2009   1
  -3  -7  14-28.6917 15.8174   1
  -3  -7  14-7.36125 12.1517   1
   3   7 -14 8.23253 9.45768   2
  -3  -7  13 31.7151 13.0004   1
  -3  -7  13 46.1851 12.6814   1
   3   7 -13 20.9050 8.70594   2
  -3  -7  12 2.96258 9.73839   1
   3   7 -12 13.6639 8.29739   2
  -3  -7  12-2.64991 7.87633   2
  -3  -7  12 14.2466 11.7598   1
  -3  -7  11-13.9894 9.59034   1
   3   7 -11-3.58465 7.68814   2
  -3  -7  11 3.37865 7.16182   2
  -3  -7  10 16.9333 9.15476   1
   3   7 -10 10.5577 7.11048   2
  -3  -7  10 11.4654 7.53723   2
   3   7  -9 2.91155 6.42045   2
  -3  -7   9 12.8302 7.44277   2
   3   7  -9 19.8501 9.55112   1
  -3  -7   9-9.57179 7.76818   1
   3   7  -8 3.92004 6.40280   2
  -3  -7   8-2.90269 6.39115   2
   3   7  -8 0.18037 7.80057   1
  -3  -7   8 9.38447 8.15456   1
   3   7  -7-9.73623 7.76709   1
   3   7  -7 3.97114 6.40438   2
  -3  -7   7 3.28217 6.25245   2
  -3  -7   7 5.55105 7.40625   1
   3   7  -6 58.4429 9.41882   2
  -3  -7   6 52.2490 8.56392   2
   3   7  -6 38.6110 9.77822   1
  -3  -7   6 39.1177 9.25792   1
   3   7  -5 235.369 14.9895   2
  -3  -7   5 230.720 14.7578   2
   3   7  -5 214.974 16.6367   1
  -3  -7   5 208.314 15.9050   1
   3   7  -4 2.35310 7.74240   1
   3   7  -4 9.63381 7.41906   2
  -3  -7   4 3.79343 6.71900   2
  -3  -7   4 7.82282 7.49494   1
   3   7  -3 118.983 12.1863   2
  -3  -7   3 122.437 12.2149   2
   3   7  -3 135.316 13.8643   1
  -3  -7   3 105.796 12.3760   1
  -3  -7   2-6.77813 7.86621   1
  -3  -7   2 18.5948 7.93752   2
   3   7  -2 16.9098 8.53188   1
  -3  -7   1 8.91034 8.15003   1
  -3  -7   1 4.71995 7.32076   2
   3   7  -1 14.4296 8.44437   1
  -3  -7   0 58.7408 10.4919   2
  -3  -7   0 35.7824 9.96245   1
   3   7   0 36.7468 9.73153   1
  -3  -7  -1 23.6937 10.6180   1
  -3  -7  -1 9.67469 9.62535   2
   3   7   1 10.3054 9.01786   1
   3   7   2 138.432 15.7579   1
  -3  -7  -2 143.204 16.0287   2
  -3  -7  -2 116.939 14.9854   1
  -3  -7  -3 34.1613 11.5090   2
   3   7   3 16.2457 10.6031   1
  -3  -7  -3 9.29184 10.9968   1
  -3  -7  -4-10.7759 11.3434   2
   3   7   4-8.90917 11.5665   1
  -3  -7  -4-17.7749 12.5017   1
   3   7   5-22.1202 14.1698   1
  -3  -7  -5 5.92671 13.2623   2
  -3  -7  -5-12.3015 15.3225   1
   3   7   6-18.8491 13.7803   1
  -3  -7  -6 31.7973 16.5409   2
  -3  -7  -6-6.86769 15.2057   1
  -3  -8  13 18.2285 14.4137   1
   3   8 -13 6.92956 10.6988   2
  -3  -8  13 26.0401 10.9212   2
  -3  -8  13-0.21403 12.5682   1
   3   8 -12-9.55976 9.89161   2
  -3  -8  12-2.81395 9.26262   2
  -3  -8  12 16.0337 11.3586   1
  -3  -8  12-7.89118 13.6632   1
   3   8 -11 18.6480 10.1910   2
  -3  -8  11 10.3716 9.39950   2
  -3  -8  11 24.0422 13.2855   1
  -3  -8  11-5.73869 10.5673   1
   3   8 -10-2.50765 10.4898   1
   3   8 -10 20.0267 9.23399   2
  -3  -8  10 11.5254 8.89695   2
  -3  -8  10 18.3105 10.6517   1
   3   8  -9 8.18766 8.12495   2
  -3  -8   9 8.33952 7.67918   2
  -3  -8   9 14.0368 9.53454   1
   3   8  -9 19.4893 10.1522   1
   3   8  -8-0.06682 9.08023   1
   3   8  -8 0.68719 7.94325   2
  -3  -8   8 4.71955 8.04306   2
  -3  -8   8-3.92659 8.75354   1
   3   8  -7 20.3398 8.84346   2
  -3  -8   7 11.7195 8.63043   2
  -3  -8   7 11.3650 9.34900   1
   3   8  -7 12.2316 9.96593   1
  -3  -8   6 34.2506 9.80904   2
   3   8  -6 34.6991 9.62888   2
  -3  -8   6 21.4411 9.56450   1
   3   8  -6 57.3572 11.8288   1
   3   8  -5 16.1121 10.1812   1
   3   8  -5-1.59311 8.08160   2
  -3  -8   5 2.19510 9.08236   1
  -3  -8   5-0.67043 8.27131   2
   3   8  -4-9.83211 8.38196   1
   3   8  -4 0.17615 7.72863   2
  -3  -8   4 9.29179 9.61559   1
  -3  -8   4 11.0696 8.98525   2
   3   8  -3 0.36463 8.30472   2
  -3  -8   3 22.8832 10.0080   1
  -3  -8   3 14.1583 9.00042   2
   3   8  -3 2.84449 9.55557   1
  -3  -8   2 7.79348 9.46281   1
  -3  -8   2 19.5119 10.1648   2
   3   8  -2 14.8292 9.75164   1
  -3  -8   1 3.78681 10.2954   1
  -3  -8   1 25.7926 10.4295   2
   3   8  -1 2.75305 9.80657   1
  -3  -8   0 16.1592 10.5118   1
  -3  -8   0 11.4319 10.6211   2
   3   8   0 6.12197 9.95833   1
  -3  -8  -1 6.81330 11.2704   2
   3   8   1 21.8276 12.2399   1
  -3  -8  -1 24.6761 12.7111   1
   3   8   2 100.541 17.2244   1
  -3  -8  -2 68.6098 16.4870   1
  -3  -8  -3-2.05265 13.9615   2
   3   8   3 27.4156 13.0433   1
  -3  -8  -3-2.46081 14.2441   1
  -3  -8  -4 111.889 19.7047   2
  -3  -8  -4 63.6216 17.8887   1
   3   9 -12 24.9065 12.7895   2
  -3  -9  12 25.5014 12.1881   2
   3   9 -11 1.69872 11.0323   2
  -3  -9  11 22.0019 13.6771   1
  -3  -9  11 5.66791 11.1010   2
   3   9 -11 25.7455 13.5113   1
   3   9 -10 5.87258 11.9947   1
   3   9 -10-1.40185 11.3292   2
  -3  -9  10-2.70209 12.8197   1
  -3  -9  10 6.51932 10.6776   2
   3   9  -9 10.9482 11.0563   2
   3   9  -9 32.9803 13.0381   1
  -3  -9   9 13.9223 11.0204   1
  -3  -9   9 22.3430 10.9616   2
   3   9  -8-0.68691 9.42165   2
  -3  -9   8-16.7287 10.9664   1
  -3  -9   8-5.50695 9.12350   2
   3   9  -8-4.16542 11.6861   1
   3   9  -7 12.4708 11.1761   2
  -3  -9   7 10.4290 11.6961   1
  -3  -9   7 14.1198 10.4544   2
   3   9  -7-22.2236 13.2537   1
   3   9  -6 23.8405 10.7903   2
  -3  -9   6 14.5691 11.8824   1
   3   9  -6 4.11372 11.2211   1
  -3  -9   6 24.4024 10.7762   2
   3   9  -5 32.0564 12.2480   1
   3   9  -5 16.5096 10.1970   2
  -3  -9   5 18.9051 12.2061   1
  -3  -9   5 20.2087 10.9522   2
   3   9  -4 22.4674 11.5078   1
  -3  -9   4-3.61104 11.8356   1
   3   9  -4 28.1330 11.1931   2
  -3  -9   4 18.6388 10.7546   2
  -3  -9   3 4.16811 11.8529   1
  -3  -9   3 2.09114 10.9338   2
   3   9  -3-19.5196 11.4082   2
   3   9  -3-2.75749 11.2505   1
  -3  -9   2 21.0293 13.1819   1
  -3  -9   2 17.2398 12.1104   2
   3   9  -2 38.3166 14.3917   1
  -3  -9   1 3.53002 13.7970   1
  -3  -9   1 16.8637 12.3897   2
   3   9  -1 0.74260 12.9764   1
   3   9   0 16.0679 13.5990   1
  -3  -9   0 13.0826 14.5322   1
   3   9   1 102.537 18.2081   1
  -3  -9  -1 135.085 19.3972   2
  -3  -9  -1 89.8220 17.5633   1
  -3  -9  -2 97.1727 18.5334   2
   3   9   2 68.8950 17.7075   1
  -3  -9  -2 67.1403 18.0885   1
   3  10  -9 26.3135 15.4096   1
   3  10  -9 1.43418 12.4207   2
  -3 -10   9-2.59224 14.0689   1
  -3 -10   9 9.13659 14.2865   2
   3  10  -8 24.4407 14.2223   2
  -3 -10   8 22.3591 15.0470   1
  -3 -10   8 12.2429 14.0644   2
   3  10  -8 67.5916 16.9033   1
  -3 -10   7-0.08238 14.4571   1
   3  10  -7 17.1821 13.2176   2
   3  10  -7 10.0780 14.0941   1
  -3 -10   7 44.5561 13.8749   2
  -3 -10   6-15.9965 14.8356   1
   3  10  -6 2.71827 13.9014   2
   3  10  -6-20.1900 14.5446   1
  -3 -10   6-2.36932 13.1130   2
   3  10  -5 13.2518 14.2145   1
  -3 -10   5-3.15326 15.1265   1
   3  10  -5 16.6416 13.1090   2
  -3 -10   5-23.5170 14.4493   2
  -3 -10   4-14.8466 15.4390   1
   3  10  -4-19.8238 16.0339   2
  -3 -10   4-18.1383 15.6244   2
   3  10  -4 12.2882 13.8609   1
  -3 -10   3 50.9625 18.0361   1
  -3 -10   3 27.1303 14.1282   2
   3  10  -3 52.6828 17.2767   1
  -3 -10   2 30.6915 17.0443   1
  -3 -10   2 40.1294 16.7761   2
   3  10  -2 40.7642 16.4770   1
  -3 -10   1 8.14299 8.23153   2
   4 -10   2 13.0776 7.36873   1
  -4  10  -2 14.6596 7.33609   1
  -4  10  -2 11.2451 7.16261   2
   4 -10   2 5.04148 6.83381   2
   4 -10   3 20.5070 9.16732   1
  -4  10  -3 8.65618 8.38199   1
  -4  10  -3 20.4795 10.1004   2
   4 -10   3 22.0300 9.90411   2
  -4  10  -4 17.8524 9.38380   2
  -4  10  -4 37.3858 7.79900   1
   4 -10   4 23.4528 9.62805   2
   4 -10   4 36.4652 8.33288   1
  -4   9   3 34.1982 10.6805   1
   4  -9  -3 23.4521 10.0693   1
  -4   9   3 9.40888 6.43573   2
   4  -9  -3 2.45275 5.72026   2
  -4   9   2 29.0326 14.5686   1
   4  -9  -2-13.0404 14.6166   1
  -4   9   2-7.36907 11.7834   2
   4  -9  -2 7.68728 12.1576   2
  -4   9   1 24.8760 11.8461   1
   4  -9  -1 1.89020 13.1299   1
  -4   9   1 13.5330 12.1898   2
   4  -9  -1 16.6417 11.1006   2
   4  -9   0 10.6957 11.1937   1
  -4   9   0 37.5416 12.2940   2
   4  -9   0 16.7541 10.9728   2
  -4   9  -1 88.5975 15.0393   2
  -4   9  -1 100.144 13.7771   1
   4  -9   1 48.9345 13.6979   2
   4  -9   1 74.7981 13.7329   1
   4  -9   2 30.8632 10.6301   1
  -4   9  -2 7.83937 10.0465   1
  -4   9  -2 20.0554 12.4917   2
   4  -9   2 46.7678 12.4564   2
  -4   9  -3 5.38374 8.56298   1
  -4   9  -3 17.8849 12.3919   2
   4  -9   3-3.50990 10.8606   2
   4  -9   3 11.5672 8.81626   1
  -4   9  -4 113.316 16.7673   2
   4  -9   4 104.354 15.8913   2
   4  -9   4 79.5887 11.4434   1
  -4   9  -5 23.4288 12.9423   2
  -4   9  -5 1.07365 6.69717   1
   4  -9   5 14.0134 11.9050   2
  -4   9  -6 8.38341 4.55181   1
  -4   9  -6 4.46085 4.58913   1
  -4   9  -7 73.7227 16.3734   2
  -4   9  -8 15.4342 16.1060   2
   4  -8  -5 16.3712 16.0927   1
  -4   8   5 1.45833 10.3880   2
   4  -8  -5 16.8778 10.6786   2
  -4   8   5-3.64487 14.8573   1
   4  -8  -4-10.2006 14.5701   1
  -4   8   4-0.47726 10.8209   2
   4  -8  -4-10.8913 10.5119   2
  -4   8   4-7.50264 14.5272   1
   4  -8  -3-8.19787 13.3159   1
  -4   8   3 8.57893 9.65689   2
   4  -8  -3 4.08408 9.35705   2
  -4   8   3-9.05595 12.3906   1
  -4   8   2 68.5914 11.7840   2
  -4   8   2 64.6725 13.5403   1
   4  -8  -2 53.2358 11.2247   2
   4  -8  -2 72.3092 14.6603   1
   4  -8  -1 9.13899 10.6244   1
  -4   8   1 18.9952 9.59989   2
   4  -8  -1 14.4597 9.55228   2
  -4   8   1 3.18683 10.3034   1
   4  -8   0 6.09536 9.04368   1
  -4   8   0 6.89247 9.71523   2
   4  -8   0 9.73628 8.42158   2
  -4   8   0 17.9183 8.83217   1
   4  -8   1 39.3568 10.2024   1
  -4   8  -1 42.7889 10.1041   2
   4  -8   1 31.2391 9.73174   2
  -4   8  -1 16.2657 8.56569   1
  -4   8  -2-10.6943 9.94136   2
  -4   8  -2 7.03111 7.15251   1
   4  -8   2-7.21635 9.73691   2
   4  -8   2-0.65406 8.70384   1
  -4   8  -3 1.92203 6.77192   1
  -4   8  -3-8.45945 10.1862   2
   4  -8   3 16.2304 8.71071   2
   4  -8   3-2.18005 7.74570   1
  -4   8  -4 3.45464 6.27769   1
  -4   8  -4 9.67950 9.61960   2
   4  -8   4 17.2711 9.39113   2
   4  -8   4-4.19599 7.47181   1
  -4   8  -5 33.3686 12.3060   2
  -4   8  -5 39.5621 6.25724   1
   4  -8   5 19.3641 9.62044   2
  -4   8  -5 22.3010 5.82487   1
  -4   8  -6 1.53218 2.62975   1
  -4   8  -6-0.64587 11.2455   2
  -4   8  -6-0.21548 2.65917   1
  -4   8  -7-5.34365 11.4410   2
  -4   8  -8 25.7119 13.2842   2
  -4   8  -9 21.5492 15.7348   2
   4  -7  -7 3.43215 15.5495   1
   4  -7  -7 6.25522 9.42085   2
  -4   7   7-24.9081 15.2006   1
   4  -7  -6 12.4137 13.7938   1
   4  -7  -6 5.72447 8.73919   2
  -4   7   6-19.1061 14.6619   1
   4  -7  -5 6.74723 13.0387   1
  -4   7   5-1.64520 7.95068   2
   4  -7  -5-3.07002 7.74431   2
  -4   7   5-17.0902 11.6078   1
  -4   7   4 44.2902 9.66272   2
   4  -7  -4 48.4408 13.4184   1
   4  -7  -4 53.3969 9.78974   2
  -4   7   4 36.6757 12.2588   1
   4  -7  -3 3.60197 10.2384   1
  -4   7   3 1.39720 7.45773   2
   4  -7  -3 4.67852 7.09128   2
  -4   7   3-3.86514 10.0529   1
  -4   7   2 58.2418 9.78352   2
   4  -7  -2 61.3724 9.71144   2
  -4   7   2 41.9981 10.7506   1
   4  -7  -2 50.0261 11.5105   1
  -4   7   1 47.9527 9.81873   2
   4  -7  -1 44.4898 8.99249   2
  -4   7   1 32.8089 9.74617   1
   4  -7  -1 49.1228 10.7926   1
  -4   7   0 11.4439 7.91854   2
   4  -7   0 3.54920 7.00987   2
   4  -7   0-3.06023 7.33027   1
  -4   7   0 1.13353 7.46982   1
  -4   7  -1 2.93661 7.65924   2
   4  -7   1-0.43854 7.12861   2
  -4   7  -1 2.71366 7.19872   1
   4  -7   1 8.69009 7.74366   1
  -4   7  -2 62.3224 10.5800   2
  -4   7  -2 31.5490 7.81029   1
   4  -7   2 45.2329 9.68631   2
   4  -7   2 40.4205 8.45972   1
  -4   7  -3 0.44673 7.97200   2
   4  -7   3 8.03559 8.36180   2
   4  -7   3-8.77648 6.02272   1
  -4   7  -3 7.72097 5.89370   1
  -4   7  -4 11.2100 5.33562   1
  -4   7  -4 7.31194 5.31112   1
  -4   7  -4 16.9684 9.28503   2
   4  -7   4 8.86794 8.66754   2
  -4   7  -5-2.36695 3.80168   1
  -4   7  -5-3.96460 8.96905   2
  -4   7  -5-4.84009 3.93069   1
  -4   7  -6 3.08078 9.33001   2
  -4   7  -7-8.35127 10.7460   2
  -4   7  -8 64.7872 14.4091   2
  -4   7  -9-2.12727 12.1640   2
  -4   7 -10-2.34620 13.5289   2
  -4   7 -11 0.89272 12.6182   2
   4  -6  -8 32.7177 16.1083   1
   4  -6  -8-2.00897 7.64432   2
  -4   6   8 0.61715 14.3015   1
   4  -6  -7 20.8419 13.9421   1
   4  -6  -7 3.63506 6.69432   2
  -4   6   7-2.21265 13.2981   1
   4  -6  -6 33.3025 12.8192   1
   4  -6  -6 43.7003 7.61875   2
  -4   6   6 59.1341 13.5222   1
   4  -6  -5-0.22308 10.5414   1
  -4   6   5 1.11453 6.45199   2
   4  -6  -5 12.3168 6.38494   2
   4  -6  -4 20.3617 10.3042   1
  -4   6   4 35.1514 7.44720   2
   4  -6  -4 27.6398 6.86279   2
  -4   6   4 31.9646 10.7303   1
   4  -6  -3 8.57160 9.16432   1
  -4   6   3-1.40508 6.02334   2
   4  -6  -3 1.75834 5.90129   2
  -4   6   3-3.55286 8.84434   1
  -4   6   2 115.612 12.6279   1
  -4   6   2 114.335 10.4050   2
   4  -6  -2 125.327 10.2482   2
   4  -6  -2 124.117 13.0992   1
   4  -6  -1 7.31254 7.63011   1
  -4   6   1 22.3681 6.91981   2
  -4   6   1 10.7006 7.01306   1
   4  -6  -1 21.8632 6.40344   2
  -4   6   0 111.967 11.1660   1
  -4   6   0 99.7408 10.2870   2
   4  -6   0 103.369 9.93029   2
   4  -6   0 106.923 11.2916   1
  -4   6  -1 88.2598 9.46974   1
  -4   6  -1 95.5534 10.3434   2
   4  -6   1 85.9090 9.78404   2
   4  -6   1 114.424 11.0035   1
  -4   6  -2 45.7039 7.44316   1
  -4   6  -2 36.6477 8.30054   2
   4  -6   2 41.7178 8.24721   2
   4  -6   2 30.1272 6.94950   1
  -4   6  -3 0.80139 6.62038   2
  -4   6  -3-2.26832 4.65334   1
  -4   6  -3-4.56106 4.94326   1
  -4   6  -4-1.49240 4.21331   1
  -4   6  -4 6.01958 7.03200   2
  -4   6  -4-3.72707 4.46621   1
  -4   6  -5 9.70682 3.30115   1
  -4   6  -5 7.87420 3.20747   1
  -4   6  -5 15.1343 8.34514   2
  -4   6  -6-12.0580 8.21489   2
  -4   6  -7 2.59436 8.74887   2
  -4   6  -8 16.9221 9.98665   2
  -4   6  -9-2.30833 10.9161   2
  -4   6 -10-1.91950 13.2468   2
  -4   6 -11 53.1167 17.0791   2
  -4   5  10 14.3325 17.2663   1
   4  -5 -10-13.8879 16.8000   1
   4  -5  -9 6.62633 14.7089   1
   4  -5  -9 4.58101 4.64488   2
  -4   5   9-22.0220 15.0157   1
   4  -5  -8 15.9758 12.5950   1
   4  -5  -8 20.5964 5.24608   2
  -4   5   8 8.80835 12.0681   1
   4  -5  -7-1.58129 11.4209   1
  -4   5   7 3.89771 10.9881   1
   4  -5  -7 6.31586 4.65702   2
   4  -5  -6-0.07324 10.3484   1
  -4   5   6 23.0766 10.3208   1
   4  -5  -6 5.81190 4.89838   2
   4  -5  -5 28.0521 10.3256   1
   4  -5  -5 30.3722 5.85089   2
  -4   5   5 27.0980 5.59896   2
  -4   5   5 12.0287 8.49440   1
   4  -5  -4 25.7126 9.23455   1
  -4   5   4 35.9102 5.96832   2
  -4   5   4 32.3155 9.05587   1
   4  -5  -4 27.7025 5.39052   2
  -4   5   3 3.82053 4.71564   2
  -4   5   3 7.57205 6.83353   1
   4  -5  -3 0.42933 4.33429   2
   4  -5  -3 9.03115 8.02676   1
  -4   5   2 4.94098 4.88186   2
  -4   5   2 0.60145 6.27536   1
   4  -5  -2-0.15131 4.40123   2
   4  -5  -2 0.42615 6.63394   1
  -4   5   1 48.3802 7.00904   2
   4  -5  -1 43.5586 6.43814   2
   4  -5  -1 57.2412 8.97933   1
  -4   5   1 50.7097 8.64854   1
  -4   5   0-0.18201 4.90358   2
  -4   5   0 1.53795 5.56360   1
   4  -5   0 0.34682 4.95976   2
   4  -5   0-3.67294 6.15772   1
  -4   5  -1 74.1955 8.45888   2
  -4   5  -1 69.1935 8.25222   1
  -4   5  -2 1.28329 4.47337   1
  -4   5  -2 2.36077 5.28312   2
  -4   5  -2-0.22965 4.28266   1
  -4   5  -3 1.07589 3.98116   1
  -4   5  -3 8.28500 5.85313   2
  -4   5  -3 5.93350 4.03258   1
  -4   5  -4 41.3367 5.28966   1
  -4   5  -4 50.5749 8.92942   2
  -4   5  -4 37.0447 5.00346   1
  -4   5  -5 166.053 6.78975   1
  -4   5  -5 177.625 7.15404   1
  -4   5  -5 189.749 14.6024   2
  -4   5  -6 23.6406 8.19901   2
  -4   5  -7 12.1288 8.95853   2
  -4   5  -8 47.1889 11.4680   2
  -4   5  -9 7.68200 10.5699   2
  -4   5 -10 38.9675 14.0129   2
  -4   5 -11 22.6768 13.7300   2
  -4   5 -12 24.7593 15.3114   2
  -4   4  11-9.77807 14.8896   1
   4  -4 -11 4.68184 17.4347   1
  -4   4  10 33.7220 14.3066   1
   4  -4 -10-24.3297 14.3296   1
  -4   4   9-4.95763 11.5583   1
   4  -4  -9 12.8663 12.3763   1
   4  -4  -8 22.1498 2.62011   2
  -4   4   8 26.4198 10.7923   1
   4  -4  -8 37.8414 13.3497   1
  -4   4   7 2.27347 8.58072   1
   4  -4  -7 1.20350 2.47843   2
   4  -4  -7 11.3093 9.88952   1
  -4   4   6 13.8602 8.37805   1
   4  -4  -6 7.85439 2.89173   2
   4  -4  -6 15.7825 9.35814   1
  -4   4   5 22.2751 4.02036   2
   4  -4  -5 19.7821 3.90557   2
  -4   4   5 30.0187 9.21977   1
   4  -4  -5 18.0991 8.96039   1
  -4   4   4 154.950 7.99004   2
   4  -4  -4 174.527 8.15368   2
   4  -4  -4 152.791 13.8001   1
  -4   4   4 171.649 13.8967   1
  -4   4   3 5.34615 3.90194   2
  -4   4   3 6.43456 6.41721   1
   4  -4  -3 6.52329 3.57437   2
   4  -4  -3 17.6751 7.29604   1
  -4   4   2 63.3038 6.52136   2
   4  -4  -2 69.0797 9.42650   1
  -4   4   2 78.5560 9.44035   1
  -4   4   1 2.32453 5.24533   1
  -4   4   1 2.46655 4.20728   2
   4  -4  -1 9.87199 5.81315   1
  -4   4   0-5.18158 5.28441   1
  -4   4   0-2.82411 4.04353   2
  -4   4   0 5.35367 4.62862   1
  -4   4  -1 30.3680 6.09978   2
  -4   4  -1 29.5114 6.00822   1
  -4   4  -1 34.5210 5.92868   1
  -4   4  -2 191.256 12.0855   2
  -4   4  -2 166.989 9.96938   1
  -4   4  -2 193.891 10.6587   1
  -4   4  -3 149.175 11.2428   2
  -4   4  -3 139.721 8.54988   1
  -4   4  -3 142.960 8.73576   1
  -4   4  -4 6.80889 3.59286   1
  -4   4  -4 5.02451 5.87077   2
  -4   4  -4 7.65731 3.54823   1
  -4   4  -5 75.7163 9.97454   2
  -4   4  -5 68.4578 4.67219   1
  -4   4  -5 74.5147 5.03222   1
  -4   4  -6 54.4207 9.75891   2
  -4   4  -7 79.1623 11.1776   2
  -4   4  -8 92.2407 13.2948   2
  -4   4  -9 26.4993 10.6255   2
  -4   4 -10 29.5562 13.1339   2
  -4   4 -11 26.7985 13.6978   2
  -4   4 -12 15.8617 16.1720   2
  -4   3  12 20.3901 16.1255   1
   4  -3 -12-23.6443 17.4341   1
  -4   3  11 11.3219 14.0292   1
   4  -3 -11-21.2352 15.2943   1
  -4   3  10-3.05304 11.5877   1
   4  -3 -10 7.91720 12.2242   1
  -4   3   9 3.71258 10.5021   1
   4  -3  -9 17.9263 11.8071   1
  -4   3   8 24.1261 10.3506   1
   4  -3  -8 23.3359 10.8351   1
  -4   3   7 19.3132 8.90038   1
   4  -3  -7 40.9789 10.9571   1
   4  -3  -6 77.0221 11.7291   1
  -4   3   6 79.8521 11.4752   1
  -4   3   5 4.70612 6.67791   1
   4  -3  -5 4.28320 6.87364   1
  -4   3   4 82.7586 4.87638   2
   4  -3  -4 79.7129 10.6312   1
  -4   3   4 101.955 11.1189   1
  -4   3   3 55.6428 4.82307   2
  -4   3   3 67.2861 8.92126   1
  -4   3   2 10.1109 5.55506   1
  -4   3   2 7.01516 3.36282   2
  -4   3   2 8.34743 5.28625   1
  -4   3   1 0.40503 4.69068   1
  -4   3   1 5.02054 4.48465   1
  -4   3   1 3.00542 3.58429   2
  -4   3   0 3.58680 4.85701   1
  -4   3   0 1.04798 4.26641   1
  -4   3   0-6.51476 4.03233   2
  -4   3  -1 17.3944 5.24685   1
  -4   3  -1 14.2945 4.68277   2
  -4   3  -1 9.76589 4.55406   1
  -4   3  -2 46.4935 6.82080   2
  -4   3  -2 51.2222 6.12377   1
  -4   3  -2 46.1689 6.23897   1
  -4   3  -3 493.446 14.8905   1
  -4   3  -3 500.821 18.6823   2
  -4   3  -3 491.470 15.2020   1
  -4   3  -4 3.66687 3.69028   1
  -4   3  -4 7.85325 3.37460   1
  -4   3  -4 11.6429 5.82624   2
  -4   3  -5 29.6554 7.07823   2
  -4   3  -5 27.5894 3.87629   1
  -4   3  -5 25.5378 4.12918   1
  -4   3  -6 2.03019 2.12761   1
  -4   3  -6 1.01307 2.23720   1
  -4   3  -6 4.81804 6.86889   2
  -4   3  -7 82.4706 11.1866   2
  -4   3  -8 46.2344 10.4846   2
  -4   3  -9 12.5997 9.84613   2
  -4   3 -10 0.37062 11.0803   2
  -4   3 -11-17.3179 13.9300   2
  -4   3 -12 61.0132 18.2766   2
  -4   2  13 34.4320 11.0007   1
  -4   2  12-5.93327 14.2750   1
  -4   2  11 33.3419 14.2419   1
  -4   2  10 45.6981 12.4743   1
   4  -2 -10 72.3473 14.4094   1
   4  -2  -9 141.501 16.7176   1
  -4   2   9 166.832 16.4907   1
   4  -2  -8 152.309 15.6872   1
  -4   2   8 115.705 13.8446   1
  -4   2   7 6.96118 8.06980   1
  -4   2   6 42.2157 8.74342   1
  -4   2   5 33.8826 7.92936   1
  -4   2   5 37.1627 8.65345   1
  -4   2   4 80.2541 2.92044   2
  -4   2   4 104.062 10.2145   1
  -4   2   4 97.9112 10.3788   1
  -4   2   3 95.6964 9.42643   1
  -4   2   3 87.9721 4.82729   2
  -4   2   3 101.121 10.1233   1
  -4   2   2 36.5702 4.25422   2
  -4   2   2 34.3470 6.83132   1
  -4   2   2 38.2175 6.74615   1
  -4   2   1-0.37261 4.13866   1
  -4   2   1-0.23457 4.54002   1
  -4   2   1 3.58251 3.23822   2
  -4   2   0 81.6419 6.87942   2
  -4   2   0 85.2800 8.12657   1
  -4   2   0 78.9133 8.14879   1
  -4   2  -1 28.1990 5.12597   2
  -4   2  -1 21.4318 5.10085   1
  -4   2  -1 34.1531 5.89126   1
  -4   2  -2 0.46229 4.00886   1
  -4   2  -2-4.04754 4.67915   2
  -4   2  -2-4.75455 4.07986   1
  -4   2  -3 23.8384 5.84060   2
  -4   2  -3 25.1379 4.87894   1
  -4   2  -3 24.5575 4.65638   1
  -4   2  -4 6.28974 3.73456   1
  -4   2  -4 7.84836 4.12302   1
  -4   2  -4-2.63557 4.95360   2
  -4   2  -5 20.3772 3.99745   1
  -4   2  -5 23.6363 6.97327   2
  -4   2  -5 25.7442 4.53968   1
  -4   2  -6 7.02004 3.64503   1
  -4   2  -6 5.59024 3.34333   1
  -4   2  -6 4.73266 6.83911   2
  -4   2  -7 8.04774 3.09505   1
  -4   2  -7 10.2332 7.40006   2
  -4   2  -7 6.44076 3.04282   1
  -4   2  -8 0.75533 2.15811   1
  -4   2  -8 3.71758 8.38596   2
  -4   2  -9 12.2617 9.57781   2
  -4   2 -10-2.36527 11.3470   2
  -4   2 -11 6.70581 12.6731   2
  -4   2 -12-17.2639 14.7568   2
  -4   1  13 4.16360 14.6413   1
  -4   1  13-17.3392 15.9132   1
  -4   1  12 34.7063 14.3377   1
  -4   1  12 38.5577 14.4570   1
  -4   1  11 27.4150 11.5817   1
  -4   1  11 7.27058 9.80653   1
  -4   1  10-8.17862 10.0167   1
  -4   1  10 6.68879 8.98808   1
  -4   1   9 48.0173 10.9817   1
  -4   1   9 37.1712 9.43015   1
  -4   1   8 3.99199 7.76429   1
  -4   1   8 6.45309 8.18930   1
  -4   1   7 6.52664 7.11864   1
  -4   1   7 1.60975 6.59600   1
  -4   1   6 83.1290 10.0299   1
  -4   1   6 84.6271 10.8279   1
  -4   1   5 17.3144 6.76006   1
  -4   1   5 15.4460 6.08474   1
  -4   1   4 65.7034 8.77027   1
  -4   1   4 53.2271 8.05214   1
  -4   1   3 4.40545 5.24438   1
  -4   1   3 7.09961 5.39933   1
  -4   1   3 4.85292 1.89552   2
  -4   1   2 387.373 10.5644   2
  -4   1   2 376.517 16.3098   1
  -4   1   2 392.396 17.0785   1
  -4   1   1 24.7629 4.23006   2
  -4   1   1 38.0767 6.24174   1
  -4   1   1 26.8064 6.10807   1
  -4   1   0 66.3979 6.18956   2
  -4   1   0 70.6517 7.49794   1
  -4   1   0 63.5666 7.49617   1
  -4   1  -1 135.495 9.46552   1
  -4   1  -1 136.264 8.95082   2
  -4   1  -1 149.258 10.1433   1
  -4   1  -2 12.4984 4.16749   1
  -4   1  -2 9.72420 4.43236   2
  -4   1  -2 22.8151 5.42684   1
  -4   1  -3 137.764 10.3185   2
  -4   1  -3 143.196 9.71662   1
  -4   1  -3 138.063 8.93726   1
  -4   1  -4 130.750 10.8173   2
  -4   1  -4 126.393 8.46251   1
  -4   1  -4 132.975 9.12094   1
  -4   1  -5 185.199 13.2804   2
  -4   1  -5 185.035 9.75075   1
  -4   1  -6 9.38824 4.39578   1
  -4   1  -6 5.51453 7.06776   2
   4  -1   7 34.9958 5.28089   1
  -4   1  -7 38.3019 5.62955   1
  -4   1  -7 32.9963 8.99615   2
  -4   1  -8-2.56317 4.41892   1
  -4   1  -8-7.67807 8.28849   2
   4  -1   8-3.10040 3.92369   1
  -4   1  -9 1.65600 4.23146   1
  -4   1  -9 4.20285 9.97300   2
   4  -1   9 3.62168 3.99059   1
  -4   1 -10 15.1658 4.40742   1
  -4   1 -10 26.6962 12.6330   2
  -4   1 -11-3.05779 3.13146   1
  -4   1 -11 2.29055 13.8521   2
  -4   0  14-17.1181 14.0138   1
  -4   0  14-20.9292 13.3566   1
  -4   0  13 5.96657 14.2527   1
  -4   0  13-1.39102 14.2321   1
  -4   0  12 20.5931 12.5379   1
  -4   0  12 23.5707 12.4077   1
  -4   0  11 19.1709 10.7939   1
  -4   0  11-3.69628 9.77052   1
  -4   0  10 5.42093 9.52304   1
  -4   0  10 13.9774 9.13637   1
  -4   0   9 18.5507 8.69426   1
  -4   0   9 1.42064 7.98137   1
  -4   0   8 3.90403 7.90160   1
  -4   0   8 3.33933 7.33989   1
  -4   0   7-1.59785 6.19871   1
  -4   0   7 0.27044 6.24716   1
  -4   0   6 5.39372 6.27789   1
  -4   0   6 23.8916 7.28983   1
  -4   0   5 35.4433 7.11888   1
  -4   0   5 37.8854 7.72220   1
  -4   0   4 19.8909 6.72935   1
  -4   0   4 21.3347 6.16229   1
  -4   0   3 0.49518 5.14201   1
  -4   0   3-0.76093 1.83626   2
  -4   0   3-2.66777 5.02201   1
  -4   0   3 1.08096 1.81910   2
  -4   0   2 5.92625 4.73288   1
  -4   0   2 6.54182 2.75965   2
  -4   0   2 1.93448 4.69909   1
  -4   0   1 124.148 7.26354   2
  -4   0   1 144.458 10.4338   1
  -4   0   1 138.536 10.7534   1
  -4   0   0 40.6807 6.37231   1
  -4   0   0 51.7078 5.73511   2
  -4   0   0 47.9642 7.17465   1
  -4   0  -1 203.021 11.4946   1
  -4   0  -2-2.58647 4.28693   1
   4   0   2-4.38608 3.97843   1
   4   0   3 43.8116 6.21648   1
  -4   0  -3 44.3275 6.15647   1
  -4   0  -4 0.92666 4.18583   1
   4   0   4 0.77256 3.91696   1
  -4   0  -5 242.374 12.1753   1
   4   0   5 240.549 12.1236   1
  -4   0  -6 2.38264 4.65472   1
   4   0   6 9.97593 5.19244   1
   4   0   7 6.88345 4.87709   1
  -4   0  -7 1.17015 5.07969   1
   4   0   8 2.24981 5.40004   1
  -4   0  -8 15.7934 6.17931   1
  -4   0  -9 33.5270 7.13241   1
   4   0   9 31.8658 6.86319   1
   4   0  10 24.9193 7.70643   1
  -4   0 -10 42.5901 8.47265   1
  -4   0 -11 36.1356 8.21505   1
   4   0  11 36.9113 7.95880   1
  -4   0 -11 51.4127 16.9321   2
  -4  -1  14-2.55486 14.2116   1
  -4  -1  14 21.1811 16.1365   1
  -4  -1  13-2.70421 12.5807   1
  -4  -1  13 6.48984 12.9682   1
  -4  -1  12 88.6372 15.0715   1
  -4  -1  12 67.7858 14.8958   1
  -4  -1  11 17.1042 9.58939   1
  -4  -1  11 11.2193 10.1860   1
  -4  -1  10 35.6434 10.2644   1
  -4  -1  10 15.4590 9.05404   1
  -4  -1   9-1.41064 7.78982   1
  -4  -1   9 1.64996 7.38464   1
  -4  -1   8-9.07122 8.13965   1
  -4  -1   8-2.81014 6.98196   1
  -4  -1   7-1.58947 6.49776   1
  -4  -1   7 6.95874 6.63053   1
  -4  -1   6 114.277 11.3357   1
  -4  -1   6 103.588 11.1487   1
  -4  -1   5 0.76672 5.53540   1
  -4  -1   5 11.7538 5.99050   1
  -4  -1   4 37.6073 2.76803   2
  -4  -1   4 37.8924 2.66443   2
  -4  -1   4 29.1255 6.74074   1
  -4  -1   4 39.8918 7.72403   1
  -4  -1   3-1.20116 2.44542   2
  -4  -1   3-4.73936 5.19141   1
  -4  -1   3-3.46234 4.99974   1
  -4  -1   2 95.2795 6.39464   2
  -4  -1   2 101.756 9.63553   1
  -4  -1   2 113.318 10.4898   1
  -4  -1   1 84.2950 6.81432   2
  -4  -1   1 101.044 9.37421   1
   4   1  -1 78.5597 8.45795   1
  -4  -1   0 120.448 8.60169   2
   4   1   0 119.455 9.86406   1
  -4  -1   0 122.438 9.81903   1
  -4  -1  -1 63.9302 7.66890   1
   4   1   1 62.1374 7.66398   1
   4   1   2 0.45481 4.58633   1
  -4  -1  -2-1.49897 4.72235   1
  -4  -1  -3 137.828 10.4035   1
   4   1   3 132.708 10.3382   1
  -4  -1  -4-0.18874 4.78143   1
   4   1   4 1.33652 4.77722   1
  -4  -1  -5 25.5087 6.63320   1
   4   1   5 24.1946 6.62748   1
  -4  -1  -6 6.53606 5.87484   1
   4   1   6 2.42980 5.85520   1
  -4  -1  -7 41.0875 8.26957   1
   4   1   7 39.0466 7.73247   1
  -4  -1  -8 304.423 16.0299   1
   4   1   8 305.046 15.5784   1
   4   1   9 3.14308 7.53761   1
  -4  -1  -9 8.08370 8.39554   1
   4   1  10-3.70014 8.86034   1
  -4  -1 -10-5.12062 9.21843   1
  -4  -2  14 6.33459 14.9697   1
  -4  -2  14 47.4722 16.0176   1
  -4  -2  13 11.2466 12.6782   1
  -4  -2  13 78.7707 15.5700   1
  -4  -2  12 20.3825 12.0846   1
  -4  -2  12 30.1354 11.6238   1
  -4  -2  11 31.3822 10.9036   1
  -4  -2  11 11.8876 9.77499   1
  -4  -2  10 29.4004 9.86676   1
  -4  -2  10 4.78473 8.31059   1
  -4  -2   9 76.5879 11.4516   1
  -4  -2   9 73.5227 11.6057   1
  -4  -2   8 7.46852 7.17139   1
  -4  -2   8 7.99897 6.66884   1
  -4  -2   7 34.3496 8.04897   1
  -4  -2   7 41.3491 8.99505   1
  -4  -2   6 46.5329 8.88783   1
  -4  -2   6 31.6879 8.43994   1
  -4  -2   5 195.346 5.82845   2
  -4  -2   5 180.430 13.3707   1
  -4  -2   5 193.009 14.3659   1
  -4  -2   4 30.6753 3.83391   2
  -4  -2   4 31.3685 6.87768   1
  -4  -2   4 30.2493 7.73346   1
  -4  -2   3 4.26117 3.25616   2
   4   2  -3-0.45418 4.89569   1
  -4  -2   3 1.88302 5.04330   1
  -4  -2   2 87.6611 6.98656   2
   4   2  -2 89.6122 9.39018   1
  -4  -2   2 86.1372 9.21126   1
  -4  -2   1 27.4694 5.23231   2
   4   2  -1 21.9780 6.24145   1
  -4  -2   1 31.0016 6.57604   1
  -4  -2   0 9.60465 5.45230   1
   4   2   0 1.72206 5.22180   1
  -4  -2   0 7.10884 4.63445   2
  -4  -2  -1 30.8967 6.27009   2
   4   2   1 27.0906 6.70212   1
  -4  -2  -1 24.4181 6.22652   1
  -4  -2  -2 14.3955 5.90748   2
   4   2   2 25.3054 6.92572   1
  -4  -2  -2 26.1449 6.75926   1
  -4  -2  -3 4.83310 5.70963   2
   4   2   3 6.35347 5.63326   1
  -4  -2  -3 9.44205 5.76634   1
   4   2   4 2.62500 5.91062   1
  -4  -2  -4 5.63582 6.74079   2
  -4  -2  -4 11.3260 6.21055   1
   4   2   5 12.0817 6.55055   1
  -4  -2  -5 7.10442 5.92617   1
  -4  -2  -5 22.2368 8.42332   2
   4   2   6 8.58637 7.42240   1
  -4  -2  -6 23.7061 10.2233   2
  -4  -2  -6 18.7526 7.40222   1
  -4  -2  -7 36.2505 11.0912   2
  -4  -2  -7 34.6853 8.95282   1
   4   2   7 30.5774 8.76219   1
  -4  -2  -8 39.0357 13.1711   2
  -4  -2  -8 24.7403 9.94849   1
   4   2   8 15.1042 9.43527   1
  -4  -2  -9 4.75678 9.43490   1
   4   2   9 29.4708 10.1151   1
  -4  -2 -10 21.3283 10.7218   1
   4   2  10 14.0117 10.7335   1
  -4  -3  14-4.82731 13.6220   1
  -4  -3  14-11.1989 14.0166   1
  -4  -3  13-3.32057 13.0383   1
  -4  -3  13-7.87164 11.7443   1
  -4  -3  12 9.17731 11.0227   1
  -4  -3  12-0.07282 10.0879   1
  -4  -3  11 0.21648 9.75885   1
  -4  -3  11 4.13013 9.31686   1
  -4  -3  10 3.08924 8.77718   1
  -4  -3  10 19.2871 9.76514   1
  -4  -3   9 6.08216 8.26176   1
  -4  -3   9 3.15710 7.32563   1
  -4  -3   8 428.560 21.5022   1
  -4  -3   8 418.983 22.2921   1
  -4  -3   7 22.5953 1.98216   2
  -4  -3   7 30.9169 8.17550   1
  -4  -3   7 36.4560 9.18374   1
  -4  -3   6 87.8563 4.97822   2
  -4  -3   6 107.228 11.3693   1
  -4  -3   6 91.9253 11.4557   1
  -4  -3   5 2.46018 2.94981   2
  -4  -3   5-0.83139 5.84315   1
  -4  -3   4 64.8617 9.06036   1
   4   3  -4 71.1729 9.28328   1
  -4  -3   4 62.6488 5.82138   2
  -4  -3   3 179.791 9.69163   2
   4   3  -3 174.324 13.0399   1
  -4  -3   3 181.797 13.2606   1
  -4  -3   2 262.493 12.2223   2
   4   3  -2 247.491 15.0328   1
  -4  -3   2 266.180 15.5013   1
  -4  -3   1 23.7887 6.89478   1
  -4  -3   1 25.7287 5.78897   2
   4   3  -1 23.8637 6.73923   1
  -4  -3   0 170.689 11.4662   2
   4   3   0 169.808 12.8378   1
  -4  -3   0 144.692 12.1287   1
  -4  -3  -1 18.1757 6.42050   2
   4   3   1 17.7118 6.68653   1
  -4  -3  -1 13.5622 6.28764   1
   4   3   2 7.86164 6.31769   1
  -4  -3  -2 3.19512 6.10556   2
  -4  -3  -2 11.4887 6.32222   1
   4   3   3 3.81172 6.30873   1
  -4  -3  -3 1.30540 6.47021   2
  -4  -3  -3-2.82936 6.08042   1
  -4  -3  -4 20.6561 8.03573   1
  -4  -3  -4 32.9810 8.79891   2
   4   3   4 21.1343 7.64556   1
  -4  -3  -5 21.9204 9.05655   1
  -4  -3  -5 18.8098 9.44917   2
   4   3   5 18.2214 7.84396   1
  -4  -3  -6 28.6887 10.2968   2
   4   3   6 4.40738 8.70698   1
  -4  -3  -6 16.0083 8.81196   1
  -4  -3  -7 13.9153 11.1940   2
   4   3   7 16.6044 9.79809   1
  -4  -3  -7 22.6933 10.4331   1
  -4  -3  -8 23.4340 14.2292   2
  -4  -3  -8 27.6940 10.9977   1
   4   3   8 49.8973 11.5029   1
  -4  -3  -9 22.1165 15.3041   2
  -4  -3  -9 17.1108 13.2642   1
   4   3   9 44.4465 13.0142   1
  -4  -4  14-13.3738 14.4513   1
  -4  -4  14 62.4696 16.4793   1
  -4  -4  13 8.63246 12.9495   1
  -4  -4  13 1.23895 11.9538   1
  -4  -4  12 15.6185 11.9573   1
  -4  -4  12 23.1616 12.0943   1
  -4  -4  11 16.9771 10.3207   1
  -4  -4  11 21.5691 10.1335   1
  -4  -4  10 26.4991 11.1714   1
  -4  -4  10-4.54653 8.80407   1
  -4  -4   9 27.9068 9.43759   1
  -4  -4   9 8.23892 8.57181   1
  -4  -4   8 2.74288 7.79359   1
  -4  -4   8 9.78010 3.12945   2
  -4  -4   8 8.40917 7.99404   1
  -4  -4   7 53.7795 9.96558   1
  -4  -4   7 40.9449 4.95221   2
  -4  -4   7 39.2128 9.93099   1
  -4  -4   6-4.18315 7.20530   1
  -4  -4   6 4.43207 3.63453   2
   4   4  -6-5.74836 6.35194   1
  -4  -4   5 16.3490 7.02785   1
   4   4  -5 6.91120 6.66679   1
  -4  -4   5 6.82738 4.33740   2
  -4  -4   4 21.9842 7.52879   1
  -4  -4   4 21.1176 5.31163   2
   4   4  -4 24.1686 7.33089   1
  -4  -4   3 26.2072 6.01940   2
   4   4  -3 31.5898 8.07130   1
  -4  -4   3 35.0042 8.11986   1
  -4  -4   2 65.3576 8.11294   2
   4   4  -2 72.0852 10.1697   1
  -4  -4   2 73.6891 9.92905   1
  -4  -4   1 102.976 9.88792   2
   4   4  -1 110.920 11.4022   1
  -4  -4   1 98.1127 10.9601   1
   4   4   0-6.73740 6.69508   1
  -4  -4   0 2.80439 5.81239   2
  -4  -4   0 7.93127 6.45737   1
  -4  -4  -1 37.6684 8.40784   2
   4   4   1 30.5635 8.55252   1
  -4  -4  -1 15.5215 7.73429   1
   4   4   2-0.89535 7.16837   1
  -4  -4  -2-13.0074 7.14788   2
  -4  -4  -2-9.52102 7.30465   1
  -4  -4  -3 45.4621 9.56731   1
   4   4   3 51.4267 10.0187   1
  -4  -4  -3 41.3688 10.0970   2
  -4  -4  -4 10.6803 8.96679   1
  -4  -4  -4 37.2567 10.6560   2
   4   4   4 14.8407 8.99091   1
  -4  -4  -5 55.1759 12.5864   2
   4   4   5 41.5520 10.2769   1
  -4  -4  -5 14.4501 9.10420   1
  -4  -4  -6 48.0122 13.2190   2
   4   4   6 29.8480 11.3581   1
  -4  -4  -6 37.4521 12.2484   1
   4   4   7-11.5576 11.6630   1
  -4  -4  -7 2.60329 11.3888   1
   4   4   8-5.93271 11.7394   1
  -4  -4  -8 10.5415 13.6044   1
  -4  -5  14 19.6189 15.5344   1
  -4  -5  14-5.01140 13.8157   1
  -4  -5  13 34.3941 14.1560   1
  -4  -5  13-25.3701 13.9492   1
  -4  -5  12 38.0392 13.7501   1
  -4  -5  12 5.91009 12.1769   1
  -4  -5  11 84.8856 13.7473   1
  -4  -5  11 98.4454 14.8604   1
  -4  -5  10 32.5496 5.04864   2
  -4  -5  10 44.0847 11.7353   1
  -4  -5  10 41.0171 11.6490   1
  -4  -5   9 0.52708 8.69359   1
  -4  -5   9-2.63046 4.30459   2
  -4  -5   9-5.21022 9.38192   1
  -4  -5   8 11.4427 8.73731   1
  -4  -5   8 19.3740 5.02924   2
  -4  -5   8 12.9437 8.70131   1
  -4  -5   7 130.576 9.10679   2
   4   5  -7 108.007 12.8989   1
  -4  -5   7 122.083 13.3481   1
  -4  -5   6 20.7616 8.60880   1
   4   5  -6 8.72105 7.66032   1
  -4  -5   6 16.7255 5.47255   2
  -4  -5   5-1.42706 7.05305   1
  -4  -5   5 6.19209 5.04674   2
   4   5  -5 5.09982 7.69638   1
   4   5  -4 8.30940 8.03672   1
  -4  -5   4 10.6173 5.76125   2
  -4  -5   4-5.11712 7.10477   1
  -4  -5   3 4.14106 5.63325   2
   4   5  -3 4.73423 7.21550   1
  -4  -5   3-3.44212 6.75223   1
  -4  -5   2 53.6922 8.69887   2
   4   5  -2 63.9270 10.5841   1
  -4  -5   2 48.8038 9.66050   1
  -4  -5   1 76.7412 9.88824   2
   4   5  -1 62.9886 10.8590   1
  -4  -5   1 64.5547 10.5359   1
   4   5   0 11.4284 7.74428   1
  -4  -5   0 6.51476 7.02124   2
  -4  -5   0 7.68969 7.54102   1
   4   5   1 17.8217 8.50961   1
  -4  -5  -1 41.5518 9.41360   2
  -4  -5  -1 15.8970 8.35087   1
  -4  -5  -2 57.3611 11.1210   2
   4   5   2 58.2490 11.6852   1
  -4  -5  -2 56.5356 11.4899   1
  -4  -5  -3 79.4300 13.3192   2
  -4  -5  -3 55.9322 11.3055   1
   4   5   3 74.3635 13.0250   1
  -4  -5  -4 6.15823 10.0208   1
  -4  -5  -4 19.8192 10.4284   2
   4   5   4 30.0635 11.2968   1
  -4  -5  -5 40.7641 14.1048   2
   4   5   5 11.0769 12.0458   1
  -4  -5  -5 23.7158 12.1102   1
   4   5   6-14.9667 13.5782   1
  -4  -5  -6-22.3785 13.8775   1
   4   5   7-10.5481 12.5461   1
  -4  -5  -7-0.70829 12.3682   1
   4   6 -13-0.84894 5.43633   2
  -4  -6  13-3.82054 13.0897   1
  -4  -6  12 23.2089 13.3563   1
   4   6 -12 0.44824 5.58599   2
  -4  -6  12-2.83668 12.9432   1
   4   6 -11-3.29931 5.87729   2
  -4  -6  11-2.88245 10.9401   1
  -4  -6  11 2.01702 6.06967   2
  -4  -6  11-3.94936 11.6538   1
   4   6 -10 1.72037 6.17521   2
  -4  -6  10 4.93606 10.1767   1
  -4  -6  10 7.89494 5.71893   2
  -4  -6  10-6.64441 12.0295   1
  -4  -6   9-16.9144 10.2097   1
  -4  -6   9 9.77070 5.69490   2
  -4  -6   9-20.9541 11.1993   1
  -4  -6   8 40.5840 7.48004   2
   4   6  -8 41.2173 11.5860   1
  -4  -6   8 53.2606 12.0931   1
   4   6  -7 113.689 13.6432   1
  -4  -6   7 123.337 10.3970   2
  -4  -6   7 124.928 14.3767   1
  -4  -6   6 7.62019 6.32254   2
   4   6  -6 4.78732 8.86981   1
  -4  -6   6-12.9146 10.1017   1
  -4  -6   5 59.2499 8.91260   2
   4   6  -5 45.9155 10.7608   1
  -4  -6   5 46.6897 10.7244   1
  -4  -6   4 45.4477 8.26969   2
   4   6  -4 51.6306 10.5085   1
  -4  -6   4 33.6245 9.73364   1
  -4  -6   3 26.1995 7.90355   2
   4   6  -3 15.4499 9.26580   1
  -4  -6   3 20.8559 9.19923   1
   4   6  -2-11.1290 9.57780   1
  -4  -6   2 4.44469 7.35258   2
  -4  -6   2-2.34771 8.13211   1
   4   6  -1 52.8108 11.6944   1
  -4  -6   1 27.9603 8.84847   2
  -4  -6   1 23.8857 9.82332   1
  -4  -6   0 123.910 14.0884   2
   4   6   0 99.8558 14.1993   1
  -4  -6   0 108.039 13.8137   1
  -4  -6  -1-0.14034 9.94757   1
  -4  -6  -1-4.17593 8.94446   2
   4   6   1 17.2257 10.2796   1
  -4  -6  -2-0.28892 10.9315   1
  -4  -6  -2 13.1696 10.0542   2
   4   6   2 7.97176 10.3968   1
  -4  -6  -3 11.2821 12.2745   1
  -4  -6  -3 11.0285 11.8437   2
   4   6   3 25.9847 12.5610   1
  -4  -6  -4 3.83851 12.7024   2
   4   6   4-17.0712 13.2201   1
  -4  -6  -4 19.8793 12.6286   1
  -4  -6  -5 41.0060 16.4307   2
  -4  -6  -5 47.8647 16.3251   1
  -4  -7  12 5.06739 13.9380   1
   4   7 -12-13.3642 8.18845   2
  -4  -7  12-10.5904 8.71778   2
  -4  -7  12-12.8892 14.5114   1
  -4  -7  11-13.3689 12.7207   1
   4   7 -11 8.91637 7.83478   2
  -4  -7  11 15.9798 8.03113   2
  -4  -7  11-4.31717 13.6235   1
  -4  -7  10 28.2501 12.7364   1
   4   7 -10 12.0272 8.07862   2
  -4  -7  10 5.74446 7.57757   2
  -4  -7   9 47.1185 12.4524   1
   4   7  -9 63.6339 9.51658   2
  -4  -7   9 51.2234 9.19392   2
   4   7  -9 66.8924 13.4407   1
   4   7  -8 47.9469 12.2930   1
  -4  -7   8 35.3025 8.54573   2
   4   7  -8 45.0013 8.98895   2
  -4  -7   8 56.4424 12.5880   1
  -4  -7   7-11.3072 8.15051   2
   4   7  -7-9.42692 10.0997   1
  -4  -7   7-5.47896 10.6655   1
   4   7  -6-16.4744 10.8604   1
  -4  -7   6-1.68482 7.43585   2
  -4  -7   6 9.20923 9.52445   1
  -4  -7   5 21.4557 8.73270   2
  -4  -7   5 11.7087 10.2048   1
   4   7  -5 20.5304 10.3976   1
  -4  -7   4-2.93096 8.01791   2
   4   7  -4-1.09087 9.68660   1
  -4  -7   4-7.77730 9.32320   1
   4   7  -3-14.5312 10.6331   1
  -4  -7   3 2.84522 8.91074   2
  -4  -7   3-1.44605 10.4579   1
   4   7  -2 11.8852 10.0518   1
  -4  -7   2 15.9555 10.0779   1
  -4  -7   2 4.85371 9.34184   2
  -4  -7   1 267.952 19.0993   2
  -4  -7   1 238.179 19.7654   1
  -4  -7   0 22.0265 11.8339   1
  -4  -7   0 2.23927 10.1588   2
   4   7   0 24.5486 13.2174   1
  -4  -7  -1 6.98267 12.0202   1
  -4  -7  -1 46.3132 13.5226   2
   4   7   1 12.6686 13.1988   1
  -4  -7  -2 18.4293 13.3017   1
  -4  -7  -2-23.4457 12.6022   2
   4   7   2 1.72941 13.0269   1
  -4  -7  -3 65.4411 17.6830   1
   4   7   3 27.7090 16.0532   1
  -4  -7  -4 21.7743 10.1086   2
   4   7   4-1.58775 8.35549   1
  -4  -7  -4 29.7356 10.1284   1
   4   8 -11 18.9890 11.0719   2
  -4  -8  11 34.1510 10.8585   2
  -4  -8  11 44.7664 16.1395   1
  -4  -8  11 3.51055 15.3822   1
   4   8 -10 34.2002 10.5560   2
  -4  -8  10 18.5901 9.53899   2
  -4  -8  10 17.3388 13.7280   1
   4   8  -9 47.8674 11.6045   2
  -4  -8   9 37.4895 11.0357   2
  -4  -8   9 57.7546 15.1720   1
   4   8  -9 49.8231 14.8760   1
   4   8  -8 21.8103 10.4551   2
  -4  -8   8 11.8046 9.84191   2
  -4  -8   8 17.1793 13.7285   1
   4   8  -8 19.7842 13.1554   1
  -4  -8   7 32.0796 11.1147   2
  -4  -8   7 65.6930 15.3247   1
   4   8  -7 72.4422 15.7669   1
  -4  -8   6-13.5867 8.97333   2
  -4  -8   6-20.6574 11.4202   1
  -4  -8   5-3.12573 9.93740   2
  -4  -8   5-3.00883 11.0390   1
   4   8  -5-16.8800 11.2930   1
  -4  -8   4 27.0531 13.1803   1
   4   8  -4 3.55663 12.3494   1
  -4  -8   4 9.37802 10.1834   2
  -4  -8   3 67.9896 13.5624   2
   4   8  -3 62.3540 15.7524   1
  -4  -8   3 66.7203 15.4327   1
  -4  -8   2 85.5923 15.0696   2
   4   8  -2 110.701 17.5794   1
  -4  -8   2 85.5917 16.5009   1
  -4  -8   1 43.2516 14.9272   1
  -4  -8   1 7.20124 11.8821   2
  -4  -8   0-2.00422 14.5159   1
  -4  -8   0 17.7353 13.5767   2
  -4  -8  -1 18.7119 17.1130   1
  -4  -8  -1 4.02282 14.9954   2
   4   8   1-25.2102 14.9601   1
   4   9  -9 43.0926 11.8829   1
   4   9  -9 15.7991 8.25559   2
  -4  -9   9 41.6773 11.6109   1
  -4  -9   9 10.1329 7.95083   2
   4   9  -8 15.7153 13.0434   2
  -4  -9   8-13.9607 15.0385   1
   4   9  -8-19.8596 14.6846   1
  -4  -9   8-17.1276 12.1521   2
   4   9  -7-21.8763 16.3198   1
  -4  -9   7 7.39842 14.5352   1
  -4  -9   7 11.2268 12.5125   2
  -4  -9   6 38.8528 15.9892   1
  -4  -9   6 26.6780 13.7273   2
   4   9  -6 21.8131 15.1530   1
  -4  -9   5 6.07472 16.0877   1
  -4  -9   5-8.25495 12.3203   2
   4   9  -5 4.10756 15.1962   1
  -4  -9   4-0.35819 14.7830   1
   4   9  -4 0.26979 14.6631   1
  -4  -9   4-1.01892 13.3504   2
  -4  -9   3 47.7872 17.4225   1
   4   9  -3 50.2202 18.8536   1
  -4  -9   3 9.07163 13.6072   2
  -4  -9   2-3.57309 11.9830   2
  -5   8   2 19.7544 7.13821   2
   5  -8  -2 28.5948 7.14795   2
  -5   8   2 31.3155 10.3354   1
   5  -8  -2 17.1011 9.64462   1
  -5   8   1 10.9013 11.9776   2
   5  -8  -1 10.3689 10.8208   2
  -5   8   1 1.33830 13.7472   1
   5  -8  -1 7.06637 13.9056   1
  -5   8   0-15.2301 12.4641   2
   5  -8   0 1.68680 11.1649   2
   5  -8   0-14.9333 12.8217   1
  -5   8   0 13.5903 11.8080   1
  -5   8  -1 40.6412 13.1718   2
  -5   8  -1 8.20070 11.2483   1
  -5   8  -2-1.12445 13.3032   2
  -5   8  -2 16.7001 9.99884   1
  -5   8  -2 23.0085 10.5373   1
  -5   8  -3-3.20203 9.57598   1
  -5   8  -3-1.30257 13.0213   2
  -5   8  -3 11.9779 8.82125   1
  -5   8  -4 23.8703 8.10880   1
  -5   8  -4 35.7130 9.32886   1
  -5   8  -5-8.57416 5.46731   1
  -5   8  -5 19.3182 14.3399   2
  -5   8  -5 10.7105 5.96852   1
  -5   8  -6 9.64968 7.80929   2
  -5   7   4 20.9389 9.97120   2
   5  -7  -4 6.68744 8.67054   2
  -5   7   4-4.20907 14.2431   1
  -5   7   3 15.0075 8.95689   2
  -5   7   3 20.5924 12.7547   1
   5  -7  -3 23.4320 8.42740   2
   5  -7  -3 10.8777 14.3134   1
  -5   7   2 2.35521 9.38968   2
  -5   7   2-7.16241 12.1154   1
   5  -7  -2-15.3870 9.18122   2
   5  -7  -2-0.75241 13.6322   1
  -5   7   1 8.38778 9.46162   2
  -5   7   1 10.5482 11.4115   1
   5  -7  -1 2.21226 11.8597   1
  -5   7   0 13.3912 10.2576   2
  -5   7   0 26.4871 11.4634   1
  -5   7  -1 13.6098 10.2313   2
  -5   7  -1 0.89552 8.95954   1
  -5   7  -1-3.67927 8.34775   1
  -5   7  -2 3.40174 9.92983   2
  -5   7  -2 7.34736 8.53342   1
  -5   7  -2 8.99133 8.81025   1
  -5   7  -3 15.8483 11.6297   2
  -5   7  -3 9.55972 8.04110   1
  -5   7  -3 15.8895 7.83237   1
  -5   7  -4 29.2916 7.88804   1
  -5   7  -4 28.3134 7.51919   1
  -5   7  -4 38.6489 12.2259   2
  -5   7  -5 17.3498 11.3823   2
  -5   7  -5 18.5059 5.14190   1
  -5   7  -6 7.61129 12.6415   2
  -5   7  -7 39.3597 16.3088   2
  -5   6   6 3.53127 15.6661   1
   5  -6  -6 29.6792 17.6286   1
  -5   6   5 2.63287 6.58340   2
  -5   6   5 5.85774 12.8941   1
   5  -6  -5-7.17637 14.7284   1
  -5   6   4 8.03368 7.05210   2
  -5   6   4 20.6824 13.3853   1
   5  -6  -4-5.55059 12.7678   1
  -5   6   3 17.3364 7.46895   2
  -5   6   3 32.6435 12.5592   1
   5  -6  -3 25.9022 12.2898   1
  -5   6   2-6.46708 7.87698   2
  -5   6   2 16.2191 11.1899   1
  -5   6   1 11.6939 7.51144   2
  -5   6   1 12.5507 9.55750   1
  -5   6   1 15.5226 9.36624   1
  -5   6   0 4.73252 7.94915   2
  -5   6   0 14.2395 8.28979   1
  -5   6   0-4.37886 7.92475   1
  -5   6  -1 47.2771 9.85884   2
  -5   6  -1 24.8780 8.85741   1
  -5   6  -1 44.2982 8.92540   1
  -5   6  -2 3.93071 6.90719   1
  -5   6  -2 2.94306 8.35242   2
  -5   6  -2 13.8669 7.48169   1
  -5   6  -3 23.4410 10.0388   2
  -5   6  -3 23.7637 7.72807   1
  -5   6  -3 4.53252 6.44129   1
  -5   6  -4 12.0403 5.97292   1
  -5   6  -4 7.89485 5.86746   1
  -5   6  -5 23.1895 4.95831   1
  -5   6  -5 19.2373 11.0288   2
  -5   6  -5 23.4525 4.86139   1
  -5   6  -6-5.69731 10.8512   2
  -5   6  -7 70.2596 14.3057   2
  -5   6  -8-3.77177 13.6757   2
  -5   5   8 37.9633 17.2209   1
   5  -5  -8 17.6337 15.6561   1
  -5   5   7 17.5988 14.3016   1
   5  -5  -7 50.8662 16.5678   1
   5  -5  -6 105.044 17.8481   1
  -5   5   6 97.4793 16.5619   1
  -5   5   5 17.5630 12.1233   1
   5  -5  -5 34.1705 13.5921   1
  -5   5   4 3.00891 4.94356   2
  -5   5   4-3.18707 9.85560   1
  -5   5   3 95.5866 8.81871   2
  -5   5   3 80.2747 12.4425   1
  -5   5   3 91.1600 13.2446   1
  -5   5   2 41.3960 7.64336   2
  -5   5   2 51.8629 10.5214   1
  -5   5   2 38.7895 10.1500   1
  -5   5   1 17.5631 8.14234   1
  -5   5   1 16.8523 7.05726   2
  -5   5   1 21.8500 9.41263   1
  -5   5   0 11.4939 6.68704   2
  -5   5   0 20.6835 8.87543   1
  -5   5   0 21.1021 8.28871   1
  -5   5  -1 29.6276 8.27305   2
  -5   5  -1 30.6282 8.25043   1
  -5   5  -1 23.3172 7.89364   1
  -5   5  -2 0.20128 6.18596   1
  -5   5  -2 0.36746 6.45587   1
  -5   5  -2 4.59292 7.28986   2
  -5   5  -3 46.1534 10.1644   2
  -5   5  -3 41.5271 7.71726   1
  -5   5  -3 39.0998 7.18470   1
  -5   5  -4-2.64031 8.96500   2
  -5   5  -4 0.05683 5.10127   1
  -5   5  -4 10.2059 5.42916   1
  -5   5  -5 3.44549 3.90718   1
  -5   5  -5 11.7472 9.48450   2
  -5   5  -5-0.74717 4.24708   1
  -5   5  -6 0.66799 10.5958   2
  -5   5  -7 4.47713 11.6762   2
  -5   5  -8-2.73341 13.4722   2
  -5   5  -9 31.0339 16.2955   2
  -5   4   9 87.3979 19.2304   1
  -5   4   8 25.4576 13.1679   1
  -5   4   7-8.07090 11.7228   1
  -5   4   6 14.6796 11.4499   1
  -5   4   6-2.76830 11.2275   1
  -5   4   5 27.3448 10.2473   1
  -5   4   5 24.1189 10.8472   1
  -5   4   4 3.47007 8.42566   1
  -5   4   4 3.95150 3.48240   2
  -5   4   3 0.18248 4.49518   2
  -5   4   3 4.85639 8.63680   1
  -5   4   3-3.64998 7.76602   1
  -5   4   2 7.85829 7.65973   1
  -5   4   2 7.66390 4.97649   2
  -5   4   2 7.31957 7.34056   1
  -5   4   1 6.75446 7.28179   1
  -5   4   1 10.2379 7.18695   1
  -5   4   1 6.04488 5.20918   2
  -5   4   0 29.1617 7.93845   1
  -5   4   0 20.0442 6.51550   2
  -5   4   0 19.2197 7.54460   1
  -5   4  -1 8.88548 6.51871   1
  -5   4  -1-9.78262 6.76829   1
  -5   4  -1-9.20506 6.66282   2
  -5   4  -2 74.1364 9.99142   2
  -5   4  -2 66.4855 8.54924   1
  -5   4  -2 64.8615 8.87986   1
  -5   4  -3-2.42801 5.54730   1
  -5   4  -3-11.5860 7.00143   2
  -5   4  -3 0.37721 5.55199   1
  -5   4  -4 2.79491 4.86176   1
  -5   4  -4 1.75931 5.20174   1
  -5   4  -4-8.78794 7.76684   2
  -5   4  -5 5.44545 4.60545   1
  -5   4  -5 7.06056 9.21154   2
  -5   4  -5-5.89040 4.28146   1
  -5   4  -6 3.41141 2.53507   1
  -5   4  -6 2.07218 10.2088   2
  -5   4  -7-22.8691 11.2845   2
  -5   4  -8 44.6478 13.5966   2
  -5   4  -9 39.5675 15.2523   2
  -5   3  10-17.0087 15.1861   1
  -5   3  10-3.40803 14.8683   1
  -5   3   9 37.0632 13.9194   1
  -5   3   9 29.8546 13.1533   1
  -5   3   8 93.2991 16.2602   1
  -5   3   8 78.7728 15.3997   1
  -5   3   7 30.2389 11.1658   1
  -5   3   7 44.9518 12.4957   1
  -5   3   6 6.58203 9.62519   1
  -5   3   6 3.02205 9.49932   1
  -5   3   5 31.1725 10.1820   1
  -5   3   5 28.5614 10.0519   1
  -5   3   4 60.4087 3.25717   2
  -5   3   4 85.1095 12.1157   1
  -5   3   4 84.9348 11.5971   1
  -5   3   3 41.7246 4.67545   2
  -5   3   3 33.1498 8.86770   1
  -5   3   3 51.4274 10.2883   1
  -5   3   2 38.6031 5.63053   2
  -5   3   2 35.8720 8.40523   1
  -5   3   2 30.4179 8.71874   1
  -5   3   1 12.0125 7.23319   1
  -5   3   1 17.2934 5.16152   2
  -5   3   1 17.3243 7.21513   1
  -5   3   0 38.8486 7.01544   2
  -5   3   0 43.1936 8.01646   1
  -5   3   0 49.5074 8.91442   1
  -5   3  -1 15.6081 6.05911   1
  -5   3  -1 6.21651 6.38718   1
  -5   3  -1 1.89974 5.67328   2
  -5   3  -2 52.8290 8.50104   2
  -5   3  -2 55.7945 7.90470   1
  -5   3  -2 72.1167 9.01706   1
  -5   3  -3 5.97245 5.58015   1
  -5   3  -3-2.86569 5.05219   1
  -5   3  -3-0.33663 7.28770   2
  -5   3  -4 9.64260 5.51303   1
  -5   3  -4 10.5539 5.68071   1
  -5   3  -4 5.08750 7.37057   2
  -5   3  -5 30.5297 5.90126   1
  -5   3  -5 35.4231 9.66193   2
  -5   3  -5 34.1025 6.55489   1
  -5   3  -6 16.5635 4.22240   1
  -5   3  -6 8.27464 9.21571   2
  -5   3  -6 20.9166 4.89660   1
  -5   3  -7 2.05940 10.8037   2
  -5   3  -7 2.01171 2.10992   1
  -5   3  -8 34.5418 12.8542   2
  -5   3  -9 69.0836 16.3764   2
  -5   2  11 36.9515 17.0464   1
  -5   2  11 17.2839 15.8282   1
  -5   2  10 29.9826 14.0021   1
  -5   2  10 37.6902 15.5339   1
  -5   2   9 10.6236 12.6756   1
  -5   2   9-10.5145 11.7411   1
  -5   2   8-2.46870 11.1880   1
  -5   2   8-9.81149 12.3995   1
  -5   2   7 17.8192 10.4042   1
  -5   2   7-2.87089 9.54652   1
  -5   2   6 10.4242 9.82515   1
  -5   2   6 7.54077 9.14952   1
  -5   2   5 10.6240 8.76795   1
  -5   2   5-14.0371 8.70310   1
  -5   2   4-0.99067 7.53940   1
  -5   2   4 7.63911 8.24565   1
  -5   2   3 9.10474 7.35128   1
  -5   2   3-0.10145 2.59345   2
  -5   2   3 2.90940 6.70125   1
  -5   2   2 6.01777 7.02592   1
  -5   2   2 5.29656 3.94107   2
  -5   2   2 6.34751 6.70643   1
  -5   2   1 93.2955 7.86114   2
  -5   2   1 103.205 10.9634   1
  -5   2   1 79.2303 10.4120   1
  -5   2   0 179.320 11.0384   2
  -5   2   0 181.463 13.1348   1
  -5   2   0 193.936 13.6485   1
  -5   2  -1 22.1196 7.39906   1
  -5   2  -1 17.6229 6.11064   2
  -5   2  -1 26.7343 7.06781   1
  -5   2  -2 3.95580 5.52549   1
  -5   2  -2-1.53206 5.50547   1
  -5   2  -2-1.69849 5.56908   2
  -5   2  -3 117.794 11.0632   2
  -5   2  -3 140.144 10.8745   1
  -5   2  -3 130.295 10.2495   1
  -5   2  -4 12.0013 7.62656   2
  -5   2  -4 24.2495 6.89754   1
  -5   2  -4 10.2064 5.76446   1
  -5   2  -5 6.21116 5.69740   1
  -5   2  -5 2.75110 5.18902   1
  -5   2  -5 6.59800 8.38884   2
  -5   2  -6 17.6196 5.74288   1
  -5   2  -6 14.3001 5.47957   1
  -5   2  -6 29.1588 10.2616   2
  -5   2  -7 7.96466 5.17537   1
  -5   2  -7 12.4860 11.0003   2
  -5   2  -7 4.10481 4.84212   1
  -5   2  -8-3.58422 3.33920   1
  -5   2  -8 1.66479 3.43847   1
  -5   2  -9 109.966 18.2111   2
  -5   1  11 18.9106 15.4274   1
  -5   1  11 50.5643 16.6997   1
  -5   1  10 29.6781 14.2098   1
  -5   1  10 15.6716 12.8959   1
  -5   1   9 0.24357 11.4697   1
  -5   1   9-4.16025 10.3332   1
  -5   1   8 35.5474 11.5090   1
  -5   1   8 23.7856 10.4769   1
  -5   1   7 4.91719 8.34028   1
  -5   1   7 5.02716 10.1612   1
  -5   1   6 43.5736 10.7251   1
  -5   1   6 44.8755 10.8716   1
  -5   1   5 18.0500 8.72214   1
  -5   1   5 20.6682 8.60079   1
  -5   1   4 18.2713 8.63008   1
  -5   1   4 7.98427 7.27536   1
  -5   1   3 43.7705 4.12585   2
  -5   1   3 43.5480 4.00797   2
  -5   1   3 45.4268 9.38504   1
  -5   1   3 37.4485 9.38633   1
  -5   1   2 199.033 9.14308   2
  -5   1   2 206.419 14.7592   1
  -5   1   2 195.547 14.8122   1
  -5   1   1 91.9323 7.67502   2
  -5   1   1 84.2442 10.1954   1
  -5   1   1 88.4606 10.8239   1
  -5   1   0 2.05719 6.29018   1
  -5   1   0-1.73229 4.59187   2
  -5   1   0 16.3100 6.97981   1
  -5   1  -1 24.8931 7.54442   1
  -5   1  -1 16.7485 6.85355   1
  -5   1  -1 21.4039 6.36211   2
  -5   1  -2 99.9185 10.0785   2
  -5   1  -2 105.146 10.6640   1
  -5   1  -2 98.2117 9.68770   1
  -5   1  -3 35.7336 8.30610   2
  -5   1  -3 38.6215 7.47534   1
  -5   1  -3 32.7897 6.86781   1
  -5   1  -4-1.77707 6.01895   1
  -5   1  -4 6.48414 7.53467   2
  -5   1  -4-2.73389 6.30296   1
  -5   1  -5-0.28275 5.59785   1
  -5   1  -5 2.87419 8.45012   2
  -5   1  -5-3.52748 6.27620   1
  -5   1  -6 29.5327 6.79688   1
  -5   1  -6 10.2575 9.03603   2
  -5   1  -6 14.1325 6.70962   1
  -5   1  -7 0.06879 10.1928   2
  -5   1  -7 3.41141 6.44082   1
  -5   1  -7 1.00855 6.80459   1
  -5   1  -8 10.7429 11.8900   2
  -5   1  -8 21.4479 6.89031   1
  -5   1  -8 3.58417 6.38352   1
  -5   1  -9 6.55189 6.04194   1
  -5   1  -9 0.79989 5.66276   1
  -5   1  -9 8.16837 14.6640   2
  -5   0  12 9.43074 15.9303   1
  -5   0  12-22.2591 15.2993   1
  -5   0  11 23.2728 14.0034   1
  -5   0  11 35.2413 14.0457   1
  -5   0  10 6.91806 12.4039   1
  -5   0  10-7.06242 11.0669   1
  -5   0   9 2.77736 11.2306   1
  -5   0   9-6.80044 11.4520   1
  -5   0   8 63.0545 12.1955   1
  -5   0   8 67.5779 12.8913   1
  -5   0   7 16.4445 9.98580   1
  -5   0   7 22.0124 10.4558   1
  -5   0   6 150.648 14.6935   1
  -5   0   6 144.287 15.0988   1
  -5   0   5 29.2335 9.25071   1
  -5   0   5 16.2561 8.14754   1
  -5   0   4 1.93618 7.57070   1
  -5   0   4-9.78781 7.40462   1
  -5   0   3 38.3605 4.28952   2
  -5   0   3 37.7240 4.27348   2
  -5   0   3 46.3496 9.24711   1
  -5   0   3 41.5087 9.68873   1
  -5   0   2 72.8221 6.58906   2
  -5   0   2 65.3182 6.26961   2
  -5   0   2 60.3823 9.71733   1
  -5   0   2 51.0934 9.77619   1
  -5   0   1 24.3824 8.34989   1
  -5   0   1 26.2506 5.69025   2
  -5   0   1 27.3203 5.62590   2
  -5   0   1 20.9015 7.16860   1
  -5   0   0-1.76777 5.85954   1
  -5   0   0-1.61556 4.70878   2
  -5   0   0 4.31631 6.75800   1
  -5   0  -1 69.3396 8.50677   2
  -5   0  -1 81.9837 10.6358   1
  -5   0  -1 67.5439 9.32484   1
  -5   0  -2 60.6338 8.75988   2
  -5   0  -2 59.9187 9.50637   1
  -5   0  -2 64.6631 8.88470   1
  -5   0  -3 13.5776 6.15437   1
  -5   0  -3 2.92725 6.85820   2
  -5   0  -3 18.3900 8.01003   1
  -5   0  -4 29.7064 9.02283   2
  -5   0  -4 24.8394 7.61284   1
  -5   0  -5 30.9988 7.64227   1
  -5   0  -5 25.0512 9.04569   2
  -5   0  -6 17.1849 7.22456   1
  -5   0  -6 35.8139 10.6917   2
  -5   0  -7 39.5214 9.26213   1
  -5   0  -7 38.5603 13.5979   2
   5   0   7 23.8785 8.28979   1
  -5   0  -8-20.5173 14.5369   2
  -5   0  -9 58.4766 9.36280   1
  -5   0  -9 89.8689 17.2273   2
  -5  -1  12 16.8328 15.2037   1
  -5  -1  12 4.70196 14.5190   1
  -5  -1  11-3.08214 13.8102   1
  -5  -1  11-8.45146 13.0768   1
  -5  -1  10-2.65249 12.7493   1
  -5  -1  10 1.89656 11.3025   1
  -5  -1   9-2.97897 10.7108   1
  -5  -1   9 18.4216 10.4831   1
  -5  -1   8-4.23466 9.38104   1
  -5  -1   8 15.9418 10.3400   1
  -5  -1   7-0.99085 9.01916   1
  -5  -1   7-11.0344 8.42084   1
  -5  -1   6 30.6588 10.0092   1
  -5  -1   6 24.3024 9.41922   1
  -5  -1   5 6.56208 7.51790   1
  -5  -1   5 3.55752 8.10330   1
  -5  -1   4 213.260 6.78099   2
  -5  -1   4 198.877 6.42821   2
  -5  -1   4 204.676 15.7015   1
  -5  -1   4 214.847 16.7313   1
  -5  -1   3 101.265 6.80816   2
  -5  -1   3 107.511 12.1396   1
  -5  -1   3 92.1562 6.56755   2
  -5  -1   3 85.6350 11.9686   1
  -5  -1   2 6.56107 4.51988   2
  -5  -1   2 12.1848 7.42393   1
  -5  -1   2 3.62662 4.25496   2
  -5  -1   2 14.9120 8.37543   1
  -5  -1   1 20.8470 5.89808   2
  -5  -1   1 18.7116 7.32084   1
  -5  -1   1 21.1773 8.23528   1
  -5  -1   0 295.642 14.6470   2
  -5  -1   0 288.571 17.9473   1
  -5  -1   0 271.335 16.3820   1
  -5  -1  -1 59.3535 8.43343   2
   5   1   1 54.7736 9.16337   1
  -5  -1  -1 71.5525 9.73025   1
  -5  -1  -2 11.7833 6.51361   2
   5   1   2 2.38884 6.48127   1
  -5  -1  -2 23.0532 7.20926   1
   5   1   3 13.8225 7.55172   1
  -5  -1  -3 15.7735 7.91023   1
   5   1   4 8.96876 7.00612   1
  -5  -1  -4 4.37275 7.26325   1
  -5  -1  -5 63.5800 10.2922   1
   5   1   5 63.4841 9.97580   1
  -5  -1  -6 30.2546 9.58143   1
   5   1   6 5.97192 8.47444   1
   5   1   7-1.50708 8.93208   1
  -5  -1  -7 11.5779 9.07879   1
   5   1   8 4.98693 9.65657   1
  -5  -1  -8 9.17538 10.0847   1
  -5  -2  12 3.22994 14.8012   1
  -5  -2  12-27.5547 16.7350   1
  -5  -2  11-1.74481 13.6386   1
  -5  -2  11 1.82845 12.6369   1
  -5  -2  10 39.5251 13.6643   1
  -5  -2  10 26.5804 13.0375   1
  -5  -2   9 22.7869 11.0055   1
  -5  -2   9 52.8077 13.3736   1
  -5  -2   8 18.0163 10.7630   1
  -5  -2   8-0.45165 9.82593   1
  -5  -2   7 23.0244 10.7819   1
  -5  -2   7 17.0798 10.3867   1
  -5  -2   6 15.5789 10.2075   1
  -5  -2   6 4.72866 8.56825   1
  -5  -2   5 2.16175 1.73945   2
  -5  -2   5 0.86188 1.67641   2
  -5  -2   5 11.1516 8.03603   1
  -5  -2   5-1.27966 8.83238   1
  -5  -2   4 16.9932 4.14894   2
  -5  -2   4 16.5864 7.85566   1
  -5  -2   4 11.6521 8.23287   1
  -5  -2   3 47.4927 9.82610   1
  -5  -2   3 44.9126 6.17412   2
  -5  -2   3 60.8976 11.0356   1
  -5  -2   2 52.0501 7.14594   2
  -5  -2   2 61.6808 10.3308   1
   5   2  -1 18.2237 7.91801   1
  -5  -2   1 24.2520 8.26303   1
  -5  -2   1 24.3051 6.48341   2
  -5  -2   0 0.82235 7.58392   1
  -5  -2   0 3.57577 5.79030   2
   5   2   0 8.32083 7.10761   1
   5   2   1 0.05431 6.98972   1
  -5  -2  -1-10.2300 6.90321   2
  -5  -2  -2 75.9973 10.9158   2
  -5  -2  -2 53.5746 10.2843   1
   5   2   2 48.1682 9.92286   1
  -5  -2  -3 10.8626 9.12519   2
   5   2   3 22.7701 8.75035   1
  -5  -2  -3 17.1694 9.19330   1
  -5  -2  -4 70.1245 12.3876   2
  -5  -2  -4 71.3563 11.0092   1
   5   2   4 71.2171 11.2319   1
  -5  -2  -5 89.6755 14.2810   2
  -5  -2  -5 85.2404 12.1705   1
   5   2   5 101.001 13.2836   1
  -5  -2  -6 3.65441 9.90767   1
  -5  -2  -6-15.0196 12.0735   2
   5   2   6-5.14539 10.1274   1
  -5  -2  -7 63.9478 15.1979   2
   5   2   7 51.2414 11.7588   1
  -5  -2  -7 55.1645 13.1026   1
  -5  -3  12-19.2187 14.6021   1
  -5  -3  12-27.6061 15.9831   1
  -5  -3  11 5.53128 14.8565   1
  -5  -3  11 8.19531 12.7420   1
  -5  -3  10-19.7597 12.3138   1
  -5  -3  10 8.85025 12.4724   1
  -5  -3   9 17.1722 11.8014   1
  -5  -3   9 21.3194 11.3871   1
  -5  -3   8 12.4628 11.1621   1
  -5  -3   8 20.9188 10.9978   1
  -5  -3   7-0.52527 9.94694   1
  -5  -3   7-9.86575 9.11998   1
  -5  -3   6 0.92085 2.05016   2
  -5  -3   6 18.9578 9.84547   1
  -5  -3   6 13.8236 9.66383   1
  -5  -3   5 6.96320 3.87692   2
  -5  -3   5 2.79654 8.34703   1
  -5  -3   5 3.21538 9.33882   1
  -5  -3   4 33.4180 5.69419   2
  -5  -3   4 40.1972 10.0882   1
  -5  -3   4 40.9673 10.9925   1
  -5  -3   3 12.1861 8.47469   1
   5   3  -3 16.7730 8.59312   1
  -5  -3   3 23.0203 6.03785   2
  -5  -3   2 0.36524 7.97356   1
  -5  -3   2 3.33747 5.57701   2
   5   3  -2 8.26701 7.96197   1
  -5  -3   1-4.18793 6.75277   2
  -5  -3   1-7.82098 7.99714   1
   5   3  -1 9.21367 7.89816   1
  -5  -3   0 9.44210 7.01135   2
   5   3   0-3.40661 7.74004   1
  -5  -3   0 13.9417 8.93491   1
  -5  -3  -1 37.4098 9.69685   2
   5   3   1 32.1862 10.1850   1
  -5  -3  -1 63.3618 11.3784   1
  -5  -3  -2 51.6076 11.0088   2
  -5  -3  -2 69.6091 11.9946   1
   5   3   2 55.2163 11.2344   1
  -5  -3  -3 22.2407 9.79755   2
  -5  -3  -3 17.1875 9.39386   1
   5   3   3 11.3751 9.40358   1
  -5  -3  -4 10.5448 9.70503   1
  -5  -3  -4 12.3238 11.0675   2
   5   3   4 27.9922 11.0480   1
  -5  -3  -5 62.7057 13.6782   1
  -5  -3  -5 55.0691 13.6381   2
   5   3   5 39.2854 11.6124   1
  -5  -3  -6-12.0182 13.5593   2
   5   3   6-3.48247 11.1824   1
  -5  -3  -6 4.06198 12.0673   1
  -5  -4  12 23.1012 17.2497   1
  -5  -4  12 56.9203 16.0967   1
  -5  -4  11-19.2461 15.5400   1
  -5  -4  11 16.2822 13.0379   1
  -5  -4  10 69.1166 15.9836   1
  -5  -4  10 81.7163 17.3943   1
  -5  -4   9 7.50941 12.8883   1
  -5  -4   9 6.62698 11.7473   1
  -5  -4   8 13.4915 10.3235   1
  -5  -4   8-6.00441 11.8416   1
  -5  -4   7-0.86729 9.60861   1
  -5  -4   7 0.96288 2.95579   2
  -5  -4   7 4.68679 11.0398   1
  -5  -4   6 19.9980 10.4690   1
  -5  -4   6 7.18636 4.69415   2
  -5  -4   6 16.8809 10.5240   1
  -5  -4   5-5.55337 9.37183   1
  -5  -4   5 1.79972 5.34194   2
  -5  -4   4 3.84455 8.93473   1
   5   4  -4 5.78514 9.02444   1
  -5  -4   4 19.7167 6.69749   2
  -5  -4   3 5.31679 8.63872   1
   5   4  -3 6.19623 9.09621   1
  -5  -4   3 2.09917 6.05183   2
  -5  -4   2 24.0979 7.84700   2
   5   4  -2 17.9212 10.0910   1
  -5  -4   2 24.7146 9.82885   1
  -5  -4   1 38.9469 9.16291   2
   5   4  -1 19.9530 10.3932   1
  -5  -4   1 20.6018 9.70033   1
   5   4   0 17.6516 9.87364   1
  -5  -4   0 8.45086 8.53686   2
  -5  -4   0 29.3832 10.2335   1
  -5  -4  -1 46.5047 11.0243   2
  -5  -4  -1 36.9692 11.0676   1
   5   4   1 38.7709 11.5071   1
  -5  -4  -2 49.5764 11.4626   2
  -5  -4  -2 14.5445 10.9403   1
   5   4   2 29.7295 11.2642   1
  -5  -4  -3 22.8739 12.2494   1
  -5  -4  -3 4.94282 11.7458   2
   5   4   3-2.14409 10.6024   1
  -5  -4  -4 109.922 17.2204   2
  -5  -4  -4 90.6474 15.5517   1
   5   4   4 129.264 16.1767   1
  -5  -4  -5-0.73415 12.5384   1
  -5  -4  -5-27.4303 16.0902   2
   5   4   5 9.40719 13.4465   1
  -5  -5  12 35.2975 11.7364   1
  -5  -5  12 30.3386 10.6541   1
  -5  -5  11-2.51373 15.1723   1
  -5  -5  11-5.44658 13.5000   1
  -5  -5  10 85.2753 16.9032   1
  -5  -5  10 57.8652 14.5393   1
  -5  -5   9 3.13604 11.1823   1
  -5  -5   9 3.34757 13.1650   1
  -5  -5   8 2.57685 11.2425   1
  -5  -5   8 0.39634 4.25415   2
  -5  -5   8-7.07655 12.3050   1
  -5  -5   7 11.5146 11.2900   1
  -5  -5   7 15.7325 5.93791   2
  -5  -5   7 6.55364 12.6789   1
  -5  -5   6 5.30667 10.1300   1
  -5  -5   6 10.6847 6.04310   2
   5   5  -6 24.1263 11.4384   1
  -5  -5   5 29.8852 11.0943   1
  -5  -5   5 6.25672 6.77481   2
   5   5  -5 1.32387 10.1066   1
   5   5  -4 7.86064 9.95589   1
  -5  -5   4-3.60473 7.09281   2
  -5  -5   4-10.7968 10.6660   1
  -5  -5   3 22.7062 8.19688   2
   5   5  -3 26.9031 10.8334   1
  -5  -5   3 29.5981 11.2770   1
   5   5  -2 6.31776 10.4862   1
  -5  -5   2 8.00956 8.36809   2
  -5  -5   2 5.29414 9.74937   1
  -5  -5   1 107.947 12.6291   2
  -5  -5   1 73.9141 13.4574   1
   5   5  -1 97.2286 14.6019   1
  -5  -5   0-2.21359 9.57068   2
  -5  -5   0 1.89752 10.5589   1
   5   5   0 24.7352 11.8854   1
  -5  -5  -1 119.454 16.8436   1
   5   5   1 58.5196 14.3356   1
  -5  -5  -2 8.36240 12.2447   1
  -5  -5  -2 13.2404 11.3590   2
   5   5   2 9.95534 11.9552   1
  -5  -5  -3-20.5806 14.7558   1
  -5  -5  -3 10.2694 12.9042   2
   5   5   3 7.89864 13.3041   1
  -5  -5  -4 22.7264 14.4771   1
   5   5   4 18.7660 13.7848   1
  -5  -5  -4 7.01692 13.7952   2
  -5  -6  11 8.77399 11.5101   1
  -5  -6  11 80.6600 14.3998   1
  -5  -6  10 14.8001 15.8391   1
  -5  -6  10 9.71663 4.34373   2
  -5  -6  10-14.4164 15.8231   1
  -5  -6   9 4.92529 13.0844   1
  -5  -6   9-3.71247 6.27948   2
  -5  -6   9 3.93904 16.0267   1
  -5  -6   8-10.6116 12.1461   1
  -5  -6   8 7.89191 6.95471   2
  -5  -6   8-28.0074 15.4871   1
  -5  -6   7 11.8690 13.2192   1
   5   6  -7 21.0948 13.4836   1
  -5  -6   7 1.77284 7.30977   2
  -5  -6   6 15.2456 8.47947   2
   5   6  -6 11.8904 12.3674   1
  -5  -6   6-11.4337 11.3740   1
   5   6  -5 12.8172 12.2589   1
  -5  -6   5 19.2250 9.05602   2
  -5  -6   5 14.9281 12.2762   1
  -5  -6   4 4.78994 8.87901   2
   5   6  -4-2.13214 11.7137   1
  -5  -6   4 5.64714 11.7623   1
  -5  -6   3 32.6660 11.2627   2
  -5  -6   3 23.5438 13.1425   1
  -5  -6   2 131.406 15.1950   2
  -5  -6   2 120.296 17.5081   1
   5   6  -2 139.706 18.3267   1
  -5  -6   1-16.5626 11.2243   2
  -5  -6   1-7.68481 12.2257   1
   5   6  -1-10.7651 12.4769   1
  -5  -6   0 87.3266 15.4337   2
  -5  -6   0 79.6705 15.9663   1
  -5  -6  -1 8.57646 13.6799   1
  -5  -6  -1 29.1271 12.2529   2
   5   6   1-7.08120 13.2888   1
  -5  -6  -2-11.6522 14.2136   1
   5   6   2-8.85435 15.6477   1
  -5  -6  -2-12.1846 13.0209   2
  -5  -7   9 41.0870 9.75177   2
  -5  -7   9 14.3880 16.0514   1
  -5  -7   9 15.6664 14.6556   1
   5   7  -8 115.315 20.0629   1
  -5  -7   8 59.2696 10.5141   2
  -5  -7   8 110.118 19.3416   1
   5   7  -7 16.9531 14.4436   1
  -5  -7   7-4.52760 10.2511   2
  -5  -7   7 18.8916 14.4381   1
   5   7  -6 28.4770 14.7400   1
  -5  -7   6 50.5397 11.2298   2
  -5  -7   6 17.7423 14.3286   1
  -5  -7   5 39.4023 11.5429   2
   5   7  -5 27.5680 14.4127   1
  -5  -7   5 56.2779 16.3186   1
   5   7  -4-15.0688 15.0881   1
  -5  -7   4 5.32287 11.1147   2
  -5  -7   3 38.4605 12.1073   2
  -5  -7   3 16.3657 15.4078   1
  -5  -7   2 12.6171 16.0904   1
  -5  -7   2 28.6448 11.9362   2
   5   7  -2-7.79649 14.5967   1
  -5  -7   1 55.2593 16.3643   1
  -5  -7   1 31.2449 14.4644   2
  -6   6   1-1.49068 9.94763   1
  -6   6   1 1.51324 10.8567   1
  -6   6   0 1.14347 10.2587   2
  -6   6   0 9.03145 12.8239   1
  -6   6   0-5.23559 12.1794   1
  -6   6  -1-3.37366 11.0506   1
  -6   6  -1 2.16527 11.2177   2
  -6   6  -1 26.4270 12.4071   1
  -6   6  -2 36.2850 11.0271   1
  -6   6  -2 20.2532 11.7350   2
  -6   6  -2-5.07483 9.83950   1
  -6   6  -3 27.6943 6.85266   1
  -6   6  -3 28.0613 6.72393   1
  -6   5   4 18.0256 2.75157   2
  -6   5   4 19.5571 14.7903   1
  -6   5   4 1.34360 13.1673   1
  -6   5   3 17.5803 13.9882   1
  -6   5   3 1.32035 6.03933   2
  -6   5   3 2.50116 13.1610   1
  -6   5   2-7.85766 8.28825   2
  -6   5   2-6.14365 12.9661   1
  -6   5   2-1.53291 11.7105   1
  -6   5   1 28.3679 8.78016   2
  -6   5   1 11.3267 11.0090   1
  -6   5   1 12.9512 11.1939   1
  -6   5   0 0.95380 10.1802   1
  -6   5   0 9.15158 9.11146   2
  -6   5   0-0.78497 10.8530   1
  -6   5  -1 2.07126 10.0430   1
  -6   5  -1-3.83570 10.5061   2
  -6   5  -1 15.8664 10.0948   1
  -6   5  -2-5.95247 10.0343   2
  -6   5  -2-0.54424 9.94096   1
  -6   5  -2 2.73861 9.32438   1
  -6   5  -3 0.54584 8.56390   1
  -6   5  -3 10.1219 11.3000   2
  -6   5  -3 4.70222 9.33902   1
  -6   5  -4 24.1769 8.72490   1
  -6   5  -4 37.1675 14.3118   2
  -6   5  -4 19.4834 8.89615   1
  -6   5  -5 28.5706 4.84868   1
  -6   5  -5 29.5370 10.3774   2
  -6   5  -5 26.2429 4.44284   1
  -6   4   6-11.6374 12.7735   1
  -6   4   6-11.7799 12.2635   1
  -6   4   5 6.14207 15.0791   1
  -6   4   5 71.2486 17.1774   1
  -6   4   4-15.6737 14.3631   1
  -6   4   4 16.7542 13.0298   1
  -6   4   3-5.11659 4.21846   2
  -6   4   3 3.94864 12.1412   1
  -6   4   3 1.57472 11.7825   1
  -6   4   2 34.1662 7.61181   2
  -6   4   2 29.7894 11.8019   1
  -6   4   2 42.3085 11.7588   1
  -6   4   1 4.05128 9.99123   1
  -6   4   1-2.56010 10.0939   1
  -6   4   1 2.21490 7.56258   2
  -6   4   0 25.8650 10.6269   1
  -6   4   0 22.8203 10.4678   1
  -6   4   0 25.8330 8.72035   2
  -6   4  -1-3.23693 9.19024   1
  -6   4  -1 24.8471 9.45024   2
  -6   4  -1 6.58216 8.92018   1
  -6   4  -2-5.57266 9.63389   1
  -6   4  -2 8.24211 9.72073   2
  -6   4  -2-0.67593 8.80799   1
  -6   4  -3 2.96349 8.71615   1
  -6   4  -3 3.93323 8.88817   1
  -6   4  -3 13.1706 10.5998   2
  -6   4  -4-0.53949 8.01094   1
  -6   4  -4 0.68113 8.38966   1
  -6   4  -4-7.87597 12.5304   2
  -6   4  -5 62.2950 15.7989   2
  -6   4  -5 58.2787 8.42647   1
  -6   4  -5 65.2376 8.77116   1
  -6   3   7 11.5716 14.8996   1
  -6   3   7 3.16757 16.2934   1
  -6   3   6-25.2432 14.6079   1
  -6   3   6-14.4511 16.2732   1
  -6   3   5 33.5283 14.2423   1
  -6   3   5 53.0252 13.9598   1
  -6   3   4 38.2111 14.3359   1
  -6   3   4 29.5992 12.1359   1
  -6   3   3 16.3880 12.8600   1
  -6   3   3 5.84916 3.44717   2
  -6   3   3-4.09525 10.6344   1
  -6   3   2 15.9944 11.0362   1
  -6   3   2 8.08049 11.0058   1
  -6   3   2 9.10121 5.94820   2
  -6   3   1 42.6260 11.6829   1
  -6   3   1 34.0835 7.86403   2
  -6   3   1 17.5824 10.7056   1
  -6   3   0 12.4006 10.4879   1
  -6   3   0 10.0954 7.63909   2
  -6   3   0 19.9264 10.2446   1
  -6   3  -1-4.07011 8.89721   1
  -6   3  -1 15.8287 8.95401   2
  -6   3  -1 14.4847 9.92775   1
  -6   3  -2-8.76005 8.38722   1
  -6   3  -2 7.38606 8.11252   1
  -6   3  -2 2.32017 8.94365   2
  -6   3  -3-7.58975 8.52771   1
  -6   3  -3-8.93643 8.43697   1
  -6   3  -3 1.73175 10.0123   2
  -6   3  -4 15.4453 8.66189   1
  -6   3  -4 41.1109 12.2585   2
  -6   3  -4 23.5438 8.05124   1
  -6   3  -5 19.0451 7.94413   1
  -6   3  -5-2.06979 7.36180   1
  -6   3  -5-16.1691 13.0750   2
  -6   3  -6 33.4051 6.71741   1
  -6   3  -6 19.7183 13.8605   2
  -6   3  -6 37.8010 7.08975   1
  -6   2   8 13.3749 17.3993   1
  -6   2   8 59.1942 16.7386   1
  -6   2   7 51.2179 15.9265   1
  -6   2   7 7.90419 14.8775   1
  -6   2   6-8.16586 13.1978   1
  -6   2   6 20.2542 12.4012   1
  -6   2   5-9.94991 12.0160   1
  -6   2   5 6.08670 11.7093   1
  -6   2   4 13.0327 11.8485   1
  -6   2   4 20.6681 12.0170   1
  -6   2   3 7.01689 2.98947   2
  -6   2   3 8.44368 2.93492   2
  -6   2   2 16.5175 9.68655   1
  -6   2   2 9.23182 10.4126   1
  -6   2   2 2.87000 5.23955   2
  -6   2   1-3.12677 9.48287   1
  -6   2   1 11.0756 6.40931   2
  -6   2   1 2.15053 9.36595   1
  -6   2   0 48.8635 8.45689   2
  -6   2   0 57.9247 10.9630   1
  -6   2   0 54.4246 11.7726   1
  -6   2  -1-5.92965 8.85455   1
  -6   2  -1-2.04180 8.62603   1
  -6   2  -1 3.09986 7.91417   2
  -6   2  -2 84.8929 11.9363   2
  -6   2  -2 84.5473 12.6960   1
  -6   2  -2 83.1083 12.0114   1
  -6   2  -3-2.44989 8.54617   1
  -6   2  -3-2.32848 9.49883   2
  -6   2  -3 10.4147 8.50777   1
  -6   2  -4-5.98945 9.24190   1
  -6   2  -4-6.91277 11.5515   2
  -6   2  -4-5.88150 8.61758   1
  -6   2  -5 40.4248 9.71233   1
  -6   2  -5 41.2841 9.02789   1
  -6   2  -5 42.5757 14.2120   2
  -6   2  -6 25.9988 8.83254   1
  -6   2  -6 34.5438 8.70086   1
  -6   2  -6 19.7750 13.5655   2
  -6   1   8-1.56706 15.6352   1
  -6   1   8 3.50993 15.1071   1
  -6   1   7 9.77522 14.2543   1
  -6   1   7-0.08305 13.5290   1
  -6   1   6 35.4742 14.5133   1
  -6   1   6 0.94703 11.7588   1
  -6   1   5-7.85038 11.5822   1
  -6   1   5-2.92873 11.5923   1
  -6   1   4 17.9967 11.8406   1
  -6   1   4 59.5115 13.7595   1
  -6   1   3 89.9710 5.25926   2
  -6   1   3 67.3371 12.7606   1
  -6   1   2 186.217 10.0541   2
  -6   1   2 181.344 10.0636   2
  -6   1   2 175.941 16.4893   1
  -6   1   2 172.972 17.1242   1
  -6   1   1 171.461 11.5828   2
  -6   1   1 157.695 10.8887   2
  -6   1   1 182.022 16.6266   1
  -6   1   0 14.7063 10.2388   1
  -6   1   0 9.00316 9.68816   1
  -6   1   0 5.42479 6.95963   2
  -6   1  -1-10.1912 9.17358   1
  -6   1  -1-1.44723 8.61347   1
  -6   1  -1-0.73556 7.76545   2
  -6   1  -2-1.11321 8.76283   1
  -6   1  -2 5.75165 9.95553   1
  -6   1  -2 19.9524 9.57247   2
  -6   1  -3 4.72016 9.10997   1
  -6   1  -3 9.34594 10.2499   2
  -6   1  -4 6.57481 9.80270   1
  -6   1  -4-3.21442 9.00520   1
  -6   1  -4 16.1436 10.4773   2
  -6   1  -5-10.8267 9.98750   1
  -6   1  -5-16.6144 9.81548   1
  -6   1  -6-22.2554 12.8893   2
  -6   1  -6 37.8547 8.52550   1
  -6   0   9-3.92573 15.4616   1
  -6   0   9 19.2971 16.1152   1
  -6   0   8 7.35022 14.8562   1
  -6   0   8-4.33075 15.0150   1
  -6   0   7 2.97001 12.7671   1
  -6   0   7-0.51802 13.7188   1
  -6   0   6 19.7630 13.5157   1
  -6   0   6 19.4628 13.8013   1
  -6   0   5-14.7312 12.9676   1
  -6   0   5 19.6358 12.1074   1
  -6   0   4 88.4779 14.7716   1
  -6   0   4 131.135 16.3537   1
  -6   0   3 6.15006 3.83274   2
  -6   0   3 1.53575 3.90692   2
  -6   0   3 14.9537 10.9080   1
  -6   0   2 62.8228 7.55872   2
  -6   0   2 93.0848 13.8033   1
  -6   0   2 78.8134 7.95483   2
  -6   0   2 74.2856 13.4274   1
  -6   0   1 109.272 14.5605   1
  -6   0   1 100.306 9.72672   2
  -6   0   1 111.657 10.3584   2
  -6   0   1 110.843 14.9814   1
  -6   0   0 2.35638 10.1915   1
  -6   0   0 11.0514 7.44844   2
  -6   0   0 10.3397 9.82095   1
  -6   0   0 18.9618 7.73327   2
  -6   0  -1 21.7585 11.1392   1
  -6   0  -1 18.0796 10.6568   1
  -6   0  -1 7.59274 8.69122   2
  -6   0  -1 6.73591 8.80104   2
  -6   0  -2 10.2424 10.3959   1
  -6   0  -2 6.47029 9.43548   2
  -6   0  -2-5.91257 8.59093   2
  -6   0  -2-6.10627 9.25116   1
  -6   0  -3 30.6263 10.4759   1
  -6   0  -3 31.1390 11.2496   2
  -6   0  -3 13.8261 10.9573   1
  -6   0  -4 19.0795 10.3542   1
  -6   0  -4 28.5929 11.9600   2
  -6   0  -4 29.6781 11.0589   1
  -6   0  -5 1.89828 10.3638   1
  -6   0  -5-3.77331 12.9011   2
  -6   0  -5-5.63327 11.4890   1
  -6  -1   9 38.2549 17.6301   1
  -6  -1   9-23.5722 15.9755   1
  -6  -1   8 4.07173 13.7816   1
  -6  -1   8 46.3439 15.3850   1
  -6  -1   7-15.4404 12.8206   1
  -6  -1   7-10.9290 12.5738   1
  -6  -1   6 11.0290 14.0843   1
  -6  -1   6 8.43777 11.8638   1
  -6  -1   5 44.8687 14.1242   1
  -6  -1   5 46.5870 13.5716   1
  -6  -1   4 21.6167 12.8737   1
  -6  -1   4 13.3736 2.39534   2
  -6  -1   4 13.3501 2.39913   2
  -6  -1   4-0.65842 10.7678   1
  -6  -1   3 20.6987 12.1565   1
  -6  -1   3 18.4311 5.55571   2
  -6  -1   3 19.9633 5.43441   2
  -6  -1   3 12.3497 11.0483   1
  -6  -1   2 18.5390 12.0602   1
  -6  -1   2 10.6656 6.66149   2
  -6  -1   2 8.33184 10.5984   1
  -6  -1   2 13.8191 6.23792   2
  -6  -1   1 6.53205 10.3392   1
  -6  -1   1 7.66934 6.92839   2
  -6  -1   1 6.11975 7.27103   2
  -6  -1   0 71.9109 10.8318   2
  -6  -1   0 49.8550 9.85208   2
  -6  -1   0 73.3737 13.4560   1
  -6  -1  -1 11.7753 9.36104   2
  -6  -1  -1 19.2288 9.19269   2
  -6  -1  -1-1.12563 10.2117   1
  -6  -1  -1 14.8104 11.8339   1
  -6  -1  -2 14.1213 9.84256   2
  -6  -1  -2-1.03686 10.0594   1
  -6  -1  -2 3.36936 9.39585   2
  -6  -1  -2-7.61961 10.8877   1
  -6  -1  -3 26.0119 11.7819   2
  -6  -1  -3 31.6182 11.4828   1
  -6  -1  -3 40.0920 11.8789   2
  -6  -1  -3 44.3968 12.4512   1
  -6  -1  -4 21.3758 14.0885   2
  -6  -1  -4-1.18422 11.3239   1
  -6  -1  -4 8.59815 11.7736   2
  -6  -1  -4 38.7785 13.4266   1
  -6  -1  -5 4.10358 5.68375   1
  -6  -1  -5 18.8416 9.14038   2
  -6  -1  -5 11.1104 8.21141   2
  -6  -1  -5 11.8547 6.84665   1
  -6  -2   9-23.4902 17.5963   1
  -6  -2   9 23.8402 17.3085   1
  -6  -2   8 40.6745 15.1612   1
  -6  -2   8 22.6782 14.2621   1
  -6  -2   7 7.81321 13.6015   1
  -6  -2   7-5.11519 13.0795   1
  -6  -2   6-15.6304 12.7489   1
  -6  -2   6 0.64544 12.4219   1
  -6  -2   5-2.66480 12.7998   1
  -6  -2   5-1.55246 11.6612   1
  -6  -2   4 70.9938 14.3450   1
  -6  -2   4 85.8724 6.98383   2
  -6  -2   4 88.7795 6.78764   2
  -6  -2   4 81.5018 16.2795   1
  -6  -2   3 1.31077 10.8472   1
  -6  -2   3 9.21290 6.18223   2
  -6  -2   3 3.49444 6.16652   2
  -6  -2   3-6.28847 12.1200   1
  -6  -2   2-2.78175 10.4858   1
  -6  -2   2 9.49566 7.36737   2
  -6  -2   2 6.01273 7.30469   2
  -6  -2   2 17.1732 12.8859   1
  -6  -2   1 6.41732 11.0172   1
  -6  -2   1 17.2649 8.82340   2
  -6  -2   1 11.0994 8.27564   2
  -6  -2   1-3.00854 11.9773   1
  -6  -2   0 7.13104 9.51991   2
  -6  -2   0 18.4022 11.5922   1
  -6  -2   0 21.4707 13.2033   1
  -6  -2  -1 17.9364 10.5275   2
  -6  -2  -1-5.52008 10.4144   1
  -6  -2  -2 42.5968 12.0030   2
  -6  -2  -2 41.3703 12.5066   1
   6   2   3 1.06633 13.0564   1
  -6  -2  -3 6.09467 12.7188   2
  -6  -2  -3 33.9105 13.7504   1
  -6  -2  -4 5.12921 8.12957   1
  -6  -2  -4 14.9333 10.2356   2
   6   2   4 21.4644 8.91831   1
  -6  -3   9-4.70532 15.5893   1
  -6  -3   9-24.9137 15.2909   1
  -6  -3   8-12.7965 14.5298   1
  -6  -3   8 46.2095 17.5388   1
  -6  -3   7-8.07983 15.2983   1
  -6  -3   7-17.3757 15.5348   1
  -6  -3   6 3.13502 14.8488   1
  -6  -3   6 0.24758 13.2668   1
  -6  -3   5 6.42039 12.6470   1
  -6  -3   5-2.27504 4.10061   2
  -6  -3   5 1.38010 3.89503   2
  -6  -3   4 8.23853 12.1493   1
  -6  -3   4-2.50112 6.17558   2
  -6  -3   4-0.32580 5.95884   2
  -6  -3   4 14.6055 13.5364   1
  -6  -3   3 5.53620 11.9854   1
  -6  -3   3 30.0334 8.45997   2
  -6  -3   3 15.5528 13.3818   1
  -6  -3   2 50.6116 10.2873   2
  -6  -3   2 63.4784 15.7311   1
  -6  -3   2 22.9916 13.1674   1
  -6  -3   1 26.0968 10.1177   2
  -6  -3   1 11.9808 12.6157   1
  -6  -3   0 60.6573 12.2616   2
   6   3   0 65.3416 14.3563   1
  -6  -3   0 58.3688 13.9598   1
   6   3   1 25.0490 12.5403   1
  -6  -3  -1 21.0410 11.1778   2
  -6  -3  -1-9.22789 13.6708   1
  -6  -3  -2 101.792 16.3717   2
   6   3   2 78.6046 15.8454   1
  -6  -3  -2 114.855 18.1108   1
  -6  -4   8 22.8447 16.8529   1
  -6  -4   8 3.90806 14.5225   1
  -6  -4   7 65.5522 17.4866   1
  -6  -4   7 32.2677 17.2385   1
  -6  -4   6 7.16407 15.2730   1
  -6  -4   6 9.23456 4.52533   2
  -6  -4   6 1.01806 3.93941   2
  -6  -4   6 10.6177 16.0318   1
  -6  -4   5-16.0667 14.5424   1
  -6  -4   5-8.87182 7.31248   2
  -6  -4   5-20.1858 16.9488   1
  -6  -4   4 36.6693 13.4952   1
  -6  -4   4 0.80993 8.03811   2
  -6  -4   4 6.97443 15.0584   1
  -6  -4   3-5.68416 9.78274   2
  -6  -4   3 2.85888 14.1512   1
  -6  -4   2 43.6159 10.8170   2
  -6  -4   2 31.2995 13.7225   1
   6   4  -1 31.9917 15.3496   1
  -6  -4   1 9.78889 10.8052   2
  -6  -4   1 27.8051 13.8208   1
  -6  -4   0 118.813 15.3901   2
  -6  -4   0 55.7510 15.5646   1
  -6  -4  -1 10.7128 9.37455   2
  -6  -4  -1 36.7149 11.5562   1
   6   4   1 33.4468 11.8191   1
  -6  -5   6 29.6764 7.96447   2
  -6  -5   6 55.3710 17.8081   1
  -6  -5   5-2.99155 8.54623   2
  -6  -5   5 14.3625 15.7917   1
  -6  -5   4-13.6859 9.39830   2
   6   5  -4-0.08912 14.6211   1
  -6  -5   4-19.5111 14.9086   1
  -6  -5   3 0.67498 10.7271   2
   6   5  -3-26.1569 16.0807   1
  -6  -5   3-18.1860 15.6008   1
  -6  -5   2 11.8266 9.67198   2
   6   5  -2-13.0127 12.5993   1
  -6  -5   2-0.95493 11.2171   1
   0   0   0    0.00    0.00   0
TITL 175_c in P-1
REM P-1 (#2 in standard setting)
CELL 0.71073   4.908940   8.574202  11.989641 108.4111  96.8130  92.5014
ZERR    2.00   0.000464   0.000666   0.001046   0.0076   0.0079   0.0070
LATT  1
SFAC C H N O
UNIT 14.00 26.00 2.00 16.00
TREF
HKLF 4
END
;
_shelx_hkl_checksum              32433
_shelx_res_file
;
TITL 175_III in P-1
    175_c.res
    created by SHELXL-2018/3 at 12:38:01 on 16-Jan-2019
REM P-1 (#2 in standard setting)
CELL 0.71073 4.90894 8.574202 11.989641 108.4111 96.813 92.5014
ZERR 2 0.000464 0.000666 0.001046 0.0076 0.0079 0.007
LATT 1
SFAC C H N O
UNIT 14 26 2 16
EQIV $1 -X,1-Y,-Z
EQIV $2 1+X,+Y,+Z
EQIV $3 2-X,2-Y,1-Z
EQIV $4 +X,-1+Y,+Z
EQIV $5 1-X,1-Y,-Z
EQIV $6 -1+X,-1+Y,+Z
EQIV $7 1-X,2-Y,-Z
EQIV $8 1-X,2-Y,1-Z
L.S. 20
PLAN  10
SIZE 0.034 0.071 0.4338
TEMP -98.15
HTAB O4 O3_$2
HTAB O1 O7_$3
HTAB N1 O5_$1
HTAB N1 O2_$4
HTAB N1 O4_$5
HTAB N1 O5_$5
HTAB N1 O2_$6
HTAB O3 O4_$7
HTAB O6 O6_$1
HTAB O8 O8_$8
BOND $H
BOND
CONF
fmap 2
acta
SHEL 40 0.8
REM <olex2.extras>
REM <HklSrc "%.\\175_c.hkl">
REM </olex2.extras>
WGHT    0.042200    0.146500
FVAR       0.80354
O3    4    0.263503    0.990682    0.133036    11.00000    0.01374    0.02071 =
         0.02071    0.00916    0.00119    0.00200
O6    4    0.190807    0.594919    0.066646    11.00000    0.01537    0.02119 =
         0.01852    0.00627    0.00016   -0.00737
AFIX 147
H6    2    0.063150    0.533904    0.017151    10.50000   -1.20000
AFIX   0
O4    4    0.744531    0.845888    0.027936    11.00000    0.01211    0.02225 =
         0.02114    0.00663    0.00395   -0.00487
AFIX 147
H4    2    0.905534    0.874022    0.063904    11.00000   -1.20000
AFIX   0
O1    4    0.880728    0.974391    0.318922    11.00000    0.01450    0.01735 =
         0.02179    0.00363   -0.00433   -0.00203
AFIX 147
H1    2    1.000864    1.048074    0.362470    11.00000   -1.20000
AFIX   0
O5    4    0.325874    0.633559   -0.095219    11.00000    0.01621    0.02814 =
         0.01734    0.00509    0.00156   -0.00309
O8    4    0.430598    0.854774    0.441985    11.00000    0.02372    0.01471 =
         0.02236    0.00418    0.00008    0.00146
AFIX 147
H8    2    0.504094    0.950511    0.478585    10.50000   -1.20000
AFIX   0
O2    4    0.693899    1.186729    0.276561    11.00000    0.02185    0.01603 =
         0.03888    0.00784   -0.00456   -0.00256
C3    1    0.584923    0.777546    0.095893    11.00000    0.01182    0.01429 =
         0.01356    0.00590    0.00055   -0.00157
AFIX  13
H3A   2    0.704352    0.715234    0.137197    11.00000   -1.20000
AFIX   0
C2    1    0.464015    0.914328    0.188350    11.00000    0.01093    0.01526 =
         0.01761    0.00722    0.00115   -0.00074
AFIX  13
H2    2    0.372107    0.863171    0.239999    11.00000   -1.20000
AFIX   0
N1    3    0.203972    0.362706    0.232800    11.00000    0.01324    0.01727 =
         0.02101    0.00259    0.00007   -0.00115
AFIX 137
H1A   2    0.316936    0.362532    0.177827    11.00000   -1.50000
H1B   2    0.026222    0.339631    0.196853    11.00000   -1.50000
H1C   2    0.249889    0.284875    0.266983    11.00000   -1.50000
AFIX   0
O7    4    0.769932    0.777264    0.550163    11.00000    0.02755    0.02061 =
         0.02997    0.00484   -0.01155   -0.00491
C5    1    0.585385    0.749443    0.464528    11.00000    0.01128    0.01982 =
         0.01763    0.00850    0.00236   -0.00235
C1    1    0.690598    1.042092    0.266552    11.00000    0.01308    0.01721 =
         0.01638    0.00411    0.00585    0.00101
C4    1    0.351156    0.659932    0.012358    11.00000    0.01249    0.01274 =
         0.01949    0.00475    0.00622    0.00471
C7    1    0.234771    0.527705    0.325414    11.00000    0.01566    0.01447 =
         0.01746    0.00018    0.00284    0.00199
AFIX  23
H7A   2    0.129818    0.524258    0.390314    11.00000   -1.20000
H7B   2    0.158799    0.609929    0.290751    11.00000   -1.20000
AFIX   0
C6    1    0.535166    0.578621    0.374783    11.00000    0.01367    0.01596 =
         0.01929    0.00394    0.00377    0.00178
AFIX  23
H6A   2    0.606460    0.498438    0.412541    11.00000   -1.20000
H6B   2    0.640105    0.573881    0.308354    11.00000   -1.20000
AFIX   0
H3    2    0.323537    1.028910    0.090306    11.00000    0.04616
HKLF 4
REM  175_III in P-1
REM wR2 = 0.1028, GooF = S = 1.012, Restrained GooF = 1.012 for all data
REM R1 = 0.0466 for 1332 Fo > 4sig(Fo) and 0.0826 for all 1931 data
REM 154 parameters refined using 0 restraints
END
WGHT      0.0422      0.1465
REM Highest difference peak  0.236,  deepest hole -0.296,  1-sigma level  0.062
Q1    1   0.5190  0.8470  0.1381  11.00000  0.05    0.24
Q2    1   0.7047  0.7462 -0.0221  11.00000  0.05    0.22
Q3    1   0.0815  0.9756  0.1157  11.00000  0.05    0.21
Q4    1   0.5219  0.6612  0.4166  11.00000  0.05    0.21
Q5    1   0.5088  0.7028  0.0564  11.00000  0.05    0.21
Q6    1   0.4255  0.8926  0.2382  11.00000  0.05    0.21
Q7    1   0.8842  0.8540  0.5814  11.00000  0.05    0.21
Q8    1   1.0000  1.0000  0.0000  10.50000  0.05    0.21
Q9    1   0.5085  0.5134 -0.1377  11.00000  0.05    0.20
Q10   1   0.8102  0.7412  0.5831  11.00000  0.05    0.20
;
_shelx_res_checksum              88173
loop_
_space_group_symop_operation_xyz
'x, y, z'
'-x, -y, -z'
loop_
_atom_site_type_symbol
_atom_site_label
_atom_site_fract_x
_atom_site_fract_y
_atom_site_fract_z
_atom_site_U_iso_or_equiv
_atom_site_adp_type
_atom_site_calc_flag
_atom_site_occupancy
O O3 0.2635(3) 0.9907(2) 0.13304(15) 0.0179(4) Uani d 1
O O6 0.1908(3) 0.5949(2) 0.06665(14) 0.0189(4) Uani d 1
H H6 0.063150 0.533904 0.017151 0.023 Uiso calc 0.5
O O4 0.7445(3) 0.84589(19) 0.02794(14) 0.0187(4) Uani d 1
H H4 0.905534 0.874022 0.063904 0.022 Uiso calc 1
O O1 0.8807(3) 0.97439(19) 0.31892(14) 0.0192(4) Uani d 1
H H1 1.000864 1.048074 0.362470 0.023 Uiso calc 1
O O5 0.3259(3) 0.6336(2) -0.09522(14) 0.0213(4) Uani d 1
O O8 0.4306(3) 0.85477(19) 0.44199(15) 0.0210(4) Uani d 1
H H8 0.504094 0.950511 0.478585 0.025 Uiso calc 0.5
O O2 0.6939(3) 1.1867(2) 0.27656(16) 0.0267(4) Uani d 1
C C3 0.5849(4) 0.7775(3) 0.09589(19) 0.0131(5) Uani d 1
H H3A 0.704352 0.715234 0.137197 0.016 Uiso calc 1
C C2 0.4640(4) 0.9143(3) 0.1884(2) 0.0143(5) Uani d 1
H H2 0.372107 0.863171 0.239999 0.017 Uiso calc 1
N N1 0.2040(4) 0.3627(2) 0.23280(17) 0.0183(4) Uani d 1
H H1A 0.316936 0.362532 0.177827 0.027 Uiso calc 1
H H1B 0.026222 0.339631 0.196853 0.027 Uiso calc 1
H H1C 0.249889 0.284875 0.266983 0.027 Uiso calc 1
O O7 0.7699(4) 0.7773(2) 0.55016(16) 0.0284(4) Uani d 1
C C5 0.5854(5) 0.7494(3) 0.4645(2) 0.0158(5) Uani d 1
C C1 0.6906(4) 1.0421(3) 0.2666(2) 0.0156(5) Uani d 1
C C4 0.3512(4) 0.6599(3) 0.0124(2) 0.0146(5) Uani d 1
C C7 0.2348(5) 0.5277(3) 0.3254(2) 0.0170(5) Uani d 1
H H7A 0.129818 0.524258 0.390314 0.020 Uiso calc 1
H H7B 0.158799 0.609929 0.290751 0.020 Uiso calc 1
C C6 0.5352(4) 0.5786(3) 0.3748(2) 0.0166(5) Uani d 1
H H6A 0.606460 0.498438 0.412541 0.020 Uiso calc 1
H H6B 0.640105 0.573881 0.308354 0.020 Uiso calc 1
H H3 0.324(6) 1.029(4) 0.090(3) 0.046(10) Uiso d 1
loop_
_atom_site_aniso_label
_atom_site_aniso_U_11
_atom_site_aniso_U_22
_atom_site_aniso_U_33
_atom_site_aniso_U_12
_atom_site_aniso_U_13
_atom_site_aniso_U_23
O3 0.0137(8) 0.0207(9) 0.0207(10) 0.0020(7) 0.0012(8) 0.0092(8)
O6 0.0154(8) 0.0212(9) 0.0185(9) -0.0074(7) 0.0002(7) 0.0063(7)
O4 0.0121(8) 0.0223(9) 0.0211(9) -0.0049(7) 0.0040(7) 0.0066(8)
O1 0.0145(8) 0.0173(9) 0.0218(9) -0.0020(7) -0.0043(7) 0.0036(7)
O5 0.0162(9) 0.0281(10) 0.0173(9) -0.0031(7) 0.0016(7) 0.0051(8)
O8 0.0237(9) 0.0147(9) 0.0224(10) 0.0015(7) 0.0001(8) 0.0042(8)
O2 0.0219(9) 0.0160(9) 0.0389(11) -0.0026(7) -0.0046(8) 0.0078(8)
C3 0.0118(11) 0.0143(12) 0.0136(12) -0.0016(9) 0.0005(10) 0.0059(10)
C2 0.0109(11) 0.0153(12) 0.0176(12) -0.0007(9) 0.0012(10) 0.0072(10)
N1 0.0132(10) 0.0173(11) 0.0210(11) -0.0011(8) 0.0001(9) 0.0026(9)
O7 0.0276(10) 0.0206(10) 0.0300(10) -0.0049(8) -0.0116(9) 0.0048(8)
C5 0.0113(11) 0.0198(13) 0.0176(13) -0.0024(10) 0.0024(10) 0.0085(10)
C1 0.0131(12) 0.0172(13) 0.0164(12) 0.0010(9) 0.0058(10) 0.0041(10)
C4 0.0125(11) 0.0127(12) 0.0195(13) 0.0047(9) 0.0062(10) 0.0048(10)
C7 0.0157(12) 0.0145(12) 0.0175(13) 0.0020(9) 0.0028(10) 0.0002(10)
C6 0.0137(12) 0.0160(12) 0.0193(13) 0.0018(9) 0.0038(10) 0.0039(10)
loop_
_atom_type_symbol
_atom_type_description
_atom_type_scat_dispersion_real
_atom_type_scat_dispersion_imag
_atom_type_scat_source
C C 0.0033 0.0016 'International Tables Vol C Tables 4.2.6.8 and 6.1.1.4'
H H 0.0000 0.0000 'International Tables Vol C Tables 4.2.6.8 and 6.1.1.4'
N N 0.0061 0.0033 'International Tables Vol C Tables 4.2.6.8 and 6.1.1.4'
O O 0.0106 0.0060 'International Tables Vol C Tables 4.2.6.8 and 6.1.1.4'
loop_
_exptl_crystal_face_index_h
_exptl_crystal_face_index_k
_exptl_crystal_face_index_l
_exptl_crystal_face_perp_dist
0 5 1 0.0120
0 -5 -1 0.0220
3 -1 1 0.2160
-7 3 -2 0.1830
0 1 -3 0.0290
0 -1 3 0.0420
loop_
_geom_angle_atom_site_label_1
_geom_angle_atom_site_label_2
_geom_angle_atom_site_label_3
_geom_angle
C2 O3 H3 112(2)
C4 O6 H6 109.5
C3 O4 H4 109.5
C1 O1 H1 109.5
C5 O8 H8 109.5
O4 C3 H3A 109.3
O4 C3 C2 110.60(17)
O4 C3 C4 108.84(18)
C2 C3 H3A 109.3
C4 C3 H3A 109.3
C4 C3 C2 109.35(18)
O3 C2 C3 111.10(18)
O3 C2 H2 108.2
O3 C2 C1 110.38(17)
C3 C2 H2 108.2
C1 C2 C3 110.69(18)
C1 C2 H2 108.2
H1A N1 H1B 109.5
H1A N1 H1C 109.5
H1B N1 H1C 109.5
C7 N1 H1A 109.5
C7 N1 H1B 109.5
C7 N1 H1C 109.5
O8 C5 C6 114.8(2)
O7 C5 O8 125.9(2)
O7 C5 C6 119.31(19)
O1 C1 C2 111.71(18)
O2 C1 O1 125.2(2)
O2 C1 C2 123.1(2)
O6 C4 C3 113.2(2)
O5 C4 O6 125.4(2)
O5 C4 C3 121.3(2)
N1 C7 H7A 109.6
N1 C7 H7B 109.6
N1 C7 C6 110.35(18)
H7A C7 H7B 108.1
C6 C7 H7A 109.6
C6 C7 H7B 109.6
C5 C6 C7 113.60(18)
C5 C6 H6A 108.8
C5 C6 H6B 108.8
C7 C6 H6A 108.8
C7 C6 H6B 108.8
H6A C6 H6B 107.7
loop_
_geom_bond_atom_site_label_1
_geom_bond_atom_site_label_2
_geom_bond_distance
O3 C2 1.419(3)
O3 H3 0.77(3)
O6 H6 0.8400
O6 C4 1.291(3)
O4 H4 0.8400
O4 C3 1.426(2)
O1 H1 0.8400
O1 C1 1.319(3)
O5 C4 1.227(3)
O8 H8 0.8400
O8 C5 1.277(3)
O2 C1 1.207(3)
C3 H3A 1.0000
C3 C2 1.534(3)
C3 C4 1.525(3)
C2 H2 1.0000
C2 C1 1.521(3)
N1 H1A 0.9100
N1 H1B 0.9100
N1 H1C 0.9100
N1 C7 1.485(3)
O7 C5 1.240(3)
C5 C6 1.508(3)
C7 H7A 0.9900
C7 H7B 0.9900
C7 C6 1.513(3)
C6 H6A 0.9900
C6 H6B 0.9900
loop_
_geom_hbond_atom_site_label_D
_geom_hbond_atom_site_label_H
_geom_hbond_atom_site_label_A
_geom_hbond_site_symmetry_A
_geom_hbond_distance_DH
_geom_hbond_distance_HA
_geom_hbond_distance_DA
_geom_hbond_angle_DHA
_geom_hbond_publ_flag
O6 H6 O6 2_565 0.84 1.63 2.468(3) 173.0 yes
O4 H4 O3 1_655 0.84 1.94 2.756(2) 164.4 yes
O1 H1 O7 2_776 0.84 1.79 2.621(2) 172.8 yes
O8 H8 O8 2_676 0.84 1.64 2.458(3) 165.6 yes
N1 H1A O4 2_665 0.91 2.52 3.119(2) 123.6 yes
N1 H1A O5 2_665 0.91 2.12 2.996(2) 162.0 yes
N1 H1B O5 2_565 0.91 2.06 2.917(2) 156.8 yes
N1 H1B O2 1_445 0.91 2.50 3.050(3) 119.0 yes
N1 H1C O2 1_545 0.91 2.37 2.975(2) 123.6 yes
O3 H3 O4 2_675 0.77(3) 2.04(3) 2.718(2) 147(3) yes
loop_
_geom_torsion_atom_site_label_1
_geom_torsion_atom_site_label_2
_geom_torsion_atom_site_label_3
_geom_torsion_atom_site_label_4
_geom_torsion
O3 C2 C1 O1 -179.80(18)
O3 C2 C1 O2 -0.9(3)
O4 C3 C2 O3 67.7(2)
O4 C3 C2 C1 -55.3(2)
O4 C3 C4 O6 -178.38(17)
O4 C3 C4 O5 1.6(3)
O8 C5 C6 C7 -37.0(3)
C3 C2 C1 O1 -56.4(2)
C3 C2 C1 O2 122.5(2)
C2 C3 C4 O6 -57.5(2)
C2 C3 C4 O5 122.5(2)
N1 C7 C6 C5 176.67(18)
O7 C5 C6 C7 144.4(2)
C4 C3 C2 O3 -52.1(2)
C4 C3 C2 C1 -175.12(18)

_cod_database_fobs_code 2021495
