#------------------------------------------------------------------------------
#$Date: 2019-02-14 05:36:51 +0200 (Thu, 14 Feb 2019) $
#$Revision: 213640 $
#$URL: file:///home/coder/svn-repositories/cod/cif/2/02/14/2021496.cif $
#------------------------------------------------------------------------------
#
# This file is available in the Crystallography Open Database (COD),
# http://www.crystallography.net/. The original data for this entry
# were provided by IUCr Journals, http://journals.iucr.org/.
#
# The file may be used within the scientific community so long as
# proper attribution is given to the journal article from which the
# data were obtained.
#
data_2021496
loop_
_publ_author_name
'Losev, Evgeniy A.'
'Boldyreva, Elena'
_publ_section_title
;
 Concomitant cocrystal and salt: no interconversion in the solid state
;
_journal_coeditor_code           KU3233
_journal_issue                   3
_journal_name_full               'Acta Crystallographica Section C'
_journal_page_first
;
;
_journal_paper_doi               10.1107/S2053229619001372
_journal_volume                  75
_journal_year                    2019
_chemical_formula_iupac          'C3 H7.5 N O2 +, C4 H5.5 O6 -'
_chemical_formula_moiety         'C3 H7.5 N O2 +, C4 H5.5 O6 -'
_chemical_formula_sum            'C7 H13 N O8'
_chemical_formula_weight         239.18
_chemical_name_common            '\b-Alanine--<i>DL</i>-tartaric acid (1/1)'
_chemical_name_systematic        '\b-Alaninium <i>DL</i>-tartarate'
_space_group_crystal_system      triclinic
_space_group_IT_number           2
_space_group_name_Hall           '-P 1'
_space_group_name_H-M_alt        'P -1'
_symmetry_space_group_name_Hall  '-P 1'
_symmetry_space_group_name_H-M   'P -1'
_atom_sites_solution_hydrogens   mixed
_audit_creation_method
;
Olex2 1.2
(compiled 2018.05.29 svn.r3508 for OlexSys, GUI svn.r5506)
;
_cell_angle_alpha                108.563(8)
_cell_angle_beta                 97.059(8)
_cell_angle_gamma                92.493(7)
_cell_formula_units_Z            2
_cell_length_a                   4.9142(5)
_cell_length_b                   8.5934(7)
_cell_length_c                   12.0281(10)
_cell_measurement_reflns_used    2566
_cell_measurement_temperature    225
_cell_measurement_theta_max      29.5400
_cell_measurement_theta_min      2.5210
_cell_volume                     476.02(8)
_computing_cell_refinement
;
CrysAlis PRO (Agilent, 2014)
;
_computing_data_collection
;
CrysAlis PRO (Agilent, 2014)
;
_computing_data_reduction
;
CrysAlis PRO (Agilent, 2014)
;
_computing_molecular_graphics
;
OLEX2 (Dolomanov <i>et al.</i>,  2009)
;
_computing_publication_material
;
OLEX2 (Dolomanov <i>et al.</i>,  2009)
;
_computing_structure_refinement
;
SHELXL2018 (Sheldrick, 2015b)
;
_computing_structure_solution
;
olex2.solve (Bourhis <i>et al.</i>,  2015)
;
_diffrn_ambient_temperature      225
_diffrn_detector                 'CCD plate'
_diffrn_measured_fraction_theta_full 0.999
_diffrn_measured_fraction_theta_max 0.999
_diffrn_measurement_device_type  'Stoe IPDS'
_diffrn_measurement_method       '\w scans'
_diffrn_radiation_monochromator  graphite
_diffrn_radiation_probe          x-ray
_diffrn_radiation_type           MoK\a
_diffrn_radiation_wavelength     0.71073
_diffrn_reflns_av_R_equivalents  0.0453
_diffrn_reflns_av_unetI/netI     0.0498
_diffrn_reflns_limit_h_max       5
_diffrn_reflns_limit_h_min       -6
_diffrn_reflns_limit_k_max       10
_diffrn_reflns_limit_k_min       -10
_diffrn_reflns_limit_l_max       15
_diffrn_reflns_limit_l_min       -15
_diffrn_reflns_number            5925
_diffrn_reflns_theta_full        25.242
_diffrn_reflns_theta_max         26.372
_diffrn_reflns_theta_min         2.510
_diffrn_source                   'Enhance (Mo) X-ray Source'
_exptl_absorpt_coefficient_mu    0.155
_exptl_absorpt_correction_T_max  0.995
_exptl_absorpt_correction_T_min  0.963
_exptl_absorpt_correction_type   gaussian
_exptl_absorpt_process_details
;
(CrysAlis PRO; Agilent, 2014)
;
_exptl_crystal_colour            colourless
_exptl_crystal_density_diffrn    1.669
_exptl_crystal_description       ' '
_exptl_crystal_F_000             252
_exptl_crystal_size_max          0.4342
_exptl_crystal_size_mid          0.071
_exptl_crystal_size_min          0.034
_refine_diff_density_max         0.234
_refine_diff_density_min         -0.220
_refine_ls_extinction_method     none
_refine_ls_goodness_of_fit_ref   1.007
_refine_ls_hydrogen_treatment    mixed
_refine_ls_matrix_type           full
_refine_ls_number_parameters     154
_refine_ls_number_reflns         1942
_refine_ls_number_restraints     0
_refine_ls_restrained_S_all      1.007
_refine_ls_R_factor_all          0.0670
_refine_ls_R_factor_gt           0.0382
_refine_ls_shift/su_max          0.000
_refine_ls_shift/su_mean         0.000
_refine_ls_structure_factor_coef Fsqd
_refine_ls_weighting_details
'w=1/[\s^2^(Fo^2^)+(0.0338P)^2^+0.1392P] where P=(Fo^2^+2Fc^2^)/3'
_refine_ls_weighting_scheme      calc
_refine_ls_wR_factor_gt          0.0777
_refine_ls_wR_factor_ref         0.0861
_reflns_number_gt                1376
_reflns_number_total             1942
_reflns_threshold_expression     'I > 2\s(I)'
_cod_data_source_file            ku3233sup1.cif
_cod_data_source_block           225_salt_heating
_cod_database_code               2021496
_shelx_space_group_comment
;
The symmetry employed for this shelxl refinement is uniquely defined
by the following loop, which should always be used as a source of
symmetry information in preference to the above space-group names.
They are only intended as comments.
;
_shelx_estimated_absorpt_t_min   0.936
_shelx_estimated_absorpt_t_max   0.995
_shelx_hkl_file
;
   0   0   2 70.3831 2.32232   1
   0   0  -2 68.8021 2.30822   1
   0   0  -3 115.873 3.55108   1
   0   0   3 112.618 3.49443   1
   0   0  -4 58.8165 3.11420   1
   0   0   4 59.3586 3.07642   1
   0   0  -5 275.357 7.01759   1
   0   0   5 285.522 7.00792   1
   0   0  -6 96.6433 4.86245   1
   0   0   6 102.892 4.84398   1
   0   0  -7 52.0989 4.15900   1
   0   0   7 47.7788 3.91386   1
   0   0   8 35.4010 3.91362   1
   0   0  -8 31.0494 3.80434   1
   0   0  -9 110.630 6.73495   1
   0   0   9 112.049 6.55708   1
   0   0  10 10.2203 3.49327   1
   0   0 -10 2.72320 3.28610   1
   0   0  11 54.7503 5.86102   1
   0   0 -11 54.2865 5.94032   1
   0   0 -12-2.85398 4.38044   1
   0   0 -12 0.14233 4.52161   2
   0   0  12 1.47302 4.32119   1
   0   0 -13 12.5390 5.92588   2
   0   0 -13 8.78694 5.73972   1
   0   0  13 4.76131 4.92715   1
   0   0 -14 20.6666 6.83239   1
   0   0 -14 14.0605 7.11178   2
   0   0  14 27.8468 7.22406   1
   0   0 -15 5.44574 8.21599   2
   0   0 -15 20.0808 7.83546   1
   0   0  15-0.90255 7.17382   1
   0  -1  16 0.78391 7.09046   1
   0   1 -16 1.36400 8.71760   2
   0  -1  16 9.92783 7.18702   1
   0  -1  15 9.47269 6.37756   1
   0   1 -15 15.1407 7.62164   2
   0   1 -14 1.52324 6.16804   2
   0  -1  14 7.83823 5.17168   1
   0   1 -14 12.9686 5.91554   1
   0  -1  13 74.6849 7.08262   1
   0   1 -13 77.0942 7.33089   1
   0   1 -13 79.2808 8.33527   2
   0   1 -12 21.2075 5.12737   2
   0  -1  12 25.5650 4.86734   1
   0   1 -12 15.6481 4.75441   1
   0   1 -11 13.6326 4.51863   2
   0   1 -11 16.1190 4.17468   1
   0  -1  11 15.2491 3.77010   1
   0  -1  10 36.3403 4.37846   1
   0   1 -10 36.6458 4.79322   2
   0   1 -10 31.6273 4.35595   1
   0   1  -9 4.11513 2.62101   1
   0   1  -9 1.19991 2.99657   2
   0  -1   9-0.65449 2.24633   1
   0   1  -8 14.0537 3.18992   2
   0   1  -8 15.9671 2.91798   1
   0  -1   8 16.7271 2.72730   1
   0   1  -7 21.1486 3.15475   2
   0   1  -7 19.5012 2.62327   1
   0  -1   7 18.6184 2.55794   1
   0   1  -6 2.27384 2.06854   2
   0  -1   6 6.09436 1.75910   1
   0   1  -6 5.72783 1.78440   1
   0   1  -5 15.9509 2.36863   2
   0  -1   5 13.0759 1.74323   1
   0   1  -5 16.2374 1.98399   1
   0   1  -4 5.62533 1.31671   1
   0   1  -4 5.00005 1.75076   2
   0  -1   4 6.79850 1.38196   1
   0  -1   3 2155.04 12.3102   1
   0  -1   3 2182.97 15.3742   2
   0   1  -3 2209.09 15.4392   2
   0  -1   2 300.209 4.95193   2
   0   1  -2 304.279 3.73523   1
   0  -1   2 290.141 3.68684   1
   0   1  -2 291.942 4.89670   2
   0   1  -1 10.8718 1.14182   2
   0   1  -1 9.51564 0.93370   1
   0  -1   1 10.3976 0.95337   1
   0  -1   1 9.65984 1.26539   2
   0  -1   0 198.871 3.55070   2
   0   1   0 201.742 3.57078   2
   0  -1   0 206.281 3.60737   1
   0   1   0 206.888 3.63877   1
   0  -1  -1 100.325 3.24023   1
   0   1   1 105.829 3.32470   1
   0   1   1 107.073 3.16469   2
   0  -1  -1 107.896 3.17366   2
   0  -1  -2 43.1216 2.50078   2
   0  -1  -2 43.5326 2.66023   1
   0   1   2 45.2367 2.59052   1
   0  -1  -3 246.559 6.26602   1
   0   1   3 236.765 6.13622   1
   0   1   4 145.050 5.43473   1
   0  -1  -4 144.760 5.46952   1
   0  -1  -5 20.8687 2.97214   1
   0   1   5 13.4121 2.58201   1
   0  -1  -6 265.859 8.58781   1
   0   1   6 270.714 8.59813   1
   0   1   7 995.660 17.2343   1
   0  -1  -7 984.088 17.3318   1
   0  -1  -8 0.62639 2.95513   1
   0   1   8-0.12763 2.78562   1
   0   1   9 4.38469 3.37356   1
   0  -1  -9 5.04583 3.56392   1
   0   1  10-0.81419 3.57443   1
   0  -1 -10 2.76754 4.04192   1
   0  -1 -11 15.0500 5.29031   1
   0   1  11 13.8552 4.83908   1
   0   1  12 7.06050 5.33597   1
   0  -1 -12 0.51720 5.10918   1
   0   1  13 17.4981 6.40269   1
   0  -1 -13 11.7583 6.35949   2
   0  -1 -13 10.0154 6.20027   1
   0  -1 -14-1.48698 6.87862   2
   0  -1 -14 22.3855 8.33152   2
   0   1  14-1.60033 6.70888   1
   0  -1 -14 5.80417 7.69299   1
   0  -1 -15 9.05557 8.28537   2
   0  -1 -15-3.64443 9.45313   2
   0  -1 -15 14.4840 9.10213   1
   0   1  15 7.56960 8.31298   1
   0   2 -16 85.5706 11.7965   2
   0  -2  16 80.9009 8.75131   1
   0  -2  16 66.3449 7.83126   1
   0  -2  15 33.9146 6.54003   1
   0  -2  15 28.0616 6.41062   1
   0   2 -15 26.5816 8.56882   2
   0   2 -14 21.5333 6.34369   2
   0  -2  14 20.8839 5.06385   1
   0  -2  14 11.9428 4.55715   1
   0  -2  13 42.3822 5.33705   1
   0   2 -13 45.4101 6.88845   2
   0  -2  13 58.4469 5.95114   1
   0  -2  12 5.26074 3.52950   1
   0  -2  12 2.31104 3.47079   1
   0   2 -12 5.78766 4.84044   2
   0   2 -11 158.926 9.03096   2
   0  -2  11 192.104 8.02100   1
   0  -2  11 177.429 7.67780   1
   0  -2  10 81.8740 5.10608   1
   0   2 -10 86.6761 6.51692   2
   0   2  -9 1.04619 2.76216   2
   0  -2   9 1.87966 2.18558   1
   0   2  -8 94.4399 5.82302   2
   0  -2   8 98.2386 4.61437   1
   0  -2   8 93.3876 4.58825   1
   0  -2   7 43.9957 3.02618   1
   0   2  -7 48.1266 4.01142   2
   0  -2   7 36.3524 2.85938   1
   0  -2   6 164.336 4.81918   1
   0   2  -6 169.667 6.45182   2
   0  -2   6 169.739 5.01757   1
   0   2  -5 111.628 4.93100   2
   0  -2   5 106.900 4.79389   2
   0  -2   5 111.510 3.64448   1
   0  -2   5 107.776 3.71496   1
   0  -2   4 46.3282 3.12566   2
   0  -2   4 46.2956 2.28803   1
   0   2  -4 43.9990 3.13475   2
   0  -2   3 102.671 3.84797   2
   0   2  -3 99.2307 3.94004   2
   0   2  -3 97.0340 2.95379   1
   0  -2   3 98.4149 2.93252   1
   0   2  -2 2786.30 18.3052   2
   0   2  -2 2794.76 15.2035   1
   0  -2   2 2811.94 15.2326   1
   0  -2   2 2889.29 18.4841   2
   0  -2   1 8.70163 1.49147   1
   0  -2   1 9.00013 1.59731   2
   0   2  -1 10.0097 1.81344   2
   0   2  -1 9.93630 1.47638   1
   0  -2   0 23.1532 2.28991   1
   0  -2   0 22.8420 2.30697   2
   0   2   0 21.5777 2.07553   1
   0   2   0 20.7172 2.22606   2
   0   2   1 180.211 5.22419   2
   0  -2  -1 192.267 5.52182   1
   0  -2  -1 177.688 5.17716   2
   0   2   1 185.368 5.45002   1
   0  -2  -2 81.4924 3.95175   2
   0   2   2 81.3515 4.01784   2
   0   2   2 79.8277 4.20875   1
   0  -2  -2 80.4690 4.09067   1
   0   2   3 407.383 9.49642   1
   0  -2  -3 422.432 9.18568   2
   0  -2  -3 399.757 9.30808   1
   0   2   4 1047.69 16.1808   1
   0  -2  -4 1071.08 16.3085   1
   0  -2  -4 1056.72 15.5387   2
   0  -2  -5 5.99624 2.72757   1
   0   2   5-2.04178 2.41087   1
   0  -2  -5-0.07427 2.22628   2
   0  -2  -6 109.738 6.25293   2
   0   2   6 107.054 6.42555   1
   0  -2  -6 121.079 6.69013   1
   0  -2  -7 10.6134 3.49792   1
   0  -2  -7 2.45158 2.91030   2
   0   2   7 5.15556 3.18769   1
   0  -2  -8 52.6654 5.46712   2
   0   2   8 51.5958 5.75772   1
   0  -2  -8 47.4395 5.62968   1
   0  -2  -9 49.6363 5.86849   1
   0  -2  -9 56.5586 6.22062   2
   0   2   9 52.5876 5.96579   1
   0  -2 -10 67.0726 7.30706   2
   0   2  10 64.4723 7.25144   1
   0  -2 -10 66.7396 7.31100   1
   0   2  11 48.8414 7.20587   1
   0  -2 -11 47.4532 7.19483   2
   0  -2 -11 54.9338 7.51049   1
   0  -2 -12 32.3693 6.75865   2
   0  -2 -12 36.0732 7.84012   1
   0   2  12 30.0057 7.18496   1
   0  -2 -13-17.1699 7.84151   2
   0  -2 -13 0.58459 7.62314   1
   0   2  13 1.29782 7.10749   1
   0  -2 -14 28.7308 8.87514   2
   0   2  14 16.5642 8.62903   1
   0  -2 -14 6.52803 8.53377   1
   0   3 -16 10.8074 7.92542   2
   0  -3  16 6.95100 5.19898   1
   0  -3  16-4.34081 5.40668   1
   0  -3  15 53.0510 6.15307   1
   0  -3  15 61.0361 6.72820   1
   0   3 -15 75.6234 10.1411   2
   0  -3  14 7.27855 4.00321   1
   0   3 -14 3.50897 5.95352   2
   0  -3  14 12.3132 4.18341   1
   0  -3  13 93.1767 6.28239   1
   0   3 -13 89.7027 8.34877   2
   0  -3  13 91.5161 6.10674   1
   0  -3  12 18.2694 3.67190   1
   0  -3  12 14.3637 3.36538   1
   0   3 -12 15.5284 5.12117   2
   0   3 -11 2.81088 3.94352   2
   0  -3  11 7.23512 2.72809   1
   0  -3  11 6.36544 2.78091   1
   0   3 -10 12.7738 4.05518   2
   0  -3  10 13.3322 2.72569   1
   0  -3  10 16.4573 2.82742   1
   0  -3   9 28.1837 2.99632   1
   0  -3   9 32.3197 3.18030   1
   0   3  -9 33.2977 4.59709   2
   0  -3   8 12.0001 2.15649   1
   0  -3   8 12.2989 2.28035   1
   0   3  -8 17.0096 3.49228   2
   0  -3   7 479.915 11.7099   2
   0   3  -7 513.208 12.0394   2
   0  -3   7 499.526 8.98962   1
   0  -3   7 497.491 8.77635   1
   0  -3   6 15.6036 2.05242   1
   0  -3   6 16.5602 2.73670   2
   0   3  -6 11.1874 2.63984   2
   0  -3   6 12.8576 1.85579   1
   0  -3   5 87.5001 3.49198   1
   0  -3   5 91.4237 4.79027   2
   0   3  -5 82.0702 4.67522   2
   0   3  -5 79.1897 3.31569   1
   0  -3   4 161.358 4.50967   1
   0   3  -4 157.402 5.84465   2
   0   3  -4 160.723 4.57230   1
   0  -3   4 153.372 5.63975   2
   0  -3   3 263.638 5.88981   1
   0   3  -3 258.347 7.09347   2
   0   3  -3 251.860 5.73007   1
   0  -3   3 247.402 6.93166   2
   0   3  -2 2.22487 1.49629   1
   0  -3   2 0.83579 1.92406   2
   0   3  -2-0.43231 1.74079   2
   0  -3   2 1.73455 1.49382   1
   0  -3   1 63.0488 3.58156   1
   0  -3   1 65.9595 3.78818   2
   0   3  -1 61.6174 3.49352   1
   0   3  -1 63.1098 3.68662   2
   0   3   0 16.1814 2.44281   2
   0  -3   0 14.4818 2.44140   1
   0  -3   0 14.4214 2.35723   2
   0   3   0 16.5573 2.54803   1
   0   3   1 1185.72 15.8761   1
   0  -3  -1 1192.21 15.5777   2
   0  -3  -1 1232.53 16.2615   1
   0   3   1 1169.23 15.3945   2
   0  -3  -2 682.875 13.0564   1
   0  -3  -2 675.582 12.4529   2
   0   3   2 700.806 13.2358   1
   0   3   2 671.035 12.3902   2
   0   3   3 2.71623 2.16945   1
   0  -3  -3 1.59634 2.39224   1
   0  -3  -3 2.02626 1.95961   2
   0  -3  -4 36.3769 3.86648   2
   0  -3  -4 36.2542 4.31769   1
   0   3   4 34.9696 4.29723   1
   0  -3  -5 39.2266 4.68232   1
   0  -3  -5 37.4549 4.37678   2
   0   3   5 41.7011 4.52559   1
   0  -3  -6 34.7309 4.67472   2
   0  -3  -6 42.7184 5.12550   1
   0   3   6 31.1075 4.47583   1
   0  -3  -7 63.3568 6.29686   1
   0  -3  -7 51.5822 5.67914   2
   0   3   7 60.5125 6.31606   1
   0  -3  -8 144.088 8.61386   2
   0   3   8 146.780 9.30758   1
   0  -3  -8 142.381 9.07382   1
   0  -3  -9 0.59948 4.09126   2
   0  -3  -9-0.10069 4.55790   1
   0   3   9 3.51483 4.75296   1
   0   3  10 14.8932 5.46679   1
   0  -3 -10 6.41985 5.36441   2
   0  -3 -10 13.9534 5.89355   1
   0   3  11 30.8009 7.44579   1
   0  -3 -11 27.4605 6.62060   2
   0  -3 -11 28.5185 7.49779   1
   0  -3 -12 0.86375 6.80262   2
   0  -3 -12 16.5634 7.71808   1
   0   3  12 11.0083 7.71300   1
   0  -3 -13 4.18796 8.39784   2
   0   3  13 5.52059 8.26109   1
   0  -3 -13 2.94716 8.63876   1
   0  -4  16-3.24665 4.97119   1
   0   4 -16-9.88453 8.65501   2
   0  -4  16 5.08858 4.57556   1
   0  -4  15 47.9254 5.65636   1
   0  -4  15 48.4289 5.59518   1
   0   4 -15 46.0808 8.87485   2
   0  -4  14-5.72095 3.65430   1
   0   4 -14-3.83940 5.70205   2
   0  -4  14 1.06290 3.58229   1
   0  -4  13-1.63869 3.06769   1
   0  -4  13-1.11747 3.15427   1
   0   4 -13 6.50285 4.91995   2
   0   4 -12 10.1721 4.67906   2
   0  -4  12 8.62165 3.05230   1
   0  -4  12 3.37081 2.76921   1
   0   4 -11 39.9945 5.82383   2
   0  -4  11 51.1771 4.10932   1
   0  -4  11 42.4601 3.87305   1
   0  -4  10 14.0663 2.61262   1
   0   4 -10 9.01569 3.82108   2
   0  -4  10 15.7718 2.74316   1
   0  -4   9 20.6810 2.63452   1
   0   4  -9 20.1767 4.22964   2
   0  -4   9 23.2379 2.85263   1
   0  -4   8 7.81483 1.95529   1
   0   4  -8 6.00107 3.06040   2
   0  -4   8 8.62167 2.13637   1
   0  -4   8 3.63075 3.07413   2
   0  -4   7 13.3288 2.05962   1
   0   4  -7 7.06709 3.15981   2
   0  -4   7 5.00894 2.89815   2
   0  -4   7 3.79869 1.98559   1
   0   4  -6 513.511 9.14818   1
   0  -4   6 498.221 8.98697   1
   0   4  -6 497.349 12.0951   2
   0  -4   6 482.139 11.8178   2
   0  -4   5 169.666 5.41567   1
   0   4  -5 168.459 5.45042   1
   0   4  -5 175.674 7.15935   2
   0  -4   5 164.470 6.89840   2
   0   4  -4 2.31074 1.64854   1
   0  -4   4 3.45953 1.73170   1
   0  -4   4 1.19518 2.27299   2
   0   4  -4 2.28942 1.91689   2
   0  -4   3 79.8431 4.64457   2
   0   4  -3 75.3079 4.67676   2
   0   4  -3 76.1622 4.02724   1
   0  -4   3 75.3836 4.05573   1
   0  -4   2 52.2743 3.63680   1
   0   4  -2 49.7803 3.51194   1
   0  -4   2 44.5669 3.90213   2
   0   4  -2 48.1457 4.12287   2
   0   4  -1 316.761 9.05843   2
   0   4  -1 340.843 8.83894   1
   0  -4   1 327.504 9.09327   2
   0  -4   1 325.246 8.88904   1
   0  -4   0 27.4365 3.23082   1
   0  -4   0 23.6582 3.36812   2
   0   4   0 24.6317 3.11351   1
   0   4   0 29.7797 3.55563   2
   0  -4  -1 416.401 10.8199   2
   0   4   1 398.530 10.5905   2
   0   4   1 421.170 10.9912   1
   0  -4  -1 417.627 10.9957   1
   0   4   2 75.9095 5.32634   1
   0   4   2 73.6455 5.23157   2
   0  -4  -2 73.4938 5.03826   2
   0  -4  -2 67.7915 5.13556   1
   0   4   3 175.274 8.13028   1
   0  -4  -3 183.684 8.41821   1
   0   4   3 180.664 7.98974   2
   0  -4  -3 181.021 8.10157   2
   0  -4  -4 192.073 8.54976   2
   0   4   4 204.425 9.32916   1
   0  -4  -4 195.222 9.22379   1
   0  -4  -5 266.423 10.5986   2
   0  -4  -5 256.829 10.9822   1
   0   4   5 271.403 10.9488   1
   0  -4  -6 0.83323 3.68323   2
   0   4   6 5.59609 3.66095   1
   0  -4  -6 7.18356 4.13848   1
   0  -4  -7 113.486 8.29842   2
   0  -4  -7 106.055 8.19573   1
   0   4   7 114.206 8.52310   1
   0  -4  -8 5.10908 4.98413   2
   0   4   8 0.88739 4.62348   1
   0  -4  -8 5.88246 5.15707   1
   0  -4  -9-0.58088 4.82038   1
   0   4   9-6.53498 5.76715   1
   0  -4  -9-2.40734 5.64251   2
   0  -4 -10 1.03006 6.12436   2
   0  -4 -10 3.94729 6.45279   1
   0   4  10 6.68603 5.53833   1
   0   4  11-3.23320 7.33729   1
   0  -4 -11 12.5310 7.46450   1
   0  -4 -11-3.18248 6.22834   2
   0   4  12-6.06336 8.25960   1
   0  -4 -12-0.33947 8.49969   2
   0  -4 -12-7.17592 9.01768   1
   0  -4 -13 19.1409 8.23564   1
   0   4  13 15.7565 7.70048   1
   0  -4 -13 7.81098 7.03082   2
   0  -5  16 3.06068 3.62558   1
   0  -5  16 4.47316 3.67211   1
   0  -5  15 0.60050 3.50544   1
   0  -5  15 3.61280 3.64851   1
   0   5 -15 2.37571 6.88747   2
   0   5 -14 13.4415 6.54913   2
   0  -5  14 9.97469 3.35831   1
   0  -5  14 7.15479 3.44126   1
   0  -5  13 0.38523 2.93100   1
   0  -5  13-0.90563 2.85952   1
   0   5 -13 2.83738 5.10480   2
   0  -5  12 41.4660 3.99339   1
   0   5 -12 41.5078 6.85450   2
   0  -5  12 39.8751 3.97519   1
   0  -5  11 0.35305 2.32037   1
   0  -5  11 3.13018 2.40564   1
   0   5 -11 2.49980 4.23489   2
   0  -5  10 0.71538 2.08160   1
   0  -5  10 2.85172 2.34677   1
   0   5 -10 1.19160 4.14470   2
   0   5  -9 54.5525 6.02432   2
   0  -5   9 50.7899 3.92165   1
   0  -5   9 54.1617 3.85464   1
   0  -5   9 62.0953 6.08583   2
   0   5  -8 255.360 10.4148   2
   0  -5   8 265.358 7.48743   1
   0  -5   8 253.573 10.2397   2
   0  -5   7 60.2421 5.53666   2
   0   5  -7 58.8969 3.92710   1
   0  -5   7 55.9268 3.75008   1
   0   5  -7 59.2203 5.19748   2
   0  -5   6 76.1881 5.83093   2
   0  -5   6 81.3522 4.47758   1
   0   5  -6 77.6457 4.41419   1
   0   5  -6 66.2689 5.56462   2
   0  -5   5 9.54494 2.77259   2
   0  -5   5 7.46200 2.30117   1
   0   5  -5 8.94577 3.23506   2
   0   5  -5 6.39869 2.25818   1
   0  -5   4 178.059 7.85903   2
   0   5  -4 188.609 6.80684   1
   0  -5   4 179.221 6.71343   1
   0   5  -4 177.258 7.85446   2
   0   5  -3 52.1806 4.82400   2
   0  -5   3 46.5741 4.42655   2
   0  -5   3 51.6756 4.17569   1
   0   5  -3 50.8390 4.00540   1
   0   5  -2 30.1618 3.58518   1
   0   5  -2 32.6951 4.22765   2
   0  -5   2 26.5324 3.93658   2
   0  -5   2 35.1286 3.92466   1
   0  -5   1 88.5342 5.62682   1
   0   5  -1 91.7157 5.78531   2
   0   5  -1 92.9429 5.77255   1
   0  -5   1 81.1919 5.71305   2
   0   5   0 680.749 15.0259   2
   0   5   0 677.232 14.8665   1
   0  -5   0 644.850 14.6390   2
   0  -5   0 617.189 14.4127   1
   0   5   1 291.104 10.5209   1
   0   5   1 287.672 10.2883   2
   0  -5  -1 286.800 10.2580   2
   0  -5  -1 301.055 10.6026   1
   0  -5  -2 19.0041 3.98045   2
   0   5   2 24.2898 4.14042   1
   0  -5  -2 17.7905 3.69554   1
   0   5   2 13.0566 3.79803   2
   0   5   3 3.13383 3.06572   1
   0  -5  -3 0.37254 3.43681   2
   0   5   3 5.09189 3.41230   2
   0  -5  -3 7.88741 3.62985   1
   0  -5  -4 7.17453 3.96063   2
   0  -5  -4 6.61909 4.11802   1
   0   5   4 11.8331 3.75620   1
   0   5   5 416.622 14.9077   1
   0  -5  -5 405.970 13.9750   2
   0  -5  -5 396.926 14.5607   1
   0  -5  -6 86.5068 7.75973   2
   0   5   6 77.2336 7.63229   1
   0  -5  -6 80.1481 8.10001   1
   0  -5  -7 13.2429 5.02503   2
   0   5   7 10.6468 5.92521   1
   0  -5  -7 10.1278 5.47153   1
   0  -5  -8 41.7046 7.86685   1
   0   5   8 61.7071 7.74537   1
   0  -5  -8 58.7608 7.75426   2
   0  -5  -9 25.0289 7.04264   1
   0  -5  -9 34.1667 7.15657   2
   0   5   9 21.2239 7.35663   1
   0  -5 -10 17.6057 7.52433   2
   0  -5 -10 16.0192 8.83868   1
   0   5  10 14.6370 7.86959   1
   0  -5 -11-4.68215 9.15579   1
   0   5  11 1.22215 7.74292   1
   0  -5 -11 3.42001 8.70200   2
   0   5  12-18.1200 9.46411   1
   0  -5 -12 0.94820 7.03097   1
   0  -6  16 1.75890 2.38860   1
   0   6 -16-2.30777 8.53043   2
   0  -6  15 5.29776 2.88449   1
   0   6 -15 0.93884 7.07263   2
   0  -6  15 5.66121 2.86996   1
   0  -6  14 9.65123 3.12184   1
   0   6 -14 8.04099 7.10197   2
   0  -6  13 3.70376 2.81418   1
   0  -6  13 7.16521 3.00539   1
   0   6 -13 4.92563 5.72508   2
   0   6 -12 68.5843 7.82363   2
   0  -6  12 62.8058 4.54577   1
   0  -6  12 64.1380 4.66768   1
   0  -6  11 71.8556 7.56086   2
   0  -6  11 74.7760 5.02053   1
   0  -6  11 78.8869 4.95787   1
   0   6 -11 71.5760 7.74852   2
   0  -6  10 1.43699 2.45101   1
   0   6 -10-4.10195 4.14236   2
   0  -6  10-2.39120 4.24040   2
   0  -6  10 3.22949 2.52694   1
   0   6  -9 135.851 8.97886   2
   0  -6   9 137.117 6.15531   1
   0  -6   9 131.916 8.74663   2
   0   6  -8 44.1641 5.95708   2
   0  -6   8 39.5348 5.61992   2
   0  -6   8 43.4252 4.02011   1
   0   6  -8 46.7533 4.06452   1
   0   6  -7 196.516 7.46872   1
   0  -6   7 175.312 9.02294   2
   0   6  -7 185.142 9.32570   2
   0  -6   7 187.666 7.21894   1
   0   6  -6 7.67220 3.93434   2
   0  -6   6-1.25986 3.07158   2
   0  -6   6 0.70734 2.33898   1
   0   6  -6 0.96300 2.27967   1
   0  -6   5 169.376 8.61926   2
   0   6  -5 176.952 8.87083   2
   0  -6   5 166.539 7.24581   1
   0   6  -5 176.831 7.32258   1
   0   6  -4 4.45501 3.64549   2
   0  -6   4-0.28690 2.38705   1
   0   6  -4-2.15401 2.44452   1
   0  -6   4 2.27222 3.18981   2
   0  -6   3 63.0942 5.18436   1
   0  -6   3 52.8853 5.54702   2
   0   6  -3 51.7180 4.66635   1
   0   6  -3 50.2513 5.39133   2
   0   6  -2 88.3902 5.91849   1
   0  -6   2 86.5848 6.63653   2
   0  -6   2 86.3180 6.10103   1
   0   6  -2 89.2593 6.62709   2
   0   6  -1 285.670 10.6026   1
   0   6  -1 270.724 10.7414   2
   0  -6   1 259.717 10.3791   1
   0  -6   1 267.033 10.4018   2
   0  -6   0 60.8756 5.71426   2
   0  -6   0 62.9279 6.03847   1
   0   6   0 65.6091 5.83609   2
   0   6   0 68.2945 6.14767   1
   0  -6  -1 20.4403 4.79144   2
   0   6   1 18.2275 4.66070   1
   0   6   1 15.0330 3.93974   2
   0  -6  -1 18.2700 3.90905   1
   0  -6  -2 4.17301 4.20603   2
   0   6   2 5.03744 4.04838   1
   0  -6  -2 7.38652 4.22506   1
   0   6   2 12.4019 4.41016   2
   0   6   3 74.0362 6.90139   1
   0   6   3 76.2194 6.92957   2
   0  -6  -3 73.9813 6.85809   1
   0  -6  -3 76.6743 7.27533   2
   0   6   4 73.3772 7.29879   1
   0  -6  -4 71.4214 7.73823   1
   0  -6  -4 75.1025 7.45928   2
   0  -6  -5 75.5317 8.22902   1
   0   6   5 79.9230 8.33724   1
   0  -6  -5 81.5683 8.11824   2
   0   6   6 34.7931 6.90164   1
   0  -6  -6 33.3221 6.46685   1
   0  -6  -6 32.3554 6.49088   2
   0  -6  -7 94.6606 10.0067   1
   0  -6  -7 89.8076 9.05574   2
   0   6   7 101.150 10.1702   1
   0  -6  -8 22.5535 7.84735   2
   0   6   8 20.1651 7.63377   1
   0  -6  -8 3.30939 7.36942   1
   0   6   9 19.5912 9.42807   1
   0  -6  -9 16.0216 7.40535   2
   0  -6  -9 8.69905 8.19073   1
   0  -6 -10 8.89940 8.18169   2
   0   6  10-3.44784 10.1256   1
   0  -6 -10-3.54441 8.68806   1
   0   7 -16 9.34693 5.76555   2
   0  -7  15 2.68091 2.21822   1
   0  -7  15 0.47064 2.19387   1
   0  -7  14 8.15628 3.18625   1
   0  -7  14 3.03927 2.91268   1
   0  -7  13 10.2844 3.20243   1
   0  -7  13 13.9043 3.28620   1
   0   7 -13 13.7974 7.28806   2
   0  -7  12 5.36638 6.02381   2
   0  -7  12 12.5601 3.41564   1
   0   7 -12 16.0480 7.17064   2
   0  -7  12 14.4629 3.56683   1
   0  -7  11 81.9612 5.37022   1
   0   7 -11 80.1863 8.28865   2
   0  -7  11 65.9945 5.11943   1
   0  -7  11 92.3644 9.12237   2
   0  -7  10 419.158 11.9689   1
   0  -7  10 470.529 11.6966   1
   0   7 -10 433.759 16.2313   2
   0  -7  10 445.613 16.2501   2
   0   7  -9 13.8553 5.25185   2
   0  -7   9 15.0917 3.43592   1
   0  -7   9 15.9390 4.97414   2
   0   7  -9 13.6695 3.32124   1
   0   7  -8 5.67710 4.52322   2
   0  -7   8-0.32594 4.32121   2
   0  -7   8 5.08792 3.17313   1
   0   7  -8 4.55348 3.13684   1
   0   7  -7-0.48535 2.90823   1
   0   7  -7 3.97103 4.22179   2
   0  -7   7 2.72337 4.33565   2
   0  -7   7-0.12061 2.82182   1
   0  -7   6 24.9166 4.92480   2
   0   7  -6 20.5485 4.97782   2
   0  -7   6 20.6113 3.76824   1
   0   7  -6 19.5539 3.81551   1
   0  -7   5 95.8863 6.61973   1
   0   7  -5 97.0031 7.85549   2
   0  -7   5 106.658 7.77793   2
   0   7  -5 99.2508 6.48396   1
   0   7  -4 49.9487 5.08984   1
   0   7  -4 45.0906 5.86082   2
   0  -7   4 44.2020 5.19806   1
   0  -7   4 45.1374 5.94020   2
   0   7  -3-0.80176 2.95602   1
   0   7  -3-2.54443 4.23854   2
   0  -7   3 1.32716 4.15551   2
   0  -7   3 0.96293 3.46218   1
   0   7  -2 53.2454 5.82652   1
   0  -7   2 49.6187 5.76939   1
   0   7  -2 49.1837 6.06157   2
   0  -7   2 47.7528 6.09997   2
   0   7  -1-1.06114 3.29494   2
   0  -7   1 0.77745 3.37325   1
   0  -7   1-2.78265 3.74100   2
   0   7  -1-1.35205 3.71391   1
   0  -7   0 9.49167 4.70200   2
   0   7   0 12.3292 4.85773   2
   0  -7   0-0.46159 3.50868   1
   0   7   0 0.45460 3.80288   1
   0   7   1 27.3474 5.03001   2
   0  -7  -1 10.4422 4.68370   2
   0   7   1 18.5699 5.02733   1
   0  -7  -1 13.3027 4.81274   1
   0  -7  -2 10.2620 5.34759   2
   0  -7  -2 7.45220 5.32329   1
   0   7   2 3.23388 4.25852   1
   0   7   2 3.86078 5.00681   2
   0   7   3 40.7503 6.70010   2
   0  -7  -3 37.8836 6.32932   2
   0  -7  -3 25.8040 6.57685   1
   0   7   3 33.1396 6.69616   1
   0   7   4 9.20276 6.31092   1
   0  -7  -4-0.36304 5.77979   1
   0  -7  -4 5.28962 5.73233   2
   0  -7  -5 23.6852 6.85696   2
   0  -7  -5 19.1734 6.78362   1
   0   7   5 31.9497 6.71820   1
   0  -7  -6 4.99003 6.76144   2
   0   7   6 7.82666 6.27357   1
   0  -7  -6 17.3248 7.33153   1
   0   7   7 24.0123 7.52090   1
   0  -7  -7 30.4189 7.63742   1
   0  -7  -7 25.8002 8.51133   2
   0   7   8 9.88073 9.41842   1
   0  -7  -8-6.45685 7.27740   1
   0  -7  -8 0.07256 8.20006   2
   0   7   9 11.6218 10.0065   1
   0  -7  -9-6.64877 10.0835   2
   0  -7  -9 0.78201 10.0318   1
   0   8 -15-3.08859 9.79368   2
   0  -8  15-0.57996 1.90624   1
   0   8 -14 11.3076 8.68993   2
   0  -8  14 25.9118 3.70189   1
   0  -8  14 28.5085 3.71409   1
   0  -8  13 108.492 6.31190   1
   0  -8  13 99.8194 6.28182   1
   0   8 -13 96.2484 11.5642   2
   0  -8  12 13.7188 3.88317   1
   0  -8  12 13.1656 3.78593   1
   0  -8  12 9.62507 7.51614   2
   0  -8  11 2.81543 3.36190   1
   0   8 -11 0.06182 6.59913   2
   0  -8  11-4.61755 6.65805   2
   0  -8  11-1.15294 3.91665   1
   0  -8  10 38.6137 4.83590   1
   0   8 -10 45.2764 7.96634   2
   0  -8  10 49.8443 7.90355   2
   0   8 -10 42.5598 5.09773   1
   0   8  -9 43.6369 7.31876   2
   0  -8   9 33.6225 7.16353   2
   0   8  -9 30.3076 4.80483   1
   0  -8   9 30.9750 4.57635   1
   0  -8   8 11.9442 5.61047   2
   0   8  -8 5.31535 4.94747   2
   0   8  -8 6.09181 3.79365   1
   0  -8   8-1.06497 3.48282   1
   0   8  -7 26.0423 6.27352   2
   0  -8   7 15.1251 5.56158   2
   0  -8   7 26.5974 4.66574   1
   0   8  -7 22.8435 4.39539   1
   0   8  -6 1.77918 3.36795   1
   0   8  -6 0.89062 3.92615   2
   0  -8   6 2.35757 3.59883   1
   0  -8   6 2.20647 4.56423   2
   0  -8   5 77.3072 7.81758   2
   0   8  -5 76.5294 6.74001   1
   0   8  -5 81.6683 7.68072   2
   0  -8   5 89.9209 7.32330   1
   0   8  -4 6.13883 3.87004   1
   0   8  -4-0.05101 4.78950   2
   0  -8   4 8.15371 5.32299   2
   0  -8   4 10.0893 4.35191   1
   0  -8   3 213.866 10.9985   1
   0  -8   3 239.286 11.8648   2
   0   8  -3 231.811 11.9715   2
   0   8  -3 207.408 10.4748   1
   0  -8   2 77.0722 7.94296   2
   0   8  -2 65.1175 7.63544   2
   0   8  -2 68.7767 6.83023   1
   0  -8   2 78.7699 7.64553   1
   0   8  -1 2.52010 4.59026   1
   0  -8   1 4.28083 4.51724   2
   0  -8   1 3.05278 4.05780   1
   0   8  -1-3.84581 5.03602   2
   0   8   0 37.0638 6.65961   2
   0   8   0 36.4646 5.92190   1
   0  -8   0 40.7947 6.58193   1
   0  -8   0 44.1721 7.13573   2
   0   8   1 6.51122 5.35068   2
   0  -8  -1 15.6018 6.30360   1
   0  -8  -1 11.1375 5.22257   2
   0   8   1 5.47467 5.01884   1
   0  -8  -2 7.47261 6.46390   1
   0   8   2 5.88768 5.62960   1
   0  -8  -2 0.41622 5.90064   2
   0   8   2 1.30108 5.02422   2
   0  -8  -3 5.75520 5.26357   2
   0  -8  -3 5.73534 6.60537   1
   0   8   3 5.52621 5.52765   2
   0   8   3-4.44233 5.52547   1
   0  -8  -4 18.2426 6.83202   2
   0  -8  -4 3.73212 6.86054   1
   0   8   4 6.74889 7.12335   1
   0  -8  -5 1.80804 6.98995   1
   0   8   5 17.5793 8.12813   1
   0  -8  -5-5.46875 8.74670   2
   0   8   6 14.0860 9.78931   1
   0  -8  -6 2.81902 8.18612   2
   0  -8  -6-6.10731 7.36229   1
   0   8   7 13.3479 9.56480   1
   0  -8  -7 15.7167 8.33130   1
   0  -8  -7-9.55550 9.70269   2
   0   8   8 18.8548 8.82788   1
   0  -8  -8 0.74620 9.08665   2
   0  -8  -8 8.84012 8.34770   1
   0  -9  14-2.08240 3.52763   1
   0   9 -14 4.73518 8.71028   2
   0  -9  13 7.69293 4.34266   1
   0   9 -13 2.18521 8.54658   2
   0  -9  13 4.87752 4.19014   1
   0  -9  13 3.18974 7.80084   2
   0  -9  12-2.00386 4.31160   1
   0  -9  12 2.28290 4.56151   1
   0  -9  12 9.32675 9.02596   2
   0   9 -12-0.79492 8.64620   2
   0   9 -11 6.36045 4.32848   1
   0  -9  11 1.29238 7.86604   2
   0  -9  11-4.85964 4.94737   1
   0   9 -11-8.25745 8.43123   2
   0  -9  10 23.9938 5.20578   1
   0   9 -10 33.3475 5.43306   1
   0  -9  10 31.9208 7.26653   2
   0   9 -10 29.1189 8.41231   2
   0   9  -9 5.58626 5.64528   2
   0  -9   9-7.83466 6.37523   2
   0   9  -9 9.07336 4.73070   1
   0  -9   9-3.44185 4.42372   1
   0   9  -8 6.65203 4.48595   1
   0   9  -8-6.98337 6.97982   2
   0  -9   8 1.76962 6.49814   2
   0  -9   8-1.72720 4.31384   1
   0  -9   7 58.5947 6.78738   1
   0   9  -7 48.2094 6.23126   1
   0  -9   7 46.3882 7.07643   2
   0   9  -7 48.9625 7.91551   2
   0  -9   6 174.540 10.3974   1
   0   9  -6 181.124 12.1468   2
   0   9  -6 157.387 9.67627   1
   0  -9   6 151.202 11.4418   2
   0  -9   5 1.18579 5.03681   2
   0   9  -5 5.25579 4.74874   1
   0  -9   5 0.94727 4.61131   1
   0   9  -5-3.76790 4.85290   2
   0  -9   4 39.8750 6.80913   1
   0   9  -4 34.1795 6.30143   1
   0   9  -4 37.7251 7.25051   2
   0  -9   4 41.3996 6.92265   2
   0   9  -3 25.4856 6.11320   2
   0  -9   3 20.2435 6.14885   1
   0   9  -3 18.5346 5.95484   1
   0  -9   3 14.1405 5.90318   2
   0   9  -2 91.3389 8.63733   1
   0   9  -2 86.9805 9.00700   2
   0  -9   2 87.6599 8.74231   1
   0  -9   2 82.5548 9.46334   2
   0   9  -1 9.70339 6.72745   2
   0  -9   1 0.18295 5.64386   1
   0  -9   1 1.31357 5.47682   2
   0   9  -1-3.32703 5.99031   1
   0  -9   0 6.02945 6.42684   1
   0  -9   0 0.06422 5.16252   2
   0   9   0 1.64172 5.85039   1
   0   9   0 3.64819 5.39816   2
   0  -9  -1 7.19945 6.93692   1
   0   9   1-5.51549 7.03734   2
   0   9   1 5.23124 5.77584   1
   0  -9  -1 4.24001 7.03023   2
   0   9   2 8.86015 6.15254   2
   0  -9  -2 12.8353 7.01894   1
   0  -9  -2 14.4184 6.92859   2
   0   9   2 23.0032 8.40671   1
   0   9   3 13.3266 8.42350   1
   0  -9  -3-5.04927 8.26178   1
   0   9   3 5.20061 8.47163   2
   0  -9  -3-4.12393 7.45491   2
   0  -9  -4-1.22402 7.82219   1
   0   9   4-3.85481 8.96956   1
   0  -9  -4-6.46411 7.83673   2
   0  -9  -5 14.5377 8.99407   1
   0  -9  -5 10.0652 9.39274   2
   0   9   5-0.85208 9.93277   1
   0   9   6 23.8018 11.4832   1
   0  -9  -6 6.80402 10.6246   2
   0  -9  -6 8.82361 11.7538   1
   0  10 -13 17.9657 11.7703   2
   0 -10  13 3.30109 5.01535   1
   0 -10  13 30.6785 11.6910   2
   0 -10  12-0.22746 5.72064   1
   0 -10  12 6.15549 6.23438   1
   0  10 -12-9.97290 9.49679   2
   0 -10  12-4.35877 8.98548   2
   0 -10  11 11.0496 5.61629   1
   0  10 -11 21.8886 9.25411   2
   0  10 -11 22.0820 6.01594   1
   0 -10  10-2.66426 8.33215   2
   0  10 -10-8.47910 7.33214   2
   0 -10  10-2.75130 5.48494   1
   0  10 -10 7.70524 5.60827   1
   0  10  -9 22.5632 5.94798   1
   0 -10   9 18.6264 5.96923   1
   0  10  -9 33.0654 9.09916   2
   0 -10   9 21.9989 7.45776   2
   0 -10   8-1.51937 5.74671   1
   0  10  -8 0.79194 5.49129   1
   0 -10   8-1.32681 8.02859   2
   0  10  -8 3.82104 6.67222   2
   0 -10   7 7.08187 7.68839   2
   0  10  -7 15.1796 7.60827   2
   0  10  -7 19.8799 6.11575   1
   0 -10   7 12.8721 5.99722   1
   0  10  -6-4.64838 5.40248   1
   0 -10   6-2.13768 7.47914   2
   0  10  -6 13.1586 6.64519   2
   0 -10   6-2.78142 5.61900   1
   0  10  -5 11.3028 6.24503   1
   0 -10   5 4.40264 7.35275   2
   0 -10   5 13.3790 6.51655   1
   0  10  -5 6.83673 7.78615   2
   0  10  -4 140.880 11.5866   2
   0 -10   4 128.973 11.4321   2
   0 -10   4 126.065 10.7859   1
   0  10  -4 126.382 10.4855   1
   0  10  -3 24.7823 7.92079   2
   0 -10   3 29.2550 9.26083   2
   0 -10   3 20.1739 7.02429   1
   0  10  -3 28.9654 8.05637   1
   0  10  -2 51.1323 9.62954   2
   0 -10   2 47.7329 8.65556   1
   0 -10   2 41.4699 9.16994   2
   0  10  -2 33.4399 8.33800   1
   0  10  -1 12.8098 8.25504   2
   0  10  -1 8.10098 6.43119   1
   0 -10   1 8.05022 8.51049   2
   0 -10   1-3.11774 8.05609   1
   0 -10   0 5.71713 7.64604   2
   0 -10   0 15.9339 9.05481   1
   0  10   0 10.4026 8.14561   1
   0  10   0 11.4765 8.22967   2
   0 -10  -1 47.3624 9.34576   1
   0  10   1 39.5747 9.31868   2
   0 -10  -1 42.5071 10.9183   2
   0  10   1 38.8246 8.83720   1
   0 -10  -2-8.33617 10.1776   1
   0  10   2-0.16378 9.19654   1
   0  10   2-1.59973 9.07663   2
   0 -10  -2-5.36146 10.4913   2
   0 -10  -3 3.74100 10.6690   2
   0  10   3-9.51734 9.54046   1
   0 -10  -3-5.75274 9.94222   1
   0 -10  -4 4.15849 8.72912   2
   0  11 -11 11.1807 9.50304   2
   0 -11  11 32.6826 11.0864   2
   0 -11  11 7.74526 6.62606   1
   0  11 -11 8.35314 6.54055   1
   0  11 -10 6.67487 8.89245   2
   0 -11  10-10.1919 6.54586   1
   0  11 -10-4.74755 6.79977   1
   0 -11  10 10.4250 10.6699   2
   0  11  -9 20.7858 10.0509   2
   0 -11   9 13.5867 7.10717   1
   0 -11   9 10.5327 9.66705   2
   0  11  -9 28.2003 7.77110   1
   0 -11   8 28.6325 7.67578   1
   0  11  -8 12.2732 9.56472   2
   0 -11   8 24.3964 10.3450   2
   0  11  -8 6.90128 7.33864   1
   0 -11   7-7.61025 9.57280   2
   0  11  -7 13.7117 7.40703   1
   0  11  -7-16.6679 9.67165   2
   0 -11   7 4.63638 7.01713   1
   0  11  -6 22.8726 10.6538   2
   0  11  -6 16.1576 7.23149   1
   0 -11   6 26.0996 8.29868   1
   0 -11   6 14.2300 8.42995   2
   0  11  -5 32.8662 9.07235   1
   0 -11   5 48.8999 11.1652   2
   0  11  -5 57.0772 11.5625   2
   0 -11   5 35.4096 9.18155   1
   0  11  -4 22.0850 8.43186   2
   0 -11   4 18.4257 8.30243   1
   0 -11   4 14.2360 9.86612   2
   0  11  -4 19.1563 8.07289   1
   0 -11   3-0.14882 7.76624   1
   0  11  -3 31.5741 10.7480   2
   0 -11   3 15.1248 10.3685   2
   0  11  -3-16.8064 8.57039   1
   0 -11   2 59.1248 12.8178   2
   0  11  -2 70.1323 10.7940   1
   0 -11   2 65.7045 11.2946   1
   0  11  -2 75.4791 11.1491   2
   0 -11   1-13.9565 10.7748   1
   0  11  -1-2.00691 9.13306   2
   0  11  -1-6.49789 10.2885   1
   0 -11   1 7.59421 8.63188   2
   0 -11   0 21.8401 11.4387   1
   0 -11   0 3.31445 10.9005   2
   0  11   0 6.87131 11.4104   2
   0  11   0-15.3408 10.8301   1
   0  11   1 24.5848 11.4148   2
   0 -11  -1 21.0059 10.7844   1
   0 -11  -1 13.9118 10.9884   2
   0 -12   6 5.65459 5.02085   1
   0  12  -6 17.2157 5.45588   1
   0  12  -5 30.7347 6.92899   1
   0 -12   5 23.9364 6.71906   1
   1 -11  -1-11.8714 10.7669   1
  -1  11   1-3.94227 9.70271   1
   1 -11  -1-18.6991 10.1382   2
  -1  11   0-18.8121 10.9013   2
   1 -11   0 2.49279 8.74086   1
  -1  11   0-2.66726 9.82971   1
   1 -11   0 0.65852 9.89115   2
  -1  11  -1 28.3544 11.4878   2
  -1  11  -1 47.2010 10.3695   1
   1 -11   2-3.03097 8.55135   2
  -1  11  -2 18.3107 8.44389   1
   1 -11   2 9.84748 7.68698   1
  -1  11  -2-12.5415 9.78722   2
  -1  11  -3-6.17179 8.00253   2
  -1  11  -3-6.18174 8.08922   1
   1 -11   3 1.88492 7.45659   1
   1 -11   3 8.42362 9.00838   2
   1 -11   4-2.15990 7.37692   1
  -1  11  -4 5.80726 7.30862   1
   1 -11   4-4.73357 8.91800   2
  -1  11  -4 6.91452 9.38678   2
  -1  11  -5 3.84028 8.88187   2
   1 -11   5-0.97912 7.01698   1
  -1  11  -5 5.98609 7.07487   1
   1 -11   5 3.63751 7.92735   2
   1 -11   6 15.7913 6.95424   1
   1 -11   6 10.3019 9.09388   2
  -1  11  -6 6.23764 6.66985   1
  -1  11  -6 20.5010 10.8171   2
  -1  11  -7 11.7041 10.3611   2
   1 -11   7 10.4050 9.78703   2
   1 -11   7 5.32093 6.55986   1
  -1  11  -7-0.61843 6.32178   1
   1 -11   8 3.70127 6.41863   1
   1 -11   8 0.41037 10.2961   2
  -1  11  -8 0.28720 6.43218   1
  -1  11  -8 0.17035 8.99134   2
   1 -11   9 5.54688 5.78865   1
  -1  11  -9 5.84115 6.00480   1
   1 -11   9-3.37041 8.76343   2
  -1  11 -10 7.42399 11.2135   2
   1 -11  10 3.88402 5.68347   1
   1 -11  10-3.12634 11.4769   2
   1 -10  -4 23.0180 9.99884   2
   1 -10  -4-8.27687 11.4483   1
  -1  10   4 16.6121 11.8766   1
  -1  10   3 1.18419 9.24674   1
  -1  10   3-4.26681 8.65810   2
   1 -10  -3 11.5688 10.4871   1
   1 -10  -3-23.7953 10.6260   2
   1 -10  -2 26.7091 10.5525   1
  -1  10   2 47.1664 10.6071   2
   1 -10  -2 6.38720 9.28564   2
  -1  10   2 35.1200 10.4966   1
   1 -10  -1 25.9913 10.0350   1
   1 -10  -1 8.83986 8.63191   2
  -1  10   1 11.1339 9.20843   2
  -1  10   1 15.6002 7.90155   1
   1 -10   0 34.1081 8.65289   1
  -1  10   0 27.3346 8.46060   2
   1 -10   0 22.6900 7.46477   2
  -1  10   0 33.3147 9.16912   1
  -1  10  -1 30.8723 7.80274   1
   1 -10   1 33.3426 7.80051   1
   1 -10   1 27.3313 8.83990   2
  -1  10  -1 31.8246 8.54922   2
   1 -10   2-1.79265 7.98962   2
  -1  10  -2-5.92527 7.15379   1
  -1  10  -2-10.7621 8.30135   2
   1 -10   2-4.12964 7.22771   1
  -1  10  -3 3.37501 7.62232   2
  -1  10  -3 14.3816 6.28712   1
   1 -10   3 9.62824 6.23294   1
   1 -10   3 2.13424 7.55694   2
  -1  10  -4-3.45772 7.32004   2
  -1  10  -4-2.25625 5.48850   1
   1 -10   4-0.68780 5.93620   2
   1 -10   4 1.77844 5.91674   1
   1 -10   5 10.0510 5.75287   1
  -1  10  -5 19.5591 6.19825   1
   1 -10   5 23.8075 8.57383   2
  -1  10  -5 18.3616 6.98696   2
  -1  10  -6 4.47998 4.97640   1
   1 -10   6-6.05035 5.66556   1
  -1  10  -6 13.5974 8.59537   2
   1 -10   6-5.28267 7.89358   2
   1 -10   7 14.7743 5.30678   1
   1 -10   7 24.7798 7.69815   2
  -1  10  -7 18.3799 5.36736   1
  -1  10  -7 31.9651 9.31554   2
  -1  10  -8 68.2236 7.03303   1
   1 -10   8 51.3341 8.73482   2
  -1  10  -8 62.1042 10.7357   2
   1 -10   8 49.9333 6.32663   1
  -1  10  -9 6.96340 4.72512   1
   1 -10   9 15.4303 5.13854   1
  -1  10  -9 14.2201 8.13455   2
   1 -10   9 1.27465 7.32543   2
   1 -10  10-2.64427 4.18388   1
   1 -10  10-8.77876 7.60440   2
  -1  10 -10 2.10320 4.03006   1
   1 -10  11 12.2060 3.40797   1
  -1  10 -11 16.3102 9.02676   2
   1 -10  11 10.8948 3.78453   1
   1 -10  11 12.2712 8.21151   2
  -1  10 -12 19.9386 10.8648   2
   1 -10  12 1.51108 9.09333   2
   1  -9  -6-2.29320 9.97491   2
  -1   9   6 1.16048 9.68825   1
   1  -9  -5 6.42367 8.24553   2
  -1   9   5 4.35028 8.46027   1
   1  -9  -5 31.6026 10.0544   1
   1  -9  -4 45.3518 9.46647   1
  -1   9   4 47.3449 10.2907   2
   1  -9  -4 49.9250 10.2796   2
  -1   9   4 41.3298 9.49686   1
   1  -9  -3-1.80070 7.77431   1
   1  -9  -3 8.35243 7.55269   2
  -1   9   3 2.11416 7.99122   2
  -1   9   3 10.6651 7.70756   1
  -1   9   2 9.52324 7.66037   1
   1  -9  -2 8.00071 7.48667   2
  -1   9   2 10.8920 7.34220   2
   1  -9  -2 3.37632 7.01144   1
   1  -9  -1 18.2597 7.27995   1
   1  -9  -1 11.3200 6.05256   2
  -1   9   1 16.0924 7.71156   2
  -1   9   1 13.2040 6.15917   1
  -1   9   0-0.60665 5.92379   1
   1  -9   0-5.81143 5.32717   1
   1  -9   0 2.94517 5.35570   2
  -1   9   0-1.66066 6.63712   2
   1  -9   1 58.2642 7.70144   2
   1  -9   1 72.1644 7.96966   1
  -1   9  -1 67.2826 7.95457   1
  -1   9  -1 58.8756 7.61153   2
  -1   9  -2 9.37529 5.07637   1
   1  -9   2 16.7610 6.65419   2
   1  -9   2 18.9770 5.99619   1
  -1   9  -2 17.2604 6.57405   2
  -1   9  -3 12.6753 5.59628   2
  -1   9  -3 3.99326 4.47921   1
   1  -9   3 4.74389 4.63388   2
   1  -9   3 1.75587 4.64022   1
  -1   9  -4 29.0711 5.70577   1
   1  -9   4 28.4468 6.68897   2
  -1   9  -4 24.3123 7.02976   2
   1  -9   4 27.0082 5.57736   1
   1  -9   5 26.9917 5.46239   1
   1  -9   5 37.5825 7.31860   2
  -1   9  -5 29.3640 7.28269   2
  -1   9  -5 42.0953 6.01479   1
  -1   9  -6 7.27734 4.03179   1
   1  -9   6 5.28016 4.85217   2
   1  -9   6 5.82891 4.12097   1
  -1   9  -6 12.4885 6.06974   2
  -1   9  -7 4.17616 3.71280   1
   1  -9   7 0.39672 4.11283   1
  -1   9  -7-2.18395 6.13610   2
   1  -9   7 1.74059 5.53709   2
   1  -9   8 69.5062 9.71542   2
  -1   9  -8 66.0514 8.64898   2
   1  -9   8 54.0434 5.51230   1
  -1   9  -8 63.5617 5.90649   1
  -1   9  -9 35.3235 4.72660   1
  -1   9  -9 19.1189 8.27105   2
   1  -9   9 28.3226 4.37574   1
   1  -9   9 38.5559 8.71392   2
  -1   9 -10 17.1006 3.56173   1
  -1   9 -10 28.9493 7.46937   2
   1  -9  10 28.2982 7.40384   2
   1  -9  10 23.6808 3.62037   1
   1  -9  11 30.9192 8.60939   2
  -1   9 -11 32.0179 8.13464   2
   1  -9  11 37.7812 3.12143   1
   1  -9  11 42.6412 3.18609   1
   1  -9  12 60.3677 11.3098   2
  -1   9 -12 47.6237 11.0400   2
  -1   9 -13-12.2387 10.8107   2
  -1   9 -14 32.2252 8.26232   2
   1  -8  -8 21.5196 12.3332   1
  -1   8   8 30.2088 12.8744   1
   1  -8  -8 11.9860 10.2532   2
   1  -8  -7 2.96143 8.93668   2
  -1   8   7 23.4751 8.96937   1
   1  -8  -7-0.69171 8.32387   1
   1  -8  -6 55.3833 10.1969   2
   1  -8  -6 73.1044 12.1541   1
  -1   8   6 84.0243 12.3691   1
   1  -8  -5 26.0659 7.06060   2
   1  -8  -5 13.7045 7.65357   1
  -1   8   5 38.0552 9.12325   1
   1  -8  -4 6.75575 6.72242   1
  -1   8   4 6.64092 6.29098   2
  -1   8   4 10.0425 6.89015   1
   1  -8  -4 1.61514 5.68579   2
   1  -8  -3 19.7755 6.17391   2
   1  -8  -3 7.39484 6.65246   1
  -1   8   3 15.4843 6.40587   2
  -1   8   2 0.05579 4.81994   2
  -1   8   2-2.85164 5.83174   1
   1  -8  -2 3.03446 5.38967   2
   1  -8  -2 14.5752 6.26876   1
   1  -8  -1 139.458 10.1477   2
  -1   8   1 121.382 9.47591   1
  -1   8   1 129.817 9.99634   2
   1  -8  -1 142.016 10.5037   1
   1  -8   0-4.97073 4.43826   1
  -1   8   0 8.95364 4.86853   2
   1  -8   0-3.08956 4.61623   2
  -1   8   0 0.30910 4.29726   1
   1  -8   1 40.4933 6.36820   2
  -1   8  -1 39.6779 6.29757   1
   1  -8   1 39.7568 6.18915   1
  -1   8  -1 42.3961 6.23611   2
   1  -8   2 86.6516 8.37745   2
  -1   8  -2 85.0043 7.19385   1
  -1   8  -2 90.3340 8.31359   2
   1  -8   2 84.0500 7.42099   1
   1  -8   3 408.141 15.2849   2
   1  -8   3 398.055 13.6499   1
  -1   8  -3 406.938 15.2689   2
  -1   8  -3 434.595 14.0632   1
  -1   8  -4 6.86594 3.84101   1
   1  -8   4 4.66438 4.59147   2
  -1   8  -4 11.7831 5.62127   2
   1  -8   4 8.25303 3.87740   1
  -1   8  -5 10.5580 4.75240   2
  -1   8  -5 10.5309 3.86500   1
   1  -8   5 18.0435 4.23814   1
   1  -8   5 21.2899 5.57780   2
  -1   8  -6 211.859 8.86623   1
   1  -8   6 195.716 11.6056   2
   1  -8   6 210.273 8.98493   1
  -1   8  -6 204.379 11.8321   2
  -1   8  -7 1.94442 2.96487   1
   1  -8   7 3.88554 4.27886   2
   1  -8   7 4.37939 3.06070   1
  -1   8  -7 0.39116 5.36567   2
   1  -8   8-2.16082 5.51198   2
  -1   8  -8-9.08931 6.52539   2
  -1   8  -8 1.97115 2.97885   1
   1  -8   8 2.72411 2.87964   1
  -1   8  -9-0.79844 5.08964   2
  -1   8  -9 2.35409 2.51617   1
   1  -8   9 5.12502 2.60277   1
   1  -8   9 3.45076 5.59058   2
   1  -8  10 51.7804 8.42461   2
   1  -8  10 37.7790 3.25055   1
  -1   8 -10 47.0031 8.34839   2
   1  -8  10 45.1915 3.26213   1
  -1   8 -11 6.98246 6.33582   2
   1  -8  11 6.16044 6.91579   2
  -1   8 -12 4.34507 8.26789   2
  -1   8 -13-2.90076 9.18994   2
  -1   8 -14 13.2169 10.4489   2
  -1   7   9 9.01894 8.80741   1
   1  -7  -9 3.55906 8.95656   2
   1  -7  -9 2.85759 10.6333   1
   1  -7  -8 32.2184 8.47852   2
  -1   7   8 29.8551 9.09341   1
   1  -7  -8 50.8451 10.2704   1
  -1   7   7 86.4097 11.0677   1
   1  -7  -7 77.2918 10.9443   1
   1  -7  -7 75.9637 9.02427   2
   1  -7  -6 37.1562 7.71785   1
  -1   7   6 41.2033 7.87183   1
   1  -7  -6 49.7197 8.17032   2
  -1   7   5 26.6832 6.10191   1
   1  -7  -5 6.75946 6.83304   1
   1  -7  -5 19.9675 5.71437   2
   1  -7  -4 4.39186 5.19014   2
  -1   7   4 8.26447 5.64440   2
   1  -7  -4 2.46426 5.19145   1
  -1   7   4 6.98939 5.62137   1
  -1   7   3 1.86838 4.68573   1
   1  -7  -3 10.4725 4.50971   2
  -1   7   3 13.1247 5.33279   2
   1  -7  -3-2.00570 5.02351   1
  -1   7   2 35.5325 6.17066   2
   1  -7  -2 29.8251 5.56119   2
   1  -7  -2 31.8905 6.32008   1
  -1   7   2 28.2614 5.56887   1
  -1   7   1 301.617 12.8919   1
   1  -7  -1 305.910 12.9433   1
  -1   7   1 295.955 12.6480   2
   1  -7  -1 287.988 12.2570   2
   1  -7   0 24.4441 5.01689   2
  -1   7   0 26.8933 5.37000   2
  -1   7   0 28.4712 5.11373   1
   1  -7   0 28.1770 4.77602   1
  -1   7  -1 63.4715 6.77812   2
  -1   7  -1 60.5554 6.19929   1
   1  -7   1 58.2670 5.82571   1
   1  -7   1 64.0849 6.33589   2
   1  -7   2-1.85423 3.11716   1
  -1   7  -2 4.73861 3.56093   1
   1  -7   2 2.26055 3.99735   2
  -1   7  -2 0.68869 4.07686   2
  -1   7  -3-3.83760 4.26721   2
   1  -7   3 2.37114 3.18842   1
  -1   7  -3 2.65454 3.23377   1
   1  -7   3 0.34523 3.95699   2
   1  -7   4 42.7569 6.07534   2
  -1   7  -4 32.6824 5.63262   2
   1  -7   4 41.0296 4.57061   1
  -1   7  -4 43.0965 4.62147   1
   1  -7   5-0.30696 2.51714   1
  -1   7  -5 8.41001 3.11623   1
   1  -7   5 1.33497 4.08459   2
  -1   7  -5-0.72152 4.13291   2
  -1   7  -6 151.062 6.69226   1
  -1   7  -6 136.566 9.31321   2
   1  -7   6 154.805 6.76210   1
   1  -7   6 145.326 9.30269   2
  -1   7  -7 10.0702 2.71975   1
   1  -7   7 8.22259 4.45001   2
   1  -7   7 6.70212 2.57251   1
  -1   7  -7 4.84159 3.95801   2
   1  -7   8 23.4188 2.93084   1
   1  -7   8 27.2248 5.62414   2
  -1   7  -8 23.6200 5.69603   2
  -1   7  -8 19.2740 2.84046   1
  -1   7  -9 2.49175 5.30340   2
   1  -7   9 3.98725 4.92562   2
   1  -7   9 5.32441 1.75125   1
   1  -7   9 4.52327 2.05049   1
  -1   7 -10 226.789 12.8715   2
   1  -7  10 213.830 12.6292   2
   1  -7  10 229.329 4.07687   1
  -1   7 -11 9.58765 7.05218   2
  -1   7 -12 19.7754 7.12092   2
  -1   7 -13-0.63063 8.00504   2
  -1   7 -14 1.12109 8.41441   2
  -1   7 -15-6.46496 10.1844   2
  -1   6  11 38.7427 10.0623   1
   1  -6 -11 45.5523 12.5065   1
   1  -6 -10 4.90338 10.1217   1
   1  -6 -10 7.19298 7.62732   2
  -1   6  10-20.6119 10.2846   1
   1  -6  -9 54.3254 9.19479   2
  -1   6   9 54.4599 10.4298   1
   1  -6  -9 51.6382 9.31776   1
   1  -6  -8 49.2804 9.15510   1
  -1   6   8 42.5219 9.44402   1
   1  -6  -8 32.2966 6.83689   2
  -1   6   7 53.0039 8.35226   1
   1  -6  -7 63.1544 9.16040   1
   1  -6  -7 58.0513 7.71580   2
   1  -6  -6 0.04915 4.46889   2
   1  -6  -6 3.24750 4.98200   1
  -1   6   6 1.82766 5.88382   1
  -1   6   5 4.77590 4.44557   1
   1  -6  -5-0.50591 4.20264   2
   1  -6  -5-1.96791 5.22878   1
   1  -6  -4 79.4833 7.20336   2
  -1   6   4 75.2369 7.87189   1
   1  -6  -4 73.5657 7.26179   1
  -1   6   4 67.1223 6.93960   2
   1  -6  -3 2.53915 3.68230   2
  -1   6   3 6.32112 3.80870   2
   1  -6  -3 6.02845 4.62284   1
  -1   6   3 9.48602 4.45362   1
   1  -6  -2 73.1294 6.58431   1
  -1   6   2 64.6269 6.05069   2
  -1   6   2 71.2382 6.55236   1
   1  -6  -2 66.9044 6.29319   2
   1  -6  -1 101.026 7.23209   1
  -1   6   1 87.2360 6.96657   1
  -1   6   1 99.0237 7.05528   2
   1  -6  -1 103.080 6.89266   2
  -1   6   0 3.31359 2.81241   1
   1  -6   0 6.74276 3.60941   1
   1  -6   0 3.40439 3.26862   2
  -1   6   0 11.6652 4.00724   2
  -1   6  -1 367.312 12.2078   2
   1  -6   1 360.449 11.4773   1
  -1   6  -1 364.153 11.5007   1
   1  -6   1 376.792 12.1199   2
  -1   6  -2 10.3145 3.39858   2
   1  -6   2 12.0327 3.17632   1
   1  -6   2 17.0444 4.23139   2
  -1   6  -2 12.1644 3.09465   1
   1  -6   3 29.8127 3.74365   1
  -1   6  -3 35.8337 4.61090   2
   1  -6   3 27.8004 4.45359   2
  -1   6  -3 34.2665 3.80163   1
  -1   6  -4 7.41885 2.48990   1
   1  -6   4 8.15330 2.55750   1
  -1   6  -4 8.57232 3.77534   2
   1  -6   4 6.41554 3.10334   2
   1  -6   5 101.730 5.17267   1
   1  -6   5 100.909 6.99967   2
  -1   6  -5 99.8479 5.00478   1
  -1   6  -5 105.599 7.39058   2
  -1   6  -6 288.203 11.5403   2
   1  -6   6 270.035 7.40371   1
  -1   6  -6 276.810 7.41435   1
   1  -6   6 255.667 11.0403   2
   1  -6   7 67.3648 6.21859   2
  -1   6  -7 66.2766 6.72470   2
  -1   6  -7 59.3465 3.40786   1
   1  -6   7 64.7732 3.59199   1
   1  -6   8 34.7936 2.36882   1
  -1   6  -8 43.6147 6.20775   2
   1  -6   8 32.6789 5.60612   2
   1  -6   9 24.6087 1.42117   1
   1  -6   9 23.7101 1.37894   1
  -1   6  -9 16.4726 4.69881   2
   1  -6   9 24.6136 5.76927   2
  -1   6 -10 12.2765 4.91081   2
  -1   6 -11 0.91137 5.77622   2
  -1   6 -12 1.84001 6.36471   2
  -1   6 -13 49.2388 8.28271   2
  -1   6 -14 41.2409 9.00014   2
  -1   6 -15-7.46769 8.97567   2
   1  -5 -12-8.92950 10.3302   1
   1  -5 -12 9.07848 9.04092   2
  -1   5  12 9.44646 11.2532   1
   1  -5 -11 9.21012 9.94507   1
   1  -5 -11 23.0486 8.33839   2
  -1   5  11 9.73739 8.97248   1
   1  -5 -10 69.2762 8.97319   2
  -1   5  10 63.3740 10.1111   1
   1  -5 -10 36.4163 9.65607   1
  -1   5   9 46.2444 8.49240   1
   1  -5  -9 44.6392 7.29430   2
   1  -5  -9 53.4090 9.08998   1
   1  -5  -8 18.1851 5.73400   2
   1  -5  -8 13.6697 5.64614   1
  -1   5   8 26.7241 6.97447   1
   1  -5  -7 10.8510 5.87957   1
   1  -5  -7 18.4767 4.93665   2
  -1   5   7 16.9490 6.14603   1
   1  -5  -6-3.45230 4.24626   1
   1  -5  -6 1.39594 3.93107   2
   1  -5  -5 3.62768 4.30489   1
   1  -5  -5 16.9241 4.24171   2
  -1   5   5 13.0196 4.82968   1
  -1   5   4 56.0142 6.32793   1
   1  -5  -4 61.2538 6.50508   1
  -1   5   4 50.1526 5.43016   2
   1  -5  -4 55.7246 5.55803   2
  -1   5   3 1.41628 3.24918   1
   1  -5  -3-1.15971 3.20965   1
   1  -5  -3 4.32036 3.30218   2
  -1   5   3-1.62307 3.06279   2
  -1   5   2 119.787 7.46412   1
   1  -5  -2 116.399 6.65377   2
  -1   5   2 112.433 6.54962   2
   1  -5  -2 116.757 7.38137   1
  -1   5   1 101.598 6.46711   1
   1  -5  -1 108.892 6.62771   1
  -1   5   1 102.609 6.18957   2
   1  -5  -1 103.320 6.27615   2
   1  -5   0 21.4495 3.53974   1
   1  -5   0 16.6949 3.56593   2
  -1   5   0 21.2439 3.69888   2
  -1   5   0 14.4710 3.43717   1
   1  -5   1 13.6904 2.97883   2
  -1   5  -1 14.3754 3.04230   1
  -1   5  -1 15.8728 3.53327   2
   1  -5   1 17.6154 3.20211   1
  -1   5  -2 21.1884 2.98158   1
   1  -5   2 19.7162 2.93550   1
   1  -5   2 19.7679 3.63896   2
  -1   5  -2 24.1417 3.50118   2
   1  -5   3 170.290 7.83811   2
  -1   5  -3 181.473 6.34895   1
  -1   5  -3 172.571 7.66564   2
   1  -5   3 185.075 6.53757   1
  -1   5  -4 108.548 6.43480   2
   1  -5   4 108.228 4.72801   1
   1  -5   4 108.513 6.52338   2
  -1   5  -4 108.516 4.60116   1
   1  -5   5 95.1354 4.04853   1
  -1   5  -5 91.8011 3.93449   1
   1  -5   5 84.7811 6.13460   2
  -1   5  -5 87.1277 6.34990   2
   1  -5   6 12.3027 1.71059   1
  -1   5  -6 12.0262 1.71935   1
   1  -5   6 17.5666 3.87960   2
  -1   5  -6 13.2400 3.85944   2
  -1   5  -7 0.34971 3.04673   2
   1  -5   7-4.24234 3.76569   2
   1  -5   7 1.80655 0.97312   1
  -1   5  -8 256.885 11.2189   2
   1  -5   8 250.914 10.8025   2
  -1   5  -9 5.91618 3.71687   2
  -1   5 -10 30.5258 6.19697   2
  -1   5 -11 157.171 10.7158   2
  -1   5 -12 39.5539 7.29092   2
  -1   5 -13 123.182 11.1322   2
  -1   5 -14-4.92484 7.76825   2
  -1   5 -15 0.51124 7.96516   2
  -1   5 -16 5.45472 9.66333   2
   1  -4 -13 12.1458 8.71736   2
  -1   4  13 21.5476 10.3138   1
   1  -4 -13 12.0964 11.1990   1
  -1   4  12-2.66614 7.89811   1
   1  -4 -12 2.56586 7.03501   2
   1  -4 -11-0.05357 6.31462   2
   1  -4 -11 14.0122 8.17962   1
  -1   4  11 9.71490 7.67547   1
   1  -4 -10 15.4023 5.65939   2
   1  -4 -10 9.28800 6.31586   1
  -1   4  10 0.98650 7.00218   1
   1  -4  -9 12.4957 6.36344   1
   1  -4  -9 15.2741 5.16489   2
  -1   4   9 26.8061 6.47638   1
   1  -4  -8 78.5303 6.95367   2
  -1   4   8 72.2623 8.01937   1
   1  -4  -8 77.7852 8.35953   1
   1  -4  -7 16.4288 4.82957   1
   1  -4  -7 3.52917 3.50631   2
  -1   4   7 9.45781 4.74470   1
   1  -4  -6 29.6514 4.39174   2
  -1   4   6 27.3505 5.26431   1
   1  -4  -6 29.8810 5.63372   1
   1  -4  -5 121.049 6.81568   2
  -1   4   5 104.590 7.57176   1
   1  -4  -5 118.169 7.69490   1
  -1   4   4-0.44156 3.36227   1
  -1   4   4-1.81018 2.66142   2
   1  -4  -4-1.18790 3.45879   1
   1  -4  -4-1.07291 2.46256   2
   1  -4  -3 584.711 14.4302   1
  -1   4   3 576.885 14.4670   1
   1  -4  -3 516.633 12.1069   2
  -1   4   3 588.689 12.9197   2
  -1   4   2 217.074 8.63010   1
   1  -4  -2 213.019 7.66056   2
   1  -4  -2 214.942 8.58776   1
  -1   4   2 216.946 7.73177   2
  -1   4   1 112.092 5.61391   2
  -1   4   1 101.422 5.62610   1
   1  -4  -1 103.228 5.39525   2
   1  -4  -1 104.341 5.66221   1
   1  -4   0 78.6867 4.83226   2
  -1   4   0 68.7392 4.58124   1
  -1   4   0 68.1940 4.44222   2
   1  -4   0 71.3626 4.61958   1
  -1   4  -1 122.354 5.41268   1
  -1   4  -1 116.616 5.65144   2
   1  -4   1 106.731 5.43683   2
   1  -4   1 103.548 4.96682   1
  -1   4  -2 172.048 6.74756   2
   1  -4   2 185.146 6.99241   2
   1  -4   2 189.748 5.94024   1
  -1   4  -2 193.800 6.00348   1
  -1   4  -3 137.593 6.36948   2
  -1   4  -3 131.702 4.50251   1
   1  -4   3 136.383 4.60671   1
   1  -4   3 138.212 6.30983   2
   1  -4   4 52.4473 4.47165   2
  -1   4  -4 55.6810 4.59024   2
   1  -4   4 55.9778 2.75714   1
  -1   4  -4 55.8752 2.70523   1
  -1   4  -5 37.5806 4.37055   2
  -1   4  -5 35.6027 1.89797   1
   1  -4   5 35.8825 4.16264   2
   1  -4   5 38.9181 1.94700   1
   1  -4   6 177.454 2.82290   1
   1  -4   6 178.433 2.88290   1
   1  -4   6 163.934 7.71788   2
  -1   4  -6 178.554 8.28483   2
  -1   4  -7 12.2822 3.70707   2
   1  -4   7 15.6068 3.34315   2
  -1   4  -8 97.3814 6.80660   2
  -1   4  -9 18.9968 4.82133   2
  -1   4 -10 15.0976 5.01775   2
  -1   4 -11 54.4058 6.84161   2
  -1   4 -12 9.67289 5.66805   2
  -1   4 -13 0.17798 5.12101   2
  -1   4 -14 4.26944 7.42293   2
  -1   4 -15 0.28239 8.03192   2
  -1   4 -16 9.61143 9.92047   2
   1  -3 -14-10.9336 9.50034   1
  -1   3  14-4.69598 8.74412   1
   1  -3 -14 1.48166 7.34475   2
  -1   3  13-0.60663 8.64754   1
   1  -3 -13-3.05843 9.81091   1
   1  -3 -13-0.05671 7.37004   2
  -1   3  12 23.5580 8.59027   1
   1  -3 -12 26.5527 8.24830   1
   1  -3 -12 18.3484 6.76978   2
   1  -3 -11 7.15377 6.29379   1
   1  -3 -11 10.6592 5.11516   2
  -1   3  11 3.67055 6.45573   1
   1  -3 -10 6.35972 4.32239   2
   1  -3 -10 12.3230 6.80563   1
  -1   3  10 8.28125 5.58506   1
   1  -3  -9 68.7960 6.35042   2
   1  -3  -9 74.2064 7.62162   1
  -1   3   9 74.5676 7.93064   1
   1  -3  -8 9.07041 4.78090   1
   1  -3  -8 9.13192 3.70190   2
  -1   3   8 13.3206 4.86378   1
   1  -3  -7 3.09760 3.43400   1
  -1   3   7 0.25626 2.90182   1
   1  -3  -7 0.95335 2.94646   2
   1  -3  -6 13.9744 3.17207   2
   1  -3  -6 17.9384 4.40329   1
  -1   3   6 12.2188 3.96805   1
  -1   3   5 237.357 9.78874   1
   1  -3  -5 265.972 8.55595   2
   1  -3  -5 264.387 10.1935   1
  -1   3   4 188.041 6.85677   2
   1  -3  -4 191.141 6.88600   2
  -1   3   4 193.950 8.26672   1
   1  -3  -4 200.616 8.46938   1
   1  -3  -3 91.3077 5.73647   1
  -1   3   3 104.606 4.99231   2
  -1   3   3 96.7122 5.79547   1
   1  -3  -3 89.3061 4.66997   2
   1  -3  -2 44.7309 3.39214   2
  -1   3   2 42.5762 3.94270   1
   1  -3  -2 47.0993 4.08799   1
  -1   3   2 49.8249 3.50222   2
  -1   3   1 113.454 4.82871   2
   1  -3  -1 115.800 4.83988   2
  -1   3   1 107.195 5.11625   1
   1  -3  -1 116.766 5.34576   1
  -1   3   0 113.618 4.84185   1
   1  -3   0 107.040 4.69940   1
  -1   3   0 106.913 4.65618   2
   1  -3   0 119.475 4.86839   2
   1  -3   1 296.686 7.47872   2
  -1   3  -1 301.020 6.80795   1
  -1   3  -1 302.558 7.57102   2
   1  -3   1 293.294 6.65333   1
   1  -3   2 2295.39 20.9644   2
   1  -3   2 2281.40 16.0065   1
  -1   3  -2 2218.96 16.0704   1
  -1   3  -2 2330.32 21.1953   2
   1  -3   3 47.9886 3.77057   2
  -1   3  -3 44.8208 2.04994   1
   1  -3   3 43.7625 2.06294   1
  -1   3  -3 43.6170 3.72889   2
  -1   3  -4 102.671 2.12577   1
  -1   3  -4 108.909 5.47642   2
   1  -3   4 106.624 5.50316   2
   1  -3   4 106.837 2.16452   1
   1  -3   5 26.2161 3.63272   2
  -1   3  -5 28.7982 3.73323   2
  -1   3  -6 45.8145 4.28450   2
  -1   3  -7 50.2686 5.05544   2
  -1   3  -8 60.6940 5.77608   2
  -1   3  -9 97.9130 7.34883   2
   1  -3   9 93.1524 2.59714   1
   1  -3   9 94.5383 2.64027   1
   1  -3  10 8.44453 1.37504   1
   1  -3  10 5.74879 1.30011   1
  -1   3 -10 9.23314 4.14789   2
  -1   3 -11 141.912 9.63309   2
   1  -3  11 130.059 4.23371   1
   1  -3  11 137.386 4.27019   1
   1  -3  12 0.52695 1.69587   1
   1  -3  12 2.65404 1.67349   1
  -1   3 -12 5.56601 5.45519   2
   1  -3  13 1.06001 2.06383   1
   1  -3  13-1.01368 1.92874   1
  -1   3 -13 0.52917 6.26724   2
   1  -3  14 2.31701 2.20766   1
  -1   3 -14 5.35614 7.55918   2
   1  -3  14 2.63165 2.33029   1
   1  -3  15 94.2941 4.64310   1
  -1   3 -15 129.939 12.6676   2
  -1   3 -16-2.61135 9.03335   2
   1  -3  16 0.46591 2.20973   1
   1  -2 -14 16.7647 7.39292   2
   1  -2 -14 16.8795 9.74187   1
  -1   2  14 12.4255 7.87274   1
   1  -2 -13 9.04959 7.98127   1
   1  -2 -13 10.9887 6.60749   2
  -1   2  13 14.2669 7.86402   1
   1  -2 -12 2.79719 4.99636   2
  -1   2  12-3.00390 6.24290   1
   1  -2 -12 0.25708 5.69469   1
   1  -2 -11 28.4390 6.93504   1
  -1   2  11 30.6962 6.34470   1
   1  -2 -11 29.4972 5.42379   2
   1  -2 -10 37.1681 5.17832   2
   1  -2 -10 40.5204 6.40436   1
  -1   2  10 40.7591 6.65355   1
   1  -2  -9 186.531 8.60580   2
   1  -2  -9 187.235 10.5634   1
  -1   2   9 204.702 10.6930   1
  -1   2   8 13.1164 3.83727   1
   1  -2  -8 12.1255 3.32239   2
   1  -2  -8 12.6634 4.54703   1
   1  -2  -7 55.5768 4.49278   2
  -1   2   7 53.2722 5.20317   1
   1  -2  -7 54.8901 5.77508   1
   1  -2  -6 47.7204 3.86504   2
   1  -2  -6 41.9465 4.86787   1
  -1   2   6 46.4456 4.62831   1
   1  -2  -5 781.231 12.5032   2
   1  -2  -5 793.713 15.9510   1
  -1   2   5 763.328 15.3027   1
   1  -2  -4 121.542 6.24971   1
   1  -2  -4 132.997 4.95551   2
  -1   2   4 120.702 6.12890   1
  -1   2   3 217.195 5.71272   2
   1  -2  -3 209.960 7.16782   1
  -1   2   3 211.221 7.12799   1
   1  -2  -3 212.639 5.65120   2
  -1   2   2 2389.42 21.4861   1
   1  -2  -2 2452.90 21.9074   1
   1  -2  -2 2454.50 17.4549   2
  -1   2   2 2444.30 17.3585   2
  -1   2   1 1041.00 11.0843   2
   1  -2  -1 1045.47 13.0073   1
  -1   2   1 990.610 12.6488   1
   1  -2  -1 1031.84 10.9804   2
   1  -2   0 763.603 9.56222   2
   1  -2   0 807.325 10.1644   1
  -1   2   0 834.635 10.2927   1
  -1   2   0 817.621 9.88067   2
   1  -2   1 447.231 7.73896   2
   1  -2   1 441.281 6.49158   1
  -1   2  -1 458.338 7.89605   2
  -1   2  -1 458.585 6.57835   1
   1  -2   2 1214.77 8.51279   1
  -1   2  -2 1198.62 13.7005   2
  -1   2  -2 1195.63 8.36042   1
   1  -2   2 1186.29 13.5187   2
  -1   2  -3 812.899 12.3152   2
   1  -2   3 790.780 12.1166   2
  -1   2  -4 687.769 12.3104   2
  -1   2  -5-0.92794 2.33966   2
   1  -2   6 4.79657 0.67796   1
  -1   2  -6 8.71429 3.01364   2
   1  -2   6 5.33606 0.68076   1
   1  -2   7 19.6327 1.49006   1
  -1   2  -7 22.9287 3.97975   2
  -1   2  -8 292.543 10.7539   2
   1  -2   8 295.833 5.89915   1
  -1   2  -8 273.368 6.06083   1
   1  -2   9 0.02775 1.46495   1
  -1   2  -9 2.99289 3.71832   2
  -1   2  -9 0.29149 1.74448   1
   1  -2  10 14.2090 2.45522   1
  -1   2 -10 8.12207 2.43703   1
  -1   2 -11 17.3685 5.26962   2
   1  -2  11 14.1661 2.80920   1
   1  -2  12 86.9895 5.16660   1
  -1   2 -12 85.7530 8.40723   2
   1  -2  13 18.8888 3.84582   1
   1  -2  13 19.4847 3.64747   1
  -1   2 -13 30.4998 7.22189   2
  -1   2 -14 1.75972 7.70567   2
   1  -2  14 1.06233 3.55508   1
   1  -2  14-0.15934 3.62726   1
  -1   2 -15 18.6919 8.50193   2
   1  -2  15 15.8956 4.41070   1
   1  -2  15 7.05538 4.36486   1
   1  -1 -15 15.4808 7.91158   2
   1  -1 -15 9.66525 7.82164   2
  -1   1  15 21.0298 9.97931   1
   1  -1 -15 10.8807 8.92610   1
   1  -1 -14 34.0955 7.52175   2
   1  -1 -14 33.6425 7.94336   2
  -1   1  14 28.9586 8.68871   1
   1  -1 -14 36.2973 9.49685   1
   1  -1 -13 5.48364 6.50614   1
   1  -1 -13 1.13429 5.35969   2
  -1   1  13 8.48079 6.34281   1
   1  -1 -13 0.41450 5.33260   2
   1  -1 -12 18.0445 5.13860   2
   1  -1 -12 21.2187 6.71765   1
  -1   1  12 9.36609 5.61065   1
   1  -1 -11 17.9445 5.68862   1
  -1   1  11 23.9600 5.80853   1
   1  -1 -11 22.1473 4.61698   2
   1  -1 -10 6.86286 3.61265   2
   1  -1 -10 4.79238 4.16582   1
  -1   1  10 12.2332 4.80179   1
   1  -1  -9 22.5630 3.77383   2
  -1   1   9 22.2287 4.78844   1
   1  -1  -9 23.2316 4.76254   1
   1  -1  -8 27.5696 3.57007   2
   1  -1  -8 37.5312 5.10404   1
  -1   1   8 35.1945 4.81993   1
   1  -1  -7 281.156 8.12179   2
   1  -1  -7 280.737 10.3204   1
  -1   1   7 286.081 10.1230   1
  -1   1   6 4.36417 2.77310   1
   1  -1  -6 8.94901 2.09966   2
   1  -1  -6 6.42624 3.06435   1
   1  -1  -5 199.994 5.60183   2
   1  -1  -5 196.827 7.64091   1
  -1   1   5 193.623 7.37333   1
   1  -1  -4 161.836 4.44597   2
   1  -1  -4 164.142 6.34816   1
  -1   1   4 163.508 6.28595   1
   1  -1  -3 214.123 6.62269   1
  -1   1   3 206.710 6.46567   1
   1  -1  -3 211.121 4.25397   2
   1  -1  -2 1030.24 7.98323   2
  -1   1   2 1034.76 12.7139   1
   1  -1  -2 1003.01 12.6976   1
  -1   1   2 1034.09 7.99239   2
  -1   1   1 1837.40 10.2734   2
   1  -1  -1 1813.23 10.2152   2
  -1   1   1 1799.92 14.9411   1
   1  -1  -1 1836.64 15.1946   1
  -1   1   0 2.23742 1.05668   2
  -1   1   0 3.08872 1.23372   1
   1  -1   0 3.87526 1.10604   2
   1  -1   0 3.87461 1.32352   1
  -1   1  -1 116.408 2.76303   1
   1  -1   1 119.328 3.68500   2
  -1   1  -1 115.840 3.71379   2
  -1   1  -1 117.687 2.89785   1
  -1   1  -2 74.7598 3.54112   2
  -1   1  -2 74.1051 1.77108   1
  -1   1  -3 1.19781 1.45758   2
   1  -1   3 0.32720 0.48392   1
  -1   1  -3 0.75920 0.52363   1
   1  -1   4 11.0010 1.03279   1
  -1   1  -4 12.3611 1.08050   1
  -1   1  -5 701.173 7.80672   1
   1  -1   5 699.987 7.76469   1
   1  -1   6 402.590 6.93002   1
  -1   1  -6 407.691 7.01589   1
   1  -1   7 137.753 4.73001   1
  -1   1  -7 133.399 4.72556   1
  -1   1  -8 2.81031 1.98558   1
   1  -1   8 3.42231 1.83321   1
   1  -1   9 93.9418 4.95048   1
  -1   1  -9 89.8669 4.97324   1
  -1   1  -9 96.7325 7.16479   2
  -1   1 -10-1.52510 2.65234   1
  -1   1 -10 1.18612 3.76835   2
   1  -1  10 3.39314 2.57741   1
   1  -1  11 34.8943 4.13911   1
  -1   1 -11 35.1656 4.30278   1
  -1   1 -11 28.8547 6.14136   2
  -1   1 -12 9.59079 3.87073   1
   1  -1  12 9.17196 3.48115   1
  -1   1 -12 9.79681 5.74475   2
   1  -1  13 109.974 7.27805   1
  -1   1 -13 113.332 7.73652   1
  -1   1 -13 112.649 10.3011   2
   1  -1  14-4.55949 4.40199   1
  -1   1 -14 6.75799 7.74604   2
  -1   1 -14-2.95368 5.16214   1
   1  -1  15 24.8941 6.05561   1
  -1   1 -15 27.5676 6.72939   1
   1   0 -15 14.1950 7.35124   2
   1   0 -15 6.67049 6.75425   2
  -1   0  15-8.69391 8.07211   1
   1   0 -15 1.57770 8.34254   1
   1   0 -14-7.32681 6.21133   2
   1   0 -14 1.35211 5.73136   2
  -1   0  14-4.57837 7.01787   1
   1   0 -14-10.4304 7.83818   1
   1   0 -13 34.2683 6.05232   2
   1   0 -13 40.0543 7.69291   1
  -1   0  13 37.9546 6.87294   1
   1   0 -12 37.2919 6.61997   1
   1   0 -12 33.4593 5.41942   2
  -1   0  12 47.2758 6.75977   1
   1   0 -11 366.158 11.8287   2
   1   0 -11 363.304 14.0814   1
  -1   0  11 380.123 13.7511   1
  -1   0  10 26.0398 4.93889   1
   1   0 -10 19.8407 3.70547   2
   1   0 -10 27.8357 4.95862   1
   1   0  -9 1.60795 3.59090   1
  -1   0   9-1.59434 3.19236   1
   1   0  -8 73.7708 5.87378   1
  -1   0   8 69.0089 5.30762   1
  -1   0   7 5.18706 2.64352   1
   1   0  -7 2.28043 2.42263   1
   1   0  -6 82.5577 5.17542   1
  -1   0   6 87.5602 5.23136   1
   1   0  -5 29.8243 3.37274   1
  -1   0   5 27.5202 3.17227   1
   1   0  -4 580.515 10.8585   1
  -1   0   4 561.473 10.6609   1
  -1   0   3 683.778 10.8500   1
   1   0  -3 718.206 11.1322   1
   1   0  -2 115.874 4.47553   1
  -1   0   2 102.887 4.15691   1
  -1   0   1 31.7631 2.14562   1
  -1   0   1 36.0270 2.60876   1
  -1   0   0 1497.31 11.4623   1
   1   0   0 1504.02 11.3703   1
  -1   0  -1 2.71871 1.06416   1
   1   0   1 3.93032 1.11769   1
   1   0   2 313.869 5.18252   1
  -1   0  -2 293.723 5.00266   1
   1   0   3 8.13367 1.34877   1
  -1   0  -3 9.73953 1.48090   1
   1   0   4 656.246 9.05640   1
  -1   0  -4 664.670 9.20430   1
   1   0   5 16.0090 2.15974   1
  -1   0  -5 17.9477 2.16085   1
   1   0   6 21.0209 2.55815   1
  -1   0  -6 25.7149 2.70763   1
   1   0   7 93.0459 4.80457   1
  -1   0  -7 99.4845 5.04755   1
  -1   0  -8 6.98067 2.51212   1
   1   0   8 5.68690 2.42667   1
  -1   0  -9 16.8803 3.35974   1
   1   0   9 9.48072 2.83103   1
  -1   0 -10 72.8497 5.84778   1
   1   0  10 69.6939 5.44808   1
  -1   0 -11 23.1469 4.53215   1
   1   0  11 29.2215 4.79616   1
   1   0  12 87.5649 7.07252   1
  -1   0 -12 95.5832 7.42970   1
  -1   0 -13 67.7515 8.69980   2
   1   0  13 73.0013 7.22691   1
  -1   0 -13 77.3043 7.60734   1
   1   0  14-1.99461 5.44137   1
  -1   0 -14 18.1967 6.85094   1
  -1   0 -14 7.51167 8.11430   2
   1   0  15 14.4251 6.94689   1
  -1   0 -15 11.3179 9.94588   2
  -1   0 -15 11.1983 7.64135   1
   1   1 -16 5.57385 8.04321   2
  -1  -1  16 3.62266 7.94093   1
  -1  -1  16 0.90240 8.07209   1
   1   1 -15-8.93082 6.20227   2
  -1  -1  15-4.10464 6.63402   1
  -1  -1  15 6.36419 6.62752   1
   1   1 -14 39.0879 6.46459   2
  -1  -1  14 36.2871 7.25794   1
   1   1 -13-0.89206 5.67074   1
   1   1 -13 1.82592 4.55289   2
  -1  -1  13-0.28899 5.04347   1
  -1  -1  12 76.3592 7.24247   1
   1   1 -12 64.3057 6.18869   2
   1   1 -11 40.0353 6.05183   1
   1   1 -11 35.3552 4.77318   2
  -1  -1  11 39.9231 5.30064   1
  -1  -1  10 42.5620 5.11147   1
   1   1 -10 44.8381 5.62529   1
   1   1 -10 39.8120 4.37445   2
  -1  -1   9 0.67044 2.68515   1
   1   1  -9 2.30933 2.50494   2
   1   1  -9 3.55435 3.12804   1
   1   1  -8 19.8530 2.86681   2
  -1  -1   8 12.3177 3.05399   1
   1   1  -8 21.0400 3.75777   1
  -1  -1   7 32.5119 3.67225   1
   1   1  -7 35.5698 3.96812   1
   1   1  -7 31.8916 2.88053   2
  -1  -1   6 141.391 6.20121   1
   1   1  -6 143.095 4.70563   2
   1   1  -5 637.830 8.40880   2
  -1  -1   5 663.779 12.0227   1
   1   1  -4 3572.22 16.9278   2
  -1  -1   4 3555.10 17.0501   2
  -1  -1   4 3498.79 25.6595   1
  -1  -1   4 3520.09 24.7246   1
  -1  -1   3 3809.41 14.9380   2
   1   1  -3 3796.38 15.2154   2
  -1  -1   3 3807.55 23.9452   1
   1   1  -2 0.26754 0.78211   2
  -1  -1   2 1.43758 1.64723   1
   1   1  -2 0.53641 1.45090   1
  -1  -1   2 0.33208 0.85743   2
   1   1  -1 1.65218 1.06440   2
  -1  -1   1 3.38563 1.16574   2
   1   1  -1 2.25348 1.59562   1
  -1  -1   1 2.48600 1.56789   1
  -1  -1   0 49.9853 2.64484   2
  -1  -1   0 51.4020 2.84130   1
   1   1   0 52.2949 2.87801   1
  -1  -1  -1 256.820 5.82243   1
   1   1   1 244.413 5.64473   1
  -1  -1  -2 394.352 7.53074   1
   1   1   2 384.612 7.43054   1
  -1  -1  -3 24.7390 2.59203   1
   1   1   3 20.6867 2.39084   1
  -1  -1  -4 497.776 9.84844   1
   1   1   4 503.565 9.84909   1
  -1  -1  -5 33.3623 3.25362   1
   1   1   5 33.0328 3.27292   1
   1   1   6 119.941 5.85443   1
  -1  -1  -6 124.968 5.93445   1
   1   1   7 10.5529 2.90224   1
  -1  -1  -7 12.6788 3.10648   1
   1   1   8 117.192 6.64027   1
  -1  -1  -8 128.919 6.95468   1
  -1  -1  -9 44.4951 5.00862   1
   1   1   9 39.6244 4.79213   1
  -1  -1 -10 61.8175 6.12042   1
   1   1  10 58.5422 5.81100   1
   1   1  11 20.3058 4.98777   1
  -1  -1 -11 11.2437 4.93578   1
  -1  -1 -12 10.1202 5.42481   1
   1   1  12 10.1993 5.13864   1
   1   1  13 9.05598 6.10704   1
  -1  -1 -13 34.1588 7.30888   1
  -1  -1 -14-14.8000 7.90445   1
   1   1  14 13.8903 6.95757   1
  -1  -2  16-9.12764 7.98168   1
  -1  -2  16-8.14503 7.60535   1
   1   2 -16 9.54621 7.20506   2
  -1  -2  15-4.59241 6.01626   1
   1   2 -15 5.85717 6.31718   2
  -1  -2  15-2.06695 5.93093   1
  -1  -2  14 15.8121 5.44695   1
  -1  -2  14 14.7393 5.58924   1
   1   2 -14 7.60906 5.20158   2
  -1  -2  13 1.74432 4.28917   1
  -1  -2  13-2.28754 4.60360   1
   1   2 -13-1.34268 4.22179   2
  -1  -2  12-3.65119 3.69213   1
  -1  -2  12 1.35889 3.93041   1
   1   2 -12-1.56304 3.64053   2
  -1  -2  11 2.86593 3.41750   1
  -1  -2  11-3.07912 3.18146   1
   1   2 -11 3.44497 3.33083   2
  -1  -2  10 8.68841 3.33754   1
   1   2 -10 9.16048 3.11198   2
  -1  -2  10 13.0516 3.63452   1
  -1  -2   9 2.71315 2.80139   1
   1   2  -9 4.34861 2.51806   2
  -1  -2   9-0.11554 2.46233   1
   1   2  -8 4.29636 2.23569   2
  -1  -2   8 3.69217 2.38064   1
  -1  -2   8 3.60063 2.67303   1
   1   2  -7 67.3525 3.97896   2
  -1  -2   7 59.9859 4.37228   1
  -1  -2   7 73.6954 4.85832   1
   1   2  -6 125.580 4.76160   2
  -1  -2   6 132.183 4.89237   2
  -1  -2   6 137.734 6.01731   1
  -1  -2   6 136.130 5.78716   1
  -1  -2   5 74.7784 3.47098   2
   1   2  -5 74.2525 3.47675   2
  -1  -2   5 82.0413 4.42315   1
  -1  -2   5 81.1266 4.79245   1
   1   2  -4 140.559 5.24157   1
   1   2  -4 144.525 4.39550   2
  -1  -2   4 141.186 4.27255   2
  -1  -2   4 153.515 5.48152   1
   1   2  -3 166.843 4.59976   2
  -1  -2   3 164.745 5.49767   1
   1   2  -3 160.717 5.38584   1
  -1  -2   3 156.294 4.39941   2
   1   2  -2 6.65560 1.58896   2
  -1  -2   2 8.89363 1.92153   1
  -1  -2   2 7.23500 1.63726   2
   1   2  -2 8.02428 2.08682   1
   1   2  -1 337.899 6.85770   2
  -1  -2   1 339.167 6.90645   2
  -1  -2   1 333.686 7.48023   1
   1   2  -1 331.593 7.46088   1
   1   2   0-0.46863 1.75721   2
  -1  -2   0 3.28344 1.68502   1
  -1  -2   0-0.36423 1.55478   2
   1   2   0 3.68852 1.84097   1
  -1  -2  -1 1267.31 15.4522   2
   1   2   1 1277.88 15.2271   1
  -1  -2  -1 1276.41 15.2391   1
  -1  -2  -2 2843.91 23.9738   1
   1   2   2 2763.93 23.6757   1
  -1  -2  -2 2813.06 24.8392   2
  -1  -2  -3 742.998 13.2961   1
  -1  -2  -3 774.163 14.1097   2
   1   2   3 748.288 13.1527   1
   1   2   4 31.9501 3.43595   1
  -1  -2  -4 34.9967 3.63516   1
  -1  -2  -4 25.2717 3.58876   2
  -1  -2  -5 13.9051 3.21431   2
   1   2   5 12.9924 3.03689   1
  -1  -2  -5 8.85113 2.70884   1
   1   2   6 0.93242 2.77508   1
  -1  -2  -6-0.76088 2.44614   1
  -1  -2  -7 16.4667 3.75754   1
   1   2   7 16.3565 3.75004   1
  -1  -2  -8 11.0521 3.85182   1
   1   2   8 18.5058 4.27101   1
  -1  -2  -8 19.2141 4.85700   2
   1   2   9 48.1235 5.88831   1
  -1  -2  -9 47.3242 5.99653   1
  -1  -2  -9 46.7250 6.23621   2
   1   2  10 12.1225 4.89793   1
  -1  -2 -10 5.17830 4.59021   1
  -1  -2 -10 1.32030 4.80737   2
  -1  -2 -11-5.05651 6.38087   2
   1   2  11 3.97037 5.21351   1
  -1  -2 -11-5.23231 4.92382   1
  -1  -2 -12 12.7188 7.37312   2
   1   2  12-3.90083 6.10823   1
  -1  -2 -12 8.04102 6.09552   1
   1   2  13 11.1251 6.76860   1
  -1  -2 -13-6.49633 9.04158   2
  -1  -2 -13 19.2812 8.01898   1
   1   2  14-2.18658 7.41943   1
  -1  -2 -14 7.79531 7.97119   1
  -1  -2 -14 7.18378 9.20930   2
  -1  -3  16 1.28322 6.70184   1
   1   3 -16-10.4954 8.02007   2
  -1  -3  16-0.15170 6.77848   1
  -1  -3  15 13.5420 6.23858   1
   1   3 -15 6.51967 6.48584   2
  -1  -3  15 23.5490 6.57571   1
  -1  -3  14-0.30483 4.76375   1
  -1  -3  14-1.28794 4.90560   1
   1   3 -14-4.98776 5.26029   2
  -1  -3  13 12.6421 4.56132   1
  -1  -3  13 23.5171 4.89824   1
   1   3 -13 13.3550 4.76998   2
   1   3 -12 6.45667 4.05008   2
  -1  -3  12 11.2577 4.10940   1
  -1  -3  12 2.87927 3.63906   1
  -1  -3  11 116.894 7.17643   1
   1   3 -11 113.805 7.08355   2
  -1  -3  11 120.130 7.36157   1
   1   3 -10 1.71372 2.78956   2
  -1  -3  10 4.87051 3.07604   1
  -1  -3  10 1.98680 2.96997   1
  -1  -3   9 324.172 10.3853   1
  -1  -3   9 314.143 9.97672   1
   1   3  -9 331.533 9.96120   2
  -1  -3   8 21.9817 3.51795   1
   1   3  -8 20.3082 3.16100   2
  -1  -3   8 23.4846 3.40446   1
   1   3  -7 8.47618 2.37475   2
  -1  -3   7 9.26333 2.46928   2
  -1  -3   7 8.70970 2.59038   1
  -1  -3   7 11.5684 2.83588   1
   1   3  -6 59.6746 4.18635   1
   1   3  -6 65.3800 4.10153   2
  -1  -3   6 64.0473 4.31129   1
  -1  -3   6 57.2617 3.84693   2
   1   3  -5 255.689 7.63784   1
  -1  -3   5 244.110 6.87947   2
  -1  -3   5 249.762 7.57417   1
   1   3  -5 256.562 7.12505   2
  -1  -3   4 255.867 7.46184   1
  -1  -3   4 251.038 6.80660   2
   1   3  -4 246.671 6.88951   2
   1   3  -4 245.996 7.40654   1
   1   3  -3 493.483 9.53617   2
  -1  -3   3 464.624 9.19928   2
  -1  -3   3 478.579 9.95032   1
   1   3  -3 470.039 9.89591   1
   1   3  -2 535.026 10.5606   1
  -1  -3   2 522.300 9.97984   2
  -1  -3   2 542.251 10.6203   1
   1   3  -2 530.547 10.0443   2
   1   3  -1 8.58533 2.20636   1
   1   3  -1 9.91175 2.44047   2
  -1  -3   1 8.21726 2.30141   2
  -1  -3   1 8.92934 2.47325   1
  -1  -3   0 1147.48 15.9800   2
   1   3   0 1194.38 16.4161   1
  -1  -3   0 1173.37 16.3501   1
   1   3   0 1173.11 16.1157   2
  -1  -3  -1 235.546 7.87748   2
  -1  -3  -1 225.829 7.74850   1
   1   3   1 229.161 7.64506   1
   1   3   1 224.716 7.76532   2
  -1  -3  -2 5.46778 2.66693   2
   1   3   2 3.83201 2.50137   1
  -1  -3  -2 4.30446 2.10306   1
  -1  -3  -3 8.28487 2.85186   1
  -1  -3  -3 12.4455 3.32725   2
   1   3   3 8.67521 2.84295   1
  -1  -3  -4 25.0566 3.63145   1
   1   3   4 25.7578 3.91752   1
  -1  -3  -4 25.3174 4.04469   2
  -1  -3  -5 75.1967 5.86728   1
   1   3   5 68.2058 5.76341   1
  -1  -3  -5 68.2260 6.07656   2
  -1  -3  -6 468.366 13.8530   1
  -1  -3  -6 463.500 14.4759   2
   1   3   6 445.532 13.5638   1
   1   3   7 12.9225 4.02689   1
  -1  -3  -7 14.4725 4.76067   2
  -1  -3  -7 9.94776 3.89723   1
  -1  -3  -8 494.644 16.7211   2
   1   3   8 480.935 15.3846   1
  -1  -3  -8 480.649 15.5370   1
  -1  -3  -9 21.2996 6.46307   2
  -1  -3  -9 36.6209 6.44735   1
   1   3   9 27.4097 5.91077   1
   1   3  10 22.8176 6.13021   1
  -1  -3 -10 21.1193 7.27311   2
  -1  -3 -10 31.4527 6.61108   1
  -1  -3 -11-1.32359 7.99941   2
   1   3  11 3.27423 6.31398   1
  -1  -3 -11 2.64700 5.97247   1
  -1  -3 -12 14.2557 8.17835   1
   1   3  12 3.30378 6.79708   1
  -1  -3 -12 8.99095 8.65109   2
  -1  -3 -13 15.7202 9.06552   1
  -1  -3 -13-8.39599 8.62065   2
   1   3  13 16.8945 9.33653   1
   1   4 -16 12.8862 7.55413   2
  -1  -4  16 10.3816 6.28347   1
  -1  -4  16 11.4470 6.35123   1
  -1  -4  15 0.39613 5.44517   1
  -1  -4  15 4.99533 5.49931   1
   1   4 -15 9.41441 6.52726   2
  -1  -4  14 20.0250 5.15674   1
  -1  -4  14 17.4931 5.43796   1
   1   4 -14 27.8048 6.44801   2
  -1  -4  13 12.0790 4.39346   1
  -1  -4  13 8.78007 4.05663   1
   1   4 -13 7.41292 4.57448   2
  -1  -4  12 8.40041 3.96387   1
   1   4 -12 7.70861 4.42584   2
  -1  -4  12 10.7800 4.17387   1
   1   4 -11 97.4564 6.99123   2
  -1  -4  11 97.0362 6.69581   1
  -1  -4  11 100.075 6.71867   1
  -1  -4  10 50.1362 4.82627   1
  -1  -4  10 51.2563 5.01113   1
   1   4 -10 44.4120 4.94432   2
  -1  -4   9 112.079 6.34310   1
  -1  -4   9 106.287 6.39365   2
  -1  -4   9 92.5765 6.04073   1
   1   4  -9 106.277 6.36485   2
   1   4  -8 92.3470 5.82576   2
  -1  -4   8 92.1601 5.73444   2
  -1  -4   8 94.2075 6.03148   1
  -1  -4   8 86.1871 5.47413   1
   1   4  -7 179.655 7.37488   2
  -1  -4   7 177.089 7.22231   2
  -1  -4   7 170.124 7.09699   1
   1   4  -7 192.318 7.45643   1
  -1  -4   6 41.8623 3.88885   1
   1   4  -6 41.9262 3.92567   1
  -1  -4   6 39.5110 3.69997   2
   1   4  -6 48.1820 4.11683   2
  -1  -4   5 34.2305 3.55468   2
   1   4  -5 34.7487 3.62804   1
  -1  -4   5 34.6435 3.48841   1
   1   4  -5 32.7448 3.50625   2
   1   4  -4 10.3870 2.71354   2
  -1  -4   4 9.74636 2.66795   2
   1   4  -4 11.4435 2.76270   1
  -1  -4   4 11.8393 2.64480   1
   1   4  -3 41.6421 3.91720   2
  -1  -4   3 39.2074 3.72690   1
   1   4  -3 36.2933 3.74146   1
  -1  -4   3 41.7342 3.83118   2
  -1  -4   2 728.614 13.9194   1
  -1  -4   2 781.141 14.1087   2
   1   4  -2 751.072 13.8797   2
   1   4  -2 756.024 14.0878   1
   1   4  -1 12.1814 3.06353   2
  -1  -4   1 10.8987 2.78502   2
   1   4  -1 9.29491 2.79226   1
  -1  -4   1 8.19077 2.55543   1
   1   4   0 46.5130 4.34388   2
  -1  -4   0 50.1910 4.23091   2
  -1  -4   0 49.6177 4.57449   1
   1   4   0 46.5356 4.06375   1
   1   4   1 19.5656 3.58688   1
   1   4   1 19.5651 3.65801   2
  -1  -4  -1 22.2437 3.65708   1
  -1  -4  -1 20.6031 3.80418   2
  -1  -4  -2 0.84056 2.61732   2
   1   4   2 3.16192 2.91123   1
  -1  -4  -2-0.03306 3.00975   1
   1   4   3 9.46399 2.98343   1
  -1  -4  -3 14.2540 3.64498   2
  -1  -4  -3 15.6953 3.83067   1
   1   4   4 0.11360 2.77039   1
  -1  -4  -4-3.99641 3.82543   2
  -1  -4  -4-2.71269 3.38572   1
  -1  -4  -5 209.285 10.1522   1
   1   4   5 211.459 10.1831   1
  -1  -4  -5 208.620 10.3197   2
  -1  -4  -6 39.1967 5.72301   1
   1   4   6 39.2770 5.37404   1
  -1  -4  -6 41.2029 6.23362   2
   1   4   7 12.4528 5.16283   1
  -1  -4  -7 9.34099 4.58208   1
  -1  -4  -7 12.5391 4.56984   2
  -1  -4  -8 6.66588 5.59949   2
   1   4   8 7.96062 5.47181   1
  -1  -4  -8 16.9402 5.78256   1
  -1  -4  -9 9.78115 6.12814   2
   1   4   9 9.14573 5.75871   1
  -1  -4  -9 16.9563 6.69714   1
  -1  -4 -10 0.06274 6.82428   1
   1   4  10 3.63448 6.03084   1
  -1  -4 -10-5.31033 7.68469   2
   1   4  11 0.53323 6.83763   1
  -1  -4 -11-2.24554 7.55743   2
  -1  -4 -11-0.40777 7.15518   1
  -1  -4 -12-2.84107 8.60155   2
   1   4  12 4.24186 8.77608   1
  -1  -4 -12 9.26772 8.68767   1
   1   5 -16 7.36477 7.87561   2
  -1  -5  16 0.48451 6.13752   1
  -1  -5  16-10.0414 6.26083   1
  -1  -5  15 12.8997 5.65798   1
  -1  -5  15 7.11994 5.46947   1
   1   5 -15 12.6882 6.77925   2
   1   5 -14 7.55559 5.44457   2
  -1  -5  14 18.7007 4.83011   1
  -1  -5  14 9.45156 4.67255   1
   1   5 -13 90.0770 8.07594   2
  -1  -5  13 101.746 7.46152   1
  -1  -5  13 98.0186 7.40853   1
   1   5 -12 16.3299 5.08223   2
  -1  -5  12 22.2226 4.57645   1
  -1  -5  12 29.0151 4.92442   1
   1   5 -11 111.966 7.78552   2
  -1  -5  11 103.895 6.70227   1
  -1  -5  11 105.929 6.99815   1
   1   5 -10 104.886 7.28037   2
  -1  -5  10 130.994 7.91124   2
  -1  -5  10 118.053 6.84744   1
  -1  -5  10 125.166 7.32661   1
  -1  -5   9 2.37595 2.82191   1
   1   5  -9 2.44731 3.47818   2
  -1  -5   9-1.53869 3.20033   2
  -1  -5   9 0.20755 3.12278   1
   1   5  -8 62.6192 5.46847   2
   1   5  -8 62.4366 5.12724   1
  -1  -5   8 70.3027 5.54301   2
  -1  -5   8 67.1178 5.21255   1
  -1  -5   7 19.1651 3.40843   1
   1   5  -7 22.9811 3.87848   2
  -1  -5   7 19.6458 3.55362   2
   1   5  -7 20.8376 3.51146   1
  -1  -5   6 99.9175 6.19931   2
   1   5  -6 114.848 6.51379   2
  -1  -5   6 112.328 6.13923   1
   1   5  -6 109.035 6.25565   1
   1   5  -5 96.1023 6.15543   2
  -1  -5   5 90.9383 5.81436   2
   1   5  -5 88.8738 5.68456   1
  -1  -5   5 96.1324 5.80376   1
   1   5  -4 2.07651 2.67836   2
  -1  -5   4 3.76719 2.41468   1
   1   5  -4 0.11447 2.24464   1
  -1  -5   4-0.67411 2.25796   2
   1   5  -3 327.368 10.4896   2
  -1  -5   3 345.547 10.5376   2
  -1  -5   3 339.326 10.5062   1
   1   5  -3 330.943 10.3762   1
  -1  -5   2 18.2976 3.65830   2
   1   5  -2 25.1491 3.67371   2
  -1  -5   2 22.3272 3.86473   1
   1   5  -2 18.9992 3.64607   1
   1   5  -1 7.10837 3.36619   2
  -1  -5   1 9.56786 3.09753   1
  -1  -5   1 10.5773 3.53470   2
   1   5  -1 7.85952 2.72902   1
   1   5   0 3.68661 3.32497   2
   1   5   0 8.47377 3.44433   1
  -1  -5   0 2.31825 2.52508   1
  -1  -5   0 1.54775 2.63730   2
   1   5   1 119.564 7.38866   2
  -1  -5  -1 125.778 7.62590   1
  -1  -5  -1 129.044 7.78660   2
   1   5   1 130.371 7.64065   1
  -1  -5  -2 402.434 13.3464   2
   1   5   2 405.312 13.2330   1
  -1  -5  -2 414.377 13.5079   1
   1   5   2 421.082 13.5214   2
   1   5   3 89.8331 7.18269   1
  -1  -5  -3 92.0173 7.32310   1
  -1  -5  -3 80.3659 7.09589   2
  -1  -5  -4 181.866 10.2180   2
  -1  -5  -4 179.503 10.1043   1
   1   5   4 191.391 10.1611   1
  -1  -5  -5 52.6716 6.78720   1
   1   5   5 47.6864 6.04944   1
  -1  -5  -5 56.7379 7.24141   2
  -1  -5  -6 10.4794 4.51713   1
  -1  -5  -6 16.4907 5.80305   2
   1   5   6 6.85083 5.21638   1
   1   5   7-4.25878 5.21783   1
  -1  -5  -7 0.51862 5.68649   2
  -1  -5  -7-3.56105 5.36710   1
  -1  -5  -8-6.49814 6.26198   2
   1   5   8 7.40738 6.51693   1
  -1  -5  -8 12.7415 6.81047   1
  -1  -5  -9 34.7176 8.22213   1
  -1  -5  -9 33.3362 8.31839   2
   1   5   9 19.7395 7.25119   1
  -1  -5 -10 11.4187 8.40153   1
  -1  -5 -10-3.67293 8.95181   2
   1   5  10-4.26854 8.09689   1
   1   5  11 75.0583 12.3918   1
  -1  -5 -11 60.4294 11.7499   1
  -1  -6  16 13.7978 6.47921   1
  -1  -6  16 22.2406 6.32333   1
   1   6 -16 4.84057 8.29992   2
  -1  -6  15 16.3339 5.86606   1
  -1  -6  15 17.9935 5.88250   1
   1   6 -15 18.6565 7.99316   2
  -1  -6  14-1.63381 4.67348   1
  -1  -6  14 3.37481 5.05697   1
   1   6 -14 1.88139 6.30564   2
  -1  -6  13 10.1503 4.69601   1
   1   6 -13 7.89567 5.69123   2
  -1  -6  13 10.9740 4.69513   1
  -1  -6  12 41.7892 5.54402   1
   1   6 -12 37.9925 6.32138   2
  -1  -6  12 32.4940 4.92931   1
   1   6 -11 61.1750 6.87458   2
  -1  -6  11 83.9022 6.90078   1
  -1  -6  11 71.7232 7.28189   2
  -1  -6  11 67.6096 6.07073   1
   1   6 -10 61.2310 6.50178   2
  -1  -6  10 58.2785 6.28512   2
  -1  -6  10 61.7337 6.17753   1
  -1  -6  10 55.3217 5.39586   1
   1   6  -9 20.9659 4.60037   2
  -1  -6   9 22.3765 4.63116   2
  -1  -6   9 22.8566 4.11363   1
   1   6  -9 22.1267 4.07962   1
   1   6  -8 3.32812 3.10373   1
   1   6  -8 4.75854 3.91796   2
  -1  -6   8 8.76622 3.97166   2
  -1  -6   8 1.04482 3.02302   1
   1   6  -7 83.7256 6.69004   2
   1   6  -7 100.966 6.57830   1
  -1  -6   7 94.6655 6.75553   2
  -1  -6   7 87.6947 6.10339   1
  -1  -6   6-1.94644 2.72140   1
   1   6  -6 1.31425 2.90636   1
  -1  -6   6 0.68797 2.91634   2
   1   6  -6 1.52241 3.02526   2
  -1  -6   5 204.847 9.18964   2
   1   6  -5 206.211 9.29128   2
   1   6  -5 206.914 9.00136   1
  -1  -6   5 211.818 9.01863   1
   1   6  -4 155.908 8.38799   2
  -1  -6   4 161.300 8.18635   1
   1   6  -4 167.613 8.13870   1
  -1  -6   4 169.171 8.51651   2
  -1  -6   3-0.50137 3.19212   1
   1   6  -3-2.47878 3.21616   2
  -1  -6   3 0.54826 3.23692   2
   1   6  -3-1.34371 2.98310   1
  -1  -6   2 2.51827 2.69478   1
   1   6  -2 3.51666 3.52194   2
  -1  -6   2-1.84795 3.31212   2
   1   6  -2 2.66145 2.69401   1
  -1  -6   1 7.35205 3.92042   1
   1   6  -1 7.32551 3.62996   2
  -1  -6   1 14.7299 4.45823   2
   1   6  -1 7.35951 3.86613   1
  -1  -6   0 19.5758 4.35758   2
   1   6   0 19.7511 4.16512   1
   1   6   0 14.4110 4.59432   2
  -1  -6   0 17.7786 4.51278   1
   1   6   1 153.209 9.22231   2
  -1  -6  -1 155.518 9.30770   2
  -1  -6  -1 155.308 9.12047   1
   1   6   1 149.882 8.94001   1
  -1  -6  -2 50.1944 6.49849   1
  -1  -6  -2 54.4063 6.09856   2
   1   6   2 64.8487 6.69907   2
   1   6   2 48.7024 6.39463   1
  -1  -6  -3-2.34337 4.57816   1
  -1  -6  -3 2.00953 4.88719   2
   1   6   3 2.36647 4.57916   1
   1   6   4 21.1858 5.86480   1
  -1  -6  -4 20.9171 5.90974   1
  -1  -6  -4 18.0550 5.65467   2
   1   6   5 20.2194 6.60204   1
  -1  -6  -5 28.0862 7.17556   2
  -1  -6  -5 21.9070 6.78345   1
  -1  -6  -6 1.47500 6.73513   2
   1   6   6 12.3931 5.38536   1
  -1  -6  -6 3.23715 6.20872   1
   1   6   7 10.6364 6.48479   1
  -1  -6  -7-7.72262 6.73577   2
  -1  -6  -7 1.87320 6.05798   1
  -1  -6  -8 46.2411 9.37717   2
   1   6   8 68.5743 9.65117   1
  -1  -6  -8 70.8357 9.63299   1
   1   6   9-6.15490 9.15084   1
  -1  -6  -9-14.0424 9.40662   2
  -1  -6 -10 8.44644 11.2861   1
  -1  -6 -10-6.65296 10.4002   2
   1   6  10 6.84730 10.0949   1
  -1  -7  16 14.7884 4.62186   1
  -1  -7  16 23.1112 4.85117   1
   1   7 -16 11.3947 6.45345   2
  -1  -7  15 41.1965 6.67381   1
  -1  -7  15 39.4773 6.55505   1
   1   7 -15 41.7102 8.55752   2
  -1  -7  14 21.0989 5.90141   1
   1   7 -14 24.6327 7.77425   2
  -1  -7  14 20.5639 5.72142   1
  -1  -7  13 49.8099 6.40372   1
  -1  -7  13 43.8916 6.05535   1
   1   7 -13 42.3375 7.29551   2
  -1  -7  12 0.50025 4.38216   1
  -1  -7  12-1.48208 5.20479   2
  -1  -7  12 3.92454 4.36549   1
   1   7 -12 13.3164 6.12476   2
   1   7 -11-6.29653 5.54105   2
  -1  -7  11-3.67304 4.86839   2
  -1  -7  11-1.63430 4.07319   1
  -1  -7  11 3.55922 4.68203   1
   1   7 -10-0.19480 4.78628   2
  -1  -7  10 0.64144 3.77487   1
  -1  -7  10 4.45554 4.65541   2
   1   7 -10-0.92393 3.85758   1
   1   7  -9 2.39986 3.94717   2
   1   7  -9 8.48819 3.84141   1
  -1  -7   9 9.49043 3.93309   1
  -1  -7   9 7.57782 4.79025   2
   1   7  -8 23.5599 5.37115   2
  -1  -7   8 26.7363 4.76436   1
  -1  -7   8 24.8977 5.49100   2
   1   7  -8 21.8046 4.61549   1
   1   7  -7 39.3940 5.62070   2
  -1  -7   7 37.4147 5.49350   2
  -1  -7   7 34.0827 4.95810   1
   1   7  -7 33.3639 4.95041   1
   1   7  -6 11.1382 4.37466   2
  -1  -7   6 7.04112 3.67673   2
  -1  -7   6 11.0038 4.01995   1
   1   7  -6 10.3970 3.71690   1
  -1  -7   5 91.6351 7.15897   1
   1   7  -5 91.4176 7.78037   2
  -1  -7   5 85.5943 7.08627   2
   1   7  -5 85.6107 6.94749   1
  -1  -7   4 68.3875 6.96170   2
   1   7  -4 67.2481 6.79881   2
   1   7  -4 65.9845 6.12199   1
  -1  -7   4 68.1308 6.45372   1
  -1  -7   3 47.9059 5.81664   2
  -1  -7   3 40.3803 5.67153   1
   1   7  -3 47.9521 5.74979   2
   1   7  -3 42.0103 5.32400   1
  -1  -7   2 9.92977 4.48362   1
   1   7  -2 14.1676 4.77234   2
  -1  -7   2 10.1811 4.26205   2
   1   7  -2 22.7200 4.98950   1
   1   7  -1 10.2261 3.94289   1
  -1  -7   1 1.33318 4.31051   2
   1   7  -1 5.02730 4.53034   2
  -1  -7   1 7.62777 4.47895   1
  -1  -7   0 55.4907 6.45500   1
  -1  -7   0 50.4123 6.35002   2
   1   7   0 50.8514 6.19968   1
   1   7   0 49.0264 6.88116   2
  -1  -7  -1 55.8416 7.51529   1
   1   7   1 47.1666 6.97719   2
  -1  -7  -1 55.8193 7.47942   2
   1   7   1 52.7368 7.10478   1
  -1  -7  -2 213.530 12.2147   2
  -1  -7  -2 222.283 12.4495   1
   1   7   2 210.738 12.2459   1
   1   7   2 208.174 11.7876   2
  -1  -7  -3 36.3042 6.58479   1
  -1  -7  -3 32.0617 7.37651   2
   1   7   3 33.5899 6.41192   1
   1   7   4-2.70101 5.74671   1
  -1  -7  -4 2.92006 6.05731   1
  -1  -7  -4 3.93960 6.70198   2
  -1  -7  -5-0.74387 7.01846   1
  -1  -7  -5 10.6313 6.50761   2
   1   7   5-1.20538 5.37487   1
  -1  -7  -6 19.4363 7.19018   2
   1   7   6 26.5358 8.27164   1
  -1  -7  -6 22.8325 7.46572   1
  -1  -7  -7 106.072 12.2611   2
   1   7   7 125.408 13.2117   1
  -1  -7  -7 111.536 12.6648   1
  -1  -7  -8-11.4131 9.20450   2
  -1  -7  -8-4.29679 8.67553   1
   1   7   8 7.95586 9.26230   1
   1   7   9 22.4460 7.10356   1
  -1  -7  -9 23.3599 7.85872   2
  -1  -7  -9 33.1798 8.09678   1
   1   8 -15-6.92527 8.93461   2
  -1  -8  15-3.39887 5.99269   1
  -1  -8  15-4.23677 5.92880   1
   1   8 -14 21.3578 8.57307   2
  -1  -8  14 10.4813 5.75843   1
  -1  -8  14 4.54979 5.77349   1
  -1  -8  13 77.5142 9.67355   2
  -1  -8  13 61.7377 7.06119   1
  -1  -8  13 79.5381 8.24291   1
   1   8 -13 71.4053 9.44049   2
  -1  -8  12 3.06384 5.40982   1
  -1  -8  12 6.34424 5.12227   1
  -1  -8  12 6.33680 6.91955   2
   1   8 -11-10.2199 6.40725   2
  -1  -8  11 4.57130 4.61978   1
  -1  -8  11 3.94908 5.67409   2
   1   8 -10 17.5695 6.35441   2
  -1  -8  10 1.46093 4.39744   1
   1   8 -10-1.73758 4.72590   1
  -1  -8  10 17.0932 6.34349   2
  -1  -8   9 6.58494 4.43770   1
   1   8  -9-3.35341 5.58924   2
  -1  -8   9 2.17270 5.57192   2
   1   8  -9 8.26664 4.61784   1
  -1  -8   8 32.0632 6.19289   2
  -1  -8   8 30.9126 5.56837   1
   1   8  -8 29.7643 5.55062   1
   1   8  -8 22.5264 6.45706   2
  -1  -8   7 51.9213 7.33841   2
   1   8  -7 58.8175 6.71066   1
  -1  -8   7 54.0009 6.50690   1
   1   8  -7 53.0517 6.74024   2
   1   8  -6 169.027 9.99016   1
  -1  -8   6 167.436 9.85350   1
   1   8  -6 176.121 10.8825   2
  -1  -8   6 170.259 10.5849   2
   1   8  -5-0.36312 4.97049   2
  -1  -8   5 1.68576 4.38472   2
   1   8  -5 2.84846 3.82475   1
  -1  -8   5-0.47559 4.04251   1
  -1  -8   4 38.1193 6.48335   2
  -1  -8   4 34.5332 5.54381   1
   1   8  -4 25.9664 5.44550   1
   1   8  -4 33.7196 6.19414   2
   1   8  -3 72.9199 7.41373   2
  -1  -8   3 62.5700 7.55084   2
   1   8  -3 71.1591 7.14460   1
  -1  -8   3 66.1735 7.36336   1
   1   8  -2 100.896 9.15030   2
  -1  -8   2 124.372 9.72157   2
   1   8  -2 121.696 9.40572   1
  -1  -8   2 120.533 9.72421   1
   1   8  -1-0.39373 5.37000   2
  -1  -8   1 10.6744 5.81265   2
  -1  -8   1-1.03114 5.74344   1
   1   8  -1 7.73827 4.62844   1
   1   8   0 2.98423 5.64462   2
  -1  -8   0 2.24230 6.04500   2
  -1  -8   0 8.20563 5.23497   1
   1   8   0 5.86785 5.81926   1
  -1  -8  -1 19.9549 7.13989   2
   1   8   1 18.7829 6.30957   1
  -1  -8  -1 10.2076 5.83104   1
   1   8   1 0.06112 6.31516   2
  -1  -8  -2-8.38840 6.82087   2
   1   8   2-1.29838 6.49744   1
  -1  -8  -2 2.11706 6.90275   1
  -1  -8  -3 1.24085 6.31038   2
   1   8   3-0.27479 6.41074   1
  -1  -8  -3 1.11536 6.41407   1
  -1  -8  -4 11.2722 7.26738   1
   1   8   4 2.32813 7.79339   1
  -1  -8  -4 17.9946 8.15837   2
  -1  -8  -5 4.85629 9.35421   1
   1   8   5 0.61659 8.09405   1
  -1  -8  -5-2.29725 7.68581   2
  -1  -8  -6 34.3569 9.76590   1
   1   8   6 40.9835 10.5742   1
  -1  -8  -7 24.4310 10.9582   1
  -1  -8  -7-9.76829 10.8258   2
   1   8   7 9.81435 10.9995   1
  -1  -9  14-15.0708 6.78982   1
   1   9 -14-12.2401 9.34504   2
  -1  -9  14 10.1039 10.0524   2
  -1  -9  14 11.5988 6.81074   1
  -1  -9  13 25.2032 6.67939   1
   1   9 -13 18.7924 8.09150   2
  -1  -9  13 22.2238 9.35104   2
  -1  -9  13 17.6747 6.94773   1
   1   9 -12 23.4277 8.75941   2
  -1  -9  12 11.6691 5.96851   1
  -1  -9  12 16.2938 8.59961   2
  -1  -9  12 17.5350 7.47482   1
   1   9 -11 2.58206 5.54458   1
  -1  -9  11-0.04800 5.24856   1
   1   9 -11-4.38537 8.11196   2
  -1  -9  11 10.3931 6.59466   2
   1   9 -10 10.3183 6.34523   2
   1   9 -10 5.17940 5.45933   1
  -1  -9  10-4.34143 5.93098   2
  -1  -9  10-0.39127 5.15971   1
  -1  -9   9 120.946 9.43601   1
  -1  -9   9 125.694 10.6666   2
   1   9  -9 127.779 9.75609   1
   1   9  -9 124.589 11.3779   2
   1   9  -8 27.9969 6.35345   1
   1   9  -8 15.5554 6.94162   2
  -1  -9   8 27.1115 6.17027   1
  -1  -9   8 30.4803 6.97546   2
  -1  -9   7 41.1355 7.19278   2
   1   9  -7 37.4577 7.68358   2
   1   9  -7 36.5279 6.89464   1
  -1  -9   7 39.7863 6.60943   1
   1   9  -6 38.6118 6.56327   1
  -1  -9   6 44.4936 6.97111   1
   1   9  -6 35.9938 6.69013   2
  -1  -9   6 38.7742 7.53550   2
  -1  -9   5 61.3173 7.83173   1
   1   9  -5 57.3675 8.33554   2
  -1  -9   5 52.3509 8.25948   2
   1   9  -5 54.4668 7.47560   1
  -1  -9   4 90.3889 9.31769   1
   1   9  -4 78.6478 8.48935   1
   1   9  -4 75.8340 8.79142   2
  -1  -9   4 63.3502 8.70813   2
   1   9  -3 5.79501 5.85915   1
   1   9  -3 0.68795 5.28036   2
  -1  -9   3 3.12982 6.40840   2
  -1  -9   3-1.29604 5.24526   1
   1   9  -2-8.15507 6.73320   1
  -1  -9   2-1.08766 5.90225   2
  -1  -9   2 6.52832 5.89780   1
   1   9  -2 7.55243 5.30653   2
   1   9  -1 21.5617 7.25105   1
   1   9  -1 15.4445 6.52366   2
  -1  -9   1 15.3377 6.89795   2
  -1  -9   1 16.1676 7.27856   1
  -1  -9   0 14.3873 6.62704   2
  -1  -9   0 10.7587 7.29846   1
   1   9   0 11.2731 6.71519   2
   1   9   0 12.7803 7.36353   1
  -1  -9  -1 9.55615 7.86465   2
  -1  -9  -1 15.0971 7.90960   1
   1   9   1 8.70656 7.53900   1
   1   9   1 29.4520 8.23738   2
  -1  -9  -2-2.70986 8.59016   2
  -1  -9  -2 2.44707 8.19791   1
   1   9   2 0.15024 6.97204   1
   1   9   3 25.9785 9.47978   1
  -1  -9  -3-2.73450 8.97964   1
  -1  -9  -3 16.6962 10.1942   2
  -1  -9  -4-16.4250 10.1667   1
  -1  -9  -4-5.48593 8.67869   2
   1   9   4 5.43157 7.71973   1
   1   9   5 81.2003 14.1336   1
  -1  -9  -5 72.4144 12.6747   1
  -1 -10  13-12.5236 5.90677   1
   1  10 -13 5.56360 7.08914   2
  -1 -10  13-0.85995 6.51584   1
   1  10 -12-22.0415 10.8000   2
  -1 -10  12-14.3520 9.55242   2
  -1 -10  12-12.7193 7.77728   1
   1  10 -12 11.3535 6.83953   1
   1  10 -11-1.47812 6.62766   1
   1  10 -11 14.0944 9.47948   2
  -1 -10  11-4.59469 6.98245   1
  -1 -10  11-4.72037 9.08760   2
   1  10 -10 53.7684 10.6183   2
  -1 -10  10 57.2239 8.52970   1
  -1 -10  10 41.1271 10.4424   2
   1  10 -10 60.6443 8.77509   1
   1  10  -9 19.5466 8.75930   2
   1  10  -9 19.3186 7.45132   1
  -1 -10   9 31.8650 7.95621   1
  -1 -10   9 18.3812 7.75127   2
   1  10  -8 13.3794 7.14714   2
   1  10  -8 12.1902 6.47232   1
  -1 -10   8 6.16936 6.19111   1
   1  10  -7-2.83370 6.69600   1
  -1 -10   7-4.25052 6.88908   2
   1  10  -7-8.50997 8.07936   2
  -1 -10   7 2.61884 6.36073   1
  -1 -10   6-3.81646 7.16726   2
   1  10  -6 11.7316 6.41540   1
   1  10  -6 2.87299 6.72733   2
  -1 -10   6 6.33426 6.25217   1
  -1 -10   5 37.5565 8.50509   2
   1  10  -5 32.1579 7.57469   2
   1  10  -5 37.7267 8.04720   1
  -1 -10   5 38.9696 7.78258   1
   1  10  -4 62.6084 10.0460   2
  -1 -10   4 55.9150 9.04243   1
  -1 -10   4 62.5510 9.88649   2
   1  10  -4 50.4650 8.46676   1
   1  10  -3 51.1457 8.67775   2
  -1 -10   3 57.8072 9.21875   2
  -1 -10   3 60.2281 9.89784   1
   1  10  -3 61.6032 9.54776   1
   1  10  -2 71.2233 10.6918   2
  -1 -10   2 61.7534 9.29318   1
  -1 -10   2 77.1626 11.1072   2
   1  10  -2 72.0382 10.1005   1
   1  10  -1-7.52493 9.00196   1
   1  10  -1 7.89569 9.28157   2
  -1 -10   1 4.15524 7.68896   2
  -1 -10   1-0.15356 8.29827   1
  -1 -10   0 7.76939 9.13488   2
   1  10   0 14.5771 9.68650   1
  -1 -10   0 4.81957 8.74805   1
   1  10   0-9.19592 8.81478   2
  -1 -10  -1-9.96338 8.85646   2
   1  10   1 13.8730 8.42984   2
  -1 -10  -1 0.16771 7.75763   1
   1  10   1 0.57822 9.36274   1
  -1 -10  -2 6.19376 10.7190   2
  -1 -10  -2-15.1908 11.3997   1
   1  10   2-24.3144 12.1027   1
  -1 -10  -3 34.0624 13.0169   2
  -1 -10  -3 40.9607 13.2789   1
   1  11 -10-22.9382 9.96723   2
   1  11 -10-6.07007 7.98021   1
  -1 -11  10-2.17339 8.67223   1
   1  11  -9 16.4151 11.0997   2
   1  11  -9-15.3234 8.79434   1
  -1 -11   9 8.89853 10.1047   2
  -1 -11   9-8.87823 9.55067   1
   1  11  -8 21.6234 8.81480   2
   1  11  -8 9.01798 7.56308   1
  -1 -11   8 25.2961 10.8533   2
  -1 -11   8 10.8643 8.04428   1
   1  11  -7 17.1242 9.80310   2
   1  11  -7 17.6972 8.44010   1
  -1 -11   7 9.10516 8.27641   1
  -1 -11   7 16.1124 9.93864   2
   1  11  -6-5.23778 10.4503   2
  -1 -11   6 1.20476 8.58517   2
   1  11  -6 13.3708 7.79114   1
  -1 -11   6 16.7587 7.93054   1
   1  11  -5 53.9308 11.4859   2
  -1 -11   5 70.7929 12.9036   2
   1  11  -5 41.7824 9.54407   1
  -1 -11   5 37.5394 9.63476   1
   1  11  -4-0.49485 9.43667   2
  -1 -11   4 9.17540 8.71961   1
   1  11  -4 23.1649 8.54586   1
  -1 -11   4 14.3475 9.77679   2
   1  11  -3 8.08561 8.17652   1
  -1 -11   3 8.16491 9.52235   2
  -1 -11   3 6.59264 8.28688   1
   1  11  -3 28.5254 9.48621   2
   1  11  -2 17.3606 10.6736   1
  -1 -11   2 25.2466 10.0462   1
   1  11  -2 34.8922 12.5195   2
  -1 -11   2 21.9425 12.1337   2
   1  11  -1 7.84700 9.71052   2
  -1 -11   1-6.23915 9.13508   2
   1  11  -1 11.1097 11.2737   1
  -1 -11   1-6.44326 10.6496   1
   1  11   0 14.4963 10.8354   1
  -1 -11   0 13.3802 9.13996   1
  -2  11   0-4.25759 10.9818   2
   2 -11   0 4.59630 9.25882   1
  -2  11   0-13.5027 9.74330   1
   2 -11   0 2.99225 8.91874   2
   2 -11   1 7.75142 9.05728   1
  -2  11  -1 6.77184 9.68193   1
   2 -11   1-12.4790 9.78621   2
  -2  11  -1-11.7679 11.3908   2
   2 -11   2-7.80099 9.56711   1
  -2  11  -2-3.61080 10.0476   2
   2 -11   2 9.78129 8.81704   2
  -2  11  -2 4.14643 8.18773   1
   2 -11   3-9.83803 8.39257   1
   2 -11   3 4.21693 10.1463   2
  -2  11  -3 1.40820 8.04877   1
  -2  11  -3 3.38592 10.5529   2
  -2  11  -4-0.97832 10.5468   2
   2 -11   4 5.46409 7.49468   1
   2 -11   4-10.8271 10.0277   2
  -2  11  -4-7.13039 7.66019   1
   2 -11   5 24.4354 10.4644   2
  -2  11  -5 18.0386 9.42058   2
  -2  11  -5 32.4262 7.94323   1
   2 -11   5 16.5835 7.25897   1
  -2  11  -6-12.0136 9.57234   2
  -2  11  -6 5.02765 6.27209   1
   2 -11   6 4.19195 10.8493   2
   2 -11   7-5.65330 6.51612   1
  -2  11  -7 3.40551 6.18740   1
  -2  11  -7 13.4223 9.05381   2
   2 -11   7 7.48828 10.5741   2
  -2  11  -8 40.6094 13.0345   2
  -2  11  -8 34.4186 6.47248   1
   2 -11   8 45.6199 7.16298   1
   2 -11   8 44.3573 11.1627   2
   2 -11   9 16.3648 4.26799   1
  -2  10   3 61.1563 12.2565   1
   2 -10  -3 99.7380 11.9418   2
  -2  10   3 71.2553 12.2538   2
   2 -10  -3 67.9732 12.6247   1
  -2  10   2 34.9283 9.76458   2
   2 -10  -2 44.5551 10.0863   1
   2 -10  -2 49.0749 9.64467   2
  -2  10   2 44.7526 10.9593   1
   2 -10  -1-7.77516 8.05141   2
  -2  10   1 10.1856 9.24020   2
  -2  10   1 5.91373 8.88129   1
   2 -10  -1 12.8337 9.02081   1
  -2  10   0 9.55334 8.28331   2
   2 -10   0 6.98648 8.59534   1
  -2  10   0 4.63221 8.03073   1
   2 -10   0-3.22214 8.08105   2
  -2  10  -1 0.41969 7.07015   2
   2 -10   1 7.17603 7.84027   1
  -2  10  -1-0.38724 7.08201   1
   2 -10   1 5.63806 7.53645   2
  -2  10  -2 15.2408 7.90731   2
  -2  10  -2 21.2775 7.10518   1
   2 -10   2 24.1952 7.54710   2
   2 -10   2 23.8760 7.07428   1
  -2  10  -3-1.21331 6.38176   1
  -2  10  -3 0.21179 8.54308   2
   2 -10   3 14.0484 7.38101   2
   2 -10   3 2.11129 6.37382   1
  -2  10  -4 8.24982 8.39504   2
   2 -10   4-4.61404 7.78404   2
  -2  10  -4 7.93705 5.64446   1
   2 -10   4 6.33953 5.67727   1
  -2  10  -5 3.16092 6.91107   2
   2 -10   5 11.2264 5.43143   1
   2 -10   5 23.2704 8.62837   2
  -2  10  -5 3.28104 5.52255   1
  -2  10  -6 32.9475 5.80027   1
  -2  10  -6 29.0875 9.64624   2
   2 -10   6 16.1988 7.28332   2
   2 -10   6 39.4214 6.45996   1
  -2  10  -7 2.72052 9.22821   2
  -2  10  -7 4.79355 4.79097   1
   2 -10   7-0.90108 8.71246   2
   2 -10   7-3.37682 4.49188   1
  -2  10  -8 8.15592 4.29416   1
   2 -10   8-7.20618 7.35246   2
   2 -10   8-1.17399 4.02357   1
  -2  10  -8 9.48092 8.52255   2
   2 -10   9 8.32523 3.05933   1
  -2  10  -9 15.5340 11.2953   2
  -2  10  -9 6.00897 2.92740   1
   2 -10   9 3.52836 9.61840   2
   2 -10  10-5.08669 11.0062   2
  -2  10 -10 0.51700 11.2796   2
  -2  10 -11-7.27365 11.9200   2
   2 -10  11-0.25939 9.27066   2
   2  -9  -6 61.6257 13.1423   1
  -2   9   6 72.1520 13.4488   1
   2  -9  -6 38.8169 9.83574   2
  -2   9   5 6.55911 10.4678   1
   2  -9  -5 3.90971 11.3949   1
   2  -9  -5 7.51421 8.09452   2
  -2   9   4 4.45345 9.72964   1
  -2   9   4 5.75282 7.40133   2
   2  -9  -4 10.0146 8.10990   1
   2  -9  -4 14.5076 7.70983   2
  -2   9   3 70.1515 10.5761   2
   2  -9  -3 43.9048 8.69541   2
  -2   9   3 57.1449 9.57699   1
   2  -9  -3 53.6948 10.7559   1
   2  -9  -2 1.99537 6.35257   1
   2  -9  -2 6.66262 6.28734   2
  -2   9   2 2.09676 6.40531   2
  -2   9   2-4.42674 7.79155   1
  -2   9   1 0.49583 6.66207   2
  -2   9   1 11.0693 6.13372   1
   2  -9  -1 0.46422 6.92780   1
   2  -9  -1 1.39642 6.53632   2
   2  -9   0 22.8986 7.31915   2
  -2   9   0 35.7940 7.93149   2
   2  -9   0 30.2572 7.64310   1
  -2   9   0 32.3557 7.68957   1
  -2   9  -1 44.4569 7.15383   1
  -2   9  -1 51.8602 8.69532   2
   2  -9   1 55.9652 8.65725   2
   2  -9   1 61.5191 8.17920   1
  -2   9  -2-1.03109 5.70233   2
   2  -9   2 6.17320 5.80618   1
   2  -9   2 3.12333 5.96209   2
  -2   9  -2 7.97238 5.12561   1
  -2   9  -3 19.6105 6.98954   2
  -2   9  -3 13.4322 5.38691   1
   2  -9   3 14.1744 6.59098   2
   2  -9   3 12.8559 5.38541   1
   2  -9   4 27.9623 5.58317   1
  -2   9  -4 25.3661 6.64132   2
  -2   9  -4 25.9550 5.22632   1
   2  -9   4 20.3329 6.46794   2
   2  -9   5 59.7812 8.79372   2
  -2   9  -5 34.8364 8.17531   2
  -2   9  -5 48.7610 5.89401   1
   2  -9   5 44.8196 5.83799   1
   2  -9   6 2.74336 3.93270   1
  -2   9  -6 6.10403 6.40135   2
  -2   9  -6-0.69690 3.59362   1
   2  -9   6-1.81165 6.64092   2
  -2   9  -7-6.65886 7.21905   2
  -2   9  -7-0.47759 3.36525   1
   2  -9   7 0.86761 5.76669   2
   2  -9   7-3.28588 3.63414   1
   2  -9   8 56.3881 8.89200   2
   2  -9   8 40.9145 4.12559   1
  -2   9  -8 41.1171 8.35183   2
  -2   9  -8 44.5346 4.19892   1
   2  -9   9 2.46648 1.19940   1
  -2   9  -9 11.1522 8.39152   2
   2  -9   9 15.3269 8.02619   2
  -2   9 -10 6.68132 9.74392   2
   2  -9  10 10.4050 9.43905   2
   2  -9  11 15.5851 10.0621   2
  -2   9 -11 13.5335 10.0269   2
  -2   9 -12 30.3222 12.2013   2
   2  -8  -8 28.5678 6.95213   2
   2  -8  -7 7.38394 9.27016   1
  -2   8   7-7.15027 9.10725   1
  -2   8   6 17.5116 10.3437   1
   2  -8  -6 23.2667 8.43251   2
   2  -8  -6 18.0808 8.59504   1
   2  -8  -5 42.7766 7.98990   2
  -2   8   5 62.4306 8.86671   2
   2  -8  -5 66.5518 10.4061   1
  -2   8   5 66.2604 10.7246   1
   2  -8  -4 9.88014 6.52679   2
   2  -8  -4 8.87864 7.61836   1
  -2   8   4 1.26771 6.36059   2
  -2   8   4 5.98148 7.73735   1
  -2   8   3 3.50666 6.16055   2
   2  -8  -3-0.40059 5.29068   1
  -2   8   3 5.46801 6.29130   1
   2  -8  -3-2.11256 5.14994   2
  -2   8   2 42.2683 7.29537   2
  -2   8   2 51.5852 8.25781   1
   2  -8  -2 38.3195 6.93960   2
   2  -8  -2 48.0250 8.07128   1
   2  -8  -1 93.6852 8.83547   2
  -2   8   1 90.1966 8.51379   2
   2  -8  -1 88.9956 9.15382   1
  -2   8   1 95.7457 9.02656   1
  -2   8   0 6.07545 5.28389   1
  -2   8   0 14.9389 5.91733   2
   2  -8   0 6.55406 5.53185   1
   2  -8   0 2.25770 4.56601   2
   2  -8   1 22.1316 6.16225   2
  -2   8  -1 27.2778 5.49903   1
  -2   8  -1 33.1443 6.33547   2
   2  -8   1 36.5094 6.26523   1
   2  -8   2 4.43962 4.40241   1
  -2   8  -2 4.34092 4.04886   1
  -2   8  -2 10.8783 5.46114   2
   2  -8   2 6.47353 5.05416   2
   2  -8   3 15.9425 4.53940   1
  -2   8  -3 10.3119 4.22518   1
  -2   8  -3 16.9458 5.88544   2
   2  -8   3 6.75880 4.84748   2
   2  -8   4 12.4652 4.06787   1
  -2   8  -4 5.86995 5.33563   2
  -2   8  -4 8.23775 3.99201   1
   2  -8   4 10.7443 5.38630   2
  -2   8  -5 36.3448 6.63317   2
   2  -8   5 20.7318 3.99183   1
   2  -8   5 21.4217 6.28925   2
  -2   8  -5 21.8583 4.12236   1
  -2   8  -6 3.55719 3.08223   1
   2  -8   6 3.43151 3.02075   1
  -2   8  -6 9.95606 6.44857   2
   2  -8   6 4.91520 5.89677   2
  -2   8  -7 49.2640 7.92396   2
   2  -8   7 24.1592 7.11591   2
  -2   8  -7 42.6109 3.87639   1
   2  -8   7 37.4741 3.76357   1
   2  -8   8 2.15324 1.65251   1
  -2   8  -8 8.93938 6.80483   2
  -2   8  -9 3.41564 6.08932   2
   2  -8   9-4.69416 7.04355   2
  -2   8 -10 6.25172 6.84490   2
   2  -8  10 5.05333 7.74185   2
  -2   8 -11-4.37390 9.14797   2
  -2   8 -12 12.9575 10.3920   2
  -2   8 -13 22.5696 11.5993   2
   2  -7  -9 12.2603 9.76708   1
   2  -7  -9 12.2955 8.10282   2
  -2   7   9 27.5037 10.0799   1
   2  -7  -8 44.1176 10.2807   1
   2  -7  -8 55.0111 8.90320   2
  -2   7   8 31.7190 9.90470   1
   2  -7  -7 1.66407 5.94248   2
   2  -7  -7-8.97170 6.69921   1
  -2   7   7-5.63284 6.54320   1
   2  -7  -6 5.96136 6.62871   1
   2  -7  -6-3.21519 5.62188   2
  -2   7   6-7.11277 7.94255   1
   2  -7  -5-0.48014 6.79706   1
   2  -7  -5 5.86923 5.40205   2
  -2   7   5 10.8697 5.75931   2
  -2   7   5 2.44213 5.81483   1
  -2   7   4 52.7264 6.86577   2
  -2   7   4 44.0205 7.10799   1
   2  -7  -4 46.5759 7.71770   1
   2  -7  -4 46.0318 6.53563   2
   2  -7  -3-5.20323 5.38471   1
   2  -7  -3 0.22861 4.26742   2
  -2   7   3 2.19235 4.50620   2
  -2   7   3-4.45923 5.20663   1
  -2   7   2 6.94549 4.97921   2
   2  -7  -2 3.13351 4.05708   1
   2  -7  -2 2.39151 4.33707   2
  -2   7   2-4.44063 4.53006   1
   2  -7  -1 275.831 11.8394   2
  -2   7   1 258.266 11.6126   2
  -2   7   1 296.964 13.0225   1
   2  -7  -1 261.497 12.2116   1
  -2   7   0 125.273 8.61069   2
  -2   7   0 132.359 8.58344   1
   2  -7   0 126.517 8.40645   2
   2  -7   0 116.256 8.16992   1
  -2   7  -1 19.9628 4.73468   1
  -2   7  -1 27.7817 5.41469   2
   2  -7   1 26.4178 5.11070   2
   2  -7   1 29.4051 4.96474   1
   2  -7   2-0.54596 3.47973   1
  -2   7  -2 3.04418 4.41770   2
   2  -7   2 4.43455 4.37317   2
  -2   7  -2-3.58895 3.47888   1
   2  -7   3 169.917 9.57247   2
  -2   7  -3 150.451 9.48015   2
  -2   7  -3 174.035 8.11921   1
   2  -7   3 163.657 8.02273   1
  -2   7  -4 13.7460 3.19822   1
  -2   7  -4 18.9807 5.38123   2
   2  -7   4 15.1968 5.03894   2
   2  -7   4 15.6127 3.49008   1
   2  -7   5 25.7754 5.20777   2
  -2   7  -5 25.6127 3.39182   1
  -2   7  -5 29.2485 5.87824   2
   2  -7   5 21.0937 3.37456   1
  -2   7  -6 108.512 9.26395   2
   2  -7   6 103.799 8.78500   2
   2  -7   6 108.684 5.18539   1
  -2   7  -6 99.5359 4.88015   1
  -2   7  -7 15.4798 1.92468   1
  -2   7  -7 23.3732 6.04953   2
   2  -7   7 15.9538 5.66653   2
   2  -7   7 18.3931 2.16209   1
   2  -7   8 98.5636 8.64473   2
  -2   7  -8 112.741 10.0725   2
  -2   7  -9-2.57994 6.45430   2
   2  -7   9 5.83175 5.36475   2
  -2   7 -10 5.74123 7.03207   2
  -2   7 -11 31.4076 8.59137   2
  -2   7 -12 7.15359 8.31885   2
  -2   7 -13 66.1206 11.8785   2
  -2   7 -14 17.8314 11.0981   2
   2  -6 -10 13.0040 10.0002   1
   2  -6 -10-6.17474 7.49856   2
  -2   6  10 14.7061 11.2860   1
   2  -6  -9 10.9687 9.24535   1
   2  -6  -9-6.25968 6.12491   2
  -2   6   9-3.51902 7.31377   1
   2  -6  -8 0.62969 5.57999   2
  -2   6   8 8.97969 7.84484   1
   2  -6  -8 14.2922 8.40215   1
   2  -6  -7 12.6068 5.27759   2
   2  -6  -7 7.58160 7.10858   1
  -2   6   7 13.4803 7.71662   1
   2  -6  -6 3.34905 4.95540   1
   2  -6  -6 4.97775 4.29876   2
  -2   6   6 5.56050 5.20952   1
  -2   6   5 6.45462 4.60543   2
   2  -6  -5 3.87729 4.04936   2
  -2   6   5-4.87424 5.27982   1
  -2   6   4 40.3727 5.46081   2
  -2   6   4 30.5336 5.61613   1
   2  -6  -4 27.8957 6.14656   1
   2  -6  -4 36.1522 5.27248   2
  -2   6   3 60.7556 6.10265   2
   2  -6  -3 53.2887 5.73761   2
   2  -6  -3 56.7389 7.15618   1
  -2   6   3 57.5826 6.84572   1
   2  -6  -2 0.86129 3.85253   1
  -2   6   2-0.70467 3.25399   2
   2  -6  -2-1.60915 3.30555   2
  -2   6   2-0.90631 4.09337   1
   2  -6  -1 2.62943 3.85715   1
  -2   6   1-4.60588 3.48150   2
   2  -6  -1 3.06412 3.42201   2
  -2   6   1-1.24133 3.45030   1
   2  -6   0 35.1507 4.68230   2
  -2   6   0 39.1490 5.15299   1
  -2   6   0 36.2708 4.86351   2
   2  -6   0 36.9542 4.98059   1
  -2   6  -1 146.942 8.25814   2
  -2   6  -1 141.976 7.70230   1
   2  -6   1 133.634 7.71039   2
   2  -6   1 146.346 7.76001   1
  -2   6  -2 18.2245 4.14174   2
  -2   6  -2 19.9689 3.70900   1
   2  -6   2 11.6036 3.54456   2
   2  -6   2 14.5793 3.31831   1
  -2   6  -3 209.079 9.66756   2
   2  -6   3 213.686 9.70762   2
  -2   6  -3 221.819 8.00505   1
   2  -6   3 219.014 8.03979   1
   2  -6   4-0.24111 2.25831   1
  -2   6  -4 6.70993 2.37725   1
  -2   6  -4 1.56594 3.39511   2
   2  -6   4 1.08986 2.96429   2
  -2   6  -5 66.1597 6.81793   2
  -2   6  -5 59.7084 3.65763   1
   2  -6   5 63.4211 3.89213   1
   2  -6   5 68.1195 6.59112   2
  -2   6  -6 8.61288 4.44287   2
   2  -6   6 14.6976 5.02618   2
   2  -6   6 14.2198 1.83908   1
  -2   6  -6 13.7731 1.75977   1
  -2   6  -7 36.5900 6.27540   2
   2  -6   7 31.3806 5.33211   2
   2  -6   8 30.3421 6.49189   2
  -2   6  -8 32.1906 6.35552   2
  -2   6  -9-2.26880 5.72988   2
  -2   6 -10 11.0465 6.51244   2
  -2   6 -11 14.6028 7.10936   2
  -2   6 -12-1.66638 5.98053   2
  -2   6 -13-8.79125 8.79425   2
  -2   6 -14-5.52024 10.5272   2
  -2   6 -15 20.9688 8.21702   2
   2  -5 -12-16.1240 10.5794   1
   2  -5 -12 22.7189 6.87706   2
   2  -5 -11-5.70109 6.94787   2
   2  -5 -11 16.2184 10.0885   1
  -2   5  11 15.3504 8.48073   1
   2  -5 -10 44.9978 9.35588   1
   2  -5 -10 39.5676 7.49570   2
  -2   5  10 21.2199 9.24048   1
   2  -5  -9-12.9138 6.69195   1
   2  -5  -9-0.88075 5.00350   2
  -2   5   9 3.61493 7.38444   1
   2  -5  -8 9.81502 6.22204   1
   2  -5  -8 14.7960 4.99319   2
  -2   5   8 0.19823 5.89469   1
   2  -5  -7 10.4952 6.56219   1
   2  -5  -7 4.18368 3.94604   2
  -2   5   7 7.69725 5.38551   1
  -2   5   6 130.080 9.94875   1
   2  -5  -6 129.839 7.64044   2
   2  -5  -6 110.979 9.68902   1
  -2   5   5 79.6239 6.05012   2
   2  -5  -5 82.1353 6.18826   2
  -2   5   5 79.3559 7.42094   1
   2  -5  -5 75.0661 7.48667   1
   2  -5  -4 9.20939 4.58776   1
   2  -5  -4 3.47113 3.11673   2
  -2   5   4 4.10453 3.10719   2
  -2   5   4 3.42787 4.32747   1
  -2   5   3 230.039 10.7156   1
   2  -5  -3 214.560 8.67786   2
  -2   5   3 208.113 8.70310   2
   2  -5  -3 217.602 10.5950   1
   2  -5  -2 7.81193 3.86993   1
  -2   5   2 10.8958 3.35636   2
  -2   5   2 9.45668 3.86163   1
   2  -5  -2 7.45910 3.16675   2
   2  -5  -1 11.5139 3.40622   1
  -2   5   1 18.0884 3.62580   2
  -2   5   1 22.6240 4.19561   1
   2  -5  -1 19.2874 3.53864   2
  -2   5   0 622.642 14.1983   2
  -2   5   0 606.110 14.1650   1
   2  -5   0 581.222 13.7283   2
   2  -5   0 585.993 13.9992   1
   2  -5   1 102.187 6.36125   2
  -2   5  -1 115.899 6.51805   2
  -2   5  -1 104.030 5.93889   1
   2  -5   1 101.510 5.89331   1
  -2   5  -2 206.046 8.72625   2
  -2   5  -2 204.442 7.42739   1
   2  -5   2 204.496 8.55730   2
   2  -5   2 213.034 7.58870   1
   2  -5   3 35.5981 4.55286   2
  -2   5  -3 31.2459 4.56280   2
   2  -5   3 36.2207 3.33980   1
  -2   5  -3 36.8486 3.40283   1
  -2   5  -4 40.0139 2.93182   1
   2  -5   4 41.3523 4.75722   2
   2  -5   4 37.6739 2.96369   1
  -2   5  -4 39.8162 4.73909   2
  -2   5  -5 110.461 7.45429   2
  -2   5  -5 110.240 3.52850   1
   2  -5   5 109.672 7.30146   2
   2  -5   5 112.834 3.72068   1
  -2   5  -6 14.4178 4.63578   2
   2  -5   6 12.5840 3.78089   2
  -2   5  -7 26.8952 5.61600   2
   2  -5   7 21.7783 5.06063   2
  -2   5  -8 1.11836 4.53660   2
  -2   5  -9 54.1215 7.28296   2
  -2   5 -10 116.620 10.0102   2
  -2   5 -11 124.984 10.4964   2
  -2   5 -12 40.7143 9.07196   2
  -2   5 -13 29.4616 8.86901   2
  -2   5 -14 33.2899 9.69413   2
  -2   5 -15 7.37604 10.8396   2
   2  -4 -13-6.28720 9.75254   1
  -2   4  13-17.6392 9.31551   1
   2  -4 -12 52.3200 11.2754   1
   2  -4 -12 38.9748 7.54770   2
   2  -4 -11-6.96785 7.12729   1
   2  -4 -11 0.35077 5.49002   2
  -2   4  11-0.90935 7.80113   1
   2  -4 -10 23.9248 7.24389   1
   2  -4 -10 20.0306 5.33674   2
  -2   4  10 28.5856 8.08773   1
   2  -4  -9 4.53470 5.98208   1
   2  -4  -9 4.15591 4.26819   2
  -2   4   9 1.66529 5.35350   1
   2  -4  -8 16.8383 4.29591   2
  -2   4   8 11.1418 5.49528   1
   2  -4  -8 4.81076 5.84872   1
   2  -4  -7 7.68469 5.45424   1
   2  -4  -7 6.75656 3.27429   2
  -2   4   7 1.60450 5.02122   1
   2  -4  -6 1.39623 2.86839   2
   2  -4  -6 2.74422 4.54703   1
  -2   4   6 1.31013 3.73113   1
   2  -4  -5 36.8056 4.02845   2
  -2   4   5 37.4547 4.06964   2
  -2   4   5 32.8811 5.05419   1
   2  -4  -5 42.8307 5.39808   1
  -2   4   4-1.04031 2.36583   2
   2  -4  -4 0.87124 2.99259   1
   2  -4  -4-2.93025 2.28361   2
  -2   4   4-2.38852 2.98917   1
  -2   4   3 108.023 5.62784   2
   2  -4  -3 105.671 5.52811   2
  -2   4   3 107.539 7.00441   1
   2  -4  -3 101.975 6.89661   1
  -2   4   2 51.3764 4.79825   1
   2  -4  -2 55.8063 4.22455   2
  -2   4   2 48.8255 4.07105   2
   2  -4  -2 53.9554 5.14820   1
  -2   4   1 279.052 9.36560   1
  -2   4   1 283.908 8.59151   2
   2  -4  -1 270.569 8.35009   2
   2  -4  -1 285.707 9.65604   1
  -2   4   0 78.5236 4.95353   1
  -2   4   0 78.8473 4.87694   2
   2  -4   0 79.9953 5.14395   1
   2  -4   0 79.3522 4.98443   2
  -2   4  -1 629.828 13.0067   2
   2  -4   1 638.151 12.9574   2
  -2   4  -1 653.787 12.2643   1
   2  -4   1 614.702 12.1122   1
   2  -4   2 6.66499 2.13188   1
  -2   4  -2 5.58439 2.78510   2
   2  -4   2 5.59437 2.80839   2
  -2   4  -2 4.36795 2.01863   1
   2  -4   3 261.526 9.20084   2
  -2   4  -3 273.683 6.58032   1
   2  -4   3 270.069 6.62848   1
  -2   4  -3 281.309 9.56085   2
  -2   4  -4 204.923 8.57887   2
   2  -4   4 193.506 8.36812   2
  -2   4  -4 208.848 4.67566   1
   2  -4   4 205.962 4.83152   1
  -2   4  -5 51.0544 5.13679   2
   2  -4   5 58.0922 5.44417   2
  -2   4  -6 44.6165 5.37862   2
  -2   4  -7 462.339 14.6133   2
  -2   4  -8-2.91782 3.88506   2
  -2   4  -9 1.17410 4.36006   2
  -2   4 -10 63.4383 7.44998   2
  -2   4 -11-6.27706 4.90452   2
  -2   4 -12 4.17730 5.79398   2
  -2   4 -13-1.30876 7.70848   2
  -2   4 -14-2.39403 8.44312   2
  -2   4 -15 5.11730 8.67396   2
   2  -3 -13 7.41785 6.38478   2
   2  -3 -13 28.7290 10.0167   1
  -2   3  13 8.03002 9.43761   1
   2  -3 -12 25.1280 5.90525   2
  -2   3  12 18.8237 8.23042   1
   2  -3 -12 19.5024 8.67899   1
   2  -3 -11 0.72152 7.00761   1
   2  -3 -11 1.11916 4.46341   2
  -2   3  11-1.29571 7.16582   1
   2  -3 -10 2.75623 3.74342   2
  -2   3  10 4.54972 5.16172   1
   2  -3 -10 1.71746 5.35136   1
   2  -3  -9-2.78059 5.21292   1
   2  -3  -9 5.26998 3.56362   2
  -2   3   9 4.26506 5.10135   1
   2  -3  -8 48.9470 4.57719   2
  -2   3   8 44.6997 6.80264   1
   2  -3  -8 53.4161 7.43522   1
   2  -3  -7 81.9543 5.10213   2
   2  -3  -7 93.9880 8.26951   1
  -2   3   7 90.6740 8.01556   1
   2  -3  -6 132.398 5.81094   2
   2  -3  -6 146.204 9.05810   1
  -2   3   6 132.513 8.60939   1
   2  -3  -5-0.07652 1.84224   2
  -2   3   5 4.45275 3.42608   1
   2  -3  -5 0.48558 3.50253   1
  -2   3   4 29.5824 2.94784   2
   2  -3  -4 26.4043 2.83891   2
   2  -3  -4 24.3414 4.37229   1
  -2   3   4 25.8324 4.10222   1
   2  -3  -3 2.54619 3.06193   1
  -2   3   3 9.06503 2.18126   2
  -2   3   3 4.43460 2.94113   1
   2  -3  -3 6.98331 1.93379   2
  -2   3   2 33.0493 3.00605   2
   2  -3  -2 30.8452 2.79557   2
   2  -3  -2 22.4830 3.41203   1
  -2   3   2 26.2670 3.72896   1
  -2   3   1 41.8468 3.21495   2
   2  -3  -1 45.7124 3.32335   2
   2  -3  -1 44.8041 4.08436   1
  -2   3   1 45.6025 4.00338   1
  -2   3   0 18.5098 2.59569   2
   2  -3   0 21.0384 2.65810   2
   2  -3   0 21.2152 2.86319   1
  -2   3   0 16.7268 2.67289   1
  -2   3  -1 41.1870 3.51705   2
   2  -3   1 43.9040 3.61853   2
   2  -3   1 41.4004 3.25050   1
  -2   3  -1 43.0351 3.20774   1
  -2   3  -2 33.1181 3.40610   2
   2  -3   2 24.4263 3.23104   2
   2  -3   2 33.4581 2.68089   1
  -2   3  -2 31.4787 2.54742   1
  -2   3  -3 201.683 4.64164   1
  -2   3  -3 210.716 7.87700   2
   2  -3   3 209.862 7.76392   2
  -2   3  -3 209.265 4.81401   1
  -2   3  -4 717.241 6.39149   1
  -2   3  -4 753.723 15.2393   2
  -2   3  -4 718.216 6.27284   1
  -2   3  -5 2.11403 2.59016   2
  -2   3  -6-0.03549 3.21019   2
  -2   3  -7 207.602 9.71050   2
  -2   3  -8 2.92645 3.96279   2
  -2   3  -9 14.0223 4.67143   2
  -2   3 -10 55.2468 7.05917   2
  -2   3 -11 22.4043 6.37814   2
  -2   3 -12 8.65251 6.67990   2
  -2   3 -13-4.12558 8.06531   2
  -2   3 -14 40.6024 10.3668   2
  -2   3 -15-1.06570 8.51922   2
   2  -2 -14 12.2633 6.06624   2
   2  -2 -14 18.0666 6.32691   2
  -2   2  14 9.64280 8.40161   1
   2  -2 -14-3.23927 10.0975   1
   2  -2 -13 24.6971 5.80355   2
  -2   2  13 22.7703 8.95859   1
   2  -2 -13 30.6374 6.16988   2
   2  -2 -13 29.5596 9.04270   1
   2  -2 -12 1.42676 4.41614   2
  -2   2  12-9.94993 7.12408   1
   2  -2 -12 2.28961 6.64443   1
   2  -2 -11 12.6137 4.15360   2
  -2   2  11 1.95894 6.22307   1
   2  -2 -11 14.7084 7.15749   1
  -2   2  10 62.6324 7.58357   1
   2  -2 -10 59.3738 5.17907   2
   2  -2 -10 78.0226 8.76909   1
   2  -2  -9 113.180 6.00299   2
   2  -2  -9 113.376 9.45377   1
  -2   2   9 114.687 8.94895   1
   2  -2  -8 9.65956 4.39251   1
   2  -2  -8 5.56279 2.42977   2
  -2   2   8 10.3089 4.79227   1
   2  -2  -7 6.99564 4.01642   1
   2  -2  -7 5.60704 2.16855   2
  -2   2   7 5.08777 3.65926   1
   2  -2  -6 2.36366 1.69841   2
  -2   2   6 7.15159 3.45544   1
   2  -2  -6-0.75634 3.53532   1
   2  -2  -5 188.132 5.18726   2
   2  -2  -5 189.461 9.00034   1
  -2   2   5 190.600 8.86868   1
   2  -2  -4 7.01448 3.24933   1
  -2   2   4 7.32312 1.55762   2
  -2   2   4 6.03825 2.71525   1
   2  -2  -4 5.39038 1.48653   2
  -2   2   3 2.37903 1.32449   2
  -2   2   3 2.90019 2.47801   1
   2  -2  -3 1.33579 1.22081   2
  -2   2   2 51.4936 2.76135   2
   2  -2  -2 47.9960 2.60235   2
   2  -2  -2 47.4886 4.17280   1
  -2   2   2 51.4674 4.28998   1
   2  -2  -1 699.354 9.52204   2
  -2   2   1 704.280 9.62179   2
   2  -2  -1 709.470 12.7867   1
  -2   2   1 699.557 12.5398   1
  -2   2   0 54.6249 3.23109   2
   2  -2   0 53.9148 3.19878   2
   2  -2   0 58.6419 3.78769   1
  -2   2   0 57.6902 3.68335   1
   2  -2   1 315.135 7.63726   2
  -2   2  -1 311.332 7.67584   2
   2  -2   1 305.337 7.54584   1
  -2   2  -1 305.019 7.06112   1
  -2   2  -2 4.78603 1.37325   1
  -2   2  -2 7.07494 1.52375   1
  -2   2  -2 8.32234 2.44546   2
  -2   2  -3 50.9942 2.35618   1
  -2   2  -3 50.5193 4.25065   2
  -2   2  -3 50.1474 2.44539   1
  -2   2  -4 335.773 10.0284   2
  -2   2  -4 333.509 4.59164   1
  -2   2  -4 314.525 4.66667   1
  -2   2  -5 8.27000 3.26269   2
  -2   2  -6 1.39517 2.90852   2
  -2   2  -7 2.66328 3.58074   2
  -2   2  -8 272.025 11.5789   2
  -2   2  -9 9.17471 3.96545   2
  -2   2  -9 12.4665 1.18003   1
  -2   2 -10 1.09396 5.03564   2
  -2   2 -10 0.48130 1.06724   1
  -2   2 -11 134.935 10.7770   2
   2  -2  12 46.0756 2.56298   1
  -2   2 -12 58.8410 9.03905   2
   2  -2  13 4.54395 1.48649   1
  -2   2 -13 16.2759 6.91162   2
  -2   2 -14 37.5088 10.4056   2
  -2   2 -15 20.9183 10.0842   2
   2  -1 -15 3.70783 6.14801   2
   2  -1 -15-2.79638 6.23392   2
  -2   1  15-14.7786 9.32130   1
   2  -1 -15-4.99649 9.83236   1
   2  -1 -14-0.07880 5.35525   2
  -2   1  14-7.77552 7.29262   1
   2  -1 -14-2.12430 5.29972   2
   2  -1 -14 1.68633 8.15840   1
   2  -1 -13-4.11823 4.26003   2
  -2   1  13 0.46311 6.66546   1
   2  -1 -13 0.34705 4.60132   2
   2  -1 -13 5.51306 7.29003   1
   2  -1 -12 162.000 8.13819   2
   2  -1 -12 147.400 7.84753   2
   2  -1 -12 143.239 11.7848   1
  -2   1  12 145.780 11.4018   1
   2  -1 -11 0.79837 3.15758   2
  -2   1  11-4.02394 5.30301   1
   2  -1 -11 2.64632 3.01529   2
   2  -1 -11 6.88486 5.26008   1
   2  -1 -10 6.43068 2.92765   2
  -2   1  10 6.91009 4.62492   1
   2  -1 -10 8.38882 2.80262   2
   2  -1  -9 131.355 9.18060   1
   2  -1  -9 139.210 5.80922   2
  -2   1   9 127.758 8.55870   1
   2  -1  -8 152.199 9.06075   1
  -2   1   8 140.454 8.72486   1
   2  -1  -8 147.937 5.30604   2
   2  -1  -7 135.878 4.45519   2
   2  -1  -7 151.114 8.58203   1
  -2   1   7 119.621 7.58903   1
   2  -1  -6 197.727 4.51263   2
   2  -1  -6 203.356 9.15931   1
  -2   1   6 196.112 9.03977   1
   2  -1  -5 167.150 3.37885   2
   2  -1  -5 172.692 8.22935   1
  -2   1   5 169.496 7.87865   1
   2  -1  -4 70.6644 1.77435   2
   2  -1  -4 68.7095 4.93980   1
  -2   1   4 74.6753 5.17633   1
   2  -1  -3 75.9172 1.83981   2
  -2   1   3 78.1816 1.91218   2
   2  -1  -3 83.1019 5.34549   1
  -2   1   3 80.6648 5.22442   1
  -2   1   2 193.163 3.64332   2
   2  -1  -2 208.941 7.49855   1
  -2   1   2 208.960 7.28923   1
  -2   1   1-0.29883 1.68035   1
  -2   1   1 0.95033 1.10266   2
  -2   1   0 200.494 5.31318   2
  -2   1   0 209.831 6.39030   1
  -2   1   0 196.025 5.87177   1
  -2   1  -1 17.4715 2.28914   2
  -2   1  -1 14.3677 1.97241   1
  -2   1  -1 15.5176 2.20476   1
   2  -1   2 4.81550 1.50683   1
  -2   1  -2 1.79377 1.33130   1
  -2   1  -2 1.74856 1.82354   2
  -2   1  -3 133.676 4.07160   1
   2  -1   3 132.483 4.02687   1
  -2   1  -4 793.543 9.40142   1
   2  -1   4 803.349 9.50255   1
  -2   1  -5 98.6807 3.63841   1
   2  -1   5 98.3729 3.57872   1
  -2   1  -6 79.9576 3.45573   1
   2  -1   6 80.1186 3.44321   1
  -2   1  -7 22.4012 2.37239   1
   2  -1   7 25.9170 2.44119   1
  -2   1  -8 101.963 4.45396   1
   2  -1   8 102.622 4.43827   1
  -2   1  -9 11.5377 2.49596   1
   2  -1   9 9.92651 2.41315   1
  -2   1  -9 10.5553 5.01405   2
  -2   1 -10 106.956 8.62224   2
   2  -1  10 123.001 5.52140   1
  -2   1 -10 121.855 5.63816   1
  -2   1 -11 2.03342 2.88922   1
  -2   1 -11 4.23754 6.32937   2
   2  -1  11 3.29495 2.70906   1
  -2   1 -12 0.05021 3.35407   1
   2  -1  12 1.75806 2.98301   1
  -2   1 -12 0.65132 5.82427   2
   2  -1  13 3.10401 3.56222   1
  -2   1 -13 15.1440 7.73674   2
  -2   1 -13 7.18344 4.03386   1
   2  -1  14 5.38545 3.89614   1
  -2   1 -14 1.80953 9.77636   2
  -2   1 -14-2.02686 4.59780   1
  -2   0  15-8.62083 9.65794   1
   2   0 -15 5.40794 5.63272   2
  -2   0  15 9.65027 8.95020   1
   2   0 -15 2.50405 5.73586   2
   2   0 -14 7.19090 5.07684   2
  -2   0  14 2.77768 7.18734   1
   2   0 -14-0.67911 4.78482   2
   2   0 -14-3.89379 8.01906   1
   2   0 -13-1.78718 3.97151   2
   2   0 -13 1.75045 3.92160   2
   2   0 -13-4.09543 7.26199   1
  -2   0  13 7.55727 5.98606   1
  -2   0  12 5.78333 5.68521   1
   2   0 -12 5.09344 3.25415   2
   2   0 -12 1.87765 3.38986   2
   2   0 -12 4.47201 5.38185   1
   2   0 -11 40.0654 4.15110   2
   2   0 -11 38.4336 4.15261   2
   2   0 -11 53.4598 7.33686   1
  -2   0  11 53.8751 7.10878   1
   2   0 -10 24.8150 3.26586   2
   2   0 -10 26.0158 3.24281   2
   2   0 -10 38.4768 6.07947   1
  -2   0  10 30.5365 5.28161   1
   2   0  -9 0.73899 1.92966   2
  -2   0   9 5.95537 3.59077   1
   2   0  -9 2.09745 1.90602   2
   2   0  -9 0.47077 4.25273   1
   2   0  -8 106.486 4.09732   2
   2   0  -8 108.009 7.90299   1
  -2   0   8 104.413 7.19906   1
   2   0  -8 107.264 4.05009   2
   2   0  -7 423.306 6.44362   2
   2   0  -7 427.800 6.41004   2
   2   0  -7 446.867 13.7601   1
  -2   0   7 438.465 13.3056   1
   2   0  -6 9.11891 0.90280   2
   2   0  -6 9.24690 0.89880   2
  -2   0   6 5.13235 2.59677   1
   2   0  -6 10.6606 3.48127   1
   2   0  -5 714.385 15.8220   1
  -2   0   5 654.526 14.6120   1
  -2   0   4 3.09676 2.66938   1
  -2   0   3 6.01393 2.52245   1
  -2   0   3 5.19975 2.19429   1
  -2   0   2 165.154 3.09675   2
  -2   0   2 185.889 6.98711   1
  -2   0   2 165.543 6.25378   1
  -2   0   1 90.1355 4.59176   1
   2   0   0 1469.50 15.9975   1
  -2   0   0 1411.82 15.9007   1
  -2   0  -1 1241.81 14.3146   1
   2   0   1 1191.28 14.0090   1
   2   0   2 67.1206 3.59394   1
  -2   0  -2 72.3544 3.67976   1
   2   0   3 219.434 6.10282   1
  -2   0  -3 229.817 6.24694   1
   2   0   4 349.760 7.81732   1
  -2   0  -4 330.778 7.59104   1
   2   0   5-0.03489 1.59047   1
  -2   0  -5 1.62901 1.76933   1
  -2   0  -6 49.3388 3.57826   1
   2   0   6 46.3088 3.51113   1
  -2   0  -7 26.1169 3.21429   1
   2   0   7 27.9718 3.21768   1
  -2   0  -8 3.15058 2.53676   1
   2   0   8 0.86873 2.37257   1
   2   0   9 21.1097 3.41298   1
  -2   0  -9 17.5169 3.41916   1
   2   0  10 195.738 8.21654   1
  -2   0 -10 193.134 8.24224   1
  -2   0 -11 19.3787 4.35974   1
   2   0  11 23.2812 4.44387   1
  -2   0 -12 12.4418 6.25392   2
   2   0  12 6.40776 4.08948   1
  -2   0 -12-2.37928 4.20197   1
  -2   0 -13 5.24754 5.34283   1
  -2   0 -13-10.9627 8.44305   2
   2   0  13 2.06317 4.56490   1
  -2   0 -14-3.59082 6.28020   1
  -2   0 -14-4.82228 10.3426   2
   2   0  14-1.11841 5.40599   1
   2   1 -16-0.08478 6.07578   2
   2   1 -16 20.2245 6.48999   2
  -2  -1  16 10.9296 9.08375   1
  -2  -1  16 8.72390 8.66692   1
  -2  -1  15 24.3006 8.70457   1
   2   1 -15 26.9466 6.09467   2
   2   1 -15 24.2026 6.46086   2
  -2  -1  15 26.8545 8.34938   1
  -2  -1  14 35.3674 7.87866   1
  -2  -1  14 40.3974 7.99578   1
   2   1 -14 42.8101 5.89429   2
   2   1 -14 40.7061 5.48022   2
   2   1 -13 23.2394 4.45331   2
  -2  -1  13 17.0610 6.23959   1
   2   1 -12 27.9751 4.02342   2
  -2  -1  12 24.7493 6.03160   1
  -2  -1  12 20.9026 5.71288   1
  -2  -1  11-1.03147 4.23387   1
  -2  -1  11 0.91417 4.39259   1
   2   1 -11 9.09212 2.81645   2
   2   1 -10 28.4024 3.15713   2
  -2  -1  10 24.8496 5.13638   1
  -2  -1  10 28.6067 5.22727   1
   2   1  -9 102.459 4.42741   2
  -2  -1   9 105.372 7.30999   1
  -2  -1   9 120.268 8.06559   1
  -2  -1   8-1.06950 3.36357   1
  -2  -1   8 1.03895 3.25110   1
   2   1  -8 0.44121 1.42261   2
   2   1  -7 265.948 5.11635   2
  -2  -1   7 262.166 10.3257   1
  -2  -1   7 258.090 9.68438   1
  -2  -1   6 171.382 7.58935   1
   2   1  -6 173.956 3.40372   2
  -2  -1   6 175.182 8.15151   1
   2   1  -5 165.187 2.59303   2
  -2  -1   5 163.444 7.60493   1
  -2  -1   5 166.415 7.19703   1
  -2  -1   4 3.39128 2.45832   1
  -2  -1   4 4.23779 0.62846   2
  -2  -1   4 3.00181 2.44440   1
  -2  -1   3 265.882 4.26726   2
  -2  -1   3 264.131 8.32223   1
  -2  -1   2 269.150 8.07312   1
  -2  -1   2 247.595 5.04791   2
   2   1  -2 248.790 7.68279   1
  -2  -1   1 1235.53 12.8780   2
   2   1  -1 1247.69 16.2851   1
  -2  -1   1 1288.76 16.6455   1
   2   1   0 71.3215 4.13317   1
  -2  -1   0 75.8370 4.24805   1
   2   1   1 1074.84 14.8166   1
  -2  -1  -1 1079.04 14.7801   1
   2   1   2 18.2481 2.61773   1
  -2  -1  -2 23.2818 2.84745   1
   2   1   3 62.6375 4.11883   1
  -2  -1  -3 57.5983 3.95025   1
  -2  -1  -4 158.840 6.37749   1
   2   1   4 165.101 6.48135   1
  -2  -1  -5 4.94471 2.41974   1
   2   1   5 6.86223 2.52854   1
  -2  -1  -6 122.590 6.29708   1
   2   1   6 123.076 6.22448   1
  -2  -1  -7 211.543 8.38652   1
   2   1   7 198.163 8.11523   1
   2   1   8 599.547 14.2765   1
  -2  -1  -8 622.238 14.6151   1
  -2  -1  -9 22.7820 4.20670   1
   2   1   9 22.1892 4.29774   1
  -2  -1 -10 1.12634 3.75633   1
   2   1  10-1.07250 3.93988   1
  -2  -1 -11 20.2562 5.21840   1
   2   1  11 12.2336 4.70302   1
  -2  -1 -12 8.58449 5.45720   1
   2   1  12 7.07910 5.39337   1
  -2  -1 -13 16.2615 6.62941   1
   2   1  13 6.43387 6.04348   1
   2   2 -16 39.9067 7.22577   2
  -2  -2  16 34.8600 9.70750   1
  -2  -2  16 17.6405 8.71949   1
   2   2 -15 11.0714 5.43494   2
  -2  -2  15 21.3359 7.78054   1
  -2  -2  15 11.5474 7.02700   1
   2   2 -14-0.34404 4.61922   2
  -2  -2  14 1.29643 5.74907   1
  -2  -2  13 2.03351 5.56867   1
   2   2 -13-6.37588 3.60106   2
  -2  -2  13 3.10097 5.15097   1
   2   2 -12 0.48617 2.91467   2
  -2  -2  12-0.43357 4.30948   1
  -2  -2  12 9.57254 5.16002   1
   2   2 -11 66.6999 4.79084   2
  -2  -2  11 65.9189 7.01716   1
  -2  -2  11 58.7817 6.37945   1
   2   2 -10 167.287 6.30630   2
  -2  -2  10 161.100 9.23193   1
  -2  -2  10 152.164 8.93821   1
   2   2  -9 207.186 6.36263   2
  -2  -2   9 212.862 10.0715   1
  -2  -2   9 206.042 9.65101   1
   2   2  -8 190.108 5.66729   2
  -2  -2   8 199.867 9.33016   1
  -2  -2   8 189.513 8.80141   1
   2   2  -7 211.468 5.44020   2
  -2  -2   7 205.541 8.74572   1
  -2  -2   7 195.733 8.83087   1
   2   2  -6 448.684 7.37577   2
  -2  -2   6 449.504 7.24745   2
  -2  -2   6 443.363 12.1546   1
  -2  -2   6 472.941 13.0915   1
   2   2  -5 111.937 3.69660   2
  -2  -2   5 115.480 6.22994   1
  -2  -2   5 106.821 3.55243   2
  -2  -2   5 115.079 6.90279   1
   2   2  -4 122.083 3.93794   2
  -2  -2   4 118.915 3.87934   2
   2   2  -4 124.345 6.25417   1
  -2  -2   4 120.512 6.17698   1
   2   2  -3 4.18751 2.24440   1
   2   2  -3 3.46951 1.51056   2
  -2  -2   3 7.01482 1.63589   2
  -2  -2   3 2.69629 2.26853   1
  -2  -2   2 151.393 6.54390   1
  -2  -2   2 148.695 5.01589   2
   2   2  -2 145.808 6.46041   1
   2   2  -1 50.8811 3.90099   1
  -2  -2   1 48.2948 3.47833   2
  -2  -2   1 46.4830 3.90951   1
  -2  -2   0 96.5005 4.94318   2
   2   2   0 98.1423 5.29315   1
  -2  -2   0 94.6624 5.20474   1
  -2  -2  -1 339.831 9.45761   2
   2   2   1 333.879 9.39612   1
  -2  -2  -1 330.696 9.33449   1
  -2  -2  -2 17.3876 3.32712   2
  -2  -2  -2 17.7063 3.12888   1
   2   2   2 23.6885 3.27600   1
   2   2   3 2.90587 2.26928   1
  -2  -2  -3 8.27985 2.56260   1
  -2  -2  -3 7.29022 3.03955   2
  -2  -2  -4 36.5609 4.10560   1
   2   2   4 42.0418 4.23882   1
  -2  -2  -5 187.108 8.27613   1
   2   2   5 174.317 7.85743   1
  -2  -2  -6 209.880 9.03265   1
   2   2   6 220.337 9.13935   1
  -2  -2  -7 57.1813 5.65473   1
   2   2   7 56.8530 5.69109   1
  -2  -2  -8 2.23553 3.63067   1
   2   2   8 0.31199 3.57182   1
   2   2   9 12.3602 4.47304   1
  -2  -2  -9 17.6042 5.62662   2
  -2  -2  -9 6.52258 4.53090   1
  -2  -2 -10 3.15416 6.26569   2
  -2  -2 -10 13.4692 5.32568   1
   2   2  10 3.25320 4.53338   1
  -2  -2 -11 5.23488 5.72799   1
  -2  -2 -11-7.38363 9.02994   2
   2   2  11 3.29741 5.43853   1
  -2  -2 -12 10.4204 8.52983   2
  -2  -2 -12 7.19356 6.82947   1
   2   2  12-4.35778 6.38324   1
  -2  -2 -13 0.70072 7.82622   1
  -2  -2 -13-0.69635 11.4295   2
   2   2  13 3.95030 7.19034   1
  -2  -3  16-5.82537 7.87950   1
  -2  -3  16-3.58293 8.55289   1
   2   3 -16-7.04593 5.83306   2
  -2  -3  15 0.82594 6.87269   1
   2   3 -15-0.54813 5.07521   2
  -2  -3  15 1.58596 6.97707   1
   2   3 -14 1.42387 4.40998   2
  -2  -3  14-2.19322 5.81184   1
   2   3 -13 27.4256 4.64207   2
  -2  -3  13 25.1201 6.33211   1
  -2  -3  13 24.1259 6.38770   1
  -2  -3  12 18.2533 5.41666   1
   2   3 -12 17.0242 3.82392   2
  -2  -3  12 12.4290 5.23912   1
   2   3 -11 107.128 6.06329   2
  -2  -3  11 105.093 7.85710   1
  -2  -3  11 104.764 8.13050   1
  -2  -3  10 3.55338 3.67195   1
   2   3 -10 8.47229 2.76005   2
  -2  -3  10 4.38373 3.44963   1
  -2  -3   9 84.6665 6.79961   1
  -2  -3   9 100.672 7.22630   1
   2   3  -9 86.0435 4.90272   2
   2   3  -8 146.137 5.76891   2
  -2  -3   8 137.945 5.53829   2
  -2  -3   8 140.688 7.91695   1
  -2  -3   8 131.421 7.86705   1
  -2  -3   7 2.58454 2.99518   1
   2   3  -7 2.32569 1.86186   2
  -2  -3   7 1.63405 1.91662   2
  -2  -3   7-3.98253 3.52590   1
  -2  -3   6 15.0695 2.30980   2
   2   3  -6 21.0140 3.79220   1
  -2  -3   6 15.8979 3.64433   1
   2   3  -6 18.1217 2.46958   2
   2   3  -5 552.346 9.98406   2
  -2  -3   5 531.130 9.68668   2
  -2  -3   5 514.288 13.0223   1
   2   3  -5 523.862 12.9912   1
   2   3  -4 50.0506 3.42394   2
  -2  -3   4 50.5973 3.48301   2
  -2  -3   4 51.7709 4.49157   1
   2   3  -4 55.7339 4.77720   1
  -2  -3   3 1361.30 20.0631   1
  -2  -3   3 1283.92 16.1041   2
   2   3  -3 1365.58 20.1093   1
   2   3  -3 1331.63 16.2232   2
  -2  -3   2 94.1056 4.96365   2
   2   3  -2 96.1635 5.76988   1
  -2  -3   2 93.1093 5.73435   1
   2   3  -2 91.8823 4.84640   2
   2   3  -1 114.807 6.25953   1
  -2  -3   1 110.491 5.56561   2
  -2  -3   1 108.959 6.09402   1
   2   3   0 213.007 8.24771   1
  -2  -3   0 228.539 8.26614   2
  -2  -3   0 215.770 8.41681   1
  -2  -3  -1 0.60967 2.86591   2
   2   3   1 4.63409 2.80960   1
  -2  -3  -1 0.41271 2.60458   1
   2   3   2 2.77818 2.84998   1
  -2  -3  -2 1.17500 2.49397   1
  -2  -3  -2 3.38572 2.49308   2
  -2  -3  -3 40.1327 5.11396   2
  -2  -3  -3 39.1286 4.63290   1
   2   3   3 45.0899 4.84061   1
  -2  -3  -4 72.6084 6.18848   1
  -2  -3  -4 67.9269 6.12442   2
   2   3   4 73.0039 5.82353   1
  -2  -3  -5 37.1073 4.90006   1
  -2  -3  -5 39.3418 5.47265   2
   2   3   5 39.8461 5.14005   1
  -2  -3  -6 133.131 8.22828   1
   2   3   6 130.503 8.12680   1
  -2  -3  -6 117.651 8.93264   2
  -2  -3  -7-6.07435 5.23508   2
  -2  -3  -7 4.91817 4.01808   1
   2   3   7 0.21905 3.98490   1
  -2  -3  -8 6.39966 6.44545   2
  -2  -3  -8-1.56279 4.43278   1
   2   3   8 2.74279 4.50272   1
  -2  -3  -9 68.4438 8.62507   2
   2   3   9 49.9532 7.21889   1
  -2  -3  -9 56.6057 7.46556   1
  -2  -3 -10 3.26384 6.57137   2
  -2  -3 -10-8.90617 6.14991   1
   2   3  10 8.54374 5.63570   1
  -2  -3 -11-8.32638 7.74548   2
  -2  -3 -11 6.80755 7.17574   1
   2   3  11-2.79037 6.67378   1
  -2  -3 -12-5.08566 8.00630   1
   2   3  12-5.57502 7.51221   1
  -2  -3 -12-8.33698 9.02816   2
  -2  -4  16 42.6078 8.95544   1
   2   4 -16 27.9679 6.75274   2
  -2  -4  16 21.8614 8.29986   1
  -2  -4  15 12.0978 7.06030   1
  -2  -4  15 4.97318 6.95103   1
   2   4 -15 20.4886 6.10289   2
  -2  -4  14 5.28852 5.76208   1
  -2  -4  14 0.27148 5.81989   1
   2   4 -14 8.45407 4.80551   2
  -2  -4  13 9.43616 5.39001   1
  -2  -4  13 7.28249 5.15091   1
   2   4 -13 4.69858 4.45639   2
  -2  -4  12 27.8646 5.70244   1
   2   4 -12 30.6769 4.75421   2
  -2  -4  12 26.5250 5.77051   1
  -2  -4  11-1.33519 4.17636   1
  -2  -4  11 9.94712 4.67759   1
   2   4 -11 6.46295 3.28455   2
   2   4 -10 10.7633 3.43372   2
  -2  -4  10 9.52883 4.48927   1
  -2  -4  10 8.85399 3.91839   1
  -2  -4   9 27.3206 3.69963   2
  -2  -4   9 27.0894 4.85094   1
  -2  -4   9 19.2960 4.36201   1
   2   4  -9 19.7086 3.47473   2
   2   4  -8 7.30028 2.68442   2
  -2  -4   8 3.97001 2.45817   2
  -2  -4   8 10.5051 3.71155   1
  -2  -4   8 0.99920 3.85580   1
   2   4  -7 70.8644 5.92280   1
   2   4  -7 66.3226 4.68380   2
  -2  -4   7 76.0415 5.89884   1
  -2  -4   7 65.0940 4.42779   2
   2   4  -6 413.667 10.2966   2
  -2  -4   6 408.342 12.4089   1
  -2  -4   6 421.507 10.2559   2
   2   4  -6 430.528 12.5862   1
   2   4  -5 19.1648 3.07488   2
  -2  -4   5 23.8575 3.24184   2
   2   4  -5 20.7660 3.45993   1
  -2  -4   5 21.3830 3.71304   1
   2   4  -4 91.6985 5.26366   2
  -2  -4   4 87.7304 5.15815   2
   2   4  -4 87.5507 6.15330   1
  -2  -4   4 89.8310 5.95305   1
   2   4  -3 71.3448 5.42584   1
  -2  -4   3 66.9866 5.54171   1
   2   4  -3 72.4845 4.97509   2
  -2  -4   3 75.6784 4.98669   2
   2   4  -2 68.9665 5.32210   1
   2   4  -2 67.5987 4.92008   2
  -2  -4   2 65.0393 4.88411   2
  -2  -4   2 64.9554 5.33075   1
   2   4  -1 2.54389 2.87740   2
  -2  -4   1 2.51411 2.47642   2
   2   4  -1-1.25116 3.13003   1
  -2  -4   1 4.92400 2.75262   1
  -2  -4   0 125.519 7.19557   2
  -2  -4   0 126.496 7.15233   1
   2   4   0 122.790 7.16764   1
  -2  -4  -1 87.4000 6.41117   2
  -2  -4  -1 92.0215 6.47379   1
   2   4   1 91.8381 6.67440   1
  -2  -4  -2 183.833 8.96346   1
  -2  -4  -2 183.554 9.03004   2
   2   4   2 187.904 9.04768   1
  -2  -4  -3 28.8041 5.21260   2
  -2  -4  -3 25.7728 4.34376   1
   2   4   3 19.7770 4.50302   1
  -2  -4  -4 437.584 15.0653   2
  -2  -4  -4 471.545 15.1520   1
   2   4   4 484.742 14.9728   1
  -2  -4  -5 6.65569 5.18354   2
  -2  -4  -5 5.99157 4.02143   1
   2   4   5 11.6585 4.83661   1
  -2  -4  -6 4.93800 5.25016   2
  -2  -4  -6 9.62630 5.20424   1
   2   4   6 8.86483 4.71771   1
  -2  -4  -7 9.31067 5.42700   1
  -2  -4  -7 4.68229 6.14382   2
   2   4   7 8.24679 5.19476   1
  -2  -4  -8 6.34240 6.12619   1
  -2  -4  -8-7.38351 6.68378   2
   2   4   8 1.10978 5.42818   1
  -2  -4  -9 38.2195 8.62302   2
   2   4   9 34.7958 7.43905   1
  -2  -4  -9 45.9621 8.30786   1
  -2  -4 -10-3.61511 7.11853   1
  -2  -4 -10 6.48670 9.16843   2
   2   4  10 17.8150 7.47169   1
  -2  -4 -11-7.82776 9.12472   2
  -2  -4 -11-0.06917 8.48544   1
   2   4  11 22.3315 8.99084   1
  -2  -5  16 7.44481 7.84234   1
  -2  -5  16 7.18909 7.59527   1
  -2  -5  15 12.3255 7.08241   1
   2   5 -15 18.0360 6.40378   2
  -2  -5  15 30.7420 7.88602   1
  -2  -5  14 8.36177 5.95189   1
   2   5 -14-7.33753 5.33589   2
  -2  -5  14-3.74671 6.21281   1
   2   5 -13 7.30204 4.59700   2
  -2  -5  13 10.3609 5.59180   1
  -2  -5  13 3.15471 5.34963   1
  -2  -5  12 9.20579 5.27529   1
   2   5 -12 0.88658 4.17169   2
  -2  -5  12-3.99162 4.82297   1
  -2  -5  11 6.13444 4.84834   1
   2   5 -11-1.91780 3.48383   2
  -2  -5  11 13.3763 4.95459   1
   2   5 -10 4.92474 3.44226   2
  -2  -5  10-0.68793 3.62840   1
  -2  -5  10 10.9469 3.78263   2
  -2  -5  10 1.74544 3.92071   1
   2   5  -9 1.47158 3.17879   2
  -2  -5   9 2.18490 3.82236   1
  -2  -5   9 0.77188 2.98015   2
  -2  -5   9 6.33086 4.68899   1
  -2  -5   8 9.22957 3.60894   1
   2   5  -8 7.72984 3.34302   2
  -2  -5   8 5.94024 3.18958   2
   2   5  -8 4.64968 3.46613   1
   2   5  -7 226.128 8.94804   2
  -2  -5   7 203.197 8.39633   2
   2   5  -7 196.734 9.49128   1
  -2  -5   7 216.662 9.91153   1
  -2  -5   6 19.4355 3.64846   2
   2   5  -6 23.8580 3.87737   2
   2   5  -6 20.9345 3.98994   1
  -2  -5   6 24.3619 4.13927   1
   2   5  -5 53.0284 4.98339   2
  -2  -5   5 53.8570 4.81324   2
   2   5  -5 54.0830 5.64224   1
  -2  -5   5 50.9641 5.21300   1
   2   5  -4 3.47081 3.50121   1
   2   5  -4-0.64945 2.69916   2
  -2  -5   4 0.70497 2.81776   2
  -2  -5   4-3.56843 3.43782   1
   2   5  -3 35.8371 4.58034   1
  -2  -5   3 43.4996 4.71738   2
  -2  -5   3 34.0768 4.92587   1
   2   5  -3 36.3776 4.61773   2
   2   5  -2 270.939 10.1856   2
   2   5  -2 282.884 10.8578   1
  -2  -5   2 274.956 10.4790   2
  -2  -5   2 269.889 10.8818   1
  -2  -5   1 24.6422 4.12931   2
   2   5  -1 22.7268 3.99915   2
   2   5  -1 19.1526 4.46490   1
  -2  -5   1 19.0674 4.43636   1
   2   5   0 10.3077 3.62886   2
  -2  -5   0 10.0438 4.17770   1
   2   5   0 12.7859 4.31144   1
  -2  -5   0 7.74766 3.97250   2
  -2  -5  -1 105.789 7.80718   2
  -2  -5  -1 110.496 7.97377   1
   2   5   1 117.314 7.79513   1
  -2  -5  -2-0.27397 3.97637   1
  -2  -5  -2-1.12644 4.23967   2
   2   5   2 7.46403 4.27164   1
  -2  -5  -3 7.65742 4.40283   2
  -2  -5  -3 7.30459 4.58833   1
   2   5   3 5.90876 3.70940   1
  -2  -5  -4 18.3563 6.04541   2
  -2  -5  -4 21.0863 5.87653   1
   2   5   4 13.3810 4.85623   1
  -2  -5  -5 3.73406 5.06408   2
  -2  -5  -5-3.58518 5.25999   1
   2   5   5 2.82231 4.31352   1
  -2  -5  -6 10.1134 6.40388   2
  -2  -5  -6 3.06960 5.45816   1
   2   5   6 6.23707 4.77153   1
  -2  -5  -7 6.30921 6.48139   2
  -2  -5  -7 5.58818 5.61574   1
   2   5   7 10.1511 6.53966   1
  -2  -5  -8 68.6286 10.0695   2
   2   5   8 71.6902 9.44502   1
  -2  -5  -8 76.2578 10.1389   1
  -2  -5  -9 91.0665 11.4630   2
   2   5   9 79.2146 10.8787   1
  -2  -5  -9 81.7211 10.7547   1
  -2  -5 -10 11.2605 11.0976   2
  -2  -5 -10-5.16839 9.80757   1
   2   5  10 8.48833 8.82064   1
   2   6 -16 10.4356 7.26721   2
  -2  -6  16 7.10576 7.48860   1
  -2  -6  16 11.8376 7.72249   1
  -2  -6  15 1.21214 7.46928   1
  -2  -6  15 10.2521 6.72391   1
   2   6 -15 1.60255 6.53020   2
  -2  -6  14-2.13840 6.24327   1
  -2  -6  14-0.21148 5.75119   1
   2   6 -14 4.74031 5.70739   2
  -2  -6  13 22.9343 6.30672   1
  -2  -6  13 18.5689 5.81073   1
   2   6 -13 13.0695 5.68910   2
   2   6 -12-3.26425 4.57959   2
  -2  -6  12-0.21161 5.30084   1
  -2  -6  12 0.92572 4.91894   1
  -2  -6  12 6.03099 4.78754   2
  -2  -6  11-1.45788 4.58945   1
   2   6 -11 6.84142 4.29379   2
  -2  -6  11 0.60568 4.18078   2
  -2  -6  11 2.40183 4.91813   1
  -2  -6  10 22.9436 4.86889   2
   2   6 -10 17.7383 4.75916   2
  -2  -6  10 28.8739 6.31443   1
  -2  -6  10 23.7261 5.49044   1
  -2  -6   9 12.8134 4.20383   1
   2   6  -9 3.16815 3.92071   2
  -2  -6   9 7.85146 4.07027   2
   2   6  -9 3.94335 4.37811   1
  -2  -6   8 21.5754 4.94046   1
   2   6  -8 25.7803 4.67541   2
   2   6  -8 15.1826 4.35334   1
  -2  -6   8 14.5438 4.16710   2
   2   6  -7 77.8413 6.57766   2
  -2  -6   7 74.4905 6.24197   2
   2   6  -7 68.5051 6.63707   1
  -2  -6   7 65.6028 6.59164   1
   2   6  -6 6.06850 3.57565   2
   2   6  -6 12.6954 4.29798   1
  -2  -6   6 6.63164 3.71989   2
  -2  -6   6-0.04201 3.23181   1
  -2  -6   5 68.2979 6.22386   2
   2   6  -5 70.1990 6.26126   2
   2   6  -5 73.8021 6.65894   1
  -2  -6   5 68.4717 6.53045   1
   2   6  -4 75.3324 6.62681   2
   2   6  -4 77.8452 6.80516   1
  -2  -6   4 82.6788 6.73957   2
  -2  -6   4 68.6204 6.65286   1
  -2  -6   3 125.890 8.07183   2
   2   6  -3 129.865 8.17237   1
  -2  -6   3 127.607 8.38633   1
   2   6  -3 132.249 8.09214   2
   2   6  -2 200.648 9.87015   2
  -2  -6   2 205.891 10.0031   2
   2   6  -2 199.199 10.4346   1
  -2  -6   2 214.844 10.5607   1
  -2  -6   1 189.101 10.4903   1
   2   6  -1 196.243 10.2525   2
  -2  -6   1 189.752 10.2757   2
   2   6  -1 213.764 10.7565   1
   2   6   0 296.984 12.5085   2
  -2  -6   0 302.876 12.8314   1
  -2  -6   0 305.885 12.9587   2
   2   6   0 289.237 12.7962   1
  -2  -6  -1 20.5149 5.77871   1
   2   6   1 17.5655 5.35546   1
  -2  -6  -1 20.7882 4.88808   2
  -2  -6  -2 54.1180 7.05238   1
  -2  -6  -2 50.2080 7.03043   2
   2   6   2 33.2513 6.29342   1
  -2  -6  -3 7.90613 4.84237   2
  -2  -6  -3-3.78650 5.63702   1
   2   6   3-1.77934 5.25427   1
  -2  -6  -4 11.8383 6.66819   2
  -2  -6  -4 5.46124 5.85162   1
   2   6   4-0.52822 4.47482   1
  -2  -6  -5 40.5900 7.46746   2
  -2  -6  -5 53.9623 7.85520   1
   2   6   5 55.5871 7.82020   1
  -2  -6  -6 89.7438 10.8814   2
  -2  -6  -6 95.9761 10.3925   1
   2   6   6 98.9672 10.4013   1
  -2  -6  -7 8.33967 7.88144   2
  -2  -6  -7-3.14181 7.81512   1
   2   6   7 2.23321 6.49752   1
  -2  -6  -8 123.692 13.9156   2
  -2  -6  -8 104.141 12.3846   1
  -2  -6  -9 20.7247 11.7189   2
  -2  -6  -9-4.54682 9.32559   1
   2   6   9 11.0362 9.95797   1
   2   7 -15 18.2017 7.51809   2
  -2  -7  15 35.4364 8.29998   1
  -2  -7  15 39.5112 9.39993   1
  -2  -7  14 3.70321 6.24653   1
  -2  -7  14 9.23469 7.03509   1
   2   7 -14 0.80873 6.56655   2
  -2  -7  13 1.73040 6.19759   1
   2   7 -13 12.4531 6.30099   2
  -2  -7  13 5.52411 5.96777   2
  -2  -7  13 9.77930 6.20087   1
  -2  -7  12-5.90798 5.73646   1
   2   7 -12-4.69835 5.61233   2
  -2  -7  12 4.49734 5.54852   2
  -2  -7  12 0.51609 5.78679   1
   2   7 -11 49.0160 6.94672   2
  -2  -7  11 35.8003 6.43221   2
  -2  -7  11 39.1953 7.77104   1
  -2  -7  11 36.5789 6.76100   1
   2   7 -10 12.3977 5.18662   2
   2   7 -10 4.63216 5.07036   1
  -2  -7  10 10.3541 4.89305   2
  -2  -7  10 11.3668 5.38739   1
   2   7  -9 71.7166 7.29181   2
  -2  -7   9 75.1501 7.40324   2
  -2  -7   9 73.1805 7.66782   1
   2   7  -9 72.1548 7.65084   1
   2   7  -8-1.26365 4.75078   2
  -2  -7   8 7.64147 4.30901   2
  -2  -7   8 3.68177 4.04903   1
   2   7  -8 2.93536 4.62685   1
  -2  -7   7 29.8867 5.32000   2
   2   7  -7 20.5219 5.17592   2
   2   7  -7 28.0804 5.88166   1
  -2  -7   7 33.4638 5.57658   1
   2   7  -6 0.04852 4.11962   1
   2   7  -6-0.04490 4.01690   2
  -2  -7   6 1.36817 4.27376   2
  -2  -7   6 1.97551 3.84217   1
  -2  -7   5 13.0818 4.99498   1
  -2  -7   5 6.51589 4.71525   2
   2   7  -5 9.67805 4.27464   1
   2   7  -5 4.99936 4.02296   2
  -2  -7   4 32.4511 5.42832   2
   2   7  -4 37.7212 6.33864   1
   2   7  -4 24.3674 5.57715   2
  -2  -7   4 37.7866 6.10111   1
  -2  -7   3 6.79176 4.52929   2
   2   7  -3 1.39095 4.88334   2
  -2  -7   3 1.01109 4.74736   1
   2   7  -3-1.20582 4.18332   1
  -2  -7   2 2.39791 4.74475   2
   2   7  -2 8.79922 5.04082   1
   2   7  -2-2.44075 4.43247   2
  -2  -7   2 2.82291 4.26952   1
   2   7  -1 181.443 10.6316   2
  -2  -7   1 165.916 10.5125   1
  -2  -7   1 177.412 11.0543   2
   2   7  -1 161.987 10.4639   1
  -2  -7   0 38.1781 6.61561   1
  -2  -7   0 31.5210 6.46255   2
   2   7   0 34.1807 6.71219   1
   2   7   0 35.8459 6.29213   2
  -2  -7  -1 31.3978 6.89460   1
  -2  -7  -1 24.1389 6.37403   2
   2   7   1 31.2785 6.27729   1
   2   7   2 0.86311 4.62948   1
  -2  -7  -2 5.44199 6.25592   2
  -2  -7  -2 0.50829 5.77987   1
  -2  -7  -3 26.9859 7.99454   2
   2   7   3 39.5659 8.28838   1
  -2  -7  -3 26.0318 7.35395   1
  -2  -7  -4 3.75239 6.66093   2
  -2  -7  -4 2.09283 6.88178   1
   2   7   4 0.47703 6.65965   1
  -2  -7  -5 66.2957 10.3049   1
   2   7   5 67.9363 10.1046   1
  -2  -7  -6 80.7003 12.2456   1
  -2  -7  -6 74.8197 11.1600   2
  -2  -7  -7 63.1104 11.8420   1
  -2  -7  -7 44.0023 11.9188   2
  -2  -8  14 27.5332 8.30972   1
   2   8 -14 27.2294 8.52795   2
  -2  -8  14 23.8718 7.55157   1
   2   8 -13-1.23747 6.88597   2
  -2  -8  13 10.9783 7.03142   1
  -2  -8  13-1.56087 7.23293   1
   2   8 -12 2.96806 6.61138   2
  -2  -8  12 6.01794 6.79436   2
  -2  -8  12-4.52531 6.72306   1
  -2  -8  12-3.18654 7.05798   1
   2   8 -11 50.2170 7.85999   1
   2   8 -11 61.3140 8.26471   2
  -2  -8  11 42.6470 7.60306   2
  -2  -8  11 47.7469 7.62382   1
   2   8 -10 1.87422 5.55850   1
   2   8 -10-6.04176 5.91656   2
  -2  -8  10 3.55695 5.72744   2
  -2  -8  10-8.16245 5.58011   1
   2   8  -9 22.7949 6.53362   1
   2   8  -9 23.2494 6.13751   2
  -2  -8   9 13.1676 5.96222   1
  -2  -8   9 22.1416 6.24720   2
   2   8  -8 28.0999 6.49805   2
  -2  -8   8 29.0139 6.13590   2
  -2  -8   8 35.0018 6.81080   1
   2   8  -8 25.7299 5.92163   1
   2   8  -7 15.4971 6.20981   1
   2   8  -7 15.6646 5.75856   2
  -2  -8   7 16.6947 5.91810   1
  -2  -8   7 6.93152 5.30327   2
   2   8  -6 18.7639 6.28889   1
   2   8  -6 11.3542 4.92035   2
  -2  -8   6 8.72507 4.67327   1
  -2  -8   6 10.0163 5.71823   2
   2   8  -5 75.9400 8.27956   2
  -2  -8   5 83.1779 8.81254   2
   2   8  -5 76.6522 8.33301   1
  -2  -8   5 96.9458 8.84088   1
  -2  -8   4 34.7233 6.86440   2
   2   8  -4 36.4069 6.29383   1
  -2  -8   4 18.3843 5.52667   1
   2   8  -4 19.4026 6.38587   2
   2   8  -3 97.1872 9.39848   1
  -2  -8   3 90.2444 9.11633   1
   2   8  -3 91.0014 9.06087   2
  -2  -8   3 97.1524 9.42109   2
   2   8  -2 230.687 12.7911   2
   2   8  -2 248.391 13.2811   1
  -2  -8   2 225.652 13.2413   2
  -2  -8   2 212.440 13.0436   1
  -2  -8   1 3.85893 5.10929   1
   2   8  -1 6.49403 5.02825   2
   2   8  -1 2.12727 5.79480   1
  -2  -8   1 9.17689 5.70587   2
   2   8   0 12.7569 6.45637   1
  -2  -8   0 2.33438 5.59191   2
   2   8   0 7.47551 6.13682   2
  -2  -8   0 9.14427 6.84637   1
   2   8   1-5.80962 6.37532   1
  -2  -8  -1 3.00747 7.06968   2
  -2  -8  -1-9.34605 6.03537   1
  -2  -8  -2 54.8970 10.3578   1
  -2  -8  -2 62.8795 9.21346   2
   2   8   2 52.9385 8.57881   1
   2   8   3 36.9960 8.95848   1
  -2  -8  -3 22.5798 9.34259   2
  -2  -8  -3 31.8080 8.49075   1
  -2  -8  -4 86.1920 11.2883   2
  -2  -8  -4 90.4144 12.3678   1
   2   8   4 93.3625 12.0489   1
  -2  -8  -5 3.19986 9.29981   2
  -2  -8  -5 11.0574 10.0159   1
   2   8   5 17.8462 8.62399   1
  -2  -8  -6 6.95714 9.51451   2
  -2  -8  -6-1.96267 8.84145   1
   2   8   6 8.44005 10.2037   1
  -2  -9  13-5.11800 8.38050   1
   2   9 -13 7.66242 8.70434   2
  -2  -9  13 3.70946 8.17424   2
  -2  -9  13-6.06400 8.46940   1
   2   9 -12-4.16400 7.92283   2
  -2  -9  12 2.36390 7.10584   1
  -2  -9  12-1.22635 7.96450   2
  -2  -9  12 7.27035 8.94579   1
   2   9 -11 45.0246 8.93968   2
  -2  -9  11 50.7938 9.24979   2
  -2  -9  11 52.4941 9.02603   1
   2   9 -11 37.4254 8.54034   1
   2   9 -10 16.0689 7.50003   2
  -2  -9  10 11.2319 6.30668   1
   2   9 -10 8.67670 6.70699   1
  -2  -9  10 5.09522 6.46811   2
   2   9  -9 40.2068 7.86618   2
  -2  -9   9 33.4285 8.23201   2
  -2  -9   9 46.5598 8.27902   1
   2   9  -9 48.8054 8.51384   1
   2   9  -8 12.1280 6.35974   2
  -2  -9   8 3.10615 6.41917   1
   2   9  -8 3.72058 6.77284   1
  -2  -9   8 2.38944 6.23451   2
   2   9  -7-1.11811 6.47824   1
  -2  -9   7 1.16997 5.70146   1
   2   9  -7-1.92154 6.67182   2
  -2  -9   7 5.06606 6.48456   2
  -2  -9   6-2.13411 6.07966   1
   2   9  -6 8.34984 5.81136   2
  -2  -9   6 4.06172 6.82258   2
   2   9  -6 3.84680 6.27614   1
   2   9  -5 51.6354 8.36892   2
  -2  -9   5 56.8837 8.36726   2
   2   9  -5 50.6482 8.57032   1
  -2  -9   5 56.3833 8.51026   1
  -2  -9   4 11.8874 7.26690   1
   2   9  -4 16.5169 7.68574   2
  -2  -9   4-2.84022 6.43087   2
   2   9  -4-0.52370 6.76293   1
  -2  -9   3 7.13333 7.27520   1
   2   9  -3-4.01186 6.65979   2
  -2  -9   3 2.97287 5.89177   2
   2   9  -3 2.22187 6.41987   1
   2   9  -2 12.4018 7.24829   2
   2   9  -2 16.0248 7.64868   1
  -2  -9   2-2.66163 7.43410   2
  -2  -9   2 7.06177 7.69308   1
   2   9  -1 13.9165 7.84972   2
   2   9  -1 4.70079 6.09412   1
  -2  -9   1-5.42538 8.25668   2
  -2  -9   1-5.47737 8.26553   1
   2   9   0 3.84834 7.72411   1
  -2  -9   0 10.5325 8.12593   2
  -2  -9   0-2.48025 8.41812   1
   2   9   1-0.07897 6.93773   1
  -2  -9  -1 14.4376 9.38646   2
  -2  -9  -1-0.40216 7.90730   1
  -2  -9  -2-20.4082 10.2370   2
   2   9   2-7.31873 9.55417   1
  -2  -9  -2 0.33504 8.09120   1
   2   9   3-4.04140 11.3183   1
  -2  -9  -3-0.43394 8.66849   2
  -2  -9  -3-7.99268 11.0939   1
   2   9   4-3.96212 11.1153   1
  -2  -9  -4 13.3772 11.7204   2
  -2  -9  -4 21.9201 11.2589   1
  -2 -10  12 3.18699 7.69102   1
   2  10 -12-1.25393 8.82095   2
   2  10 -12 22.2210 8.90006   1
  -2 -10  12 6.82107 8.44377   2
  -2 -10  11 15.3576 8.69588   1
   2  10 -11 2.47205 8.85900   2
  -2 -10  11 6.97572 8.56181   2
   2  10 -11 6.83320 8.44386   1
   2  10 -10 31.4512 8.55506   1
   2  10 -10 38.7788 9.74411   2
  -2 -10  10 12.0311 8.09251   1
  -2 -10  10 22.7302 8.36281   2
  -2 -10   9 7.21642 7.51283   1
   2  10  -9 5.57501 8.36751   2
  -2 -10   9 11.3111 8.21471   2
   2  10  -9 7.16627 8.02612   1
  -2 -10   8 27.5352 8.21847   1
   2  10  -8 38.6194 9.42932   2
   2  10  -8 23.8258 7.97702   1
  -2 -10   8 36.8626 9.50590   2
   2  10  -7 49.6486 9.43759   2
   2  10  -7 11.2043 8.16410   1
  -2 -10   7 41.2656 8.87777   1
  -2 -10   7 21.6027 8.65883   2
  -2 -10   6 20.1454 7.88763   1
   2  10  -6-3.86568 7.51255   2
  -2 -10   6-3.64167 8.75376   2
   2  10  -6-2.08187 8.76025   1
  -2 -10   5 4.60582 8.75247   1
   2  10  -5 16.5885 8.17884   2
  -2 -10   5 22.0445 9.36344   2
   2  10  -5-1.82929 7.34275   1
   2  10  -4 8.62385 7.74921   2
  -2 -10   4 2.63237 7.52343   2
   2  10  -4 7.67348 8.90536   1
  -2 -10   4 0.62051 7.93605   1
   2  10  -3-0.15505 8.81943   2
  -2 -10   3 5.47219 9.36442   2
   2  10  -3-10.8385 8.13124   1
  -2 -10   3-11.1732 8.85031   1
   2  10  -2 0.55896 9.30865   2
  -2 -10   2 12.3655 9.63382   2
   2  10  -2 20.1345 8.97484   1
  -2 -10   2 1.81908 7.91019   1
   2  10  -1 14.2240 8.54721   1
   2  10  -1 37.6561 9.50369   2
  -2 -10   1 0.40906 8.37928   2
  -2 -10   1 28.5152 9.60817   1
   2  10   0 16.0092 9.38730   1
  -2 -10   0 21.5345 11.5749   2
  -2 -10   0 7.21749 10.1186   1
   2  10   1 35.4536 12.9899   1
  -2 -10  -1 11.8809 12.5521   2
  -2 -10  -1 21.1772 11.6483   1
  -2 -11   9-0.07690 6.88717   1
   2  11  -9-14.4146 8.15682   2
  -2 -11   9-2.34708 6.81406   2
   2  11  -9-15.1715 8.55311   1
  -2 -11   8 16.4111 9.89847   1
   2  11  -8 32.8881 12.0105   2
   2  11  -8 32.9345 10.8944   1
  -2 -11   8 24.3798 11.1877   2
  -2 -11   7-4.77426 10.2559   1
   2  11  -7-7.48848 9.28350   1
   2  11  -7-0.91328 9.08725   2
  -2 -11   7-4.99093 9.82717   2
   2  11  -6 12.4256 10.1284   2
  -2 -11   6 9.72828 9.34107   2
   2  11  -6-12.1554 11.2801   1
  -2 -11   6 21.7821 11.5524   1
   2  11  -5 5.29286 10.5338   2
  -2 -11   5-0.16812 11.5280   2
   2  11  -5-3.00530 10.8960   1
  -2 -11   5-8.03412 10.8490   1
   2  11  -4-2.61172 10.5724   2
  -2 -11   4-16.6203 11.2610   2
   2  11  -4 22.4400 11.8543   1
  -2 -11   4-9.19484 10.0327   1
   2  11  -3 8.48163 10.9144   2
  -2 -11   3 3.64975 11.6118   2
   2  11  -3-6.11789 10.8114   1
  -2 -11   3 19.0012 10.3517   1
   3 -11   3 4.68760 4.92316   1
  -3  11  -3 4.77410 4.74194   2
  -3  11  -3 11.3528 5.15557   1
   3 -11   3 15.6700 6.44109   2
   3 -11   4 13.3312 5.88981   1
   3 -11   4 10.8988 6.38080   2
  -3  11  -4 16.7345 5.86393   1
   3 -11   5 10.3007 4.44011   1
  -3  11  -5 7.74161 5.83629   2
   3 -11   5 4.75034 6.05151   2
  -3  11  -5 14.8628 4.60625   1
  -3  10   2-11.8145 9.76757   1
   3 -10  -2 12.5447 9.98925   1
  -3  10   2 3.57016 9.63893   2
   3 -10  -2-0.28137 9.34456   2
   3 -10  -1 9.36990 10.4897   1
  -3  10   1 8.36219 9.85925   1
  -3  10   1-3.89053 10.1451   2
   3 -10  -1 8.76099 9.43433   2
   3 -10   0-1.58046 9.76143   1
  -3  10   0 8.10086 7.95611   1
   3 -10   0-2.22954 8.90589   2
  -3  10   0 4.78153 9.34915   2
   3 -10   1 10.0702 8.24711   1
  -3  10  -1 0.45209 7.25487   1
  -3  10  -1 6.74962 8.90442   2
   3 -10   1-2.93723 8.86376   2
   3 -10   2 25.2098 8.10790   1
  -3  10  -2 33.6959 9.42327   2
  -3  10  -2 34.5208 8.46705   1
   3 -10   2 33.0245 8.78109   2
   3 -10   3 2.36710 6.82447   1
  -3  10  -3-0.44438 7.52773   2
  -3  10  -3-9.63996 6.48579   1
   3 -10   3 7.29770 8.65506   2
   3 -10   4 0.10401 6.24254   1
  -3  10  -4-3.42737 7.80890   2
  -3  10  -4 5.26894 5.94817   1
   3 -10   4 22.3545 9.96912   2
   3 -10   5 9.06314 6.07949   1
  -3  10  -5 4.87953 9.60756   2
   3 -10   5 0.22759 9.36883   2
  -3  10  -5-6.76988 5.41849   1
  -3  10  -6 5.16012 4.98720   1
  -3  10  -6-9.95580 9.97587   2
   3 -10   6 8.37482 9.64372   2
   3 -10   6-2.18289 5.35170   1
   3 -10   7 2.74311 4.31097   1
  -3  10  -7-1.84150 10.3380   2
   3 -10   7-15.0469 10.9000   2
  -3  10  -8 15.1063 1.81875   1
  -3  10  -8 18.6580 10.7954   2
  -3  10  -9 6.47536 12.3551   2
   3 -10   9-11.5456 9.28921   2
  -3   9   5 22.5900 9.75751   1
   3  -9  -5 9.95842 11.1569   1
   3  -9  -5-3.59326 7.69944   2
  -3   9   5 4.79249 7.67312   2
  -3   9   4 27.7112 9.20429   1
   3  -9  -4 28.9739 11.3923   1
  -3   9   4 7.56213 8.30695   2
   3  -9  -4 16.1407 8.15985   2
  -3   9   3 1.33675 7.87075   2
  -3   9   3 17.6263 9.31441   1
   3  -9  -3 18.4328 9.60882   1
   3  -9  -3 36.7460 8.46476   2
  -3   9   2-9.05481 6.86587   1
   3  -9  -2 5.42487 7.98018   1
  -3   9   2-13.3640 7.53732   2
   3  -9  -2-4.61978 7.15640   2
  -3   9   1-6.97487 7.08268   1
   3  -9  -1 13.2324 8.03087   1
  -3   9   1 14.1086 7.35893   2
   3  -9  -1-1.09160 6.63975   2
  -3   9   0 8.28619 7.09603   1
   3  -9   0 9.59448 7.13521   1
  -3   9   0 6.63514 6.62656   2
   3  -9   0-1.45190 6.65958   2
  -3   9  -1 13.8280 6.33056   1
   3  -9   1 24.3818 6.89640   1
  -3   9  -1 13.3700 7.06770   2
   3  -9   1 7.50809 6.91074   2
   3  -9   2 2.50707 5.84904   1
  -3   9  -2 5.39406 5.58985   1
  -3   9  -2-0.95411 6.52747   2
   3  -9   2 5.27601 6.91613   2
   3  -9   3 21.0118 5.99853   1
  -3   9  -3 19.8171 5.79154   1
  -3   9  -3 14.6544 7.77924   2
   3  -9   4-6.47115 5.03625   1
  -3   9  -4-11.2129 7.99374   2
  -3   9  -4-2.12867 4.86159   1
   3  -9   4 6.67554 7.42908   2
   3  -9   5-1.85900 4.88000   1
  -3   9  -5 6.51214 7.85145   2
  -3   9  -5 2.61059 4.33180   1
   3  -9   5-2.36954 6.49295   2
   3  -9   6 2.50153 3.97589   1
  -3   9  -6-8.90147 8.03827   2
   3  -9   6 11.9186 7.69245   2
  -3   9  -6 3.44858 3.66233   1
  -3   9  -7 0.44462 2.62356   1
  -3   9  -7-0.44937 8.36906   2
   3  -9   7 8.82326 9.02789   2
   3  -9   7-0.42528 2.87205   1
  -3   9  -8 20.1235 10.0921   2
   3  -9   8 18.1852 8.36747   2
  -3   9  -9-2.64731 10.0664   2
   3  -9   9 1.89684 9.48055   2
  -3   9 -10 34.6114 11.8166   2
  -3   9 -11-6.56826 9.33657   2
   3  -8  -7 30.0072 12.9042   1
   3  -8  -7-5.25060 7.64925   2
  -3   8   7 21.4678 12.2378   1
   3  -8  -6 13.1733 9.08464   1
   3  -8  -6 27.0085 7.69588   2
  -3   8   6 3.25147 8.85657   1
   3  -8  -5-7.16077 7.75928   1
  -3   8   5 3.12537 6.74538   2
   3  -8  -5-0.37443 6.39039   2
  -3   8   5 5.29492 9.36563   1
  -3   8   4 47.0989 8.00666   2
   3  -8  -4 36.2493 7.61828   2
   3  -8  -4 46.3248 9.06476   1
  -3   8   4 26.5877 9.67896   1
   3  -8  -3 7.35334 7.16724   1
  -3   8   3 7.35858 6.48544   2
   3  -8  -3 2.40487 5.88003   2
  -3   8   3 6.22691 7.47277   1
  -3   8   2 2.98118 5.93436   2
   3  -8  -2 3.26187 6.85624   1
   3  -8  -2 2.43938 5.65113   2
  -3   8   2 4.66570 6.19642   1
   3  -8  -1 42.0875 7.08197   2
  -3   8   1 35.2274 7.35688   1
  -3   8   1 40.4029 7.15410   2
   3  -8  -1 51.1004 8.55573   1
  -3   8   0 0.05439 5.60215   1
   3  -8   0 8.32353 5.73723   1
  -3   8   0 7.09116 5.45661   2
   3  -8   0-4.43719 5.35338   2
  -3   8  -1 46.5853 7.36947   2
   3  -8   1 60.8663 7.89842   2
  -3   8  -1 63.4139 7.37524   1
   3  -8   1 58.8769 7.46007   1
  -3   8  -2 9.13927 4.74481   1
   3  -8   2 2.98235 4.64797   1
  -3   8  -2 5.29179 5.14368   2
   3  -8   2 8.03852 5.11614   2
   3  -8   3 23.2799 5.13323   1
  -3   8  -3 22.2703 4.88684   1
  -3   8  -3 10.9206 5.93581   2
   3  -8   3 31.4125 6.93481   2
   3  -8   4 6.92064 3.95085   1
  -3   8  -4 13.8391 4.00372   1
  -3   8  -4 7.11665 5.55531   2
   3  -8   4 5.91491 5.80182   2
   3  -8   5 51.4313 8.27847   2
  -3   8  -5 42.6089 7.48336   2
  -3   8  -5 44.1023 4.87295   1
   3  -8   5 37.5348 4.89117   1
  -3   8  -6-5.88971 6.35210   2
   3  -8   6 3.27131 6.53244   2
  -3   8  -6-2.81461 2.86544   1
   3  -8   6 2.37943 3.01082   1
  -3   8  -7 11.7653 7.32926   2
  -3   8  -7 3.97394 1.13513   1
  -3   8  -7 3.68601 1.28509   1
   3  -8   7 6.63453 7.11376   2
  -3   8  -8-8.09230 7.82717   2
   3  -8   8 6.18129 7.79230   2
  -3   8  -9 15.6604 8.03246   2
  -3   8 -10-4.60561 9.41455   2
  -3   8 -11 6.68661 8.92596   2
  -3   8 -12 14.7979 10.8221   2
   3  -7  -8 34.3830 12.4268   1
   3  -7  -8 22.3614 7.23118   2
  -3   7   8 48.8505 11.0763   1
   3  -7  -7 15.8119 9.05540   1
   3  -7  -7 12.0332 6.34478   2
  -3   7   7 9.07801 8.01172   1
   3  -7  -6 36.5602 9.45464   1
   3  -7  -6 25.8788 6.32065   2
  -3   7   6 22.2251 9.24572   1
   3  -7  -5 33.9086 6.25785   2
   3  -7  -5 29.2081 8.66964   1
  -3   7   5 27.4731 6.35353   2
  -3   7   5 27.2240 8.10707   1
   3  -7  -4 0.61918 5.82504   1
   3  -7  -4-2.16800 4.97639   2
  -3   7   4-3.04386 6.53311   1
   3  -7  -3 23.1690 5.64492   2
   3  -7  -3 15.9340 6.74874   1
  -3   7   3 25.4365 5.77104   2
  -3   7   3 32.8130 7.29569   1
   3  -7  -2 60.7457 6.69804   2
  -3   7   2 62.8559 7.73596   1
  -3   7   2 50.4823 6.67244   2
   3  -7  -2 62.7528 8.05256   1
  -3   7   1 30.6728 6.43318   1
  -3   7   1 27.3999 5.59038   2
   3  -7  -1 42.8094 6.30041   2
   3  -7  -1 34.6098 6.66547   1
   3  -7   0-0.48699 4.50737   1
  -3   7   0 2.73412 4.66125   2
   3  -7   0-1.60074 3.99139   2
  -3   7   0-5.33644 4.41999   1
   3  -7   1 3.14123 4.13284   1
  -3   7  -1 4.11224 4.53616   2
   3  -7   1-5.06572 5.05499   2
  -3   7  -1 1.63342 4.09561   1
  -3   7  -2 217.081 11.3430   2
   3  -7   2 203.328 11.0826   2
  -3   7  -2 215.449 10.0291   1
   3  -7   2 203.718 9.89997   1
  -3   7  -3 163.973 10.3359   2
   3  -7   3 172.292 10.2895   2
  -3   7  -3 160.159 8.11549   1
   3  -7   3 168.483 8.52967   1
   3  -7   4 17.4730 3.96127   1
  -3   7  -4 14.4458 3.52757   1
  -3   7  -4 14.7798 5.22062   2
   3  -7   4 11.8194 5.43433   2
  -3   7  -5 73.1492 7.88447   2
   3  -7   5 77.7476 8.59118   2
  -3   7  -5 66.3433 4.59860   1
   3  -7   5 63.3317 4.79405   1
  -3   7  -6 1.07536 1.60923   1
  -3   7  -6 7.28075 6.18148   2
   3  -7   6 5.41384 5.34672   2
  -3   7  -6-0.06782 1.70649   1
  -3   7  -7 13.2862 5.84924   2
   3  -7   7 5.98853 6.01821   2
  -3   7  -8 1.50053 6.97249   2
  -3   7  -9 4.36239 7.23153   2
  -3   7 -10 10.7991 7.52608   2
  -3   7 -11 30.5699 9.29891   2
  -3   7 -12 16.3862 10.6636   2
  -3   7 -13 4.07275 10.2706   2
   3  -6 -10 0.60940 6.24224   2
  -3   6  10-13.7237 11.9375   1
   3  -6  -9-2.18643 8.97423   1
   3  -6  -9 2.88909 5.89743   2
  -3   6   9-2.45290 8.91151   1
   3  -6  -8-20.6217 10.6665   1
   3  -6  -8 0.84491 5.03780   2
  -3   6   8 0.56500 9.13491   1
   3  -6  -7 32.7463 9.20511   1
   3  -6  -7 13.5782 5.06760   2
  -3   6   7 32.6727 9.30472   1
   3  -6  -6 10.7328 7.42623   1
   3  -6  -6 4.00210 4.26677   2
  -3   6   6 12.1073 7.07529   1
   3  -6  -5 42.9520 8.29419   1
   3  -6  -5 40.6280 5.44170   2
  -3   6   5 42.4172 5.78324   2
  -3   6   5 40.5493 8.32146   1
  -3   6   4 36.4365 6.58707   1
   3  -6  -4 37.3381 5.15702   2
   3  -6  -4 34.0298 7.35093   1
  -3   6   4 40.9926 5.47839   2
  -3   6   3 68.5071 6.36805   2
  -3   6   3 63.6526 7.79852   1
   3  -6  -3 68.4010 6.19144   2
   3  -6  -3 69.4290 8.18698   1
   3  -6  -2 2.29498 4.73805   1
  -3   6   2 1.55760 3.59966   2
   3  -6  -2-4.78831 3.74455   2
  -3   6   2 3.99957 4.66127   1
  -3   6   1 21.5929 4.64565   2
   3  -6  -1 10.8856 4.46817   1
   3  -6  -1 10.5879 3.93754   2
  -3   6   1 11.3719 4.57683   1
  -3   6   0 183.119 9.29722   2
  -3   6   0 183.343 9.55089   1
   3  -6   0 188.597 9.26293   2
   3  -6   0 191.995 9.84171   1
  -3   6  -1 213.332 10.1456   2
  -3   6  -1 226.036 9.76900   1
   3  -6   1 211.837 9.98929   2
   3  -6   1 204.206 9.60423   1
  -3   6  -2 85.5250 7.21205   2
  -3   6  -2 80.8362 5.96277   1
   3  -6   2 92.1883 7.19140   2
   3  -6   2 79.8325 6.05903   1
   3  -6   3 16.8502 3.63362   1
  -3   6  -3 28.5066 5.02092   2
   3  -6   3 24.9287 4.85721   2
  -3   6  -3 25.5798 3.84346   1
  -3   6  -4 51.4074 6.65113   2
   3  -6   4 46.8361 6.04110   2
  -3   6  -4 42.8329 3.92030   1
   3  -6   4 44.6556 4.17861   1
  -3   6  -5 115.640 4.66802   1
  -3   6  -5 116.775 4.73796   1
   3  -6   5 116.623 8.81333   2
  -3   6  -5 127.047 9.39116   2
  -3   6  -6 34.1079 6.49010   2
   3  -6   6 37.6358 6.67660   2
  -3   6  -7 5.48650 5.78169   2
  -3   6  -8 8.36679 7.02481   2
  -3   6  -9 97.6113 9.76960   2
  -3   6 -10 13.4439 8.13381   2
  -3   6 -11 14.0463 7.42658   2
  -3   6 -12 10.2306 9.41900   2
  -3   6 -13-0.08437 9.53113   2
   3  -5 -11 3.08956 12.3230   1
   3  -5 -11 7.47801 5.97310   2
  -3   5  11 9.17847 9.59952   1
   3  -5 -10-7.58259 8.27197   1
   3  -5 -10-0.07073 4.85852   2
  -3   5  10 2.55495 8.34636   1
   3  -5  -9 8.39692 8.94670   1
   3  -5  -9 4.52857 4.65686   2
  -3   5   9 1.26135 8.27656   1
   3  -5  -8 10.7739 7.94478   1
   3  -5  -8-5.45000 4.34572   2
  -3   5   8-4.22000 7.50051   1
   3  -5  -7 5.23952 6.76847   1
   3  -5  -7 10.2547 3.85399   2
  -3   5   7 12.5554 6.33436   1
   3  -5  -6 9.92339 3.47615   2
   3  -5  -6 14.1956 7.07347   1
  -3   5   6 4.10436 5.51407   1
   3  -5  -5 5.47384 4.92815   1
  -3   5   5 7.78587 3.43643   2
   3  -5  -5 5.46287 3.22549   2
  -3   5   5 10.8326 5.78524   1
   3  -5  -4 11.0056 5.51631   1
   3  -5  -4 9.72934 3.10553   2
  -3   5   4 14.6308 5.16196   1
  -3   5   4 16.3493 3.75328   2
   3  -5  -3 2.89974 4.63224   1
  -3   5   3-1.17939 2.96634   2
   3  -5  -3 2.22019 3.04286   2
  -3   5   3-4.26200 3.63931   1
   3  -5  -2 8.90391 3.95414   1
  -3   5   2 11.2982 3.41405   2
   3  -5  -2 12.7258 3.36275   2
  -3   5   2 4.89030 3.80280   1
  -3   5   1 96.8775 6.98547   1
   3  -5  -1 91.7799 6.12444   2
  -3   5   1 86.6190 6.08592   2
   3  -5  -1 96.2315 7.20525   1
  -3   5   0 216.513 9.39056   1
  -3   5   0 233.922 9.29606   2
   3  -5   0 214.528 8.92066   2
   3  -5   0 213.927 9.52705   1
  -3   5  -1 133.247 7.09930   1
  -3   5  -1 133.323 7.47410   2
   3  -5   1 133.319 7.37963   2
   3  -5   1 132.752 7.27947   1
   3  -5   2 3.13992 2.91377   1
  -3   5  -2 1.19743 3.34196   2
  -3   5  -2-3.44402 2.63525   1
   3  -5   2-0.31808 3.31658   2
  -3   5  -3 6.10450 3.83243   2
   3  -5   3 3.43944 3.74512   2
  -3   5  -3 5.62139 2.49100   1
   3  -5   3 6.69739 2.72569   1
  -3   5  -4 9.46180 4.22604   2
   3  -5   4 7.46525 4.22251   2
  -3   5  -4 8.61338 2.18889   1
  -3   5  -4 7.88143 2.26614   1
  -3   5  -5 15.3290 1.77675   1
  -3   5  -5 13.6443 1.68735   1
  -3   5  -5 15.3568 4.62146   2
  -3   5  -6 25.5247 5.55844   2
  -3   5  -7 53.1704 6.86509   2
  -3   5  -8-2.80878 4.37176   2
  -3   5  -9 51.5443 8.15348   2
  -3   5 -10 16.0406 6.23633   2
  -3   5 -11 11.2717 8.19936   2
  -3   5 -12 5.17973 9.10650   2
  -3   5 -13 16.9321 10.2089   2
   3  -4 -12 35.3466 13.2648   1
   3  -4 -12 27.4360 5.69736   2
   3  -4 -11 27.3642 11.0094   1
   3  -4 -11 19.2921 4.92958   2
  -3   4  11 13.9423 10.4827   1
  -3   4  10 96.6569 11.6567   1
   3  -4 -10 100.401 6.42406   2
   3  -4 -10 86.1339 12.0561   1
   3  -4  -9 9.63457 6.83267   1
   3  -4  -9-0.38923 3.23141   2
  -3   4   9-2.62754 6.82961   1
   3  -4  -8 3.76956 5.20199   1
   3  -4  -8 5.70931 3.19706   2
  -3   4   8 5.70233 6.40268   1
   3  -4  -7 37.1556 4.01429   2
  -3   4   7 39.2443 7.37467   1
   3  -4  -7 29.0869 7.09284   1
   3  -4  -6 46.3570 4.06500   2
   3  -4  -6 48.3422 7.44248   1
  -3   4   6 41.3740 6.65091   1
  -3   4   5 13.8871 3.00860   2
   3  -4  -5 13.0805 5.43376   1
   3  -4  -5 16.9805 2.95981   2
  -3   4   5 17.1537 5.19184   1
  -3   4   4 58.9606 4.37873   2
   3  -4  -4 61.6510 4.32270   2
   3  -4  -4 57.3462 6.89065   1
  -3   4   4 60.8365 6.49031   1
  -3   4   3 160.449 6.58885   2
   3  -4  -3 143.254 6.12448   2
   3  -4  -3 153.277 8.88645   1
  -3   4   3 146.556 8.77671   1
   3  -4  -2 3.95350 3.39761   1
  -3   4   2-0.95321 2.26217   2
  -3   4   2 3.55896 3.36641   1
   3  -4  -2 1.82521 2.25553   2
  -3   4   1 130.985 6.28101   2
   3  -4  -1 134.919 6.30212   2
   3  -4  -1 135.311 7.66815   1
  -3   4   1 146.719 7.76361   1
   3  -4   0 1.12593 2.79576   1
  -3   4   0 1.05582 2.61103   1
  -3   4   0-3.34765 2.66316   2
   3  -4   0-1.30676 2.47994   2
   3  -4   1 17.1639 3.54553   2
  -3   4  -1 18.0080 3.56684   2
   3  -4   1 19.6038 3.51485   1
  -3   4  -1 18.3872 3.24454   1
  -3   4  -2 5.45795 2.40003   1
  -3   4  -2 4.82832 3.05227   2
   3  -4   2 7.36249 3.21226   2
   3  -4   2 3.45504 2.64745   1
  -3   4  -3 13.6745 2.40411   1
  -3   4  -3 17.0315 4.15832   2
  -3   4  -3 11.4808 2.44777   1
  -3   4  -4-1.32176 1.60908   1
  -3   4  -4 2.33394 3.42768   2
  -3   4  -4-1.31366 1.59962   1
  -3   4  -5 15.8199 1.42975   1
  -3   4  -5 18.2286 4.16392   2
  -3   4  -5 14.5262 1.33741   1
  -3   4  -6 229.278 11.2303   2
  -3   4  -7 216.698 11.4604   2
  -3   4  -8 28.5738 6.64101   2
  -3   4  -9 4.71343 5.82038   2
  -3   4 -10 2.43450 6.29108   2
  -3   4 -11-7.45889 7.25908   2
  -3   4 -12-1.76728 8.40329   2
  -3   4 -13 7.51386 7.92904   2
  -3   4 -14 11.4256 10.0508   2
   3  -3 -13 14.8128 4.47058   2
  -3   3  13 11.4418 9.71751   1
   3  -3 -13 8.53146 4.47155   2
   3  -3 -13 7.87558 12.9814   1
   3  -3 -12 3.22397 3.66567   2
  -3   3  12-4.01662 9.54359   1
   3  -3 -12 2.18355 3.61645   2
   3  -3 -12 11.2294 8.75955   1
   3  -3 -11-2.29159 3.32165   2
  -3   3  11-2.35532 7.48118   1
   3  -3 -11 10.7075 9.49215   1
   3  -3 -10-9.91405 7.40931   1
   3  -3 -10-0.43929 2.61124   2
  -3   3  10-1.26657 7.15905   1
   3  -3  -9-2.31911 6.95928   1
   3  -3  -9-0.23538 2.39486   2
  -3   3   9-0.58431 5.04328   1
  -3   3   8 15.5676 6.32781   1
   3  -3  -8-0.44097 1.97684   2
   3  -3  -8 9.74769 6.10957   1
   3  -3  -7-1.42777 4.47171   1
  -3   3   7 0.77037 5.15151   1
   3  -3  -7-0.84878 1.78814   2
   3  -3  -6 3.54762 3.77233   1
  -3   3   6 4.73358 4.34911   1
   3  -3  -6 0.99234 1.75597   2
   3  -3  -5 17.1042 2.23766   2
   3  -3  -5 22.9899 4.97638   1
  -3   3   5 28.8101 5.06435   1
  -3   3   4 76.8267 3.87007   2
   3  -3  -4 76.0310 3.75470   2
   3  -3  -4 79.6824 6.91510   1
  -3   3   4 70.8711 6.41409   1
   3  -3  -3 20.7023 2.47330   2
  -3   3   3 18.6337 2.51124   2
   3  -3  -3 21.3356 4.04285   1
  -3   3   3 24.9379 4.50544   1
  -3   3   2 5.33069 3.41424   1
  -3   3   2 1.99895 1.91280   2
   3  -3  -2 5.76098 1.93151   2
   3  -3  -2 5.00028 2.95961   1
  -3   3   1 201.169 6.74479   2
   3  -3  -1 199.430 6.64928   2
   3  -3  -1 196.500 8.60536   1
  -3   3   1 200.325 8.40249   1
  -3   3   0 6.96650 2.81513   1
  -3   3   0 6.99450 2.41502   2
   3  -3   0 7.26560 2.39523   2
   3  -3   0 9.78867 3.17164   1
  -3   3  -1 301.097 9.27306   2
  -3   3  -1 301.732 8.77358   1
  -3   3  -1 304.506 8.98605   1
  -3   3  -2 124.563 6.58330   2
  -3   3  -2 132.387 5.70448   1
  -3   3  -2 121.421 5.30759   1
  -3   3  -3 147.066 7.61944   2
  -3   3  -3 142.332 5.22974   1
  -3   3  -3 144.131 5.35134   1
  -3   3  -4 40.6817 2.76989   1
  -3   3  -4 38.3039 4.80942   2
  -3   3  -4 40.9682 2.77819   1
  -3   3  -5 5.54239 1.16646   1
  -3   3  -5 7.09154 1.22825   1
  -3   3  -5 7.22612 3.88278   2
  -3   3  -6-0.90104 3.98703   2
  -3   3  -7 39.5153 6.36310   2
  -3   3  -8 18.9848 5.37109   2
  -3   3  -9 8.39529 6.12926   2
  -3   3 -10 6.16450 6.08651   2
  -3   3 -11 10.0382 6.72370   2
  -3   3 -12 3.01767 8.04122   2
  -3   3 -13 11.0935 9.61900   2
   3  -2 -14 10.6377 3.06178   2
   3  -2 -14 3.72641 2.86285   2
  -3   2  14-1.13729 9.87513   1
  -3   2  13-5.94040 10.3517   1
   3  -2 -13 0.73331 3.08806   2
   3  -2 -12 7.90510 2.73259   2
  -3   2  12-0.07561 8.42611   1
   3  -2 -12 12.6206 2.87058   2
   3  -2 -12 16.6099 9.26745   1
   3  -2 -11 4.93952 2.04490   2
  -3   2  11 8.62276 6.71879   1
   3  -2 -11 0.66490 2.02599   2
   3  -2 -11 7.12653 7.25630   1
   3  -2 -10 123.291 4.28545   2
   3  -2 -10 132.420 11.7319   1
  -3   2  10 116.484 10.1865   1
   3  -2  -9 10.7221 1.60239   2
  -3   2   9 13.5194 6.22139   1
   3  -2  -9 6.31764 6.39854   1
  -3   2   8 0.60614 5.07227   1
   3  -2  -8 0.47489 0.86087   2
   3  -2  -8 0.69433 4.54152   1
   3  -2  -7 8.82284 0.91184   2
  -3   2   7 14.4117 5.06280   1
   3  -2  -7 11.0120 4.41430   1
  -3   2   6 21.8072 4.60872   1
   3  -2  -6 20.4756 5.45858   1
   3  -2  -5 7.96241 0.87501   2
  -3   2   5 8.65127 3.82941   1
   3  -2  -5 4.48654 3.81699   1
  -3   2   4-0.23684 3.45212   1
  -3   2   4-1.07175 0.95475   2
   3  -2  -4 1.19416 3.63715   1
  -3   2   3 71.3970 3.07755   2
   3  -2  -3 91.2662 6.90571   1
  -3   2   3 76.7605 6.25497   1
  -3   2   2 18.1390 2.14354   2
  -3   2   2 21.5143 3.90590   1
  -3   2   1 140.686 6.76775   1
  -3   2   1 144.317 7.09720   1
  -3   2   1 135.237 5.08487   2
  -3   2   0 248.827 7.42061   2
  -3   2   0 264.879 8.90569   1
  -3   2   0 237.244 8.09033   1
  -3   2  -1 126.868 5.94779   2
  -3   2  -1 120.988 5.57844   1
  -3   2  -1 129.923 6.07183   1
  -3   2  -2 266.158 8.90064   2
  -3   2  -2 270.790 7.62506   1
  -3   2  -2 261.018 7.82832   1
  -3   2  -3 594.829 10.4595   1
  -3   2  -3 597.930 14.0419   2
  -3   2  -3 602.127 10.9280   1
  -3   2  -4 30.0917 4.21427   2
  -3   2  -4 30.3524 2.82775   1
  -3   2  -4 29.0808 2.62476   1
  -3   2  -5 158.113 8.69303   2
  -3   2  -5 161.889 4.81098   1
  -3   2  -5 173.491 5.17782   1
  -3   2  -6 44.0212 5.75144   2
  -3   2  -6 45.2526 2.50957   1
  -3   2  -6 49.3461 2.69591   1
  -3   2  -7 37.1710 6.04389   2
  -3   2  -7 34.3337 1.96852   1
  -3   2  -7 32.8005 1.82833   1
  -3   2  -8 340.529 14.4767   2
  -3   2  -9 14.2001 5.71246   2
  -3   2 -10 84.9904 9.74701   2
  -3   2 -11 4.78024 7.33035   2
  -3   2 -12-14.0591 8.98932   2
  -3   2 -13 7.12044 10.2867   2
   3  -1 -14 10.7582 2.55230   2
   3  -1 -14 6.31069 2.38853   2
  -3   1  14-0.73247 9.72406   1
   3  -1 -13 18.8058 2.61720   2
   3  -1 -13 17.8276 2.52947   2
  -3   1  13 15.5254 8.08552   1
   3  -1 -13 3.02509 10.2629   1
  -3   1  12-1.68956 6.54104   1
   3  -1 -12-0.26339 1.58895   2
  -3   1  11 11.3938 7.20191   1
   3  -1 -11 1.58496 1.03223   2
   3  -1 -11-2.68297 7.18534   1
  -3   1  10-5.97374 5.90204   1
   3  -1 -10 10.1449 5.58624   1
  -3   1   9 9.79105 5.27151   1
   3  -1  -9 26.5885 6.63517   1
   3  -1  -8 60.1672 7.55165   1
  -3   1   8 55.8957 6.60156   1
  -3   1   7 5.59761 4.65944   1
   3  -1  -7 3.29801 4.67754   1
  -3   1   6 5.10383 3.69400   1
   3  -1  -6-5.16184 4.04670   1
  -3   1   5 14.2484 4.35965   1
   3  -1  -5 7.89652 4.31699   1
  -3   1   4 112.760 7.03807   1
  -3   1   4 132.226 7.69694   1
  -3   1   3-1.68294 3.10581   1
  -3   1   3 2.00438 0.82063   2
  -3   1   3 3.47087 2.77986   1
  -3   1   2 328.140 6.22129   2
  -3   1   2 349.021 11.1692   1
  -3   1   2 314.904 10.0202   1
  -3   1   1 13.6627 3.32089   1
  -3   1   1 9.37841 2.87061   1
  -3   1   1 14.9883 2.16717   2
  -3   1   0-1.80353 2.22223   1
  -3   1   0-2.02979 1.94754   2
  -3   1   0 2.23591 2.33615   1
  -3   1  -1 30.7336 3.43026   2
  -3   1  -1 30.0292 3.31385   1
  -3   1  -1 29.4412 3.51874   1
  -3   1  -2 6.23101 2.14348   1
  -3   1  -2 6.58039 2.81363   2
  -3   1  -2 3.81065 2.37002   1
   3  -1   3 85.6220 4.51534   1
  -3   1  -3 73.8423 5.53350   2
  -3   1  -3 81.5688 4.47522   1
   3  -1   4 3.12900 1.98746   1
  -3   1  -4 5.87562 2.10757   1
  -3   1  -4 2.58878 3.14864   2
  -3   1  -5 410.715 13.0994   2
  -3   1  -5 417.273 9.01924   1
   3  -1   5 379.998 8.51310   1
  -3   1  -6 337.464 12.7784   2
  -3   1  -6 343.662 8.28473   1
   3  -1   6 333.451 7.97215   1
  -3   1  -7 127.926 5.23440   1
  -3   1  -7 126.338 9.05532   2
   3  -1   7 139.175 5.38221   1
  -3   1  -8 33.8523 6.54828   2
   3  -1   8 38.2324 3.29767   1
  -3   1  -8 36.5837 3.27435   1
  -3   1  -9 212.232 12.6595   2
   3  -1   9 220.276 6.78737   1
  -3   1  -9 218.174 6.76392   1
   3  -1  10 22.5603 3.10199   1
  -3   1 -10 19.5411 7.48449   2
  -3   1 -10 22.2666 3.03446   1
  -3   1 -11-1.16496 2.49652   1
   3  -1  11 2.21140 2.42167   1
  -3   1 -11-3.37637 6.70851   2
  -3   1 -12 1.14702 2.52435   1
   3  -1  12 2.92586 2.46896   1
  -3   1 -13-16.0582 10.0629   2
  -3   1 -13 1.41883 2.10111   1
  -3   0  15-12.8760 10.2020   1
   3   0 -15 2.82670 1.98123   2
  -3   0  15 1.55389 10.3213   1
   3   0 -14 0.07786 1.79445   2
  -3   0  14 4.89595 7.75745   1
   3   0 -14-0.28039 1.83799   2
  -3   0  14 12.7442 8.50023   1
   3   0 -13 6.83780 1.55752   2
  -3   0  13 6.95531 7.87344   1
  -3   0  13 21.6014 7.78233   1
  -3   0  12 126.363 11.3496   1
  -3   0  12 114.310 10.7793   1
  -3   0  11 29.4250 6.34366   1
  -3   0  11 38.5529 7.39759   1
  -3   0  10 16.3110 6.19719   1
  -3   0  10-5.19804 5.63264   1
  -3   0   9 8.20213 4.98487   1
  -3   0   9 1.46335 4.32892   1
  -3   0   8 440.831 15.2515   1
  -3   0   8 437.338 15.5522   1
  -3   0   7 128.948 8.47536   1
  -3   0   7 121.679 8.25476   1
  -3   0   6 39.9724 4.81331   1
  -3   0   6 45.4354 5.45745   1
  -3   0   5 8.28412 3.94606   1
  -3   0   5 11.5808 3.66159   1
  -3   0   4 2.04619 3.38256   1
  -3   0   4 1.62839 2.98421   1
  -3   0   3 35.2990 1.72638   2
  -3   0   3 32.2150 1.62432   2
  -3   0   3 31.3537 4.44257   1
  -3   0   3 32.6000 4.18451   1
  -3   0   2 0.62499 2.44068   1
  -3   0   2 1.38674 1.35338   2
  -3   0   2 5.69954 2.65965   1
  -3   0   1 4.43666 2.70813   1
  -3   0   1 1.68371 2.54424   1
  -3   0   0-0.67694 2.20116   1
   3   0   0 1.79637 2.15624   1
  -3   0  -1 418.498 10.5961   1
   3   0   1 444.646 10.7826   1
  -3   0  -2 2.21150 2.19122   1
   3   0   2 2.89448 2.16588   1
   3   0   3 90.7585 5.15593   1
  -3   0  -3 89.7970 5.17243   1
   3   0   4 43.5697 3.93145   1
  -3   0  -4 43.5734 3.96308   1
   3   0   5 119.657 5.90609   1
  -3   0  -5 118.590 5.90433   1
  -3   0  -6 127.114 6.34455   1
   3   0   6 115.404 5.93591   1
  -3   0  -7 70.6276 5.06011   1
   3   0   7 66.0459 4.90199   1
  -3   0  -8 1.48968 2.98886   1
   3   0   8 1.50328 2.95245   1
  -3   0  -9 4.50811 3.21202   1
   3   0   9-5.36597 3.57750   1
   3   0  10 35.4370 4.82634   1
  -3   0 -10 28.8164 4.68734   1
  -3   0 -11 14.6552 4.38490   1
   3   0  11 13.7501 4.30589   1
  -3   0 -11 16.2209 7.72580   2
   3   0  12 29.5301 5.43604   1
  -3   0 -12 53.7809 9.90817   2
  -3   0 -12 43.2767 5.99155   1
  -3   0 -13 15.8180 5.55638   1
  -3   0 -13 12.7265 9.55465   2
   3   0  13 19.6194 5.32082   1
   3   1 -15 8.48813 2.19684   2
  -3  -1  15 18.3435 10.4622   1
  -3  -1  15 18.6993 9.78066   1
   3   1 -14 1.66308 1.74489   2
  -3  -1  14 3.38968 8.35362   1
   3   1 -14 5.21591 1.83334   2
  -3  -1  13 8.15691 7.07383   1
   3   1 -13-0.53919 1.28659   2
  -3  -1  13 3.20805 6.94735   1
  -3  -1  12 10.1490 6.73725   1
  -3  -1  12 1.03255 5.83072   1
  -3  -1  11 54.2205 8.10730   1
  -3  -1  11 38.9244 6.58955   1
  -3  -1  10 299.683 14.1469   1
  -3  -1  10 283.334 13.3014   1
  -3  -1   9 68.2813 7.57243   1
  -3  -1   9 70.8468 6.96877   1
  -3  -1   8 9.84790 4.09385   1
  -3  -1   8 8.16735 3.75053   1
  -3  -1   7 10.7035 4.63608   1
  -3  -1   7 11.8719 4.42889   1
  -3  -1   6 2.90690 3.68818   1
  -3  -1   6 1.42531 3.12021   1
  -3  -1   5 495.052 14.2407   1
  -3  -1   5 503.920 14.7717   1
  -3  -1   4 260.594 4.04685   2
  -3  -1   4 254.867 10.2008   1
  -3  -1   4 279.865 10.9258   1
  -3  -1   3 17.1800 1.86834   2
  -3  -1   3 21.6849 3.48285   1
  -3  -1   3 24.1084 4.27168   1
   3   1  -2-1.34104 2.78165   1
  -3  -1   2 3.17606 1.73886   2
  -3  -1   2 6.45501 3.11178   1
  -3  -1   1 119.587 6.49176   1
  -3  -1   1 109.030 5.02598   2
   3   1  -1 105.822 6.22799   1
  -3  -1   0 52.5964 4.61226   1
   3   1   0 45.4672 4.30827   1
   3   1   1 172.577 7.44518   1
  -3  -1  -1 174.343 7.53218   1
   3   1   2 24.3762 3.53783   1
  -3  -1  -2 25.4376 3.54748   1
   3   1   3 2.42312 2.56860   1
  -3  -1  -3-2.70111 2.72146   1
   3   1   4 18.9449 3.57415   1
  -3  -1  -4 17.7503 3.54986   1
  -3  -1  -5 5.41125 3.10285   1
   3   1   5 2.85027 2.93899   1
   3   1   6 81.1284 5.97568   1
  -3  -1  -6 73.2383 5.81437   1
   3   1   7 16.4845 3.78150   1
  -3  -1  -7 12.1808 3.83685   1
   3   1   8 4.64913 3.82990   1
  -3  -1  -8 3.85060 3.56959   1
   3   1   9 2.20770 4.16816   1
  -3  -1  -9 3.17416 4.11161   1
   3   1  10-4.02257 4.75498   1
  -3  -1 -10-1.59647 4.49517   1
  -3  -1 -11 8.30946 5.39450   1
   3   1  11-5.62214 5.03427   1
   3   1  12 51.5800 7.51061   1
  -3  -1 -12 62.8791 7.76303   1
   3   2 -15-1.37741 2.49432   2
   3   2 -15 4.45829 2.37902   2
  -3  -2  15-2.92975 7.96089   1
   3   2 -14 2.38047 2.13706   2
  -3  -2  14 1.11199 7.05623   1
   3   2 -14 1.68752 2.14617   2
  -3  -2  14 1.15936 7.67956   1
   3   2 -13-0.55592 1.74604   2
  -3  -2  13-1.82740 6.86003   1
   3   2 -13 0.91586 1.80986   2
  -3  -2  13 1.33699 5.94513   1
   3   2 -12 10.5677 1.72365   2
  -3  -2  12 1.79893 6.22265   1
  -3  -2  12 13.0127 6.33269   1
   3   2 -11 9.42163 1.22926   2
   3   2 -11 8.83234 1.28567   2
  -3  -2  11 5.26733 4.95339   1
  -3  -2  11 12.8718 5.18611   1
  -3  -2  10 91.0096 8.36446   1
  -3  -2  10 90.9921 8.71541   1
  -3  -2   9 10.3464 5.04669   1
  -3  -2   9 5.07932 4.35496   1
  -3  -2   8 30.2957 5.59230   1
  -3  -2   8 32.6564 5.29722   1
  -3  -2   7 11.8691 4.09639   1
  -3  -2   7 11.5346 4.40486   1
  -3  -2   6 28.3535 1.58290   2
  -3  -2   6 22.6333 4.67368   1
  -3  -2   6 36.2015 5.17175   1
  -3  -2   5 373.298 12.7822   1
  -3  -2   5 376.259 13.6431   1
  -3  -2   5 353.021 6.13417   2
  -3  -2   4 343.832 7.09070   2
   3   2  -4 311.112 11.1944   1
  -3  -2   4 341.569 11.9007   1
  -3  -2   3 376.272 8.24661   2
  -3  -2   3 368.022 12.0540   1
   3   2  -3 355.724 11.6313   1
  -3  -2   2 73.2367 4.39370   2
  -3  -2   2 81.8979 5.90063   1
   3   2  -2 71.1417 5.51107   1
  -3  -2   1 31.7740 3.54837   2
   3   2  -1 33.0517 4.05833   1
  -3  -2   1 37.2379 4.40884   1
  -3  -2   0 8.14139 2.95976   2
   3   2   0 4.60590 2.68983   1
  -3  -2   0 1.22534 2.39538   1
   3   2   1 1.11325 2.93019   1
  -3  -2  -1 4.47266 3.04551   2
  -3  -2  -1-1.12960 2.87416   1
  -3  -2  -2 313.176 10.9781   2
   3   2   2 302.463 10.6366   1
  -3  -2  -2 283.822 10.3780   1
   3   2   3 30.2251 4.46336   1
  -3  -2  -3 29.2543 4.25662   1
  -3  -2  -3 35.1592 5.11154   2
   3   2   4 221.247 9.55881   1
  -3  -2  -4 215.405 9.42814   1
   3   2   5 36.6839 5.10128   1
  -3  -2  -5 28.2369 4.66013   1
   3   2   6 3.25002 3.66830   1
  -3  -2  -6 1.79250 3.97217   1
   3   2   7 0.97765 4.02239   1
  -3  -2  -7-7.56953 4.12414   1
  -3  -2  -8 3.09147 5.40524   2
   3   2   8 6.01891 4.60311   1
  -3  -2  -8 2.48138 4.41454   1
  -3  -2  -9 2.26925 6.46601   2
   3   2   9 2.31496 5.01378   1
  -3  -2  -9 6.98464 5.04134   1
  -3  -2 -10-0.70110 7.63323   2
   3   2  10 4.30500 5.43157   1
  -3  -2 -10 8.84531 5.90354   1
  -3  -2 -11-10.6678 9.65331   2
   3   2  11 5.07125 6.47954   1
  -3  -2 -11 4.74600 6.45012   1
   3   3 -15 7.21824 3.24684   2
  -3  -3  15 3.16704 7.83497   1
  -3  -3  15 0.21389 7.90016   1
   3   3 -15 9.60851 3.27908   2
  -3  -3  14 8.55675 8.11513   1
   3   3 -14 10.3609 3.28205   2
  -3  -3  14 5.49504 7.49661   1
  -3  -3  13 1.56342 6.45624   1
   3   3 -13 0.12434 2.43956   2
  -3  -3  13-2.83338 6.86363   1
   3   3 -12 11.2410 2.56392   2
  -3  -3  12 7.66355 6.01919   1
  -3  -3  12 14.4427 5.79947   1
   3   3 -11 37.7329 3.06437   2
  -3  -3  11 43.1788 7.08062   1
  -3  -3  11 38.7950 7.35299   1
   3   3 -10 55.5640 3.24835   2
  -3  -3  10 54.2400 7.17653   1
  -3  -3  10 60.8622 7.96124   1
  -3  -3   9 17.9572 5.68362   1
  -3  -3   9 22.2515 5.21231   1
   3   3  -9 20.2158 2.24190   2
  -3  -3   8 21.6571 2.30220   2
  -3  -3   8 27.0818 5.02977   1
   3   3  -8 23.8673 2.37026   2
  -3  -3   8 26.6531 5.75554   1
   3   3  -7-1.81621 1.68066   2
  -3  -3   7 0.55327 1.62179   2
  -3  -3   7-1.44829 4.35080   1
  -3  -3   7 0.94439 4.01220   1
   3   3  -6 3.49888 1.90470   2
  -3  -3   6 2.48236 1.81129   2
  -3  -3   6 0.12829 3.69082   1
   3   3  -5 3.11949 2.92895   1
  -3  -3   5 1.41818 1.91102   2
  -3  -3   5-3.84315 4.00268   1
  -3  -3   4 23.0634 2.96844   2
   3   3  -4 21.0579 4.27707   1
  -3  -3   4 16.8696 4.43964   1
  -3  -3   3 3.84077 2.38001   2
  -3  -3   3 4.58523 3.46421   1
   3   3  -3 1.76531 3.40282   1
  -3  -3   2 89.3104 5.47755   2
   3   3  -2 95.1370 6.90073   1
  -3  -3   2 94.4831 6.98905   1
  -3  -3   1 53.0142 4.79608   2
   3   3  -1 49.2721 5.32491   1
  -3  -3   1 48.3285 5.21644   1
  -3  -3   0 4.76136 3.07076   2
  -3  -3   0 1.44179 3.27915   1
   3   3   0 8.80886 3.81686   1
  -3  -3  -1 20.3272 4.25151   2
   3   3   1 23.3973 4.58175   1
  -3  -3  -1 28.9317 4.75716   1
  -3  -3  -2 60.5625 6.14228   2
   3   3   2 80.8890 6.61065   1
  -3  -3  -2 80.7878 6.45972   1
  -3  -3  -3 227.995 10.9816   2
   3   3   3 223.827 10.3060   1
  -3  -3  -3 227.361 10.4965   1
  -3  -3  -4 8.22599 3.93821   1
  -3  -3  -4 3.10745 4.68090   2
   3   3   4 14.1657 4.38253   1
  -3  -3  -5 11.0422 5.67143   2
   3   3   5 11.1666 4.47082   1
  -3  -3  -5 23.1123 5.43997   1
  -3  -3  -6 2.42797 5.81724   2
   3   3   6 9.15518 4.92939   1
  -3  -3  -6 2.81325 4.87129   1
  -3  -3  -7 5.39590 6.71967   2
   3   3   7 6.49788 5.24597   1
  -3  -3  -7-2.69040 5.04556   1
  -3  -3  -8 67.0353 9.92336   2
  -3  -3  -8 80.9607 8.47367   1
   3   3   8 83.9627 8.60662   1
  -3  -3  -9 100.044 12.1498   2
   3   3   9 98.1727 9.44652   1
  -3  -3  -9 93.4212 9.57426   1
  -3  -3 -10 148.169 14.2866   2
  -3  -3 -10 132.533 11.5503   1
   3   3  10 151.160 11.8385   1
  -3  -3 -11 54.5691 11.9646   2
  -3  -3 -11 77.2759 10.4120   1
   3   3  11 51.3446 9.47147   1
  -3  -4  15-6.10384 8.32734   1
  -3  -4  15 12.1730 8.11128   1
   3   4 -15 6.42006 4.12371   2
  -3  -4  14-12.4818 7.00403   1
  -3  -4  14 3.77859 7.27070   1
   3   4 -14-0.20127 3.75223   2
  -3  -4  13-3.26812 6.43735   1
  -3  -4  13 1.83881 6.40652   1
   3   4 -13-0.52827 3.32397   2
  -3  -4  12-0.25118 6.07921   1
   3   4 -12 2.42246 3.19544   2
  -3  -4  12-1.42948 6.00426   1
  -3  -4  11-0.35720 5.48052   1
   3   4 -11 1.22781 2.77781   2
   3   4 -10 43.0725 3.99837   2
  -3  -4  10 34.3215 6.44868   1
  -3  -4  10 39.6115 6.75263   1
   3   4  -9 134.550 5.88288   2
  -3  -4   9 133.585 5.87499   2
  -3  -4   9 139.430 9.81202   1
  -3  -4   9 138.122 9.77660   1
   3   4  -8 0.44445 2.32096   2
  -3  -4   8 3.52768 2.43824   2
  -3  -4   8 0.63718 3.84935   1
  -3  -4   8-1.28064 4.78167   1
   3   4  -7 239.482 7.74881   2
  -3  -4   7 237.990 11.6513   1
  -3  -4   7 248.289 7.84285   2
   3   4  -7 234.447 11.2747   1
   3   4  -6 6.40411 4.32601   1
   3   4  -6 5.30428 2.65692   2
  -3  -4   6 10.6608 4.31700   1
  -3  -4   6 10.6889 2.88991   2
   3   4  -5 0.96498 2.47053   2
   3   4  -5 4.69016 3.89705   1
  -3  -4   5 4.23724 3.94734   1
  -3  -4   5 4.47183 2.58010   2
   3   4  -4 12.5133 3.15077   2
  -3  -4   4 9.83321 4.29163   1
  -3  -4   4 12.5179 3.20335   2
   3   4  -4 9.77821 4.00617   1
  -3  -4   3 299.285 10.0504   2
   3   4  -3 297.924 12.0319   1
  -3  -4   3 313.754 12.0961   1
   3   4  -2 54.4978 5.79979   1
  -3  -4   2 51.7862 5.62172   1
  -3  -4   2 49.3961 5.04694   2
  -3  -4   1 63.7867 5.84899   2
   3   4  -1 59.2502 6.45795   1
  -3  -4   1 58.6196 6.02729   1
  -3  -4   0 3.46729 3.41760   2
  -3  -4   0-0.04303 4.01621   1
   3   4   0-4.69270 3.90423   1
  -3  -4  -1 116.845 8.14274   2
   3   4   1 117.855 8.36936   1
  -3  -4  -1 123.328 8.10095   1
  -3  -4  -2 107.551 7.86930   2
   3   4   2 100.643 8.07494   1
  -3  -4  -2 100.039 7.91411   1
  -3  -4  -3 70.0716 7.12657   2
  -3  -4  -3 68.9878 7.26157   1
   3   4   3 69.0260 6.98825   1
  -3  -4  -4-5.80384 5.78433   2
   3   4   4 6.31348 4.37170   1
  -3  -4  -4-2.59603 4.15166   1
  -3  -4  -5 34.5315 6.92671   1
  -3  -4  -5 28.5210 7.07946   2
   3   4   5 27.9088 6.27310   1
  -3  -4  -6 108.546 10.2352   2
  -3  -4  -6 116.939 9.60072   1
   3   4   6 120.069 9.55772   1
   3   4   7 6.00865 5.89613   1
  -3  -4  -7-4.66188 6.24907   2
  -3  -4  -7 4.59417 6.17828   1
   3   4   8 2.26505 6.69363   1
  -3  -4  -8-1.97219 7.32046   2
  -3  -4  -8 9.75432 7.20809   1
   3   4   9 17.9086 8.07244   1
  -3  -4  -9 6.61072 10.1531   2
  -3  -4  -9 28.5102 8.03006   1
   3   4  10 9.46224 8.75935   1
  -3  -4 -10 4.49739 9.80808   2
  -3  -4 -10-10.7653 8.81683   1
  -3  -5  15 2.17796 8.47884   1
   3   5 -15 5.29616 5.31063   2
  -3  -5  15 1.66917 8.44363   1
  -3  -5  14 7.06603 7.65474   1
   3   5 -14 6.00814 4.87521   2
  -3  -5  14-9.88119 6.69410   1
  -3  -5  13 2.62922 7.26202   1
   3   5 -13 7.62266 4.25882   2
  -3  -5  13-1.32895 7.15824   1
  -3  -5  12 9.65852 6.89666   1
   3   5 -12-1.22015 3.67746   2
  -3  -5  12 0.54386 6.12919   1
  -3  -5  11 14.7545 6.65743   1
   3   5 -11 19.9305 4.10458   2
  -3  -5  11 25.2168 6.73484   1
   3   5 -10 24.3881 4.16123   2
  -3  -5  10 24.5799 5.97364   1
  -3  -5  10 30.7055 4.29648   2
  -3  -5  10 33.3304 7.21137   1
   3   5  -9-2.18978 2.84949   2
  -3  -5   9 8.32318 4.67222   1
  -3  -5   9 4.34017 3.22084   2
  -3  -5   9 9.33556 5.29064   1
  -3  -5   8 42.6169 6.64848   1
   3   5  -8 44.0022 4.51298   2
   3   5  -8 41.3582 5.94749   1
  -3  -5   8 35.5953 4.38016   2
   3   5  -7 12.7924 3.49151   2
  -3  -5   7 12.2328 4.72913   1
  -3  -5   7 11.7169 3.49179   2
   3   5  -7 10.3205 4.49645   1
  -3  -5   6 29.9361 4.20374   2
   3   5  -6 37.3165 4.54135   2
   3   5  -6 32.6987 5.51180   1
  -3  -5   6 30.3159 5.73697   1
   3   5  -5 4.68263 3.13817   2
  -3  -5   5 9.63737 3.47612   2
   3   5  -5 1.18842 3.29035   1
   3   5  -4 1.59638 3.32488   2
   3   5  -4 7.80766 4.56082   1
  -3  -5   4-1.53689 3.18357   2
  -3  -5   4 6.78662 4.57357   1
  -3  -5   3 459.092 13.7266   2
   3   5  -3 480.668 15.7873   1
  -3  -5   3 469.642 15.5566   1
  -3  -5   2 247.462 10.6280   2
   3   5  -2 233.582 11.4480   1
  -3  -5   2 250.928 11.9558   1
  -3  -5   1 5.30447 3.63021   2
  -3  -5   1 0.53296 3.34265   1
   3   5  -1 4.69531 3.89334   1
  -3  -5   0 236.239 11.1340   2
   3   5   0 225.042 11.6001   1
  -3  -5   0 238.204 11.9097   1
  -3  -5  -1 3.47451 4.80668   1
  -3  -5  -1-3.59332 4.34228   2
   3   5   1 0.30544 4.16529   1
  -3  -5  -2-4.68958 5.31726   1
  -3  -5  -2 0.41671 5.05411   2
   3   5   2 4.22483 5.23256   1
  -3  -5  -3 9.75445 6.03659   1
  -3  -5  -3 14.3730 6.40074   2
   3   5   3 3.02247 5.41491   1
  -3  -5  -4 35.7529 7.59094   1
  -3  -5  -4 30.0252 6.57863   2
   3   5   4 43.5350 7.39289   1
  -3  -5  -5-12.8610 6.10094   2
   3   5   5-5.50957 6.07424   1
  -3  -5  -5 5.37862 6.76629   1
  -3  -5  -6 36.1410 9.00761   2
  -3  -5  -6 27.8729 8.09700   1
   3   5   6 53.0207 8.75926   1
   3   5   7 11.6381 7.47203   1
  -3  -5  -7-5.76665 7.01717   2
  -3  -5  -7-10.0913 7.50515   1
   3   5   8 26.3015 9.19219   1
  -3  -5  -8 9.57905 8.36668   2
  -3  -5  -8 19.6241 8.76672   1
  -3  -5  -9 36.0974 9.31988   1
   3   5   9 59.8127 10.7983   1
  -3  -6  15 24.9681 10.0516   1
   3   6 -15 23.1995 6.66443   2
  -3  -6  15 6.42199 8.78726   1
  -3  -6  14 20.8639 8.63603   1
   3   6 -14 16.1330 5.78470   2
  -3  -6  14 4.36146 8.26911   1
  -3  -6  13 17.5761 8.46062   1
   3   6 -13 12.0336 5.32690   2
  -3  -6  13 13.3478 7.10791   1
  -3  -6  12 26.7637 8.07754   1
   3   6 -12 40.9381 5.72640   2
  -3  -6  12 37.0909 7.38506   1
   3   6 -11 13.7093 4.90039   2
  -3  -6  11 10.9184 6.60713   1
  -3  -6  11 10.3695 4.74625   2
  -3  -6  11 14.0548 7.37457   1
   3   6 -10 51.0374 5.97818   2
  -3  -6  10 49.1055 5.67078   2
  -3  -6  10 54.7350 8.56733   1
  -3  -6  10 46.4113 7.22800   1
   3   6  -9 3.05522 4.88154   1
  -3  -6   9 1.81733 4.65744   1
   3   6  -9-0.03614 4.04278   2
  -3  -6   9-0.95768 3.57336   2
   3   6  -8-1.69130 4.45666   1
  -3  -6   8 2.43075 5.61229   1
   3   6  -8 4.54451 3.86048   2
  -3  -6   8-2.07270 3.90261   2
  -3  -6   7 9.35788 4.80192   1
   3   6  -7 17.3594 5.41157   1
   3   6  -7 5.60565 4.09946   2
  -3  -6   7 11.1035 4.08956   2
   3   6  -6 3.95925 3.80609   2
  -3  -6   6-0.19345 3.94187   2
   3   6  -6 7.51622 5.12624   1
  -3  -6   6 1.70322 4.54868   1
   3   6  -5 343.575 12.6071   2
  -3  -6   5 352.475 12.6381   2
   3   6  -5 352.374 14.5657   1
  -3  -6   5 333.777 14.4593   1
   3   6  -4 87.4378 7.32317   2
  -3  -6   4 91.7274 7.49753   2
   3   6  -4 97.1596 8.74770   1
  -3  -6   4 93.9575 8.20418   1
   3   6  -3 73.5595 6.83808   2
  -3  -6   3 62.8491 6.74887   2
   3   6  -3 71.9912 7.94327   1
  -3  -6   3 64.3610 7.25972   1
  -3  -6   2-1.36701 3.96340   2
  -3  -6   2 5.38117 4.27680   1
   3   6  -2 8.62867 4.56649   1
  -3  -6   1 16.0143 4.98868   1
  -3  -6   1 14.7382 5.20289   2
   3   6  -1 21.1836 5.58908   1
  -3  -6   0 6.90061 5.61954   1
  -3  -6   0 15.8245 5.71554   2
   3   6   0 17.4056 5.19359   1
  -3  -6  -1 11.3813 6.28684   1
  -3  -6  -1 3.89344 5.49130   2
   3   6   1-5.99819 5.73404   1
  -3  -6  -2 5.04153 5.45156   1
  -3  -6  -2 18.1063 5.89115   2
   3   6   2 14.4000 6.42060   1
   3   6   3 29.9132 7.90511   1
  -3  -6  -3 39.8021 7.41842   2
  -3  -6  -3 38.1607 8.50927   1
  -3  -6  -4 17.4642 8.09565   2
   3   6   4 21.0060 7.63078   1
  -3  -6  -4 9.04137 6.84790   1
   3   6   5 16.4286 7.67434   1
  -3  -6  -5 24.6568 8.83089   2
  -3  -6  -5 20.5602 8.19929   1
   3   6   6 31.4355 9.85667   1
  -3  -6  -6 20.7604 8.83962   2
  -3  -6  -6 37.8875 9.07748   1
   3   6   7 16.9639 9.26879   1
  -3  -6  -7 25.4915 10.6120   1
  -3  -7  14-8.44047 9.95318   1
   3   7 -14 8.38605 6.64148   2
  -3  -7  13 13.3548 8.67859   1
  -3  -7  13 30.2954 9.03753   1
   3   7 -13 18.6656 6.38758   2
  -3  -7  12-4.56316 7.11077   1
   3   7 -12-9.29417 5.73146   2
  -3  -7  12-5.13285 5.42435   2
  -3  -7  12 10.0651 7.81257   1
  -3  -7  11-2.41314 6.26229   1
   3   7 -11 7.35346 5.01021   2
  -3  -7  11 4.47057 4.93526   2
  -3  -7  11 8.16524 7.10549   1
  -3  -7  10 2.85293 6.30834   1
   3   7 -10 9.96471 5.06101   2
  -3  -7  10 2.26438 5.16328   2
   3   7 -10 15.5818 6.28059   1
   3   7  -9 15.0792 6.12960   1
   3   7  -9 3.28202 4.79671   2
  -3  -7   9-4.26310 4.90066   2
  -3  -7   9 8.74813 6.38511   1
   3   7  -8-2.74072 4.48298   2
   3   7  -8-6.67809 6.00871   1
  -3  -7   8 2.41602 4.70950   2
  -3  -7   8 4.24620 4.94977   1
   3   7  -7-1.64674 4.70433   2
  -3  -7   7 2.98573 4.68680   2
  -3  -7   7 9.30861 6.03350   1
   3   7  -7 4.94490 6.04649   1
   3   7  -6 34.9396 6.34693   2
  -3  -7   6 32.1706 5.96271   2
   3   7  -6 30.8776 6.74909   1
  -3  -7   6 37.8593 7.67883   1
   3   7  -5 197.221 10.9891   2
  -3  -7   5 196.318 11.0785   2
   3   7  -5 197.632 11.9730   1
  -3  -7   5 201.114 12.4546   1
   3   7  -4 8.26833 5.53922   1
   3   7  -4 5.98936 4.94167   2
  -3  -7   4 9.59236 5.39052   2
  -3  -7   4 6.29664 5.90427   1
   3   7  -3 103.177 9.17799   2
  -3  -7   3 98.1457 8.69980   2
   3   7  -3 116.218 10.2577   1
  -3  -7   3 89.7517 9.15350   1
  -3  -7   2 5.07098 5.33311   1
  -3  -7   2-2.77626 5.51774   2
   3   7  -2-8.35302 6.26432   1
  -3  -7   1 3.43702 6.29089   1
  -3  -7   1 1.58509 5.05016   2
   3   7  -1 7.48212 6.27140   1
  -3  -7   0 37.4660 7.25798   2
  -3  -7   0 33.2236 8.00909   1
   3   7   0 47.1604 7.67717   1
  -3  -7  -1-1.37656 6.89185   1
  -3  -7  -1 5.23078 6.88197   2
   3   7   1 0.20300 5.59894   1
   3   7   2 129.846 11.3295   1
  -3  -7  -2 127.639 11.4307   2
  -3  -7  -2 135.153 12.5004   1
  -3  -7  -3 19.8045 9.01731   2
   3   7   3 8.57696 7.81302   1
  -3  -7  -3 5.16330 8.46021   1
   3   7   4 5.97085 8.67593   1
  -3  -7  -4 3.04027 7.55889   2
  -3  -7  -4 10.1840 9.39934   1
   3   7   5-14.8063 10.1618   1
  -3  -7  -5 1.41147 8.82313   2
  -3  -7  -5 6.32953 9.68756   1
   3   7   6-10.4793 9.77242   1
  -3  -7  -6 9.90995 10.7879   1
   3   8 -13 12.8414 7.27477   2
  -3  -8  13 23.1618 7.99522   2
  -3  -8  13-0.07032 8.28000   1
  -3  -8  13 8.88078 10.2342   1
   3   8 -12 0.05280 6.99142   2
  -3  -8  12 3.62990 6.66180   2
  -3  -8  12 5.79221 7.37339   1
  -3  -8  12 0.08119 9.69330   1
   3   8 -11 7.15013 6.46558   2
  -3  -8  11-0.05239 6.27907   2
  -3  -8  11-11.6700 8.25141   1
   3   8 -10 4.42418 6.06431   2
   3   8 -10 7.11100 7.90546   1
  -3  -8  10 2.49130 6.02198   2
  -3  -8  10 15.6081 6.98792   1
   3   8  -9 10.1082 5.92711   2
  -3  -8   9 15.9907 6.41660   2
  -3  -8   9 10.3594 7.12045   1
   3   8  -9 6.17765 6.92730   1
   3   8  -8 1.91480 6.55196   1
   3   8  -8-1.56101 6.14332   2
  -3  -8   8 2.55901 5.85281   2
  -3  -8   8-5.15472 6.12661   1
   3   8  -7 21.4633 6.92549   2
  -3  -8   7 18.1329 6.79517   2
  -3  -8   7 14.4450 7.50456   1
   3   8  -7 12.7537 6.48373   1
   3   8  -6 25.3412 7.07010   2
   3   8  -6 32.7527 7.52934   1
  -3  -8   6 24.1646 6.69278   2
  -3  -8   6 29.6725 7.18080   1
   3   8  -5 3.93117 5.73831   1
   3   8  -5 11.9861 6.60053   2
  -3  -8   5 9.75878 6.58481   1
  -3  -8   5 15.1143 6.33437   2
   3   8  -4-4.88861 5.84294   2
  -3  -8   4-2.97519 5.93405   1
  -3  -8   4 3.69371 5.91404   2
   3   8  -4 7.25226 7.31399   1
  -3  -8   3 11.2309 6.34211   1
  -3  -8   3 7.90661 6.19046   2
   3   8  -3 15.4335 7.73322   1
   3   8  -3 21.2578 6.74353   2
  -3  -8   2 7.29229 7.57711   1
  -3  -8   2 10.1333 7.26101   2
   3   8  -2 4.02191 7.45685   1
  -3  -8   1 2.18852 7.47339   1
  -3  -8   1-1.63282 6.09828   2
   3   8  -1 0.07253 5.88983   1
  -3  -8   0 8.92997 7.66328   1
  -3  -8   0 12.2727 7.82445   2
   3   8   0 19.6553 7.68790   1
  -3  -8  -1 33.7798 8.98347   2
   3   8   1 21.7236 8.10756   1
  -3  -8  -1 26.6318 9.15473   1
   3   8   2 94.5017 12.8307   1
  -3  -8  -2 82.3344 13.0339   1
  -3  -8  -3 3.92998 10.6653   2
   3   8   3-12.5430 9.90543   1
  -3  -8  -3 5.86584 9.15089   1
  -3  -8  -4 70.6221 12.8953   2
  -3  -8  -4 61.0626 12.0081   1
   3   9 -12 2.95516 8.39353   2
  -3  -9  12-7.96801 8.27521   1
  -3  -9  12 15.9211 8.90117   2
  -3  -9  12-5.35998 10.9517   1
   3   9 -11 7.34061 7.78436   2
   3   9 -11-1.72772 10.1181   1
  -3  -9  11 6.28364 8.66120   1
  -3  -9  11 4.46431 8.15578   2
   3   9 -10 0.99339 7.77744   2
  -3  -9  10 2.57790 8.55862   1
  -3  -9  10 0.85486 8.02186   2
   3   9 -10-7.94331 8.54270   1
   3   9  -9 19.6866 9.13259   1
   3   9  -9 13.3912 7.51858   2
  -3  -9   9 11.7430 9.41977   1
  -3  -9   9 19.2714 8.16027   2
   3   9  -8-0.25339 7.76734   2
  -3  -9   8 10.7202 9.15799   1
  -3  -9   8-3.25173 6.92886   2
   3   9  -8 0.29374 7.09089   1
   3   9  -7 1.22542 7.28590   2
  -3  -9   7-4.78497 7.76850   1
  -3  -9   7 4.73807 6.81924   2
   3   9  -7 8.41239 7.05741   1
   3   9  -6 14.3865 7.54999   2
   3   9  -6 33.4002 9.23073   1
  -3  -9   6 17.9555 8.06475   1
  -3  -9   6 17.5828 7.85185   2
   3   9  -5 6.69255 7.15046   1
   3   9  -5 10.8334 7.49051   2
  -3  -9   5 0.52640 7.90725   1
  -3  -9   5 17.9371 8.11476   2
  -3  -9   4 14.9621 8.72924   1
   3   9  -4 17.9270 7.38768   2
  -3  -9   4 6.39382 8.02335   2
   3   9  -4 10.3579 8.72763   1
   3   9  -3-6.92141 7.14826   2
  -3  -9   3 3.14217 8.59562   1
  -3  -9   3-8.86270 7.69374   2
   3   9  -3 6.96915 7.34333   1
  -3  -9   2-4.29262 8.84700   1
  -3  -9   2-0.14844 8.92887   2
   3   9  -2 4.42228 9.25651   1
  -3  -9   1-14.2176 10.2177   1
  -3  -9   1 3.35098 9.27942   2
   3   9  -1 5.05018 7.97186   1
  -3  -9   0 12.3687 10.4797   2
   3   9   0-8.27290 9.83699   1
  -3  -9   0 4.59271 10.1380   1
   3   9   1 80.1459 13.8091   1
  -3  -9  -1 82.6677 13.0848   2
  -3  -9  -1 55.8852 11.3495   1
   3   9   2 92.3039 13.3105   1
  -3  -9  -2 73.1247 13.7778   2
  -3  -9  -2 66.6616 13.3837   1
   3  10 -10 18.4313 6.89653   2
  -3 -10  10 23.9485 6.67130   1
  -3 -10  10 15.0925 6.95740   2
   3  10 -10 26.7606 7.88491   1
   3  10  -9 7.16648 10.5852   1
   3  10  -9-5.59959 9.56340   2
  -3 -10   9 2.26299 9.08341   1
  -3 -10   9 1.64619 9.76426   2
   3  10  -8 39.1323 9.95775   2
  -3 -10   8 17.3892 10.7656   1
  -3 -10   8 22.1823 10.4917   2
   3  10  -8 13.0362 10.2940   1
  -3 -10   7 11.3525 10.7123   1
   3  10  -7 3.38069 9.52883   2
   3  10  -7-0.74185 8.51992   1
  -3 -10   7 9.59793 8.63304   2
  -3 -10   6-10.8663 9.54987   1
   3  10  -6 6.66728 8.97300   2
   3  10  -6 0.83268 10.6391   1
  -3 -10   6 1.94818 9.62189   2
   3  10  -5 0.50998 10.9327   1
  -3 -10   5-0.76576 10.0596   1
   3  10  -5-11.9527 10.5505   2
  -3 -10   5 7.45406 8.62924   2
  -3 -10   4 5.14719 10.1287   1
  -3 -10   4-18.1568 10.3240   2
   3  10  -4-4.68921 10.8301   1
  -3 -10   3 31.4658 12.4437   1
  -3 -10   3 30.1119 10.2487   2
   3  10  -3 33.5060 9.84086   1
  -3 -10   2 11.6188 9.96147   2
   3  10  -2 34.5521 12.7315   1
  -3 -10   2 45.6556 12.2637   1
  -3 -10   1 40.1656 8.62476   2
   4 -10   2 17.7608 6.16823   1
  -4  10  -2 13.6380 5.79112   1
  -4  10  -2 13.5971 6.15129   2
   4 -10   2 8.77327 6.50767   2
   4 -10   3-11.5024 6.99970   1
  -4  10  -3 2.21396 6.12177   1
  -4  10  -3-5.51127 8.30113   2
   4 -10   3-1.75810 6.99469   2
  -4  10  -4 28.6794 8.33132   2
  -4  10  -4-5.36318 5.37655   1
   4 -10   4 22.8995 8.40572   2
   4 -10   4-5.98086 5.53241   1
  -4   9   3 2.71426 5.33231   2
   4  -9  -3 16.0415 5.87685   2
  -4   9   3 24.0569 7.64057   1
   4  -9  -2 21.0975 11.0228   1
  -4   9   2 8.84002 8.51332   2
   4  -9  -2 4.78193 7.85545   2
  -4   9   2-5.55915 10.8381   1
  -4   9   1 4.10072 8.89845   1
   4  -9  -1 14.5286 8.61920   1
  -4   9   1 6.09418 8.16680   2
   4  -9  -1 20.2373 8.03418   2
  -4   9   0 21.3628 8.05857   1
   4  -9   0-1.66475 7.92933   1
  -4   9   0 4.86503 7.96293   2
   4  -9   0-5.22927 7.74421   2
  -4   9  -1 64.6678 10.2476   2
   4  -9   1 63.1726 9.98135   2
  -4   9  -1 59.7879 9.40744   1
   4  -9   1 67.7198 9.54953   1
   4  -9   2 12.9677 7.00130   1
  -4   9  -2 21.2883 7.09118   1
  -4   9  -2 17.6527 8.95322   2
   4  -9   2 22.9461 8.19474   2
  -4   9  -3 12.4492 5.98978   1
  -4   9  -3 24.1741 8.93545   2
   4  -9   3 1.91237 8.54472   2
   4  -9   3 16.0043 6.66535   1
  -4   9  -4 91.4774 10.9514   2
   4  -9   4 77.3850 11.1802   2
  -4   9  -4 107.547 8.69880   1
   4  -9   4 104.837 9.31160   1
  -4   9  -5 11.1214 4.68955   1
   4  -9   5 4.84755 7.90237   2
  -4   9  -6 6.05308 3.08377   1
  -4   9  -6-2.90412 10.1490   2
   4  -9   6 5.12088 9.61472   2
  -4   9  -6 0.57988 3.30477   1
  -4   9  -7 36.6637 12.2398   2
  -4   9  -8 6.42230 9.64385   2
   4  -8  -5 6.72294 9.85412   1
  -4   8   5 2.43617 6.81802   2
   4  -8  -5-2.07905 6.48074   2
  -4   8   5 7.68891 9.76225   1
   4  -8  -4-2.70025 11.0894   1
  -4   8   4 11.5128 6.92209   2
   4  -8  -4 2.35724 6.93183   2
  -4   8   4-5.18506 8.74413   1
   4  -8  -3-3.59975 9.60843   1
  -4   8   3 2.31422 6.92576   2
   4  -8  -3 8.47025 6.47476   2
  -4   8   3-0.30004 7.57221   1
  -4   8   2 62.4512 8.73063   2
   4  -8  -2 57.1751 8.39093   2
  -4   8   2 44.9160 9.82495   1
   4  -8  -2 67.5973 10.1946   1
   4  -8  -1 15.5284 8.06192   1
  -4   8   1 17.8915 7.31120   2
   4  -8  -1 15.8657 6.60901   2
  -4   8   1 8.18726 7.28622   1
   4  -8   0 11.7097 7.04827   1
  -4   8   0 14.3095 6.83875   2
   4  -8   0 14.9320 6.51633   2
  -4   8   0 6.58412 6.76123   1
  -4   8  -1 22.4979 7.45319   2
   4  -8   1 23.5548 7.09681   2
   4  -8   1 32.8509 7.57398   1
  -4   8  -1 36.1086 7.16092   1
  -4   8  -2-6.99760 7.38652   2
   4  -8   2-11.4954 7.02082   2
  -4   8  -2-0.62516 5.61993   1
   4  -8   2 8.70850 5.57119   1
  -4   8  -3 1.82154 4.98046   1
  -4   8  -3 7.01691 6.50597   2
   4  -8   3 8.32986 6.21094   2
   4  -8   3-0.87348 5.52118   1
  -4   8  -4 1.83876 4.33649   1
  -4   8  -4-4.97654 7.67139   2
   4  -8   4 7.08870 6.68997   2
   4  -8   4-4.86497 5.06584   1
  -4   8  -5 26.5855 4.38322   1
  -4   8  -5 41.7859 8.77197   2
  -4   8  -5 33.1867 4.65233   1
   4  -8   5 18.3253 7.93627   2
  -4   8  -6-0.02890 2.04169   1
  -4   8  -6-1.87569 7.52910   2
  -4   8  -7 7.17180 8.14800   2
  -4   8  -8 34.9813 10.2273   2
  -4   8  -9-11.5180 9.82725   2
  -4   8 -10-0.61819 9.96691   2
   4  -7  -7-2.94489 10.6440   1
   4  -7  -7 13.1323 6.26066   2
  -4   7   7-12.2137 11.4558   1
   4  -7  -6 2.02817 10.8789   1
   4  -7  -6 0.66131 5.69577   2
  -4   7   6 17.1438 10.1163   1
   4  -7  -5-2.12513 8.84321   1
  -4   7   5-0.62750 5.45301   2
   4  -7  -5 4.06017 5.51170   2
  -4   7   5 18.5354 8.43674   1
   4  -7  -4 35.7764 6.60572   2
  -4   7   4 26.9871 6.36522   2
  -4   7   4 55.8013 10.0361   1
   4  -7  -4 34.9136 9.40101   1
   4  -7  -3 6.87063 7.67935   1
  -4   7   3 0.88062 5.18235   2
   4  -7  -3 1.43365 5.15862   2
  -4   7   3 1.53390 7.34087   1
   4  -7  -2 42.4719 7.74878   1
  -4   7   2 55.6915 7.16137   2
  -4   7   2 51.8673 8.74406   1
   4  -7  -2 56.0246 7.11383   2
   4  -7  -1 35.0474 7.04537   1
  -4   7   1 31.8850 6.50338   2
  -4   7   1 26.4697 7.03817   1
   4  -7  -1 40.0186 6.49153   2
   4  -7   0-2.70078 5.42600   1
  -4   7   0-8.64611 5.46132   2
   4  -7   0-1.07890 4.80696   2
  -4   7   0 4.00870 5.47189   1
  -4   7  -1-1.96355 5.10593   2
   4  -7   1-6.48025 5.14650   2
  -4   7  -1-4.01989 4.76591   1
   4  -7   1 2.56511 5.18562   1
  -4   7  -2 46.3655 7.08907   2
  -4   7  -2 48.7976 6.43517   1
   4  -7   2 36.0807 7.12821   2
   4  -7   2 47.3355 6.75440   1
  -4   7  -3 6.44923 5.81706   2
   4  -7   3 5.66027 6.04621   2
   4  -7   3 2.23891 4.73564   1
  -4   7  -3 6.05659 4.33143   1
  -4   7  -4 14.5219 4.12623   1
  -4   7  -4 20.1975 4.28602   1
  -4   7  -4 14.7472 6.83014   2
   4  -7   4 15.8735 6.83099   2
  -4   7  -5 2.83532 2.84899   1
  -4   7  -5 2.37990 6.37364   2
  -4   7  -5 0.67862 2.74898   1
  -4   7  -6 0.59281 6.16458   2
  -4   7  -6 6.55231 1.22858   1
  -4   7  -7-4.30565 8.21790   2
  -4   7  -8 52.1704 10.6065   2
  -4   7  -9-4.29488 8.59808   2
  -4   7 -10 2.65063 11.0462   2
  -4   7 -11 24.2650 11.3906   2
   4  -6  -9 20.3636 3.39472   2
   4  -6  -8 13.4153 11.9227   1
   4  -6  -8 12.2211 4.70917   2
  -4   6   8 22.9219 9.38599   1
   4  -6  -7 0.67279 4.20383   2
  -4   6   7-5.97518 9.42227   1
   4  -6  -6 37.6370 10.6287   1
   4  -6  -6 23.8644 4.86938   2
  -4   6   6 44.7633 10.2312   1
   4  -6  -5 15.6790 7.77232   1
  -4   6   5 12.3974 4.35931   2
   4  -6  -5 5.97934 4.09051   2
  -4   6   5 19.2870 7.91356   1
   4  -6  -4 35.2991 8.31520   1
  -4   6   4 37.8097 5.62400   2
   4  -6  -4 31.8992 5.11129   2
  -4   6   4 22.0966 6.79002   1
   4  -6  -3 1.77187 5.45713   1
  -4   6   3 5.52667 3.99018   2
  -4   6   3-1.79194 5.91807   1
   4  -6  -3 6.08390 4.26049   2
  -4   6   2 101.170 9.12470   1
  -4   6   2 104.432 7.44012   2
   4  -6  -2 104.463 7.22535   2
   4  -6  -2 119.731 9.85893   1
  -4   6   1 15.4744 4.86640   2
  -4   6   1 10.5591 5.23356   1
   4  -6  -1 22.7355 4.81395   2
   4  -6  -1 16.9899 5.83453   1
  -4   6   0 84.7857 7.66789   1
  -4   6   0 86.0828 7.40234   2
   4  -6   0 76.0103 6.84848   2
   4  -6   0 80.6412 7.97508   1
  -4   6  -1 72.6140 6.89022   1
  -4   6  -1 76.5869 7.29376   2
   4  -6   1 75.3964 7.15068   2
   4  -6   1 83.9708 7.89497   1
  -4   6  -2 37.4532 5.49084   1
   4  -6   2 31.3499 5.87783   2
  -4   6  -2 26.5268 5.89391   2
   4  -6   2 18.3362 5.20574   1
  -4   6  -3-1.70613 5.17212   2
  -4   6  -3 1.25654 3.25399   1
  -4   6  -3 0.75547 3.15812   1
  -4   6  -4-1.10632 2.97735   1
  -4   6  -4 2.28687 5.29651   2
  -4   6  -4-0.07761 3.02461   1
  -4   6  -5 9.87565 2.50855   1
  -4   6  -5 9.58915 2.52462   1
  -4   6  -5 8.90360 5.82748   2
  -4   6  -6 6.54735 5.66232   2
  -4   6  -7-9.08648 6.77484   2
  -4   6  -8 12.1956 7.54602   2
  -4   6  -9 6.04382 8.64897   2
  -4   6 -10 4.00350 9.46485   2
  -4   6 -11 49.2718 12.6077   2
  -4   5  10 3.97757 12.1188   1
   4  -5 -10-11.0006 10.9410   1
   4  -5  -9-3.11888 2.49895   2
  -4   5   9-10.9829 10.9431   1
   4  -5  -9-0.46216 10.1689   1
   4  -5  -8 17.5716 3.25094   2
  -4   5   8 7.08694 7.52739   1
   4  -5  -8 18.0594 10.3282   1
  -4   5   7-0.68004 8.56623   1
   4  -5  -7 1.48699 2.90792   2
   4  -5  -7 5.61365 7.50196   1
   4  -5  -6 13.7559 3.46779   2
   4  -5  -6 4.53291 6.23443   1
  -4   5   5 22.7572 3.99878   2
   4  -5  -5 18.4575 3.68605   2
  -4   5   5 20.6692 6.85224   1
   4  -5  -5 23.5869 7.38752   1
  -4   5   4 22.3671 4.09646   2
  -4   5   4 27.5374 7.06108   1
   4  -5  -4 21.2778 3.72181   2
   4  -5  -4 25.2049 6.92831   1
  -4   5   3 5.42138 3.58021   2
  -4   5   3 1.41390 4.72384   1
   4  -5  -3 3.07225 2.96397   2
   4  -5  -3 4.80802 5.69502   1
  -4   5   2 4.30549 3.47388   2
  -4   5   2 4.97973 4.82320   1
   4  -5  -2 2.92512 3.13048   2
   4  -5  -2-1.17966 4.41046   1
  -4   5   1 38.2869 4.92803   2
   4  -5  -1 45.1241 5.13178   2
   4  -5  -1 47.5356 6.65831   1
  -4   5   1 38.3123 5.78127   1
  -4   5   0-2.48292 3.76415   2
  -4   5   0-0.65650 3.80650   1
   4  -5   0-3.96791 3.86811   2
   4  -5   0 3.68835 4.51518   1
  -4   5  -1 56.2718 6.04879   2
  -4   5  -1 43.9329 5.43575   1
  -4   5  -2 0.79155 3.11428   1
  -4   5  -2-0.12532 4.03938   2
  -4   5  -2 0.32399 3.35323   1
  -4   5  -3-5.72264 3.22083   1
  -4   5  -3-1.39897 4.23906   2
  -4   5  -3-0.25009 2.77046   1
  -4   5  -4 34.0666 3.84373   1
  -4   5  -4 38.7648 6.31092   2
  -4   5  -4 37.4705 3.89524   1
  -4   5  -5 154.252 5.25979   1
  -4   5  -5 158.427 10.3578   2
  -4   5  -5 148.588 5.28283   1
  -4   5  -6 14.2026 6.40850   2
  -4   5  -7 9.40946 6.91176   2
  -4   5  -8 41.6709 7.71966   2
  -4   5  -9 3.41994 7.01097   2
  -4   5 -10 17.2772 9.16937   2
  -4   5 -11 33.7440 10.1073   2
  -4   5 -12 32.7896 11.5214   2
  -4   4  11-5.32912 9.02915   1
   4  -4 -11 10.8482 13.0084   1
  -4   4  10 7.84811 9.01332   1
   4  -4 -10 19.6628 11.8977   1
  -4   4   9 6.56582 8.54746   1
   4  -4  -9 20.0981 8.72840   1
  -4   4   8 4.43649 7.50867   1
   4  -4  -8 14.7392 9.13568   1
  -4   4   7-0.90670 5.79317   1
   4  -4  -7 2.39994 1.31410   2
   4  -4  -7-2.41718 7.23547   1
  -4   4   6 7.22335 5.64809   1
   4  -4  -6 5.88751 1.86250   2
   4  -4  -6 0.33849 7.00831   1
   4  -4  -5 17.0500 2.55662   2
  -4   4   5 12.4866 2.52729   2
  -4   4   5 11.7628 6.56415   1
   4  -4  -5 12.9745 5.73783   1
  -4   4   4 153.016 6.13936   2
   4  -4  -4 156.382 5.97858   2
   4  -4  -4 171.977 11.3606   1
  -4   4   4 157.875 10.3078   1
  -4   4   3 7.05683 2.79440   2
  -4   4   3 6.85779 4.79632   1
   4  -4  -3 5.49207 2.52142   2
   4  -4  -3 5.25594 5.31249   1
  -4   4   2 58.6977 4.86574   2
   4  -4  -2 51.0893 6.97889   1
  -4   4   2 57.9164 6.73006   1
  -4   4   1 5.37765 4.05608   1
  -4   4   1 2.34753 2.86940   2
  -4   4   0 3.17079 3.49259   1
  -4   4   0-2.37942 3.39730   1
  -4   4   0 0.97219 3.14072   2
  -4   4  -1 25.9697 4.36704   2
  -4   4  -1 27.8605 4.43327   1
  -4   4  -1 27.7154 4.31963   1
  -4   4  -2 174.011 9.04109   2
  -4   4  -2 155.956 7.41976   1
  -4   4  -2 161.785 7.72508   1
  -4   4  -3 141.199 8.71270   2
  -4   4  -3 115.313 6.06783   1
  -4   4  -3 134.458 6.53962   1
  -4   4  -4-1.33204 2.36567   1
  -4   4  -4-0.68151 4.57357   2
  -4   4  -4-0.43771 2.46831   1
  -4   4  -5 74.7605 7.71284   2
  -4   4  -5 73.0554 3.82130   1
  -4   4  -5 75.0764 3.89592   1
  -4   4  -6 31.7305 6.88232   2
  -4   4  -7 42.4815 6.89477   2
  -4   4  -8 79.2758 8.94817   2
  -4   4  -9 13.0061 7.66168   2
  -4   4 -10 21.7613 8.27460   2
  -4   4 -11 14.0821 8.44661   2
  -4   4 -12 16.5324 11.8329   2
  -4   3  12 8.47295 10.4073   1
   4  -3 -12-18.2241 12.4257   1
  -4   3  11 0.95636 10.0306   1
   4  -3 -11-3.21960 11.4330   1
  -4   3  10 0.81096 7.51842   1
   4  -3 -10 7.58962 9.83167   1
  -4   3   9-13.5758 8.56932   1
   4  -3  -9 3.87277 8.14048   1
  -4   3   8 6.22217 6.93145   1
   4  -3  -8 9.98242 6.52257   1
  -4   3   7 30.2808 6.48827   1
   4  -3  -7 24.4538 7.53765   1
   4  -3  -6 55.0262 8.87533   1
  -4   3   6 50.6754 7.64518   1
  -4   3   5-2.05368 5.02069   1
   4  -3  -5-4.71307 6.12019   1
  -4   3   4 75.1831 3.46005   2
   4  -3  -4 69.8284 7.88407   1
  -4   3   4 73.1503 7.67198   1
  -4   3   3 52.2780 3.61653   2
  -4   3   3 47.7924 6.15816   1
  -4   3   2 8.18286 3.88749   1
  -4   3   2 2.64300 3.84886   1
  -4   3   2 3.40110 2.24325   2
  -4   3   1 2.56126 3.36013   1
  -4   3   1 12.9372 4.35489   1
  -4   3   1 7.06154 2.66178   2
  -4   3   0-0.69402 3.25359   1
  -4   3   0 2.02782 3.08167   1
  -4   3   0 1.16718 2.64963   2
  -4   3  -1 5.99354 3.39840   1
  -4   3  -1 10.9572 3.45853   2
  -4   3  -1 3.43193 2.97444   1
  -4   3  -2 32.9453 4.73075   2
  -4   3  -2 41.6825 4.32393   1
  -4   3  -2 35.6203 4.25591   1
  -4   3  -3 431.001 13.7296   2
  -4   3  -3 425.343 10.8300   1
  -4   3  -3 446.733 11.3421   1
  -4   3  -4 2.81560 2.57875   1
  -4   3  -4 2.85028 2.31135   1
  -4   3  -4 1.28910 4.29788   2
  -4   3  -5 33.1849 5.83325   2
  -4   3  -5 28.3910 2.97914   1
  -4   3  -5 25.6989 2.96970   1
  -4   3  -6 3.13333 1.57122   1
  -4   3  -6 3.40451 1.56846   1
  -4   3  -6-1.13530 4.87485   2
  -4   3  -7 84.1062 8.61509   2
  -4   3  -8 39.4713 7.83088   2
  -4   3  -9 27.4736 7.02239   2
  -4   3 -10 5.60818 8.10356   2
  -4   3 -11-6.35771 10.3560   2
  -4   3 -12 29.1008 12.0660   2
  -4   2  12 5.76835 10.3559   1
  -4   2  12-7.93106 10.8240   1
  -4   2  11 23.6805 10.2644   1
  -4   2  10 58.0054 9.74807   1
  -4   2   9 115.379 11.0607   1
  -4   2   8 93.6150 10.1649   1
  -4   2   7-7.04103 6.07038   1
  -4   2   6 42.6064 6.74139   1
  -4   2   6 52.8540 7.21239   1
  -4   2   5 40.7978 6.03521   1
  -4   2   5 34.4286 6.66795   1
  -4   2   4 74.9625 1.98961   2
  -4   2   4 75.7551 6.87462   1
  -4   2   4 88.7704 7.67495   1
  -4   2   3 70.4692 6.72352   1
  -4   2   3 69.9111 3.39121   2
  -4   2   3 85.5624 7.72588   1
  -4   2   2 34.6816 3.16229   2
  -4   2   2 30.8573 5.08402   1
  -4   2   2 35.6878 4.93983   1
  -4   2   1 1.93518 3.36353   1
  -4   2   1 1.62332 3.54097   1
  -4   2   1 0.19666 2.42403   2
  -4   2   0 79.7078 5.22843   2
  -4   2   0 86.3865 6.31421   1
  -4   2   0 90.9658 6.83080   1
  -4   2  -1 28.5846 4.04332   2
  -4   2  -1 25.3088 3.94588   1
  -4   2  -1 26.5890 4.28339   1
  -4   2  -2-3.59148 3.00275   1
  -4   2  -2-3.05028 3.27636   2
  -4   2  -2 2.14408 2.66691   1
  -4   2  -3 21.4445 3.51831   1
  -4   2  -3 16.8205 4.26081   2
  -4   2  -3 23.2544 3.76577   1
  -4   2  -4 3.97999 2.73776   1
  -4   2  -4 2.05300 2.50333   1
  -4   2  -5 18.3829 3.08981   1
  -4   2  -5 18.3360 5.14282   2
  -4   2  -5 20.0726 3.22755   1
  -4   2  -6 5.88322 2.56036   1
  -4   2  -6 6.17116 2.41134   1
  -4   2  -6 1.22745 4.40807   2
  -4   2  -7 5.91968 2.10743   1
  -4   2  -7 3.65592 5.70138   2
  -4   2  -7 7.08998 2.11804   1
  -4   2  -8 1.99128 1.24084   1
  -4   2  -8 0.55556 6.18889   2
  -4   2  -9-11.7663 6.42862   2
  -4   2 -10-16.1283 9.72399   2
  -4   2 -11 0.72649 10.0436   2
  -4   2 -12 20.5992 11.9121   2
  -4   1  13 9.74585 10.6695   1
  -4   1  13 14.4340 8.86112   1
  -4   1  12 41.6280 10.8808   1
  -4   1  12 55.7711 11.3960   1
  -4   1  11 14.2022 8.74990   1
  -4   1  11 10.4356 6.62019   1
  -4   1  10 8.39109 6.98464   1
  -4   1  10-2.01614 7.37005   1
  -4   1   9 44.6599 7.16383   1
  -4   1   9 35.8214 8.20679   1
  -4   1   8 21.3749 7.11452   1
  -4   1   8 13.8934 6.51415   1
  -4   1   7 8.51988 5.77826   1
  -4   1   7 9.66903 5.51714   1
  -4   1   6 67.4238 7.47104   1
  -4   1   6 73.5340 8.20504   1
  -4   1   5 22.3612 5.64075   1
  -4   1   5 15.0050 5.01040   1
  -4   1   4 43.5110 6.08858   1
  -4   1   4 46.6352 5.83727   1
  -4   1   3 3.25304 3.94092   1
  -4   1   3 5.63568 3.83649   1
  -4   1   3 4.42367 1.41308   2
  -4   1   2 336.709 7.81128   2
  -4   1   2 365.957 12.7038   1
  -4   1   2 323.243 12.3663   1
  -4   1   1 31.3223 3.40021   2
  -4   1   1 23.8228 4.32815   1
  -4   1   1 23.0215 4.40109   1
  -4   1   0 49.1620 4.34588   2
  -4   1   0 49.8321 5.13142   1
  -4   1   0 54.7596 5.53081   1
  -4   1  -1 136.025 7.34824   1
  -4   1  -1 143.775 7.24538   2
  -4   1  -1 137.640 7.76324   1
  -4   1  -2 11.6376 3.29882   1
  -4   1  -2 7.72443 3.39397   2
  -4   1  -2 14.3029 3.66712   1
  -4   1  -3 111.055 7.49320   2
  -4   1  -3 126.852 7.19034   1
  -4   1  -3 116.241 6.47239   1
  -4   1  -4 93.8854 7.54942   2
  -4   1  -4 100.614 6.03222   1
  -4   1  -4 108.211 6.84282   1
  -4   1  -5 183.954 10.4050   2
  -4   1  -5 174.556 7.49224   1
  -4   1  -6 4.35261 2.96580   1
  -4   1  -6 5.83226 5.37024   2
   4  -1   7 32.4289 3.82212   1
  -4   1  -7 35.4001 4.13487   1
  -4   1  -7 38.7983 6.49836   2
  -4   1  -8-0.04408 2.90334   1
  -4   1  -8 1.01422 6.71432   2
   4  -1   8 0.86429 2.77391   1
   4  -1   9 3.30260 2.66827   1
  -4   1  -9 7.97155 2.87344   1
  -4   1  -9 0.20875 8.06236   2
  -4   1 -10 36.0961 10.5169   2
  -4   1 -10 25.5437 3.14983   1
  -4   1 -11 2.41191 1.53317   1
  -4   1 -11-8.84147 11.3506   2
  -4   0  14 19.9095 10.8772   1
  -4   0  14 15.7866 9.52512   1
  -4   0  13-3.08975 10.3692   1
  -4   0  13 15.6106 10.0700   1
  -4   0  12 30.0727 8.73882   1
  -4   0  12 24.0708 7.72878   1
  -4   0  11 8.11742 7.97986   1
  -4   0  11 5.51889 7.24314   1
  -4   0  10 14.0999 7.00531   1
  -4   0  10 6.31568 5.39214   1
  -4   0   9 11.5928 6.52699   1
  -4   0   9 8.99035 6.59894   1
  -4   0   8-1.05299 5.70478   1
  -4   0   8 10.7858 5.61937   1
  -4   0   7 0.75871 4.62386   1
  -4   0   7 1.11781 4.83981   1
  -4   0   6 6.14482 5.31081   1
  -4   0   6 6.26071 5.08438   1
  -4   0   5 35.5534 5.47616   1
  -4   0   5 36.1869 5.76714   1
  -4   0   4 15.8052 5.19040   1
  -4   0   4 20.2372 4.78970   1
  -4   0   3-1.41103 3.68651   1
  -4   0   3-2.46677 1.46709   2
  -4   0   3-2.16520 3.73027   1
  -4   0   3-0.38250 1.39761   2
  -4   0   2 12.7835 2.41876   2
  -4   0   2 14.1460 3.80241   1
  -4   0   2 11.2340 2.34155   2
  -4   0   2 18.7494 4.79356   1
  -4   0   1 107.289 5.49941   2
  -4   0   1 103.265 7.06917   1
  -4   0   1 106.034 7.63890   1
  -4   0   0 53.4468 5.34760   1
  -4   0   0 47.2500 5.96623   1
  -4   0  -1 193.236 8.84346   1
   4   0   2-3.39939 3.10364   1
  -4   0  -2 2.20063 3.07367   1
   4   0   3 42.3703 4.81967   1
  -4   0  -3 48.2044 5.02707   1
  -4   0  -4 1.95509 3.26373   1
   4   0   4 4.13048 3.14665   1
  -4   0  -5 212.845 8.94566   1
   4   0   5 209.623 8.76582   1
   4   0   6 6.58080 3.49797   1
  -4   0  -6 4.02638 3.56868   1
   4   0   7 3.73527 3.65685   1
  -4   0  -7 5.64618 3.79594   1
  -4   0  -8 2.12763 3.83929   1
   4   0   8 4.89915 3.72127   1
  -4   0  -9 30.9080 4.89823   1
   4   0   9 35.2692 5.04811   1
  -4   0  -9 20.2537 9.17460   2
   4   0  10 41.1494 5.56742   1
  -4   0 -10 31.0151 10.3243   2
  -4   0 -10 29.0160 5.40257   1
  -4   0 -11 48.1566 12.4124   2
   4   0  11 40.2674 5.66061   1
  -4   0 -11 41.6595 5.69983   1
  -4  -1  14 13.3595 11.5198   1
  -4  -1  14 15.4573 10.9225   1
  -4  -1  13-1.01242 8.45657   1
  -4  -1  13-12.9109 8.74216   1
  -4  -1  12 57.0647 9.06090   1
  -4  -1  12 58.9151 9.81880   1
  -4  -1  11 7.77875 7.14199   1
  -4  -1  11 10.1868 8.13479   1
  -4  -1  10 12.9767 7.04559   1
  -4  -1  10 20.0416 6.69528   1
  -4  -1   9 6.69706 5.20898   1
  -4  -1   9 2.17948 5.86599   1
  -4  -1   8-1.90361 5.94936   1
  -4  -1   8 3.76549 4.37971   1
  -4  -1   7 1.15281 5.45189   1
  -4  -1   7 6.04900 5.25186   1
  -4  -1   6 88.7983 8.01423   1
  -4  -1   6 88.6365 8.35535   1
  -4  -1   5 6.01090 3.83376   1
  -4  -1   5 0.67856 4.42327   1
  -4  -1   4 25.8816 2.06502   2
  -4  -1   4 25.1469 1.96901   2
  -4  -1   4 29.9808 5.01506   1
  -4  -1   4 31.9557 5.56903   1
  -4  -1   3 2.03881 1.83993   2
  -4  -1   3 5.39807 3.57669   1
  -4  -1   3 3.24737 4.31780   1
  -4  -1   2 79.4348 4.74337   2
  -4  -1   2 75.4318 6.84827   1
  -4  -1   2 101.628 8.49020   1
  -4  -1   1 73.0659 5.08724   2
  -4  -1   1 67.9626 6.23653   1
   4   1  -1 67.8541 6.28877   1
   4   1   0 97.2956 6.94472   1
  -4  -1   0 102.547 6.40282   2
  -4  -1   0 109.826 7.50505   1
  -4  -1  -1 65.0699 6.05745   1
   4   1   1 56.5138 5.74968   1
   4   1   2 4.61176 3.53368   1
  -4  -1  -2 1.23404 3.43135   1
  -4  -1  -3 134.850 8.05363   1
   4   1   3 122.263 7.74657   1
  -4  -1  -4 0.22850 3.57909   1
   4   1   4-4.27513 3.76801   1
  -4  -1  -5 24.6888 4.91778   1
   4   1   5 23.7588 4.85881   1
  -4  -1  -6-2.68187 4.41888   1
   4   1   6 3.91052 3.99689   1
  -4  -1  -7 51.3005 6.31051   1
   4   1   7 44.8994 6.24000   1
  -4  -1  -8 319.515 12.6163   1
   4   1   8 320.699 12.5762   1
   4   1   9 5.32656 5.30296   1
  -4  -1  -9 10.9633 5.48418   1
   4   1  10 3.79346 5.89975   1
  -4  -1 -10-1.95545 5.81379   1
  -4  -2  14 17.5627 10.5207   1
  -4  -2  14 20.7690 9.32969   1
  -4  -2  13-16.2176 9.38298   1
  -4  -2  13 37.7664 10.1940   1
  -4  -2  12 17.7255 8.54789   1
  -4  -2  12 12.1613 7.16559   1
  -4  -2  11 9.31519 7.65197   1
  -4  -2  11 18.4156 7.53028   1
  -4  -2  10 7.96360 7.27890   1
  -4  -2  10 14.7695 5.94476   1
  -4  -2   9 38.8734 7.35139   1
  -4  -2   9 58.4158 8.77683   1
  -4  -2   8 8.76426 5.87647   1
  -4  -2   8-0.05786 4.61496   1
  -4  -2   7 26.5147 5.47636   1
  -4  -2   7 31.6458 6.89480   1
  -4  -2   6 15.5699 5.61461   1
  -4  -2   6 26.5307 6.48986   1
  -4  -2   5 183.422 4.90668   2
  -4  -2   5 163.665 10.2811   1
  -4  -2   5 187.685 11.4610   1
  -4  -2   4 27.6141 3.03753   2
  -4  -2   4 25.0435 4.82115   1
  -4  -2   4 35.7075 6.63134   1
  -4  -2   3-0.67365 2.16742   2
  -4  -2   3 3.16894 3.90235   1
   4   2  -3-2.61032 4.01280   1
   4   2  -2 82.0052 7.02825   1
  -4  -2   2 78.2190 5.23609   2
  -4  -2   2 79.1295 7.19126   1
  -4  -2   1 14.0595 4.22535   1
  -4  -2   1 14.7486 3.59291   2
   4   2  -1 16.6987 4.15966   1
  -4  -2   0 1.82804 3.93376   1
   4   2   0 0.04245 3.90454   1
  -4  -2   0 11.2490 3.76730   2
  -4  -2  -1 20.5209 4.56019   2
   4   2   1 33.9612 5.33796   1
  -4  -2  -1 31.8997 5.38320   1
  -4  -2  -2 19.0471 5.07218   2
   4   2   2 13.3187 4.49543   1
  -4  -2  -2 17.9137 4.57934   1
  -4  -2  -3 4.57020 4.05067   2
   4   2   3 10.1285 4.58609   1
  -4  -2  -3 8.22989 4.26601   1
   4   2   4 6.58184 4.49399   1
  -4  -2  -4 1.83944 4.57291   2
  -4  -2  -4-4.08113 4.19443   1
  -4  -2  -5 9.51183 4.94169   1
   4   2   5 18.3822 5.17871   1
  -4  -2  -5 6.83198 6.26461   2
   4   2   6 11.6932 5.53819   1
  -4  -2  -6 9.67514 6.82068   2
  -4  -2  -6 17.8875 5.69899   1
  -4  -2  -7 29.3773 6.67847   1
  -4  -2  -7 11.3913 7.56633   2
   4   2   7 23.1462 6.05219   1
  -4  -2  -8-2.52713 8.68887   2
  -4  -2  -8 10.5241 6.14449   1
   4   2   8 20.2313 6.38863   1
  -4  -2  -9 9.29935 8.56705   2
  -4  -2  -9 20.5242 6.82906   1
  -4  -2 -10 5.76374 9.64740   2
  -4  -2 -10 5.22976 7.08819   1
   4   2  10 18.7436 7.37139   1
  -4  -3  14 6.27093 10.1689   1
  -4  -3  14-7.62043 9.79790   1
  -4  -3  13-0.87961 7.71345   1
  -4  -3  13 6.24346 9.16117   1
  -4  -3  12 6.57057 7.28298   1
  -4  -3  12 14.2831 7.09992   1
  -4  -3  11 6.04324 6.47414   1
  -4  -3  11 25.0401 7.70334   1
  -4  -3  10-7.03098 6.77631   1
  -4  -3  10 12.5564 6.70923   1
  -4  -3   9 1.24733 5.86009   1
  -4  -3   9 4.93217 6.23105   1
  -4  -3   8 393.132 16.3972   1
  -4  -3   8 369.155 16.7912   1
  -4  -3   7 21.9234 1.89616   2
  -4  -3   7 27.1165 6.40386   1
  -4  -3   7 20.5572 6.47241   1
  -4  -3   6 66.7648 3.79099   2
  -4  -3   6 58.8659 7.31456   1
  -4  -3   6 69.8915 8.39050   1
   4   3  -5-1.43054 4.11415   1
  -4  -3   5-0.01990 2.24585   2
  -4  -3   5 1.62609 4.71913   1
  -4  -3   4 56.8547 6.52002   1
   4   3  -4 69.3281 7.18747   1
  -4  -3   4 66.3509 4.81834   2
  -4  -3   3 159.536 7.27711   2
   4   3  -3 159.713 9.85555   1
  -4  -3   3 171.311 9.95400   1
  -4  -3   2 223.485 9.12234   2
   4   3  -2 220.497 11.2797   1
  -4  -3   2 230.084 11.5825   1
  -4  -3   1 26.6955 4.51280   2
   4   3  -1 24.3706 5.11882   1
  -4  -3   1 27.5022 5.70038   1
  -4  -3   0 151.027 8.69676   2
   4   3   0 137.717 9.45013   1
  -4  -3   0 131.110 9.15334   1
  -4  -3  -1 15.2120 4.63222   2
   4   3   1 10.3210 5.17410   1
  -4  -3  -1 15.3414 4.93087   1
   4   3   2 6.54052 4.59779   1
  -4  -3  -2 9.20810 4.85035   2
  -4  -3  -2 14.1868 4.86959   1
   4   3   3-1.61388 4.77510   1
  -4  -3  -3 4.00310 4.62720   2
  -4  -3  -3 5.69859 4.54006   1
  -4  -3  -4 26.9294 6.08784   1
  -4  -3  -4 31.1907 6.38820   2
   4   3   4 25.7774 6.07839   1
  -4  -3  -5 3.51837 5.25907   1
  -4  -3  -5 11.4689 7.14606   2
   4   3   5-0.74572 5.46327   1
  -4  -3  -6 30.7940 7.64679   2
   4   3   6 24.5313 6.91920   1
  -4  -3  -6 29.5957 7.25621   1
  -4  -3  -7 31.6039 8.38926   2
   4   3   7 21.7012 7.21998   1
  -4  -3  -7 16.9323 6.86878   1
  -4  -3  -8 35.7140 11.3454   2
  -4  -3  -8 26.6858 8.05044   1
   4   3   8 27.2959 7.72167   1
  -4  -3  -9 14.4166 10.3799   2
  -4  -3  -9 19.7040 8.62223   1
   4   3   9 21.4108 8.67242   1
  -4  -4  14-7.10027 10.5037   1
  -4  -4  14 63.1083 12.3889   1
  -4  -4  13 7.39810 8.26760   1
  -4  -4  13 12.1880 8.22633   1
  -4  -4  12 0.07759 7.84980   1
  -4  -4  12-8.70423 8.22224   1
  -4  -4  11 21.5922 8.28762   1
  -4  -4  11-0.41904 7.50567   1
  -4  -4  10-6.53242 6.98690   1
  -4  -4  10 11.7094 6.93670   1
  -4  -4   9 6.55214 6.30205   1
  -4  -4   9 10.6505 6.08542   1
  -4  -4   8 9.81685 6.60023   1
  -4  -4   8 6.84775 2.45461   2
  -4  -4   8 0.61240 5.59815   1
  -4  -4   7 51.2230 7.31541   1
  -4  -4   7 53.3603 4.22117   2
  -4  -4   7 54.5090 8.74557   1
  -4  -4   6-0.34461 5.50018   1
  -4  -4   6 2.56150 2.75529   2
   4   4  -6-2.12796 5.06818   1
   4   4  -5 10.7133 5.39916   1
  -4  -4   5 5.24414 4.86603   1
  -4  -4   5 9.85124 3.39076   2
  -4  -4   4 21.8586 4.03682   2
  -4  -4   4 17.6124 5.93750   1
   4   4  -4 15.5053 5.25011   1
  -4  -4   3 26.9797 6.25617   1
  -4  -4   3 34.5110 4.77854   2
   4   4  -3 31.4482 5.69606   1
  -4  -4   2 56.8486 5.98138   2
   4   4  -2 58.0407 7.48837   1
  -4  -4   2 53.8671 7.19982   1
  -4  -4   1 92.8360 7.58551   2
   4   4  -1 105.761 8.74950   1
  -4  -4   1 109.329 9.03256   1
   4   4   0 5.12678 4.70011   1
  -4  -4   0-0.04539 4.53370   2
  -4  -4   0 3.10692 4.17952   1
   4   4   1 9.55668 5.72902   1
  -4  -4  -1 8.86935 5.22894   2
  -4  -4  -1 10.5222 4.99902   1
  -4  -4  -2 9.38921 5.82450   2
  -4  -4  -2 8.90993 5.25103   1
   4   4   2 0.61851 4.82423   1
   4   4   3 36.8075 6.85441   1
  -4  -4  -3 38.1140 7.59573   2
  -4  -4  -3 43.4854 7.43537   1
  -4  -4  -4 21.6998 7.86273   2
  -4  -4  -4 32.8709 7.04006   1
   4   4   4 26.2113 6.90724   1
  -4  -4  -5 16.3198 8.05551   2
   4   4   5 20.7457 6.83309   1
  -4  -4  -5 35.6472 8.11715   1
  -4  -4  -6 12.1646 8.64247   2
   4   4   6 12.9975 7.44443   1
  -4  -4  -6 13.0981 7.11712   1
  -4  -4  -7 17.7855 8.65492   2
   4   4   7-0.98553 7.79360   1
  -4  -4  -7 1.88346 8.08095   1
  -4  -4  -8 24.8064 11.7668   2
   4   4   8 10.8314 8.75845   1
  -4  -4  -8 16.6586 9.19092   1
  -4  -5  14 0.43326 9.19789   1
  -4  -5  14 2.58841 9.56756   1
  -4  -5  13 10.2941 9.98845   1
  -4  -5  13 10.4780 8.91699   1
  -4  -5  12 13.7816 8.37567   1
  -4  -5  12 23.0145 8.32193   1
  -4  -5  11 48.1246 9.58306   1
  -4  -5  11 41.7487 9.14525   1
  -4  -5  10 36.9523 4.13850   2
  -4  -5  10 29.8103 8.38596   1
  -4  -5  10 40.8206 9.57212   1
  -4  -5   9 4.88142 7.13281   1
  -4  -5   9 4.41790 3.25637   2
  -4  -5   9-1.42905 6.59200   1
  -4  -5   8 24.6704 7.36128   1
  -4  -5   8 15.1351 3.77980   2
  -4  -5   7 107.955 6.66686   2
   4   5  -7 93.4277 9.03495   1
  -4  -5   7 107.078 9.61299   1
   4   5  -6 17.2831 5.62651   1
  -4  -5   6 15.7770 5.99113   1
  -4  -5   6 16.3688 4.29171   2
  -4  -5   5-0.24114 4.33703   1
   4   5  -5-1.34907 4.21063   1
  -4  -5   5 2.18711 3.75389   2
  -4  -5   4 13.6450 4.55865   2
  -4  -5   4 14.2352 6.56192   1
   4   5  -4 7.80497 6.00014   1
  -4  -5   3 3.40534 4.42438   2
   4   5  -3-10.1076 5.19055   1
  -4  -5   3-9.81802 5.77676   1
  -4  -5   2 40.4435 6.08819   2
   4   5  -2 25.6493 7.09888   1
  -4  -5   2 38.9491 7.07677   1
  -4  -5   1 62.2680 7.20026   2
   4   5  -1 61.7479 8.46691   1
  -4  -5   1 55.5968 8.12683   1
   4   5   0 5.77817 5.39034   1
  -4  -5   0 7.36257 5.38077   2
  -4  -5   0 10.4083 5.53443   1
  -4  -5  -1 17.5650 6.60690   2
  -4  -5  -1 30.8559 7.74430   1
   4   5   1 21.0504 7.17848   1
  -4  -5  -2 56.2972 8.55200   2
  -4  -5  -2 63.4461 8.58226   1
   4   5   2 43.0682 8.26918   1
  -4  -5  -3 65.0528 9.76576   2
   4   5   3 81.1206 9.97896   1
  -4  -5  -3 72.0608 8.94565   1
  -4  -5  -4 11.7995 8.19872   2
   4   5   4 0.27084 6.85677   1
  -4  -5  -4 7.42050 7.13850   1
  -4  -5  -5 40.5637 9.73851   1
  -4  -5  -5 9.61880 9.74675   2
   4   5   5 23.1308 8.05027   1
  -4  -5  -6-0.49472 8.78025   2
   4   5   6 4.94374 8.98987   1
  -4  -5  -6-3.22098 8.73014   1
  -4  -5  -7 15.7687 10.6451   2
   4   5   7 4.23460 8.20001   1
  -4  -5  -7 11.5607 8.70197   1
  -4  -6  13 9.97212 10.6145   1
   4   6 -13-1.60804 3.96219   2
  -4  -6  13-2.62127 8.65937   1
  -4  -6  12 5.50308 8.87976   1
   4   6 -12 1.01066 4.21929   2
  -4  -6  12 1.69043 8.73754   1
   4   6 -11-1.07122 4.15982   2
  -4  -6  11 0.74575 7.03978   1
  -4  -6  11 5.31601 4.39636   2
  -4  -6  11 2.86113 9.18792   1
   4   6 -10 1.91392 4.26871   2
  -4  -6  10-0.07256 7.76633   1
  -4  -6  10-1.89016 4.41483   2
  -4  -6  10-0.98698 7.73022   1
   4   6  -9 0.03396 4.19337   2
  -4  -6   9 8.36924 7.51985   1
  -4  -6   9-4.58793 4.17450   2
  -4  -6   8 32.0475 8.79113   1
  -4  -6   8 39.6795 5.67812   2
   4   6  -8 30.8361 7.24786   1
   4   6  -7 87.1132 9.47099   1
  -4  -6   7 99.4141 7.50035   2
  -4  -6   7 110.537 10.4049   1
   4   6  -6-4.53237 5.12743   1
  -4  -6   6 5.64184 4.71688   2
  -4  -6   6 7.36991 6.43003   1
  -4  -6   5 34.6552 5.90330   2
  -4  -6   5 35.7085 7.74094   1
   4   6  -5 40.2016 8.11821   1
  -4  -6   4 29.6537 5.94625   2
  -4  -6   4 32.4310 6.91841   1
   4   6  -4 33.4537 6.76919   1
  -4  -6   3 12.8753 5.43347   2
   4   6  -3-3.07759 6.63241   1
  -4  -6   3 17.5351 7.11199   1
   4   6  -2 7.52975 6.46106   1
  -4  -6   2 5.87220 5.68442   2
  -4  -6   2 7.08532 6.43383   1
   4   6  -1 24.3175 6.88292   1
  -4  -6   1 29.6674 7.39762   2
  -4  -6   1 29.4142 7.52996   1
  -4  -6   0 133.423 11.2057   2
   4   6   0 107.019 11.2358   1
  -4  -6   0 102.125 10.5184   1
  -4  -6  -1 8.00183 7.47447   1
  -4  -6  -1-2.06803 7.20344   2
   4   6   1-2.88426 7.39842   1
  -4  -6  -2 6.23909 7.76965   1
  -4  -6  -2 3.17357 7.97017   2
   4   6   2 9.60848 7.64951   1
  -4  -6  -3 1.91117 7.45557   1
  -4  -6  -3 8.11932 7.26876   2
   4   6   3-2.53389 7.92168   1
  -4  -6  -4 2.36868 9.36317   2
   4   6   4-2.39045 8.20269   1
  -4  -6  -4 2.24316 9.44420   1
  -4  -6  -5 52.4791 11.1472   2
  -4  -6  -5 42.0177 10.1462   1
  -4  -7  13 20.5094 7.87678   1
   4   7 -13 21.3933 4.16620   2
  -4  -7  13 38.1409 8.08986   1
  -4  -7  12 1.28816 10.9290   1
   4   7 -12-1.93163 5.59854   2
  -4  -7  12 13.5833 5.64687   2
  -4  -7  12-11.4341 9.01360   1
  -4  -7  11-7.69933 9.36607   1
   4   7 -11 10.2601 5.40754   2
  -4  -7  11 6.82100 5.84302   2
  -4  -7  11-0.97696 10.1104   1
  -4  -7  10-1.22942 8.27758   1
   4   7 -10 2.99676 5.51171   2
  -4  -7  10 8.53686 5.58351   2
  -4  -7  10-3.01409 10.3609   1
   4   7  -9 46.9674 6.78170   2
  -4  -7   9 51.2296 7.06658   2
   4   7  -9 38.3963 10.2672   1
  -4  -7   9 54.5381 9.69540   1
   4   7  -8 34.0883 6.46719   2
   4   7  -8 38.6774 8.94395   1
  -4  -7   8 35.0472 6.55745   2
  -4  -7   8 37.8827 8.95432   1
   4   7  -7-8.49898 8.11509   1
  -4  -7   7-3.58250 5.57022   2
  -4  -7   7-9.73505 7.87397   1
   4   7  -6 10.9827 6.71358   1
  -4  -7   6-2.19280 5.84922   2
  -4  -7   6 6.39593 7.99928   1
  -4  -7   5 12.1303 6.01612   2
  -4  -7   5 12.7704 7.28895   1
   4   7  -5 2.72230 7.30680   1
  -4  -7   4-2.02533 5.82210   2
   4   7  -4-4.55679 7.72191   1
  -4  -7   4-0.58351 6.86446   1
   4   7  -3 13.7818 8.31024   1
  -4  -7   3 16.2367 6.58754   2
  -4  -7   3 2.27361 7.81259   1
   4   7  -2-8.06017 7.37905   1
  -4  -7   2 3.33193 6.79273   1
  -4  -7   2-0.06237 6.81563   2
  -4  -7   1 222.753 13.9342   2
   4   7  -1 220.274 15.3523   1
  -4  -7   1 188.917 14.5406   1
  -4  -7   0 22.5979 8.61416   1
  -4  -7   0 16.1559 7.82940   2
   4   7   0 37.8048 9.69010   1
  -4  -7  -1 48.2166 9.68248   1
  -4  -7  -1 32.3949 10.0252   2
   4   7   1 24.3021 10.3124   1
  -4  -7  -2 2.89758 9.98981   2
  -4  -7  -2 7.53686 8.10964   1
   4   7   2-2.37120 8.66602   1
  -4  -7  -3 75.8283 12.2531   2
  -4  -7  -3 68.7338 11.5034   1
  -4  -7  -4 8.30492 5.98006   2
   4   8 -11 25.2746 8.11367   2
  -4  -8  11 22.8737 7.88511   2
  -4  -8  11 21.5490 11.1204   1
  -4  -8  11-5.71739 12.6416   1
   4   8 -10 25.3648 7.20362   2
   4   8 -10 46.8563 11.3623   1
  -4  -8  10 27.3567 7.27621   2
  -4  -8  10 26.6891 10.2935   1
   4   8  -9 38.1130 8.13675   2
  -4  -8   9 37.0648 8.15994   2
   4   8  -9 42.8589 10.6266   1
  -4  -8   9 43.9229 11.6340   1
   4   8  -8 19.3008 7.55565   2
  -4  -8   8 11.7297 7.25032   2
  -4  -8   8 19.6745 10.2017   1
   4   8  -8 14.4934 7.84143   1
  -4  -8   7 38.1918 8.39685   2
  -4  -8   7 45.4393 10.0501   1
   4   8  -7 42.7228 10.5941   1
  -4  -8   6 0.41357 6.72741   2
  -4  -8   6-0.40226 9.28702   1
   4   8  -6 8.13357 7.79696   1
  -4  -8   5 5.80067 7.65989   1
  -4  -8   5-0.61213 6.82716   2
   4   8  -5 4.69165 8.77841   1
   4   8  -4 8.76638 8.92209   1
  -4  -8   4 2.67075 7.12703   1
  -4  -8   4 1.08446 7.73411   2
  -4  -8   3 86.4242 11.2141   2
   4   8  -3 89.6723 11.7412   1
  -4  -8   3 88.0686 11.1557   1
  -4  -8   2 118.756 12.1273   2
   4   8  -2 105.277 13.6618   1
  -4  -8   2 107.262 12.8005   1
  -4  -8   1 16.3584 10.8973   1
  -4  -8   1-13.3228 8.70588   2
   4   8  -1-7.24121 10.4562   1
  -4  -8   0 16.9427 8.98920   1
  -4  -8   0 10.0358 10.3163   2
   4   8   0 31.0056 11.7220   1
  -4  -8  -1 11.0901 12.1966   1
  -4  -8  -1 20.9925 11.1560   2
   4   8   1 3.58730 9.49566   1
   4   9  -9 1.57363 6.92119   2
  -4  -9   9-17.7549 9.58368   1
  -4  -9   9-5.67604 6.81204   2
   4   9  -8 24.0074 9.18850   2
   4   9  -8 4.38442 9.13480   1
  -4  -9   8-12.3815 10.5630   1
  -4  -9   8 1.78993 8.48227   2
   4   9  -7 15.0104 11.4396   1
  -4  -9   7 24.5831 10.1776   1
  -4  -9   7 11.9302 8.98796   2
  -4  -9   6 3.18945 9.88430   1
  -4  -9   6 4.40261 8.82416   2
   4   9  -6-14.4334 11.2876   1
  -4  -9   5 1.06979 10.9947   1
  -4  -9   5 16.9684 9.30814   2
   4   9  -5 5.05096 10.9816   1
  -4  -9   4-15.0599 10.7837   1
   4   9  -4 17.9231 10.8237   1
  -4  -9   4 10.3402 9.62388   2
  -4  -9   3 25.6293 11.2841   1
   4   9  -3 22.2565 12.2610   1
  -4  -9   2 5.37029 9.79560   2
  -5   8   2 33.6500 6.51412   2
   5  -8  -2 23.4217 5.51389   2
  -5   8   2 9.48356 6.94623   1
   5  -8  -2 24.8570 7.74827   1
  -5   8   1-1.88218 7.68925   2
   5  -8  -1 7.91254 7.62396   2
  -5   8   1 2.73411 8.73432   1
   5  -8  -1 16.9244 11.0469   1
  -5   8   0 2.39724 8.16831   2
   5  -8   0 1.61482 7.43079   2
   5  -8   0-17.0965 9.75438   1
  -5   8   0 11.7788 8.55688   1
  -5   8  -1 6.91814 8.17899   2
  -5   8  -1 10.2474 7.82233   1
  -5   8  -1-5.73985 7.94526   1
  -5   8  -2 9.26945 8.20768   2
  -5   8  -2 25.9445 7.26313   1
  -5   8  -2 31.9584 7.59415   1
  -5   8  -3 4.27598 9.32497   2
  -5   8  -3 6.10213 6.18746   1
  -5   8  -3-2.39974 6.62112   1
  -5   8  -4 46.9158 6.74091   1
  -5   8  -4 37.1254 10.3946   2
  -5   8  -4 42.5040 6.43857   1
  -5   8  -5-4.14749 3.75896   1
  -5   8  -5 5.47403 4.02861   1
  -5   8  -5 7.01543 9.56745   2
  -5   8  -6 22.8897 7.51444   2
  -5   7   4 5.55037 6.24354   2
  -5   7   4 18.3471 10.4549   1
   5  -7  -4 2.19066 5.70055   2
   5  -7  -4 10.5043 10.7547   1
  -5   7   3 17.4527 6.33147   2
  -5   7   3 27.6066 9.75838   1
   5  -7  -3 33.9270 10.3929   1
  -5   7   2 6.71856 5.89631   2
  -5   7   2 10.9135 8.29930   1
   5  -7  -2-3.24774 9.44889   1
  -5   7   1 8.52706 6.21157   2
  -5   7   1 9.91072 7.41509   1
   5  -7  -1-12.1678 8.94525   1
  -5   7   0-1.38271 6.71820   1
  -5   7   0 20.8892 7.42470   2
  -5   7   0 17.5488 7.59385   1
  -5   7  -1 10.6184 6.84208   2
  -5   7  -1 16.0887 7.01186   1
  -5   7  -1 12.3125 6.67764   1
  -5   7  -2 0.69303 7.12712   2
  -5   7  -2-1.33300 5.37448   1
  -5   7  -2 1.68802 5.80139   1
  -5   7  -3 22.8316 8.48755   2
  -5   7  -3 18.9474 5.81696   1
  -5   7  -3 9.13640 5.30208   1
  -5   7  -4 28.1815 5.33345   1
  -5   7  -4 25.3337 8.98219   2
  -5   7  -4 22.7340 5.43002   1
  -5   7  -5 17.5046 3.75152   1
  -5   7  -5 28.5682 9.15401   2
  -5   7  -5 19.2807 3.75766   1
  -5   7  -6 9.33897 9.19077   2
  -5   7  -7 36.6733 10.5419   2
  -5   6   6 26.3533 11.3532   1
   5  -6  -6 43.2943 13.5107   1
  -5   6   5-14.3857 9.89204   1
   5  -6  -5 15.3420 9.51268   1
  -5   6   4 2.07314 4.56621   2
  -5   6   4-3.55613 7.62097   1
  -5   6   3 8.56231 4.74064   2
  -5   6   3 5.07512 8.24838   1
   5  -6  -3-7.54537 8.56222   1
  -5   6   2 3.80210 5.00101   2
  -5   6   2 2.71900 6.99048   1
  -5   6   1-8.23684 6.85408   1
  -5   6   1-10.3176 5.57959   2
  -5   6   1 8.53935 6.43370   1
  -5   6   0 3.95570 5.36074   2
  -5   6   0 2.36436 5.80641   1
  -5   6   0 1.32485 6.00927   1
  -5   6  -1 34.9951 6.77476   2
  -5   6  -1 27.3207 6.24351   1
  -5   6  -1 32.5885 6.38125   1
  -5   6  -2 7.94494 5.13999   1
  -5   6  -2 0.57879 5.93786   2
  -5   6  -2 9.40324 5.17993   1
  -5   6  -3 31.3231 5.74900   1
  -5   6  -3 16.6362 5.14705   1
  -5   6  -3 31.6930 7.63323   2
  -5   6  -4 21.5845 4.74731   1
  -5   6  -4 16.6816 4.60122   1
  -5   6  -4 19.9993 7.62696   2
  -5   6  -5 17.5566 3.46659   1
  -5   6  -5 24.6866 3.86707   1
  -5   6  -5 20.5771 8.03913   2
  -5   6  -6 13.2906 8.91456   2
  -5   6  -7 35.1428 10.4899   2
  -5   6  -8 6.17334 10.2036   2
  -5   5   8 23.8155 12.1414   1
   5  -5  -8-9.91490 12.5832   1
  -5   5   7 32.3538 11.4937   1
   5  -5  -7-7.47618 11.7970   1
   5  -5  -6 57.7145 12.1934   1
  -5   5   6 90.8264 12.9139   1
  -5   5   5 20.5660 7.63410   1
   5  -5  -5-15.3009 9.51337   1
  -5   5   4 7.51690 3.34557   2
  -5   5   4-2.28064 6.89422   1
  -5   5   3 69.5379 5.73428   2
  -5   5   3 47.2901 8.57806   1
  -5   5   3 72.4960 9.40856   1
  -5   5   2 33.0977 5.22787   2
  -5   5   2 44.9249 7.88580   1
  -5   5   2 32.2726 7.56716   1
  -5   5   1 5.29684 5.76345   1
  -5   5   1 10.2337 4.86090   2
  -5   5   1 15.9922 6.48732   1
  -5   5   0 18.3154 5.44036   2
  -5   5   0 34.4968 6.36559   1
  -5   5   0 27.6027 6.43911   1
  -5   5  -1 36.1406 6.36950   2
  -5   5  -1 20.7314 5.82879   1
  -5   5  -1 28.9780 5.81863   1
  -5   5  -2-5.64488 4.33895   1
  -5   5  -2 8.10351 4.81283   1
  -5   5  -2-0.53053 5.13190   2
  -5   5  -3 35.3178 5.27133   1
  -5   5  -3 32.1479 6.76614   2
  -5   5  -3 26.2394 5.00553   1
  -5   5  -4 2.88748 6.09010   2
  -5   5  -4 5.54654 3.74165   1
  -5   5  -4 2.23537 3.61256   1
  -5   5  -5 5.91238 2.85648   1
  -5   5  -5 4.85872 3.01409   1
  -5   5  -6 7.30514 7.66301   2
  -5   5  -7-6.90752 7.64814   2
  -5   5  -8 6.49763 9.75541   2
  -5   5  -9 8.17978 11.1263   2
  -5   4   9 35.5432 12.4160   1
  -5   4   9 104.510 13.5805   1
  -5   4   8 32.8128 10.4792   1
  -5   4   8 3.37990 9.95734   1
  -5   4   7-10.8450 9.15282   1
  -5   4   7-10.2259 7.95854   1
  -5   4   6 8.20007 8.18461   1
  -5   4   6 6.67189 8.26147   1
  -5   4   5 27.0302 7.52193   1
  -5   4   5 7.42852 7.39872   1
  -5   4   4 7.00149 2.30482   2
  -5   4   4 2.13736 6.68759   1
  -5   4   4 13.2204 6.06243   1
  -5   4   3-3.52727 5.29526   1
  -5   4   3 1.10574 2.99214   2
  -5   4   3-8.24206 5.97374   1
  -5   4   2 0.89090 5.78635   1
  -5   4   2 3.98145 3.57896   2
  -5   4   2 4.20064 5.54143   1
  -5   4   1 12.7757 5.65497   1
  -5   4   1 12.2536 4.04917   2
  -5   4   0 13.5831 5.05212   1
  -5   4   0 16.9018 4.72980   2
  -5   4   0 17.0711 5.42525   1
  -5   4  -1-1.50462 4.40372   1
  -5   4  -1-1.27284 4.34868   1
  -5   4  -1-2.42855 4.20319   2
  -5   4  -2 50.0038 6.59406   2
  -5   4  -2 60.0637 6.30421   1
  -5   4  -2 56.3154 6.27924   1
  -5   4  -3 2.04979 3.96515   1
  -5   4  -3 1.43395 5.11858   2
  -5   4  -3-0.77183 3.62312   1
  -5   4  -4-2.45078 3.36897   1
  -5   4  -4 2.00363 3.58908   1
  -5   4  -4-1.82814 5.19058   2
  -5   4  -5-2.80908 2.96323   1
  -5   4  -5 2.64897 2.89591   1
  -5   4  -6-0.59764 1.74928   1
  -5   4  -6-0.75059 7.41606   2
  -5   4  -7-2.29552 6.73212   2
  -5   4  -8 29.7749 8.95239   2
  -5   4  -9 28.3248 11.3997   2
  -5   3  10 20.3358 12.1417   1
  -5   3  10-14.3278 11.6089   1
  -5   3   9 32.0625 10.5244   1
  -5   3   9 23.2747 9.56722   1
  -5   3   8 68.5839 10.4243   1
  -5   3   8 67.1211 10.6812   1
  -5   3   7 38.3345 8.64226   1
  -5   3   7 29.2464 8.57286   1
  -5   3   6 1.49869 6.66115   1
  -5   3   6 4.30817 6.98312   1
  -5   3   5 24.3685 6.82576   1
  -5   3   5 34.8456 7.41592   1
  -5   3   4 53.2679 2.11126   2
  -5   3   4 53.9429 7.88932   1
  -5   3   4 54.1189 8.04578   1
  -5   3   3 32.3308 3.32410   2
  -5   3   3 35.4261 7.39903   1
  -5   3   3 35.2735 6.31791   1
  -5   3   2 44.9236 4.37522   2
  -5   3   2 43.8344 6.51585   1
  -5   3   2 51.7414 7.14461   1
  -5   3   1 13.6520 5.65239   1
  -5   3   1 13.1121 3.84245   2
  -5   3   1 16.2279 5.13137   1
  -5   3   0 31.0371 4.88249   2
  -5   3   0 21.5013 5.72071   1
  -5   3   0 30.9101 5.57910   1
  -5   3  -1 5.46055 4.11030   1
  -5   3  -1 15.0622 4.88308   1
  -5   3  -1 7.11027 4.23526   2
  -5   3  -2 47.7053 6.18254   2
  -5   3  -2 43.1294 5.53769   1
  -5   3  -2 47.6103 5.81479   1
  -5   3  -3 6.44569 3.87788   1
  -5   3  -3 7.77042 4.03433   1
  -5   3  -3 0.65643 5.00315   2
  -5   3  -4 3.45262 3.69659   1
  -5   3  -4-3.44362 3.81677   1
  -5   3  -4-9.51189 5.83423   2
  -5   3  -5 34.3820 7.13160   2
  -5   3  -5 31.9516 4.45181   1
  -5   3  -5 36.7048 4.65751   1
  -5   3  -6 4.40765 2.64482   1
  -5   3  -6 4.82582 2.72254   1
  -5   3  -7 30.8302 9.03870   2
  -5   3  -7 0.17089 1.24628   1
  -5   3  -8 36.3069 8.90995   2
  -5   3  -9 45.3825 10.3161   2
  -5   2  11 32.9160 12.3393   1
  -5   2  11 32.2011 11.6879   1
  -5   2  10 9.94397 9.39522   1
  -5   2  10-14.5280 11.4634   1
  -5   2   9 2.41597 7.82693   1
  -5   2   9 4.52961 9.02195   1
  -5   2   8-3.90720 9.12989   1
  -5   2   8-3.15034 6.58206   1
  -5   2   7 11.2194 7.34567   1
  -5   2   7-4.11682 5.84722   1
  -5   2   6 9.33516 6.92343   1
  -5   2   6 7.07647 6.38656   1
  -5   2   5-7.82050 7.17186   1
  -5   2   5 3.20441 4.98509   1
  -5   2   4 3.94428 4.89438   1
  -5   2   4 9.49379 6.43191   1
  -5   2   3 0.27656 1.89626   2
  -5   2   3-4.32671 4.73153   1
  -5   2   2-4.74401 5.11900   1
  -5   2   2 2.25094 2.75166   2
  -5   2   2 0.81432 4.84504   1
  -5   2   1 77.0149 5.67071   2
  -5   2   1 72.4558 7.61628   1
  -5   2   1 71.1361 7.86370   1
  -5   2   0 134.681 7.58462   2
  -5   2   0 139.629 9.07850   1
  -5   2   0 141.963 9.47810   1
  -5   2  -1 22.9445 5.27325   1
  -5   2  -1 26.1253 4.99513   2
  -5   2  -1 21.9931 5.05216   1
  -5   2  -2-1.86641 4.33864   1
  -5   2  -2-2.45986 3.94203   1
  -5   2  -2-4.04745 4.48021   2
  -5   2  -3 102.023 8.23750   2
  -5   2  -3 105.216 7.46274   1
  -5   2  -3 98.7847 7.02255   1
  -5   2  -4 10.6770 4.54250   1
  -5   2  -4 4.96932 5.30160   2
  -5   2  -4 7.33556 3.87356   1
  -5   2  -5 1.40463 3.60699   1
  -5   2  -5-6.70505 6.01512   2
  -5   2  -6 21.5966 4.34157   1
  -5   2  -6 15.7390 3.90677   1
  -5   2  -6 12.3003 6.93487   2
  -5   2  -7 5.94464 7.72902   2
  -5   2  -7 10.4959 3.31099   1
  -5   2  -8 2.08002 2.13942   1
  -5   2  -8-0.82540 1.87928   1
  -5   2  -8 2.80223 8.21668   2
  -5   2  -9 57.9224 11.7681   2
  -5   1  11-2.99124 11.9326   1
  -5   1  11 25.1604 9.55744   1
  -5   1  10-15.6001 9.18145   1
  -5   1  10-6.09203 9.22589   1
  -5   1   9-1.36950 7.07659   1
  -5   1   9 2.70857 7.29371   1
  -5   1   8 11.4866 7.75215   1
  -5   1   8 19.0813 8.48225   1
  -5   1   7 1.40592 5.62645   1
  -5   1   7 15.2399 8.27358   1
  -5   1   6 37.3600 7.71820   1
  -5   1   6 47.6603 8.50350   1
  -5   1   5 6.55802 5.98069   1
  -5   1   5 11.0319 6.34575   1
  -5   1   4 15.3303 6.45871   1
  -5   1   4 3.58287 4.89117   1
  -5   1   3 38.1190 3.01564   2
  -5   1   3 32.4649 6.60567   1
  -5   1   3 36.3549 7.15198   1
  -5   1   2 163.864 6.58283   2
  -5   1   2 170.541 10.4401   1
  -5   1   2 174.767 10.9621   1
  -5   1   1 77.8415 5.55558   2
  -5   1   1 86.7396 8.00433   1
  -5   1   1 82.1752 8.23203   1
  -5   1   0-2.18568 4.60610   1
  -5   1   0 1.78987 3.72888   2
  -5   1   0 3.38425 4.73029   1
  -5   1  -1 9.61946 5.01871   1
  -5   1  -1 13.0389 4.81902   1
  -5   1  -1 17.1972 4.68521   2
  -5   1  -2 75.2945 7.04481   2
  -5   1  -2 96.6021 7.93631   1
  -5   1  -2 78.5891 6.87627   1
  -5   1  -3 27.3146 5.87392   2
  -5   1  -3 29.3289 5.11809   1
  -5   1  -3 23.7870 5.30691   1
  -5   1  -4 1.30926 4.00614   1
  -5   1  -4-6.95221 4.85717   1
  -5   1  -5 1.25149 4.23308   1
  -5   1  -5 4.72774 6.54883   2
  -5   1  -5 6.95006 4.77122   1
  -5   1  -6 17.8467 4.77754   1
  -5   1  -6 12.8050 7.03987   2
  -5   1  -6 17.4064 5.00227   1
  -5   1  -7 2.64023 7.95768   2
  -5   1  -7 9.00353 4.44057   1
  -5   1  -7 4.57626 4.52675   1
  -5   1  -8 19.1405 9.68172   2
  -5   1  -8 20.9086 4.62441   1
  -5   1  -8 18.8845 4.80110   1
  -5   1  -9 8.22923 3.37372   1
  -5   1  -9 25.7533 11.7564   2
  -5   0  12-6.22475 9.37906   1
  -5   0  12 12.9972 11.8995   1
  -5   0  11 12.7732 8.69056   1
  -5   0  11 26.8463 10.7913   1
  -5   0  10-7.36935 8.03660   1
  -5   0  10-12.2369 6.92013   1
  -5   0   9 6.28210 7.08565   1
  -5   0   9-10.5018 7.95249   1
  -5   0   8 34.2348 8.18064   1
  -5   0   8 53.8440 8.83360   1
  -5   0   7 16.1493 6.74776   1
  -5   0   7 6.13405 6.83268   1
  -5   0   6 122.974 10.7169   1
  -5   0   6 115.965 10.3112   1
  -5   0   5 18.4954 6.56118   1
  -5   0   5 0.12012 5.92155   1
  -5   0   4 2.85172 5.94006   1
  -5   0   4 6.92550 0.91672   2
  -5   0   4 10.3163 6.30694   1
  -5   0   3 39.6800 3.35826   2
  -5   0   3 30.9238 3.09080   2
  -5   0   3 37.5324 6.27693   1
  -5   0   3 43.9775 7.59928   1
  -5   0   2 48.9150 4.47676   2
  -5   0   2 47.9869 4.34998   2
  -5   0   2 49.6566 6.74577   1
  -5   0   2 44.2040 6.81821   1
  -5   0   1 24.9408 4.16463   2
  -5   0   1 21.5105 3.95745   2
  -5   0   1 20.2779 5.58262   1
  -5   0   1 26.8180 6.38106   1
  -5   0   0 2.01461 4.67931   1
  -5   0   0-6.67970 3.55414   2
  -5   0   0 7.46361 4.96312   1
  -5   0  -1 67.8156 6.64031   2
  -5   0  -1 71.0191 7.91865   1
  -5   0  -1 61.6325 6.91731   1
  -5   0  -2 45.5493 6.28051   2
  -5   0  -2 47.1284 6.85024   1
  -5   0  -2 43.6180 6.03470   1
  -5   0  -3 5.29772 4.45834   1
  -5   0  -3 7.77927 5.27632   2
  -5   0  -3 5.20797 5.59754   1
  -5   0  -4 23.3585 5.58149   1
  -5   0  -4 22.0328 6.32592   2
  -5   0  -5 23.1768 5.48369   1
  -5   0  -5 10.0014 6.00705   2
  -5   0  -6 25.3390 5.58333   1
   5   0   6 30.3342 5.94835   1
  -5   0  -6 25.8056 8.41012   2
   5   0   7 36.8223 6.19901   1
  -5   0  -7 44.1617 6.48663   1
  -5   0  -8 9.86751 9.63878   2
  -5   0  -8-9.12893 5.76998   1
   5   0   8-3.13951 5.52455   1
  -5   0  -9 62.1029 6.51281   1
  -5   0  -9 58.3271 11.9327   2
  -5  -1  12-2.65908 9.74978   1
  -5  -1  12 6.04810 8.96334   1
  -5  -1  11 6.65120 10.6861   1
  -5  -1  11-4.38488 9.79519   1
  -5  -1  10-4.81747 8.60925   1
  -5  -1  10 9.32364 7.75156   1
  -5  -1   9 17.8017 7.20229   1
  -5  -1   9 16.4786 6.99777   1
  -5  -1   8-1.80630 6.58466   1
  -5  -1   8 0.07038 7.24047   1
  -5  -1   7 12.5432 7.86322   1
  -5  -1   7-0.46875 6.46293   1
  -5  -1   6 20.9984 7.36240   1
  -5  -1   6 22.2506 7.23500   1
  -5  -1   5 14.2609 7.06275   1
  -5  -1   5 10.5235 5.37827   1
  -5  -1   4 185.463 5.48746   2
  -5  -1   4 168.746 5.07964   2
  -5  -1   4 193.007 11.9397   1
  -5  -1   4 182.296 12.5123   1
  -5  -1   3 86.1217 5.07170   2
  -5  -1   3 86.4611 8.83830   1
  -5  -1   3 79.4080 4.86092   2
  -5  -1   3 76.0808 9.25667   1
  -5  -1   2 5.09739 3.23105   2
  -5  -1   2 6.40051 5.09035   1
  -5  -1   2 2.71364 3.18246   2
  -5  -1   2 0.54079 5.78852   1
  -5  -1   1 21.3294 4.52358   2
  -5  -1   1 14.2344 5.53499   1
  -5  -1   1 7.49227 5.50936   1
  -5  -1   0 246.505 10.7558   2
  -5  -1   0 230.782 12.0657   1
  -5  -1  -1 59.0103 6.66161   2
   5   1   1 61.3573 7.16691   1
  -5  -1  -1 55.5466 6.85424   1
  -5  -1  -2-7.86093 5.61224   2
   5   1   2 1.40085 4.87386   1
  -5  -1  -2 6.62365 4.84990   1
   5   1   3 18.4381 5.62894   1
  -5  -1  -3 14.0813 5.59018   1
  -5  -1  -4 5.36820 5.14493   1
   5   1   4 4.62338 4.87464   1
  -5  -1  -5 60.8086 7.55462   1
   5   1   5 56.8016 7.07987   1
  -5  -1  -6 7.51359 6.01872   1
   5   1   6 7.96020 5.78066   1
   5   1   7 4.22953 5.97115   1
  -5  -1  -7 15.1353 6.95248   1
   5   1   8 15.2760 6.99541   1
  -5  -1  -8 6.16158 6.84201   1
  -5  -2  12 8.42366 10.7270   1
  -5  -2  12 1.30024 8.86976   1
  -5  -2  11-2.44693 9.45801   1
  -5  -2  11 8.56407 9.22158   1
  -5  -2  10 21.3868 9.12621   1
  -5  -2  10 42.7678 10.5997   1
  -5  -2   9 16.4902 7.23114   1
  -5  -2   9 21.1639 9.19843   1
  -5  -2   8 1.00248 7.55301   1
  -5  -2   8 2.49161 6.57217   1
  -5  -2   7 27.0481 8.25159   1
  -5  -2   7 26.9994 7.98034   1
  -5  -2   6 6.13960 7.17505   1
  -5  -2   6 4.06069 6.12879   1
  -5  -2   5-2.63992 6.45651   1
  -5  -2   5 0.04668 1.54036   2
  -5  -2   5 4.54344 6.25020   1
  -5  -2   4 20.4445 3.35503   2
  -5  -2   4 16.4488 6.15472   1
  -5  -2   4 16.4784 6.14944   1
  -5  -2   3 40.3240 7.82984   1
  -5  -2   3 39.6863 4.58045   2
  -5  -2   3 46.7256 7.91601   1
  -5  -2   2 37.1194 5.16467   2
  -5  -2   2 51.0791 7.67324   1
  -5  -2   1 34.8810 5.35058   2
  -5  -2   1 25.3958 5.99206   1
   5   2  -1 33.2069 6.81003   1
  -5  -2   0-4.89462 4.87940   2
   5   2   0 2.76315 4.97864   1
  -5  -2   0 2.00127 4.64957   1
  -5  -2  -1 2.28762 4.88687   2
  -5  -2  -1 1.71768 5.31214   1
   5   2   1 1.07549 5.21655   1
  -5  -2  -2 53.7029 7.52435   2
  -5  -2  -2 45.1211 7.07845   1
   5   2   2 43.6448 7.16215   1
   5   2   3 21.1852 6.09605   1
  -5  -2  -3 14.9624 7.06232   2
  -5  -2  -3 18.2448 6.17402   1
  -5  -2  -4 77.3630 9.85474   2
  -5  -2  -4 57.3656 7.90979   1
   5   2   4 68.9119 8.44027   1
  -5  -2  -5 105.400 11.5484   2
  -5  -2  -5 79.1845 9.03664   1
   5   2   5 75.5892 8.83750   1
  -5  -2  -6 15.2092 8.93703   2
   5   2   6 2.77814 6.55618   1
  -5  -2  -6-6.76585 7.11650   1
  -5  -2  -7 86.0203 13.2710   2
  -5  -2  -7 61.5075 9.57644   1
   5   2   7 89.1410 9.82479   1
  -5  -3  12 7.48542 10.1550   1
  -5  -3  12-2.96744 10.9369   1
  -5  -3  11 18.3994 10.3299   1
  -5  -3  11 26.3425 9.65372   1
  -5  -3  10-2.27269 8.88506   1
  -5  -3  10-8.45217 8.56088   1
  -5  -3   9 11.6097 8.02794   1
  -5  -3   9 17.9307 7.95448   1
  -5  -3   8 18.7809 8.49270   1
  -5  -3   8 11.8829 7.83764   1
  -5  -3   7 13.4662 7.59554   1
  -5  -3   7-1.73418 7.61896   1
  -5  -3   6 3.48795 1.99106   2
  -5  -3   6 5.49102 6.73045   1
  -5  -3   6 1.85799 5.70267   1
  -5  -3   5-2.25459 3.12321   2
  -5  -3   5-5.44121 6.20747   1
  -5  -3   5-2.69496 7.79392   1
  -5  -3   4 24.5299 4.27687   2
  -5  -3   4 22.6554 7.04236   1
  -5  -3   3 13.2909 5.69699   1
  -5  -3   3 15.0344 4.16540   2
   5   3  -3 7.85265 6.03053   1
  -5  -3   2 11.4535 5.38139   1
  -5  -3   2 8.62855 4.31019   2
   5   3  -2 11.8573 6.25517   1
  -5  -3   1-1.84089 4.72117   2
   5   3  -1 9.60414 5.67445   1
  -5  -3   1 5.36559 5.91380   1
  -5  -3   0-8.46342 5.46560   2
   5   3   0-6.30374 5.81831   1
  -5  -3   0 3.44188 5.28929   1
  -5  -3  -1 25.3240 6.72762   2
  -5  -3  -1 30.4938 6.99914   1
   5   3   1 37.0159 7.32025   1
  -5  -3  -2 46.2834 8.11357   2
  -5  -3  -2 33.8970 7.23915   1
   5   3   2 31.8882 7.28186   1
  -5  -3  -3 11.4907 6.38999   2
  -5  -3  -3 25.5732 7.57607   1
   5   3   3 35.2403 7.69882   1
  -5  -3  -4 16.8318 7.36121   1
  -5  -3  -4 11.7699 7.56920   2
   5   3   4 14.5864 7.15557   1
  -5  -3  -5 63.9287 10.8687   2
  -5  -3  -5 49.2399 9.24376   1
   5   3   5 42.1139 9.06510   1
  -5  -3  -6-0.32586 8.59745   2
   5   3   6-3.08988 8.60853   1
  -5  -3  -6 3.14626 8.40171   1
  -5  -4  12-7.04814 11.5219   1
  -5  -4  12 18.7181 9.92620   1
  -5  -4  11-2.78684 10.6891   1
  -5  -4  11 20.0987 8.86045   1
  -5  -4  10 55.0145 11.7682   1
  -5  -4  10 67.9056 10.8730   1
  -5  -4   9 3.69018 6.67775   1
  -5  -4   9 12.7366 10.2959   1
  -5  -4   8-2.88700 6.91367   1
  -5  -4   8 0.65374 7.25340   1
  -5  -4   7 12.7843 6.89412   1
  -5  -4   7-0.56428 2.51929   2
  -5  -4   7-8.22764 9.34482   1
  -5  -4   6-6.56146 7.27591   1
  -5  -4   6 1.21700 3.45973   2
  -5  -4   6 8.23423 8.12163   1
  -5  -4   5-2.85475 7.26983   1
  -5  -4   5 0.88417 3.71499   2
  -5  -4   4 16.7756 7.48289   1
  -5  -4   4 1.61612 4.23492   2
   5   4  -4 7.41867 5.92350   1
   5   4  -3 4.20222 5.63522   1
  -5  -4   3 2.09788 4.67151   2
  -5  -4   3 8.92585 6.88778   1
  -5  -4   2 39.8587 6.38684   2
   5   4  -2 17.0661 6.97703   1
  -5  -4   2 27.3739 7.15430   1
  -5  -4   1 42.4731 7.06836   2
   5   4  -1 28.5683 7.95003   1
  -5  -4   1 31.5075 8.16910   1
  -5  -4   0 23.4797 6.98199   2
  -5  -4   0 9.78481 7.02672   1
   5   4   0 8.62816 7.08764   1
  -5  -4  -1 26.1208 7.38610   2
  -5  -4  -1 29.7156 7.71231   1
  -5  -4  -2 5.05256 7.53865   2
   5   4   2 4.77849 7.63791   1
  -5  -4  -3 21.8288 8.21453   1
  -5  -4  -3 20.6145 8.30238   2
   5   4   3 6.31490 8.17853   1
  -5  -4  -4 123.079 12.8924   2
  -5  -4  -4 116.212 12.1586   1
   5   4   4 112.443 12.3921   1
  -5  -4  -5-1.30070 9.25437   2
  -5  -4  -5-17.1198 9.01236   1
  -5  -5  12-3.24808 8.00586   1
  -5  -5  11-17.4987 11.3003   1
  -5  -5  11-0.17444 9.31578   1
  -5  -5  10 51.9266 11.5925   1
  -5  -5  10 44.1136 11.1360   1
  -5  -5   9 6.87917 7.68703   1
  -5  -5   9 5.07224 9.43998   1
  -5  -5   8-3.19229 6.81831   1
  -5  -5   8-0.13874 3.51159   2
  -5  -5   8-12.2222 9.15759   1
  -5  -5   7 21.8497 9.22257   1
  -5  -5   7 16.1293 4.32448   2
  -5  -5   7 17.5144 9.83534   1
   5   5  -6 12.2431 7.19359   1
  -5  -5   6 19.6821 7.45210   1
  -5  -5   6 13.8775 4.78072   2
  -5  -5   5-9.15243 7.91452   1
  -5  -5   5-3.40506 5.10472   2
   5   5  -5 6.97849 6.21935   1
  -5  -5   4 5.17417 5.18619   2
   5   5  -4 3.02026 5.99436   1
  -5  -5   4-2.48392 6.54478   1
  -5  -5   3 16.7645 5.78434   2
   5   5  -3 9.65833 7.05801   1
  -5  -5   3 11.7301 7.64363   1
   5   5  -2 8.90522 7.82839   1
  -5  -5   2 17.2037 6.54790   2
  -5  -5   2 11.8525 7.05995   1
  -5  -5   1 78.6300 9.24276   2
  -5  -5   1 74.3859 9.93179   1
   5   5  -1 66.2720 9.79706   1
  -5  -5   0 5.87599 7.55652   2
  -5  -5   0 10.3328 7.47234   1
   5   5   0 5.39071 7.11409   1
  -5  -5  -1 148.275 12.3576   2
  -5  -5  -1 135.664 12.9657   1
  -5  -5  -2 21.7687 9.50476   1
  -5  -5  -2 29.1943 9.12549   2
   5   5   2 13.8320 9.40903   1
  -5  -5  -3 1.16696 9.60808   1
  -5  -5  -3 0.15263 10.3205   2
   5   5   3 19.2830 8.40464   1
  -5  -5  -4 12.9419 8.58254   1
   5   5   4 3.25560 8.78541   1
  -5  -5  -4 12.2367 9.76906   2
  -5  -6  11 31.0400 9.62443   1
  -5  -6  11 18.3576 11.0061   1
  -5  -6  10 17.8647 11.7714   1
  -5  -6  10 14.4102 3.99805   2
  -5  -6  10-1.83131 9.60933   1
  -5  -6   9 5.53713 8.56290   1
  -5  -6   9 3.18965 4.59338   2
  -5  -6   8-1.01530 8.39914   1
  -5  -6   8-4.40291 4.85455   2
  -5  -6   8-1.67774 9.40051   1
  -5  -6   7-1.40367 5.28546   2
   5   6  -7-0.40418 7.29010   1
  -5  -6   7 6.21762 10.0927   1
   5   6  -6 10.8616 8.87997   1
  -5  -6   6 0.26135 5.40178   2
  -5  -6   6-4.39130 8.21601   1
  -5  -6   5 1.03566 5.97226   2
  -5  -6   5-5.62816 9.32989   1
   5   6  -5 1.56991 8.18103   1
   5   6  -4 2.03169 7.30345   1
  -5  -6   4 7.53741 6.67663   2
  -5  -6   4 19.6476 8.86518   1
   5   6  -3 3.07402 8.87737   1
  -5  -6   3-1.74795 6.60866   2
  -5  -6   3 3.11306 7.34415   1
  -5  -6   2 103.584 10.6920   2
  -5  -6   2 81.6581 12.6456   1
   5   6  -2 112.256 12.2940   1
  -5  -6   1 1.62366 7.98553   2
  -5  -6   1 4.91054 7.79917   1
   5   6  -1-11.2229 9.67298   1
  -5  -6   0 74.7320 10.5917   2
  -5  -6   0 72.6763 10.7133   1
  -5  -6  -1 18.3624 8.86666   1
  -5  -6  -1 9.58832 9.10920   2
   5   6   1 8.19236 8.51798   1
  -5  -6  -2-1.19124 9.18831   1
   5   6   2 18.8226 11.2858   1
  -5  -6  -2 8.02142 9.17629   2
  -5  -7   9-8.71992 5.93559   2
  -5  -7   9 2.68371 13.2625   1
  -5  -7   9 5.77479 9.88560   1
  -5  -7   8 40.8982 7.53960   2
   5   7  -8 57.7810 12.8336   1
  -5  -7   8 54.4531 11.3610   1
   5   7  -7-8.47459 8.85766   1
  -5  -7   7-8.88036 7.55962   2
  -5  -7   7-0.53454 11.6157   1
  -5  -7   6 41.3545 8.11440   2
  -5  -7   6 43.7460 10.9519   1
   5   7  -6 37.5263 9.78041   1
   5   7  -5 26.1946 10.1051   1
  -5  -7   5 39.6048 8.54898   2
  -5  -7   5 52.9954 12.7033   1
   5   7  -4 14.1181 10.5316   1
  -5  -7   4 9.08177 7.50757   2
  -5  -7   4-7.12659 11.0612   1
  -5  -7   3 43.8071 9.43347   2
  -5  -7   3 35.5591 11.6698   1
   5   7  -3 36.0758 10.2846   1
  -5  -7   2-3.06808 9.02757   2
   5   7  -2-10.5811 8.91988   1
  -5  -7   1 15.6970 9.75053   1
   5   7  -1-5.20086 9.11185   1
  -6   6   1 6.93838 7.57369   1
  -6   6   1 9.09241 5.86721   2
  -6   6   1 6.41835 8.22919   1
  -6   6   0-5.42623 6.87086   2
  -6   6   0 10.2257 8.30584   1
  -6   6   0 10.4069 8.11433   1
  -6   6  -1 7.73782 7.37716   1
  -6   6  -1 1.06271 7.74686   2
  -6   6  -1 6.12808 7.68941   1
  -6   6  -2 14.9407 7.06538   1
  -6   6  -2 3.84166 7.87370   2
  -6   6  -2 1.90340 6.90419   1
  -6   6  -3 29.1192 5.45442   1
  -6   6  -3 23.3294 6.60036   2
  -6   6  -3 15.5644 4.50616   1
  -6   5   4 28.6903 10.8278   1
  -6   5   4 13.1237 10.3137   1
  -6   5   3 11.4230 3.79306   2
  -6   5   3 21.1227 10.4344   1
  -6   5   2 5.38837 4.99303   2
  -6   5   2-3.89719 8.51507   1
  -6   5   2 17.5388 8.19048   1
  -6   5   1 1.30601 5.58730   2
  -6   5   1 1.67574 7.93290   1
  -6   5   1 20.9249 8.45559   1
  -6   5   0 24.0804 7.94635   1
  -6   5   0 8.80459 6.32033   2
  -6   5   0 4.81004 7.19671   1
  -6   5  -1 7.72065 7.00005   1
  -6   5  -1-6.59405 7.01417   2
  -6   5  -1 6.08094 6.80150   1
  -6   5  -2 12.9179 6.75735   1
  -6   5  -2 9.84060 7.31289   2
  -6   5  -2 3.80290 6.45666   1
  -6   5  -3 2.32764 7.66813   2
  -6   5  -3 12.0776 6.05965   1
  -6   5  -3-0.34060 6.26489   1
  -6   5  -4 22.0697 6.14112   1
  -6   5  -4 15.3169 5.70304   1
  -6   5  -4 23.1596 9.57727   2
  -6   5  -5 17.7517 3.26542   1
  -6   5  -5 12.3246 6.89825   2
  -6   5  -5 16.3850 3.08733   1
  -6   4   6 38.7186 10.1132   1
  -6   4   6 51.8907 10.9849   1
  -6   4   5 4.57793 10.6511   1
  -6   4   5 1.06381 10.7283   1
  -6   4   4 12.3395 8.67878   1
  -6   4   4 0.68950 9.75900   1
  -6   4   3 3.11881 2.72945   2
  -6   4   3-8.09784 9.17542   1
  -6   4   2 34.4692 5.27960   2
  -6   4   2 31.3913 8.55963   1
  -6   4   2 18.9300 8.17694   1
  -6   4   1 0.86704 7.00536   1
  -6   4   1 4.85693 6.77891   1
  -6   4   1-1.59331 4.88046   2
  -6   4   0 19.1998 7.22122   1
  -6   4   0 10.4450 7.00879   1
  -6   4   0 27.4305 6.29367   2
  -6   4  -1 7.65166 6.46221   1
  -6   4  -1 12.8573 6.14127   2
  -6   4  -1-3.93927 6.50881   1
  -6   4  -2 2.32289 5.85263   1
  -6   4  -2-5.66213 7.01034   2
  -6   4  -2-5.11122 5.95487   1
  -6   4  -3 0.29332 5.69351   1
  -6   4  -3-0.21534 6.00658   1
  -6   4  -3-4.72216 7.08724   2
  -6   4  -4 1.25698 5.46694   1
  -6   4  -4-3.20499 8.11605   2
  -6   4  -4-12.1758 5.88416   1
  -6   4  -5 43.6124 10.3830   2
  -6   4  -5 55.2531 6.13989   1
  -6   4  -5 52.1477 6.08087   1
  -6   3   7-8.87814 10.8215   1
  -6   3   7 27.6651 12.1595   1
  -6   3   6-2.18807 10.4195   1
  -6   3   6 11.6087 9.75009   1
  -6   3   5 29.6971 8.93659   1
  -6   3   5 7.91132 9.13763   1
  -6   3   4 11.4597 9.54426   1
  -6   3   4 30.2748 9.23003   1
  -6   3   3-3.84808 7.15763   1
  -6   3   3 0.86729 2.07265   2
  -6   3   3-1.64915 6.81180   1
  -6   3   2 5.09077 7.19838   1
  -6   3   2 5.00733 7.30913   1
  -6   3   2 5.69447 3.97439   2
  -6   3   1 19.4804 7.47983   1
  -6   3   1 24.1947 5.30023   2
  -6   3   1 33.1648 8.30136   1
  -6   3   0 14.5769 5.59120   2
  -6   3   0 32.2389 7.96135   1
  -6   3   0 17.7792 7.28222   1
  -6   3  -1 11.3009 6.96687   1
  -6   3  -1 1.98734 5.45904   2
  -6   3  -1 3.26974 6.40305   1
  -6   3  -2 5.64666 6.41027   1
  -6   3  -2 11.1423 6.06226   1
  -6   3  -2-4.04696 6.20564   2
  -6   3  -3 11.1619 5.73453   1
  -6   3  -3 22.6635 6.55968   1
  -6   3  -3 5.19959 6.88210   2
  -6   3  -4 22.7206 6.16500   1
  -6   3  -4 22.0076 8.11306   2
  -6   3  -4 17.0080 5.60435   1
  -6   3  -5-2.86814 5.00671   1
  -6   3  -5-1.98025 4.98989   1
  -6   3  -5 0.73200 8.46486   2
  -6   3  -6 19.5158 4.30242   1
  -6   3  -6 26.4685 4.47508   1
  -6   2   8 55.9558 13.7578   1
  -6   2   8 20.8962 11.4630   1
  -6   2   7 19.4699 10.5869   1
  -6   2   7 11.0135 10.2003   1
  -6   2   6 26.6760 10.8997   1
  -6   2   6 27.0099 8.59858   1
  -6   2   5 3.83391 9.39831   1
  -6   2   5 8.72369 8.09839   1
  -6   2   4 4.44248 8.64836   1
  -6   2   4 5.11619 7.87557   1
  -6   2   3 8.67845 2.20627   2
  -6   2   3 9.20593 6.67913   1
  -6   2   3 8.56952 6.97550   1
  -6   2   3 6.35728 2.12785   2
  -6   2   2 5.34567 7.45972   1
  -6   2   2 10.9080 7.77534   1
  -6   2   2 2.91978 3.56534   2
  -6   2   1-6.66790 6.96607   1
  -6   2   1 3.97198 4.34582   2
  -6   2   1 3.70753 7.07705   1
  -6   2   0 25.5311 7.66925   1
  -6   2   0 27.9718 5.57903   2
  -6   2   0 17.6584 6.63601   1
  -6   2  -1 6.40848 6.54797   1
  -6   2  -1 11.3888 6.62873   1
  -6   2  -1-1.42173 5.44144   2
  -6   2  -2 51.4511 8.03810   2
  -6   2  -2 53.0268 8.19408   1
  -6   2  -2 56.7597 7.82399   1
  -6   2  -3 6.61647 6.12750   1
  -6   2  -3 6.70658 6.85026   2
  -6   2  -3 16.5037 6.07002   1
  -6   2  -4-0.36391 5.69255   1
  -6   2  -4-3.24997 7.37770   2
  -6   2  -4 1.75785 5.86481   1
  -6   2  -5 40.1637 6.82944   1
  -6   2  -5 26.5335 6.24376   1
  -6   2  -6 26.3058 5.85487   1
  -6   2  -6 9.06494 5.62432   1
  -6   2  -6 3.01389 9.38474   2
  -6   1   9 11.4279 9.40312   1
  -6   1   9 15.1212 10.6420   1
  -6   1   8-6.79826 11.2473   1
  -6   1   8-14.8674 10.9360   1
  -6   1   7 12.1041 10.4862   1
  -6   1   7-8.78788 9.42637   1
  -6   1   6 7.96612 8.62447   1
  -6   1   6 0.23382 9.07218   1
  -6   1   5-0.39003 7.50246   1
  -6   1   5-0.96272 8.04965   1
  -6   1   4 13.3465 8.29420   1
  -6   1   4 30.3350 8.84702   1
  -6   1   3 73.0067 3.97241   2
  -6   1   3 67.3533 10.1145   1
  -6   1   3 80.6334 9.93934   1
  -6   1   2 151.210 7.39932   2
  -6   1   2 143.065 7.19102   2
  -6   1   2 151.750 11.5382   1
  -6   1   2 123.393 11.2529   1
  -6   1   1 122.854 7.99635   2
  -6   1   1 133.714 10.8594   1
  -6   1   1 134.406 7.98809   2
  -6   1   1 131.746 11.4577   1
  -6   1   0 6.77534 6.77265   1
  -6   1   0 12.1423 6.63778   1
  -6   1   0 6.98889 5.07717   2
  -6   1  -1-5.05726 6.51651   1
  -6   1  -1-2.12450 6.10214   1
  -6   1  -1-3.08011 6.03106   2
  -6   1  -2 2.33922 6.20520   1
  -6   1  -2 5.36799 6.34466   2
  -6   1  -3 15.0802 7.06916   1
  -6   1  -3 4.20673 6.72171   2
  -6   1  -3 1.24349 6.35949   1
  -6   1  -4 18.8314 6.77191   1
  -6   1  -4 3.49302 5.88609   1
  -6   1  -4 0.75487 7.46111   2
  -6   1  -5 8.91291 6.59463   1
  -6   1  -5 4.98353 6.38156   1
  -6   1  -5 5.66504 8.16009   2
  -6   1  -6 23.0364 5.20735   1
  -6   1  -6 23.1187 5.07612   1
  -6   0   9 22.1774 12.8639   1
  -6   0   9 8.62115 10.5144   1
  -6   0   8 6.05145 9.00587   1
  -6   0   8 0.08538 8.91872   1
  -6   0   7 10.1085 9.60278   1
  -6   0   7 3.88110 9.99492   1
  -6   0   6 16.1308 9.66819   1
  -6   0   6-4.37397 7.62203   1
  -6   0   5 22.2408 9.44123   1
  -6   0   5 26.8442 8.11612   1
  -6   0   4 76.5262 10.6203   1
  -6   0   4 93.3333 12.0565   1
  -6   0   3-11.0243 8.67149   1
  -6   0   3-1.39963 2.90725   2
  -6   0   3-1.58347 2.91944   2
  -6   0   3 9.25877 6.45081   1
  -6   0   2 49.7614 5.40350   2
  -6   0   2 37.7735 8.65818   1
  -6   0   2 39.7184 5.01334   2
  -6   0   2 46.1120 8.58729   1
  -6   0   1 81.1763 9.64080   1
  -6   0   1 76.8784 7.01933   2
  -6   0   1 74.0417 6.61479   2
  -6   0   1 88.4363 10.6509   1
  -6   0   0 9.78099 7.56285   1
  -6   0   0 14.9711 5.78566   2
  -6   0   0 9.51679 6.91502   1
  -6   0   0 10.8800 5.02137   2
  -6   0  -1 26.9631 8.20954   1
  -6   0  -1 3.49990 6.67449   1
  -6   0  -1 13.1005 6.52433   2
  -6   0  -1 15.5900 6.16380   2
  -6   0  -2-1.05249 6.60443   2
  -6   0  -2 6.20508 6.66386   2
  -6   0  -2 1.27883 6.47591   1
  -6   0  -2-4.28000 6.89148   1
  -6   0  -3 18.5947 7.37073   1
  -6   0  -3 10.5935 7.45377   2
  -6   0  -3 12.2272 7.61965   1
  -6   0  -4 21.9362 7.29760   1
  -6   0  -4 13.7977 8.65957   2
  -6   0  -4 29.7160 8.10882   1
  -6   0  -5 1.28571 6.83691   1
  -6   0  -5-9.15743 9.26674   2
  -6   0  -5 14.3504 7.97285   1
  -6  -1   9 2.15476 11.6494   1
  -6  -1   9-7.97121 12.0191   1
  -6  -1   8-11.5553 11.6016   1
  -6  -1   8-4.55069 9.05779   1
  -6  -1   7 3.39679 8.20299   1
  -6  -1   7 2.95516 9.17872   1
  -6  -1   6 10.6393 10.1772   1
  -6  -1   6-1.56925 7.19756   1
  -6  -1   5 32.6854 9.12724   1
  -6  -1   5 25.0666 9.69154   1
  -6  -1   4 22.0754 9.65851   1
  -6  -1   4 17.4876 2.29319   2
  -6  -1   4 31.9860 9.05698   1
  -6  -1   3 15.7904 7.95267   1
  -6  -1   3 16.1380 4.10625   2
  -6  -1   3 19.3724 7.91052   1
  -6  -1   3 23.1302 4.11284   2
  -6  -1   2 4.49205 4.34200   2
  -6  -1   2 0.93244 7.25825   1
  -6  -1   2 7.79670 4.30622   2
  -6  -1   2-1.60542 6.79383   1
  -6  -1   1-1.03656 7.29440   1
  -6  -1   1 10.1021 5.34613   2
  -6  -1   1 5.36303 4.94293   2
  -6  -1   1-2.50069 7.54980   1
  -6  -1   0 50.4422 7.58258   2
  -6  -1   0 54.9629 7.36259   2
  -6  -1   0 50.9047 9.62149   1
  -6  -1   0 39.4287 8.13494   1
  -6  -1  -1 22.2612 7.42306   2
  -6  -1  -1 13.1253 6.76078   2
  -6  -1  -1 12.8107 7.35523   1
  -6  -1  -1 10.9951 8.23056   1
  -6  -1  -2 3.88326 7.35700   2
  -6  -1  -2 11.7626 7.56442   1
  -6  -1  -2-1.36583 6.92569   2
  -6  -1  -2-3.78348 8.13394   1
  -6  -1  -3 43.1084 9.32286   2
  -6  -1  -3 34.4833 8.13338   1
  -6  -1  -3 26.2053 8.30000   2
  -6  -1  -3 19.2745 8.76496   1
  -6  -1  -4 9.54464 8.58263   2
  -6  -1  -4 24.5248 8.73805   1
  -6  -1  -4 21.7443 8.91223   2
  -6  -1  -4 14.7301 9.55989   1
  -6  -1  -5 13.6668 6.30205   2
  -6  -1  -5 4.61999 4.55562   2
  -6  -2   9 1.05672 12.2601   1
  -6  -2   9 8.32071 11.8192   1
  -6  -2   8 25.2817 11.0032   1
  -6  -2   8 20.4920 9.72949   1
  -6  -2   7 2.73821 8.84350   1
  -6  -2   7-2.91857 8.13800   1
  -6  -2   6 11.2711 8.64768   1
  -6  -2   6 27.2368 10.3734   1
  -6  -2   5-2.47016 7.03241   1
  -6  -2   5 1.52044 0.92382   2
  -6  -2   4 83.9457 10.7692   1
  -6  -2   4 59.9309 5.09819   2
  -6  -2   4 71.6721 5.06364   2
  -6  -2   4 70.2363 10.7434   1
  -6  -2   3 1.66045 7.69150   1
  -6  -2   3 5.28148 4.53354   2
  -6  -2   3 6.65241 4.25673   2
  -6  -2   3 4.93915 9.08161   1
  -6  -2   2 11.2983 7.47527   1
  -6  -2   2-4.38675 5.39741   2
  -6  -2   2-1.63585 4.72799   2
  -6  -2   2 5.52246 9.34116   1
  -6  -2   1 0.49299 5.42380   2
  -6  -2   1 9.38035 7.36486   1
  -6  -2   0 15.2511 6.81881   2
  -6  -2   0 6.30969 8.24622   1
  -6  -2   0 19.3440 10.3216   1
  -6  -2  -1 2.23038 7.07833   2
  -6  -2  -1 21.5906 9.09812   1
   6   2   2 30.2391 9.13247   1
  -6  -2  -2 29.3781 8.39917   2
  -6  -2  -2 39.8018 9.23355   1
  -6  -2  -3 7.83354 9.49407   2
  -6  -2  -3 11.0202 8.47457   1
   6   2   3 19.8311 8.58102   1
  -6  -2  -4 13.6188 5.99392   1
   6   2   4 17.4176 6.19504   1
  -6  -2  -4 29.0058 8.14348   2
  -6  -3   9 10.4373 10.6249   1
  -6  -3   9 19.4153 11.0843   1
  -6  -3   8-4.14579 8.80676   1
  -6  -3   8-11.9700 12.1125   1
  -6  -3   7-11.6181 10.1642   1
  -6  -3   7 0.08577 10.3062   1
  -6  -3   6-0.74566 8.31924   1
  -6  -3   6-6.43731 10.9016   1
  -6  -3   5-2.08991 9.40669   1
  -6  -3   5-0.49189 3.25894   2
  -6  -3   5 5.60705 3.34931   2
  -6  -3   5 5.09743 9.56557   1
  -6  -3   4-6.98421 9.16330   1
  -6  -3   4-5.02548 4.38633   2
  -6  -3   4 6.00235 9.53821   1
  -6  -3   3 22.6497 9.00747   1
  -6  -3   3 20.8612 6.10307   2
  -6  -3   3 36.1904 11.0541   1
  -6  -3   2 34.6768 6.66905   2
  -6  -3   2 52.2682 12.6630   1
  -6  -3   2 46.3216 10.6054   1
  -6  -3   1 12.8805 6.98594   2
   6   3  -1 29.2680 9.68349   1
  -6  -3   1 0.44047 8.95987   1
  -6  -3   0 52.0321 9.08440   2
   6   3   0 48.6867 10.1163   1
  -6  -3   0 60.7525 10.7849   1
  -6  -3  -1 0.81272 7.94157   2
  -6  -3  -1 0.51221 9.38276   1
   6   3   1-10.6110 8.98067   1
  -6  -3  -2 105.037 12.5291   2
   6   3   2 67.0942 11.9217   1
  -6  -3  -2 84.3093 11.8257   1
  -6  -4   8 42.4798 12.7231   1
  -6  -4   8-10.9331 9.21889   1
  -6  -4   7 26.8281 10.3923   1
  -6  -4   7 35.8472 11.5425   1
  -6  -4   6-3.23033 11.3973   1
  -6  -4   6 0.57653 10.2600   1
  -6  -4   5 11.9660 8.31956   1
  -6  -4   5 10.1332 4.97076   2
  -6  -4   4 21.9692 5.89773   2
  -6  -4   4 27.3525 10.5728   1
  -6  -4   4 7.04791 8.06934   1
  -6  -4   3 8.80090 6.18713   2
   6   4  -3 12.8476 9.34123   1
  -6  -4   3 4.30341 9.57099   1
  -6  -4   2 22.4017 7.21966   2
  -6  -4   2 16.8628 8.84761   1
  -6  -4   1 14.1302 7.87162   2
  -6  -4   1 13.0282 9.80921   1
   6   4  -1 9.89920 10.3943   1
  -6  -4   0 114.277 11.9954   2
  -6  -4   0 78.6448 12.8170   1
  -6  -4  -1 31.0788 7.79810   2
  -6  -4  -1 11.9385 6.19311   1
   6   4   1 16.2604 6.98211   1
  -6  -5   6 16.4378 5.83534   2
  -6  -5   6 13.0533 13.8597   1
  -6  -5   6 10.9516 10.0339   1
  -6  -5   5 6.75109 6.54851   2
  -6  -5   5 4.95669 12.0676   1
  -6  -5   4-7.25109 6.75510   2
   6   5  -4 2.21482 10.9222   1
  -6  -5   4-20.9289 10.9669   1
  -6  -5   3 8.96343 7.55143   2
  -6  -5   3 12.0388 11.2195   1
   6   5  -3-10.4568 11.3676   1
   6   5  -2-18.5730 9.78043   1
  -6  -5   2 1.31014 6.74254   2
  -6  -5   2-0.87518 7.11942   1
   0   0   0    0.00    0.00   0
TITL 225_c in P-1
REM P-1 (#2 in standard setting)
CELL 0.71073   4.914165   8.593423  12.028064 108.5633  97.0594  92.4932
ZERR    2.00   0.000501   0.000701   0.000970   0.0076   0.0078   0.0074
LATT  1
SFAC C H N O
UNIT 14.00 26.00 2.00 16.00
TREF
HKLF 4
END
;
_shelx_hkl_checksum              35323
_shelx_res_file
;
TITL 225_III in P-1
    225_c.res
    created by SHELXL-2018/3 at 12:41:04 on 16-Jan-2019
REM P-1 (#2 in standard setting)
CELL 0.71073 4.914165 8.593423 12.028064 108.5633 97.0594 92.4932
ZERR 2 0.000501 0.000701 0.00097 0.0076 0.0078 0.0074
LATT 1
SFAC C H N O
UNIT 14 26 2 16
EQIV $1 -X,1-Y,-Z
EQIV $2 1+X,+Y,+Z
EQIV $3 2-X,2-Y,1-Z
EQIV $4 +X,-1+Y,+Z
EQIV $5 1-X,1-Y,-Z
EQIV $6 -1+X,-1+Y,+Z
EQIV $7 1-X,2-Y,-Z
EQIV $8 1-X,2-Y,1-Z
L.S. 20
PLAN  10
SIZE 0.034 0.071 0.4342
TEMP -48.15
HTAB O4 O3_$2
HTAB O1 O7_$3
HTAB N1 O5_$1
HTAB N1 O2_$4
HTAB N1 O4_$5
HTAB N1 O5_$5
HTAB N1 O2_$6
HTAB O3 O4_$7
HTAB O6 O6_$1
HTAB O8 O8_$8
BOND $H
BOND
CONF
fmap 2
acta
SHEL 40 0.8
REM <olex2.extras>
REM <HklSrc "%.\\225_c.hkl">
REM </olex2.extras>
WGHT    0.033800    0.139200
FVAR       0.79237
O3    4    0.260629    0.989592    0.133448    11.00000    0.01323    0.02066 =
         0.02176    0.00969    0.00074    0.00082
O6    4    0.189916    0.596123    0.066093    11.00000    0.01912    0.02330 =
         0.02067    0.00595   -0.00148   -0.01053
AFIX 147
H6    2    0.063081    0.535998    0.017298    10.50000   -1.20000
AFIX   0
O4    4    0.739338    0.846898    0.026896    11.00000    0.01171    0.02347 =
         0.02042    0.00811    0.00053   -0.00547
AFIX 147
H4    2    0.896950    0.878934    0.063324    11.00000   -1.20000
AFIX   0
O1    4    0.880869    0.975369    0.318713    11.00000    0.01742    0.01974 =
         0.02197    0.00300   -0.00807   -0.00297
AFIX 147
H1    2    0.997698    1.048677    0.362837    11.00000   -1.20000
AFIX   0
O5    4    0.324322    0.632026   -0.095609    11.00000    0.02018    0.03202 =
         0.01570    0.00310   -0.00209   -0.00558
O8    4    0.433248    0.855055    0.441486    11.00000    0.03095    0.01538 =
         0.02505    0.00380   -0.00175    0.00270
AFIX 147
H8    2    0.497831    0.949278    0.483400    10.50000   -1.20000
AFIX   0
O2    4    0.695089    1.186290    0.275281    11.00000    0.02694    0.01577 =
         0.04300    0.00760   -0.00942   -0.00336
C3    1    0.583507    0.778336    0.094970    11.00000    0.01296    0.01496 =
         0.01577    0.00703   -0.00126   -0.00199
AFIX  13
H3A   2    0.703795    0.717189    0.135331    11.00000   -1.20000
AFIX   0
C2    1    0.464087    0.914284    0.187831    11.00000    0.01262    0.01363 =
         0.01566    0.00561   -0.00061   -0.00111
AFIX  13
H2    2    0.375575    0.863146    0.238878    11.00000   -1.20000
AFIX   0
N1    3    0.205444    0.362542    0.232264    11.00000    0.01661    0.01816 =
         0.02302    0.00172   -0.00134   -0.00089
AFIX 137
H1A   2    0.319081    0.361702    0.178864    11.00000   -1.50000
H1B   2    0.030331    0.340110    0.195649    11.00000   -1.50000
H1C   2    0.248299    0.285787    0.266312    11.00000   -1.50000
AFIX   0
O7    4    0.768944    0.777616    0.550300    11.00000    0.03565    0.02456 =
         0.03477    0.00585   -0.01725   -0.00702
C5    1    0.586178    0.749639    0.464369    11.00000    0.01700    0.01959 =
         0.01913    0.00625    0.00075   -0.00497
C1    1    0.690913    1.042070    0.265829    11.00000    0.01399    0.01772 =
         0.01633    0.00336    0.00306    0.00126
C4    1    0.350089    0.660097    0.011851    11.00000    0.01345    0.01228 =
         0.01921    0.00306    0.00112    0.00288
C7    1    0.236171    0.527592    0.324613    11.00000    0.01658    0.01677 =
         0.01811   -0.00008    0.00142    0.00168
AFIX  23
H7A   2    0.132183    0.524435    0.388473    11.00000   -1.20000
H7B   2    0.161031    0.608518    0.290126    11.00000   -1.20000
AFIX   0
C6    1    0.535707    0.578893    0.374497    11.00000    0.01546    0.01925 =
         0.02244    0.00372    0.00131    0.00144
AFIX  23
H6A   2    0.606317    0.499769    0.411790    11.00000   -1.20000
H6B   2    0.639557    0.574244    0.309141    11.00000   -1.20000
AFIX   0
H3    2    0.327927    1.032416    0.092772    11.00000    0.03479
HKLF 4
REM  225_III in P-1
REM wR2 = 0.0861, GooF = S = 1.007, Restrained GooF = 1.007 for all data
REM R1 = 0.0382 for 1376 Fo > 4sig(Fo) and 0.0670 for all 1942 data
REM 154 parameters refined using 0 restraints
END
WGHT      0.0338      0.1392
REM Highest difference peak  0.234,  deepest hole -0.220,  1-sigma level  0.050
Q1    1   0.4625  0.7313  0.0536  11.00000  0.05    0.23
Q2    1   0.5268  0.8487  0.1413  11.00000  0.05    0.23
Q3    1   0.5866  0.9779  0.2172  11.00000  0.05    0.19
Q4    1   0.7216  0.9733  0.0755  11.00000  0.05    0.19
Q5    1   0.7758  1.2902  0.3378  11.00000  0.05    0.17
Q6    1   0.0790  0.9530  0.1062  11.00000  0.05    0.17
Q7    1   0.8893  0.8724  0.3565  11.00000  0.05    0.17
Q8    1   0.2541  0.5386 -0.1667  11.00000  0.05    0.16
Q9    1   0.8445  0.7156  0.5682  11.00000  0.05    0.16
Q10   1   0.0120  0.6554  0.0429  11.00000  0.05    0.16
;
_shelx_res_checksum              30912
loop_
_space_group_symop_operation_xyz
'x, y, z'
'-x, -y, -z'
loop_
_atom_site_type_symbol
_atom_site_label
_atom_site_fract_x
_atom_site_fract_y
_atom_site_fract_z
_atom_site_U_iso_or_equiv
_atom_site_adp_type
_atom_site_calc_flag
_atom_site_occupancy
O O3 0.2606(3) 0.98959(16) 0.13345(12) 0.0181(3) Uani d 1
O O6 0.1899(3) 0.59612(17) 0.06609(12) 0.0221(3) Uani d 1
H H6 0.063081 0.535998 0.017298 0.027 Uiso calc 0.5
O O4 0.7393(3) 0.84690(16) 0.02690(11) 0.0187(3) Uani d 1
H H4 0.896950 0.878934 0.063324 0.022 Uiso calc 1
O O1 0.8809(3) 0.97537(16) 0.31871(12) 0.0217(3) Uani d 1
H H1 0.997698 1.048677 0.362837 0.026 Uiso calc 1
O O5 0.3243(3) 0.63203(17) -0.09561(12) 0.0244(3) Uani d 1
O O8 0.4332(3) 0.85506(16) 0.44149(12) 0.0250(4) Uani d 1
H H8 0.497831 0.949278 0.483400 0.030 Uiso calc 0.5
O O2 0.6951(3) 1.18629(17) 0.27528(14) 0.0305(4) Uani d 1
C C3 0.5835(4) 0.7783(2) 0.09497(16) 0.0145(4) Uani d 1
H H3A 0.703795 0.717189 0.135331 0.017 Uiso calc 1
C C2 0.4641(4) 0.9143(2) 0.18783(16) 0.0141(4) Uani d 1
H H2 0.375575 0.863146 0.238878 0.017 Uiso calc 1
N N1 0.2054(3) 0.36254(19) 0.23226(14) 0.0209(4) Uani d 1
H H1A 0.319081 0.361702 0.178864 0.031 Uiso calc 1
H H1B 0.030331 0.340110 0.195649 0.031 Uiso calc 1
H H1C 0.248299 0.285787 0.266312 0.031 Uiso calc 1
O O7 0.7689(3) 0.77762(17) 0.55030(14) 0.0349(4) Uani d 1
C C5 0.5862(4) 0.7496(2) 0.46437(17) 0.0190(4) Uani d 1
C C1 0.6909(4) 1.0421(2) 0.26583(17) 0.0165(4) Uani d 1
C C4 0.3501(4) 0.6601(2) 0.01185(17) 0.0155(4) Uani d 1
C C7 0.2362(4) 0.5276(2) 0.32461(17) 0.0186(4) Uani d 1
H H7A 0.132183 0.524435 0.388473 0.022 Uiso calc 1
H H7B 0.161031 0.608518 0.290126 0.022 Uiso calc 1
C C6 0.5357(4) 0.5789(2) 0.37450(18) 0.0199(4) Uani d 1
H H6A 0.606317 0.499769 0.411790 0.024 Uiso calc 1
H H6B 0.639557 0.574244 0.309141 0.024 Uiso calc 1
H H3 0.328(5) 1.032(3) 0.093(2) 0.035(7) Uiso d 1
loop_
_atom_site_aniso_label
_atom_site_aniso_U_11
_atom_site_aniso_U_22
_atom_site_aniso_U_33
_atom_site_aniso_U_12
_atom_site_aniso_U_13
_atom_site_aniso_U_23
O3 0.0132(7) 0.0207(7) 0.0218(8) 0.0008(6) 0.0007(6) 0.0097(6)
O6 0.0191(7) 0.0233(8) 0.0207(7) -0.0105(6) -0.0015(6) 0.0060(6)
O4 0.0117(7) 0.0235(8) 0.0204(7) -0.0055(6) 0.0005(6) 0.0081(6)
O1 0.0174(7) 0.0197(7) 0.0220(8) -0.0030(6) -0.0081(6) 0.0030(6)
O5 0.0202(8) 0.0320(8) 0.0157(8) -0.0056(6) -0.0021(6) 0.0031(6)
O8 0.0309(8) 0.0154(7) 0.0250(8) 0.0027(6) -0.0018(7) 0.0038(7)
O2 0.0269(8) 0.0158(8) 0.0430(10) -0.0034(6) -0.0094(7) 0.0076(7)
C3 0.0130(9) 0.0150(10) 0.0158(10) -0.0020(7) -0.0013(8) 0.0070(8)
C2 0.0126(9) 0.0136(10) 0.0157(10) -0.0011(7) -0.0006(8) 0.0056(8)
N1 0.0166(8) 0.0182(9) 0.0230(9) -0.0009(7) -0.0013(7) 0.0017(7)
O7 0.0356(9) 0.0246(8) 0.0348(9) -0.0070(7) -0.0173(8) 0.0059(7)
C5 0.0170(10) 0.0196(10) 0.0191(11) -0.0050(8) 0.0007(9) 0.0063(9)
C1 0.0140(10) 0.0177(10) 0.0163(10) 0.0013(8) 0.0031(8) 0.0034(8)
C4 0.0134(9) 0.0123(9) 0.0192(10) 0.0029(7) 0.0011(8) 0.0031(8)
C7 0.0166(10) 0.0168(10) 0.0181(10) 0.0017(8) 0.0014(8) -0.0001(8)
C6 0.0155(10) 0.0193(10) 0.0224(11) 0.0014(8) 0.0013(9) 0.0037(9)
loop_
_atom_type_symbol
_atom_type_description
_atom_type_scat_dispersion_real
_atom_type_scat_dispersion_imag
_atom_type_scat_source
C C 0.0033 0.0016 'International Tables Vol C Tables 4.2.6.8 and 6.1.1.4'
H H 0.0000 0.0000 'International Tables Vol C Tables 4.2.6.8 and 6.1.1.4'
N N 0.0061 0.0033 'International Tables Vol C Tables 4.2.6.8 and 6.1.1.4'
O O 0.0106 0.0060 'International Tables Vol C Tables 4.2.6.8 and 6.1.1.4'
loop_
_exptl_crystal_face_index_h
_exptl_crystal_face_index_k
_exptl_crystal_face_index_l
_exptl_crystal_face_perp_dist
0 5 1 0.0120
0 -5 -1 0.0220
3 -1 1 0.2160
-7 3 -2 0.1830
0 1 -3 0.0290
0 -1 3 0.0420
loop_
_geom_angle_atom_site_label_1
_geom_angle_atom_site_label_2
_geom_angle_atom_site_label_3
_geom_angle
C2 O3 H3 109.7(18)
C4 O6 H6 109.5
C3 O4 H4 109.5
C1 O1 H1 109.5
C5 O8 H8 109.5
O4 C3 H3A 109.3
O4 C3 C2 110.64(14)
O4 C3 C4 108.68(15)
C2 C3 H3A 109.3
C4 C3 H3A 109.3
C4 C3 C2 109.53(15)
O3 C2 C3 111.12(15)
O3 C2 H2 108.1
O3 C2 C1 110.67(14)
C3 C2 H2 108.1
C1 C2 C3 110.71(15)
C1 C2 H2 108.1
H1A N1 H1B 109.5
H1A N1 H1C 109.5
H1B N1 H1C 109.5
C7 N1 H1A 109.5
C7 N1 H1B 109.5
C7 N1 H1C 109.5
O8 C5 C6 114.84(17)
O7 C5 O8 125.70(18)
O7 C5 C6 119.45(17)
O1 C1 C2 111.84(15)
O2 C1 O1 125.05(18)
O2 C1 C2 123.10(17)
O6 C4 C3 113.35(16)
O5 C4 O6 125.26(18)
O5 C4 C3 121.39(17)
N1 C7 H7A 109.6
N1 C7 H7B 109.6
N1 C7 C6 110.40(15)
H7A C7 H7B 108.1
C6 C7 H7A 109.6
C6 C7 H7B 109.6
C5 C6 C7 113.72(16)
C5 C6 H6A 108.8
C5 C6 H6B 108.8
C7 C6 H6A 108.8
C7 C6 H6B 108.8
H6A C6 H6B 107.7
loop_
_geom_bond_atom_site_label_1
_geom_bond_atom_site_label_2
_geom_bond_distance
O3 C2 1.418(2)
O3 H3 0.79(2)
O6 H6 0.8300
O6 C4 1.290(2)
O4 H4 0.8300
O4 C3 1.423(2)
O1 H1 0.8300
O1 C1 1.318(2)
O5 C4 1.226(2)
O8 H8 0.8300
O8 C5 1.276(2)
O2 C1 1.207(2)
C3 H3A 0.9900
C3 C2 1.532(2)
C3 C4 1.522(3)
C2 H2 0.9900
C2 C1 1.520(3)
N1 H1A 0.9000
N1 H1B 0.9000
N1 H1C 0.9000
N1 C7 1.485(2)
O7 C5 1.236(2)
C5 C6 1.508(3)
C7 H7A 0.9800
C7 H7B 0.9800
C7 C6 1.510(3)
C6 H6A 0.9800
C6 H6B 0.9800
loop_
_geom_hbond_atom_site_label_D
_geom_hbond_atom_site_label_H
_geom_hbond_atom_site_label_A
_geom_hbond_site_symmetry_A
_geom_hbond_distance_DH
_geom_hbond_distance_HA
_geom_hbond_distance_DA
_geom_hbond_angle_DHA
_geom_hbond_publ_flag
O6 H6 O6 2_565 0.83 1.64 2.464(3) 172.2 yes
O4 H4 O3 1_655 0.83 1.94 2.7618(19) 168.1 yes
O1 H1 O7 2_776 0.83 1.79 2.615(2) 173.3 yes
O8 H8 O8 2_676 0.83 1.63 2.453(3) 169.0 yes
N1 H1A O4 2_665 0.90 2.53 3.116(2) 123.7 yes
N1 H1A O5 2_665 0.90 2.13 3.003(2) 163.4 yes
N1 H1B O5 2_565 0.90 2.06 2.914(2) 157.7 yes
N1 H1B O2 1_445 0.90 2.53 3.056(2) 118.2 yes
N1 H1C O2 1_545 0.90 2.39 2.977(2) 122.7 yes
O3 H3 O4 2_675 0.79(2) 2.03(2) 2.7239(19) 146(2) yes
loop_
_geom_torsion_atom_site_label_1
_geom_torsion_atom_site_label_2
_geom_torsion_atom_site_label_3
_geom_torsion_atom_site_label_4
_geom_torsion
O3 C2 C1 O1 179.14(15)
O3 C2 C1 O2 -2.1(3)
O4 C3 C2 O3 67.86(19)
O4 C3 C2 C1 -55.55(19)
O4 C3 C4 O6 -177.47(14)
O4 C3 C4 O5 2.5(2)
O8 C5 C6 C7 -37.5(2)
C3 C2 C1 O1 -57.2(2)
C3 C2 C1 O2 121.58(19)
C2 C3 C4 O6 -56.5(2)
C2 C3 C4 O5 123.46(18)
N1 C7 C6 C5 176.84(16)
O7 C5 C6 C7 143.93(19)
C4 C3 C2 O3 -51.92(19)
C4 C3 C2 C1 -175.33(15)

_cod_database_fobs_code 2021496
