#------------------------------------------------------------------------------
#$Date: 2018-08-14 05:14:15 +0300 (Tue, 14 Aug 2018) $
#$Revision: 209667 $
#$URL: file:///home/coder/svn-repositories/cod/cif/2/02/11/2021199.cif $
#------------------------------------------------------------------------------
#
# This file is available in the Crystallography Open Database (COD),
# http://www.crystallography.net/. The original data for this entry
# were provided by IUCr Journals, http://journals.iucr.org/.
#
# The file may be used within the scientific community so long as
# proper attribution is given to the journal article from which the
# data were obtained.
#
data_2021199
loop_
_publ_author_name
'Rajam, Ammaiyappan'
'Muthiah, Packianathan Thomas'
'Butcher, Raymond John'
'Jasinski, Jerry P.'
'Wikaira, Jan'
_publ_section_title
;
 Design of two series of 1:1 cocrystals involving
 4-amino-5-chloro-2,6-dimethylpyrimidine and carboxylic acids
;
_journal_coeditor_code           SK3691
_journal_issue                   9
_journal_name_full               'Acta Crystallographica Section C'
_journal_page_first
;
;
_journal_paper_doi               10.1107/S2053229618009154
_journal_volume                  74
_journal_year                    2018
_chemical_formula_iupac          'C6 H8 Cl N3, C7 H4 Cl2 O2'
_chemical_formula_moiety         'C6 H8 Cl N3, C7 H4 Cl2 O2'
_chemical_formula_sum            'C13 H12 Cl3 N3 O2'
_chemical_formula_weight         348.61
_chemical_name_systematic
;
4-Amino-5-chloro-2,6-dimethylpyrimidine---2,4-dichlorobenzoic acid (1/1)
;
_space_group_crystal_system      triclinic
_space_group_IT_number           2
_space_group_name_Hall           '-P 1'
_space_group_name_H-M_alt        'P -1'
_symmetry_space_group_name_Hall  '-P 1'
_symmetry_space_group_name_H-M   'P -1'
_atom_sites_solution_hydrogens   mixed
_audit_creation_method           SHELXL-2014/7
_cell_angle_alpha                92.539(5)
_cell_angle_beta                 98.522(5)
_cell_angle_gamma                113.657(7)
_cell_formula_units_Z            2
_cell_length_a                   7.3015(4)
_cell_length_b                   7.5060(6)
_cell_length_c                   14.9665(8)
_cell_measurement_reflns_used    2184
_cell_measurement_temperature    120(2)
_cell_measurement_theta_max      75.7690
_cell_measurement_theta_min      3.0100
_cell_volume                     738.12(9)
_computing_cell_refinement
;
CrysAlis PRO (Agilent, 2014)
;
_computing_data_collection
;
CrysAlis PRO (Agilent, 2014)
;
_computing_data_reduction
;
CrysAlis PRO (Agilent, 2014)
;
_computing_molecular_graphics
;
SHELXTL (Sheldrick, 2008)
;
_computing_publication_material
;
SHELXTL (Sheldrick, 2008)
;
_computing_structure_refinement
;
SHELXL2014 (Sheldrick, 2015b)
;
_computing_structure_solution
;
SHELXT (Sheldrick, 2015a)
;
_diffrn_ambient_temperature      120(2)
_diffrn_detector_area_resol_mean 10.6501
_diffrn_measured_fraction_theta_full 0.997
_diffrn_measured_fraction_theta_max 0.976
_diffrn_measurement_device_type
'Agilent SuperNova Dual Source diffractometer with an Atlas detector'
_diffrn_measurement_method       '\w scans'
_diffrn_radiation_type           CuK\a
_diffrn_radiation_wavelength     1.54184
_diffrn_reflns_av_R_equivalents  0.0384
_diffrn_reflns_limit_h_max       9
_diffrn_reflns_limit_h_min       -4
_diffrn_reflns_limit_k_max       8
_diffrn_reflns_limit_k_min       -9
_diffrn_reflns_limit_l_max       17
_diffrn_reflns_limit_l_min       -18
_diffrn_reflns_number            5965
_diffrn_reflns_theta_full        67.500
_diffrn_reflns_theta_max         76.881
_diffrn_reflns_theta_min         3.005
_exptl_absorpt_coefficient_mu    5.696
_exptl_absorpt_correction_T_max  1.00000
_exptl_absorpt_correction_T_min  0.53747
_exptl_absorpt_correction_type   multi-scan
_exptl_absorpt_process_details
;
(CrysAlis PRO; Agilent, 2014)
;
_exptl_crystal_colour            colorless
_exptl_crystal_density_diffrn    1.568
_exptl_crystal_description
;
plate
;
_exptl_crystal_F_000             356
_exptl_crystal_size_max          0.51
_exptl_crystal_size_mid          0.35
_exptl_crystal_size_min          0.08
_refine_diff_density_max         0.389
_refine_diff_density_min         -0.511
_refine_ls_extinction_method     none
_refine_ls_goodness_of_fit_ref   1.050
_refine_ls_hydrogen_treatment    mixed
_refine_ls_matrix_type           full
_refine_ls_number_parameters     204
_refine_ls_number_reflns         3050
_refine_ls_number_restraints     0
_refine_ls_restrained_S_all      1.050
_refine_ls_R_factor_all          0.0575
_refine_ls_R_factor_gt           0.0465
_refine_ls_shift/su_max          0.000
_refine_ls_shift/su_mean         0.000
_refine_ls_structure_factor_coef Fsqd
_refine_ls_weighting_details
'w=1/[\s^2^(Fo^2^)+(0.0781P)^2^+0.4230P] where P=(Fo^2^+2Fc^2^)/3'
_refine_ls_weighting_scheme      calc
_refine_ls_wR_factor_gt          0.1230
_refine_ls_wR_factor_ref         0.1351
_reflns_number_gt                2546
_reflns_number_total             3050
_reflns_threshold_expression     'I > 2\s(I)'
_cod_data_source_file            sk3691sup1.cif
_cod_data_source_block           COCRYSTAL-3
_cod_database_code               2021199
_shelx_space_group_comment
;
The symmetry employed for this shelxl refinement is uniquely defined
by the following loop, which should always be used as a source of
symmetry information in preference to the above space-group names.
They are only intended as comments.
;
_shelx_hkl_file
;
   0   0  -1 150.721 39.7357  25
   0   0   1 85.4564 33.9636  26
   0   0   2 57822.6 614.059  26
   0   0  -2 58732.6 617.127  25
   0   0   3 58722.3 758.627  26
   0   0  -3 59289.8 769.844  25
   0   0  -4 30986.0 654.980  25
   0   0   4 30574.9 640.083  26
   0   0  -5 81971.1 1177.77  25
   0   0  -6 85529.9 1300.55  25
   0   0  -7 6772.47 416.312  25
   0   0   9 6597.18 434.884  18
   0   0   9 6546.37 492.970  27
   0   0  10 41799.3 1134.36  18
   0   0  10 42138.4 1290.07  27
   0   0  11 10591.2 686.522  13
   0   0 -11 10028.2 693.291  23
   0   0  11 10599.6 707.727  27
   0   0 -12 7803.33 629.334   3
   0   0 -12 7921.76 673.591  23
   0   0  12 7862.50 621.192  13
   0   0  12 7762.58 660.857  27
   0   0 -13 104724. 2303.13   3
   0   0  13 106322. 2240.81  13
   0   0 -14 3878.91 467.512   3
   0   0 -14 3315.30 455.657  21
   0   0  14 3603.44 445.557  13
   0   0  15 455.021 226.616  13
   0   0 -15 528.904 231.916   3
   0   0 -15 353.616 205.958  21
   0   0 -16-3.06043 187.072  21
   0   0 -16-68.0469 138.478   3
   0   0 -17 2319.82 329.558  21
   0   0 -18 529.313 179.850  21
   0   1 -18 9916.89 523.845  21
   0   1 -17 2351.42 338.086  21
   0   1 -16 2755.66 406.663  21
   0   1 -15 50509.0 1552.94  21
   0  -1  15 53153.1 1332.56  15
   0   1 -14 4584.52 521.431   3
   0  -1  14 4327.60 507.739  13
   0   1 -14 4193.84 501.604  21
   0   1 -13 4757.38 526.545  21
   0  -1  13 4621.35 503.503  13
   0   1 -13 4626.49 520.985   3
   0   1 -12 20077.2 1007.28   3
   0  -1  12 20011.2 1050.24  27
   0   1 -12 18305.8 905.240  21
   0  -1  12 19716.6 970.792  13
   0   1 -11 626.210 257.458   3
   0  -1  11 678.479 254.281  13
   0   1 -10 309.091 224.684  25
   0   1  -9 15509.3 747.719  25
   0   1  -8 2426.93 318.912  25
   0  -1   8 2511.55 309.788  26
   0  -1   7 22248.5 764.028  26
   0  -1   7 22506.2 530.480  18
   0   1  -7 21424.9 759.292  25
   0  -1   6 410.634 188.828  26
   0  -1   6 405.229 89.5183  18
   0   1  -6 379.675 181.103  25
   0  -1   5 14464.1 528.204  26
   0  -1   5 14256.4 332.432  18
   0   1  -5 14653.5 547.603  25
   0   1  -4 267.829 163.628  25
   0  -1   4 196.045 142.058  26
   0  -1   4 186.598 52.4830  18
   0  -1   3 2091.52 91.2913  18
   0   1  -3 2419.00 227.794  25
   0   1  -2 200997. 1512.54  25
   0   1  -1 39955.8 687.612  27
   0   1   0 75525.3 909.178  27
   0   1   1 34592.2 529.762  27
   0   1   2 26297.8 498.194  27
   0   1   3 21139.3 495.124  27
   0   1   4 18734.3 519.642  27
   0   1   5 12260.6 477.171  27
   0   1   6 37924.2 910.172  27
   0   1   7 13929.9 612.492  27
   0   1   8 2254.54 292.223  27
   0   1   9 37129.8 1151.58  27
   0   1  10 2198.90 306.945  27
   0   1  11 25855.8 1119.29  27
   0  -1 -11 24064.5 1078.61  23
   0   1  11 24081.2 1100.09  18
   0   1  11 26358.6 1106.86  13
   0  -1 -12 40967.3 1468.76  23
   0   1  12 42108.7 1434.19  13
   0   1  13 8203.53 661.428  13
   0  -1 -13 7938.73 698.304  23
   0   1  14 10409.7 725.901  13
   0  -1 -14 9938.82 744.998   3
   0  -1 -15 5653.19 527.402  21
   0   1  15 6244.61 551.990  13
   0  -1 -15 5830.65 559.107   3
   0  -1 -16 1626.56 291.588   3
   0  -1 -16 1041.57 267.105  21
   0   1  16 1300.41 272.122  13
   0  -1 -17 14475.7 663.367  21
   0   2 -18 183.044 146.641  21
   0   2 -18-340.237 118.366  22
   0   2 -17 1726.41 313.554  21
   0   2 -16 2331.82 350.086  21
   0   2 -15 1360.91 363.985  21
   0   2 -14 381.105 274.543  21
   0   2 -13 7993.85 684.956  21
   0   2 -12 5726.86 588.685  21
   0   2 -11 48151.7 1607.54  25
   0   2 -11 52787.7 1698.89  20
   0   2 -11 51212.8 1628.88   3
   0  -2  10 13763.9 823.972  26
   0   2 -10 13564.4 817.058  25
   0   2  -9 31046.7 1181.09  25
   0  -2   9 30300.1 1142.13  26
   0   2  -8 6494.33 534.444  25
   0  -2   8 6981.85 539.267  26
   0  -2   7 230.476 177.567  26
   0   2  -7 227.936 221.308  25
   0  -2   6 352707. 3189.02  26
   0   2  -6 344259. 3269.96  25
   0  -2   5 20653.8 754.566  26
   0   2  -5 19560.9 758.434  25
   0   2  -4 19740.8 727.554  25
   0   2  -3 91753.8 1502.82  25
   0   2  -2 3764.81 336.948  27
   0   2  -1 48223.9 1055.54  27
   0   2   0 518894. 3310.29  27
   0   2   1 357680. 2564.20  27
   0   2   2 649308. 3374.80  27
   0   2   3 27641.0 726.595  27
   0   2   4 90048.5 1406.40  27
   0   2   5 11353.7 557.323  27
   0   2   6 30545.6 973.468  27
   0   2   7 41182.5 1223.71  27
   0   2   8 10072.7 655.943  27
   0   2   9 1343.17 324.582  27
   0   2  10 1677.91 354.323  27
   0   2  10 1627.64 287.406  14
   0  -2 -10 1632.87 346.076   4
   0  -2 -10 1945.66 343.013  23
   0  -2 -11 2015.93 395.606   4
   0   2  11 2355.23 403.533  27
   0   2  11 2320.53 412.881  13
   0  -2 -11 2472.47 447.453  23
   0  -2 -12 2671.69 416.935   4
   0   2  12 3013.38 403.595  13
   0  -2 -12 2320.43 428.233  23
   0   2  13 18290.7 1006.51  13
   0  -2 -13 18959.1 1037.50  23
   0   2  14 567.540 246.645  13
   0  -2 -14 946.579 290.313  23
   0   2  15 7028.91 552.806  13
   0  -2 -15 7355.50 599.962   3
   0  -2 -16 5241.67 453.466   3
   0   2  16 4496.87 397.233  13
   0  -2 -17 1181.96 203.916   3
   0   3 -18 3551.37 275.414  21
   0   3 -17 6228.88 462.903  21
   0   3 -17 5515.62 380.141  22
   0   3 -16 3356.35 429.584  21
   0   3 -16 3838.61 399.164  22
   0   3 -15 13744.4 882.504  21
   0   3 -14 2911.38 474.665  21
   0   3 -13 1372.01 358.409  21
   0   3 -12 40148.0 1571.80  21
   0   3 -11 8012.68 836.596  25
   0   3 -11 7080.84 699.507  21
   0  -3  11 6161.35 730.574  26
   0  -3  10 4105.29 582.399  26
   0   3 -10 4154.02 594.115  25
   0   3 -10 4076.00 541.053  21
   0   3  -9-226.290 251.864  25
   0  -3   9 234.152 231.044  26
   0   3  -8 570.389 266.961  25
   0  -3   8 337.652 189.651  26
   0   3  -7 1008.32 284.550  25
   0  -3   7 643.596 258.338  26
   0   3  -6 25391.7 1077.42  25
   0  -3   6 25274.4 1044.69  26
   0   3  -5 135.430 242.372  25
   0   3  -4 4600.92 490.017  25
   0   3  -3 813.908 277.183  27
   0   3  -2 63049.3 1518.60  27
   0   3  -1 2889.70 369.244  27
   0   3   0 1351.81 277.757  27
   0   3   1 16838.5 750.608  27
   0   3   2 442.797 201.535  27
   0   3   3 916.424 243.389  27
   0   3   4 12994.5 682.674  27
   0   3   5 3338.65 382.238  27
   0   3   6 659.060 237.493  27
   0   3   7 27913.4 1160.66  27
   0  -3  -8 10696.9 729.416   4
   0   3   8 12062.3 809.065  27
   0   3   9-10.6241 173.568  14
   0  -3  -9 27.6983 277.843  23
   0  -3  -9 195.786 251.239   4
   0   3   9-112.510 219.559  27
   0  -3 -10 10963.5 827.428   4
   0  -3 -10 10572.6 802.769  23
   0   3  10 9795.02 723.621  14
   0   3  10 12683.5 964.575  27
   0  -3 -11 39290.6 1555.24  23
   0   3  11 38627.4 1411.97  14
   0  -3 -12 1933.94 386.679  23
   0   3  12 2242.24 417.353  13
   0  -3 -12 2905.47 490.788   4
   0   3  13 3656.56 495.102  13
   0  -3 -13 3236.18 492.983  23
   0  -3 -14 4523.31 491.818  23
   0   3  14 5104.41 503.091  13
   0  -3 -15 149.575 156.256   3
   0   3  15 58.3135 135.525  13
   0  -3 -16 968.861 192.808   3
   0   3  16 713.997 149.278  13
   0   4 -17 11041.2 397.308  22
   0   4 -16 397.659 186.304  21
   0   4 -16 443.481 171.988  22
   0   4 -15 1661.23 307.338  22
   0   4 -15 2116.30 372.634  21
   0   4 -14 17076.2 1000.24  21
   0   4 -14 17817.6 920.434  22
   0   4 -13-280.007 252.606  22
   0   4 -13 302.842 318.747  21
   0   4 -12 2.93048 260.678  22
   0   4 -12 906.060 385.674  21
   0   4 -11 2055.23 454.492  21
   0   4 -11 2121.80 423.742  22
   0   4 -10 5549.73 751.034  25
   0   4 -10 6867.54 633.955  22
   0   4 -10 6335.59 723.737  21
   0  -4  10 5698.14 699.654  26
   0   4  -9 1958.58 382.208  22
   0  -4   9 1826.42 418.794  26
   0   4  -9 2001.94 446.625  21
   0   4  -9 2240.71 430.609  25
   0   4  -8 53386.2 1789.80  21
   0  -4   8 48834.8 1785.04  26
   0   4  -8 51837.5 1607.98  22
   0   4  -8 53865.3 1941.91  25
   0  -4   7 334.450 300.481  26
   0   4  -7 131.319 323.812  25
   0   4  -6 559.788 330.204  25
   0   4  -5 110289. 2444.80  25
   0   4  -4 209691. 3285.50  25
   0   4  -3 24219.2 1140.29  27
   0   4  -2 4393.88 504.992  27
   0   4  -1 8698.11 663.638  27
   0   4   0 5292.18 529.092  27
   0   4   1 3476.34 440.275  27
   0   4   2 162330. 2744.24  27
   0   4   3 6204.45 556.404  27
   0   4   4 5944.78 588.927  27
   0   4   5 35328.0 1396.77  27
   0   4   6 289.094 226.383  27
   0  -4  -6 381.213 245.270   4
   0   4   7 1511.61 429.692  27
   0   4   7 1068.06 304.786  14
   0  -4  -7 1308.34 386.398   4
   0  -4  -7 1430.13 391.458  23
   0   4   8-264.645 187.405  14
   0  -4  -8-704.119 330.393  23
   0  -4  -8-57.8257 291.833   4
   0   4   8-967.202 254.443  27
   0  -4  -9 16808.6 1075.14   4
   0   4   9 14061.2 902.465  14
   0  -4  -9 14628.0 1016.86  23
   0  -4 -10 5673.98 660.655  23
   0   4  10 4961.35 564.405  14
   0  -4 -10 6391.36 700.714   4
   0  -4 -11-238.195 224.701  23
   0   4  11-34.0875 236.882  14
   0  -4 -11 125.468 213.441   4
   0  -4 -12 258.228 237.249  23
   0   4  12 272.093 203.902  13
   0  -4 -12 508.983 319.651   4
   0  -4 -13 881.442 274.292  23
   0   4  13 938.139 264.636  13
   0   4  14 1276.26 239.374  13
   0  -4 -15 2409.04 262.463   3
   0   5 -16 1536.58 161.364  22
   0  -5  16 1712.15 168.314   1
   0   5 -15 506.416 141.924  22
   0   5 -14 635.850 269.819  21
   0   5 -14 977.471 278.298  22
   0   5 -13 10298.2 779.853  21
   0   5 -13 10324.6 677.392  22
   0   5 -12 9832.51 836.608  21
   0   5 -12 10491.9 759.654  22
   0   5 -11 14894.3 1039.35  21
   0   5 -11 16629.9 980.815  22
   0   5 -10 28335.1 1427.03  21
   0   5 -10 27240.6 1258.15  22
   0   5  -9 7759.19 793.310  21
   0   5  -9 7219.98 701.877  22
   0   5  -8 5825.92 623.856  22
   0   5  -8 6895.42 742.194  21
   0  -5   7 14022.2 1012.62  26
   0   5  -7 16002.1 939.015  22
   0   5  -7 15047.2 1119.27  25
   0   5  -7 14746.1 1004.72  21
   0   5  -6 606.998 272.236  22
   0   5  -6 481.947 331.615  25
   0   5  -5 3461.19 465.499  22
   0   5  -5 3533.64 591.100  25
   0   5  -4 6744.79 575.892  22
   0   5  -4 5931.90 703.588  25
   0   5  -3 11682.5 879.805  25
   0  -5   3 11168.4 710.968   1
   0   5  -3 10628.5 700.955  22
   0  -5   2 4350.65 546.370   1
   0   5  -2 3785.56 577.834  27
   0   5  -2 3982.86 477.712  22
   0   5  -1 5931.29 560.552  22
   0   5  -1 5676.95 638.512  27
   0   5   0 8549.02 652.756  22
   0  -5   0 9681.14 695.384   1
   0   5   0 9690.99 780.856  27
   0   5   1 21584.2 1017.97  22
   0   5   1 23461.2 1177.82  27
   0   5   2 2450.25 427.044  22
   0   5   2 2112.91 450.991  27
   0   5   3 25872.5 1296.99  27
   0   5   3 24083.1 1150.16  22
   0   5   4 23034.1 1190.20  14
   0   5   4 24803.3 1300.85  27
   0  -5  -4 22753.5 1149.18   2
   0   5   4 21015.7 1128.53  22
   0   5   5 5571.10 627.563  14
   0   5   5 6855.15 790.758  27
   0  -5  -5 5266.20 640.770   2
   0   5   6 5228.59 635.144  14
   0  -5  -6 5256.59 657.973   2
   0  -5  -6 6337.74 722.598   4
   0  -5  -7 184.965 246.483   4
   0  -5  -7 132.668 309.277  23
   0   5   7 448.602 207.021  14
   0   5   8 972.924 274.670  14
   0  -5  -8 1228.40 344.952  23
   0  -5  -8 1336.83 452.327   4
   0   5   9 9786.49 707.593  14
   0  -5  -9 9327.10 771.877  23
   0  -5  -9 11474.1 868.582   4
   0  -5 -10 855.475 368.445   4
   0  -5 -10 942.837 259.784  23
   0   5  10 481.057 175.147  14
   0  -5 -11 5853.04 508.123  23
   0   5  11 5238.22 549.338  13
   0  -5 -11 6662.35 610.546   4
   0  -5 -12 1001.40 276.398   4
   0   5  12 983.587 248.495  13
   0   5  13 1332.92 202.080  13
   0  -6  14 21606.1 659.690   1
   0   6 -14 19977.8 596.416  22
   0   6 -13 3609.32 332.310  22
   0  -6  13 3526.41 367.166   1
   0  -6  12 8604.88 581.443   1
   0   6 -12 8527.72 555.218  22
   0   6 -11 2478.43 365.859  22
   0   6 -10 403.797 269.555  22
   0   6  -9-18.0447 283.840  22
   0   6  -8-62.2043 226.980  22
   0  -6   8 278.626 267.305   1
   0  -6   7 81.6162 261.758   1
   0   6  -7 300.402 275.489  22
   0   6  -6 7379.65 662.744  22
   0  -6   6 7189.29 683.203   1
   0   6  -5 14096.5 855.461  22
   0  -6   5 13804.8 885.806   1
   0  -6   4 35696.3 1359.61   1
   0   6  -4 37320.1 1335.13  22
   0  -6   3 8850.92 710.740   1
   0   6  -3 9430.26 717.280  22
   0   6  -2 12495.0 808.518  22
   0  -6   2 12446.6 832.987   1
   0  -6   1 50017.7 1608.45   1
   0   6  -1 49757.0 1567.33  22
   0   6   0 206.610 237.082  22
   0   6   1 627.155 343.473  22
   0  -6  -2 2080.97 390.317   2
   0   6   2 1810.95 440.020  22
   0   6   3 6821.39 672.659  14
   0   6   3 7976.91 734.458  22
   0  -6  -3 7235.08 725.066   2
   0  -6  -4 719.086 386.756   2
   0   6   4 711.233 297.382  14
   0  -6  -5 318.091 264.273   4
   0   6   5-218.389 145.052  14
   0  -6  -5-177.437 252.565   2
   0  -6  -6 611.223 341.069   4
   0  -6  -6-94.0684 241.527  23
   0   6   6 400.535 219.767  14
   0  -6  -7 1099.46 326.195  23
   0   6   7 816.584 253.062  14
   0  -6  -7 1010.87 342.039   4
   0   6   8 315.413 115.943  14
   0  -6  -8 450.295 197.015  23
   0  -6  -8 313.979 292.035   4
   0  -6  -9 5091.85 512.494   4
   0  -6  -9 4288.39 381.941  23
   0  -6 -10 850.224 254.211   4
   0   6  11 750.208 168.936  13
   0  -6 -11 681.529 184.998   4
   0  -7  12 115.416 135.903   1
   0   7 -12 203.926 90.8430  22
   0   7 -11-192.926 163.548  22
   0  -7  11 135.213 166.446   1
   0   7 -10 33215.3 966.624  22
   0  -7  10 31456.3 987.695   1
   0   7  -9 406.730 187.985  22
   0  -7   9 360.584 244.431   1
   0  -7   8 3533.02 418.554   1
   0   7  -8 3692.44 426.869  22
   0   7  -7 8892.90 616.856  22
   0  -7   7 9346.55 650.041   1
   0   7  -6 3031.39 424.434  22
   0  -7   6 2715.55 414.190   1
   0  -7   5 502.978 308.033   1
   0   7  -5 930.269 307.436  22
   0  -7   4 546.679 282.239   1
   0   7  -4 753.431 270.834  22
   0   7  -3 28474.0 1136.59  22
   0   7  -2 7065.92 639.784  22
   0   7  -1 7497.94 648.510  22
   0   7   0 518.574 300.078  22
   0  -7  -1 393.169 261.503   2
   0   7   1 130.542 283.617  22
   0   7   1 105.656 181.049  14
   0   7   2 25.1608 172.493  14
   0  -7  -2 94.8999 239.313   2
   0  -7  -3 19770.8 957.343   4
   0   7   3 18276.7 833.946  14
   0  -7  -4 1443.54 343.113   4
   0   7   4 1291.05 204.312  14
   0  -7  -4 1594.45 351.215   2
   0  -7  -5 1120.16 300.582   4
   0  -7  -5 646.706 238.742  23
   0  -7  -6 4502.80 389.881  23
   0  -7  -6 5888.06 500.628   4
   0  -7  -7 568.541 217.103   4
   0  -7  -8 1729.60 235.311   4
   0  -7  -9 2139.91 201.917   4
   0   8  -9 3536.23 237.218  22
   0   8  -8-42.8989 119.508  22
   0   8  -7 1139.79 194.973  22
   0   8  -6 1079.44 216.040  22
   0   8  -5 3843.83 352.843  22
   0   8  -4-286.005 219.179  22
   0  -8   3 14225.1 668.215   2
   0   8  -3 12707.2 638.590  22
   0  -8   2 5567.80 464.301   2
   0   8  -2 4982.66 440.365  22
   0   8  -2 3929.50 359.165  14
   0  -8   1 2225.79 340.658   2
   0   8  -1 1579.19 236.852  14
   0   8   0 10.8779 96.2570  14
   0  -8   0-58.7984 197.299   2
   0  -8  -1 10362.6 530.445   2
   0  -8  -1 8332.66 483.617   4
   0  -8  -2 4461.57 356.410   4
   0  -8  -3 489.567 160.742   4
   0  -8  -4-153.053 103.869   4
   0  -8  -5-72.8880 69.7682   4
   1  -9   1 1006.21 165.799   2
   1  -9   2 1391.04 195.451   2
   1  -9   3 5162.69 305.058   2
   1  -8  -6 30.9680 36.8226  23
   1  -8  -6 161.468 103.811   4
   1  -8  -5 891.803 194.792   4
   1  -8  -5 999.818 172.856  23
   1  -8  -4-43.5625 141.924   4
   1  -8  -4 51.5376 146.733  23
   1  -8  -3-97.9750 179.650   2
   1  -8  -3-217.283 151.751   4
   1  -8  -2 3498.76 367.048   4
   1  -8  -2 4794.29 474.794   2
   1  -8  -1 3957.22 390.989   4
   1  -8  -1 5936.70 531.647   2
   1  -8   0 748.777 312.886   2
  -1   8   0 487.077 265.949  22
   1  -8   1 5604.91 531.606   2
  -1   8  -1 4459.83 450.776  22
  -1   8  -3 4923.26 459.655  22
  -1   8  -4 711.242 256.283  22
   1  -8   5 2692.45 308.294  24
  -1   8  -5 3262.44 379.738  22
   1  -8   6 3080.49 335.021  24
  -1   8  -6 3959.80 382.901  22
  -1   8  -7-113.775 182.697  22
   1  -8   7 555.613 190.290  24
   1  -8   8 1416.23 213.348  24
  -1   8  -8 1385.97 233.136  22
  -1   8  -9 692.044 168.560  22
  -1   8 -10 546.308 136.670  22
   1  -7 -10 2054.05 233.880   4
   1  -7  -9 1083.44 228.863   4
   1  -7  -9 1170.33 197.607  23
   1  -7  -8 7890.48 549.577   4
   1  -7  -8 6977.13 495.846  23
   1  -7  -7 1602.27 334.908  23
   1  -7  -7 1813.12 343.064   4
   1  -7  -6 669.555 264.473   4
   1  -7  -6 997.964 296.725  23
   1  -7  -5 3333.93 510.332   2
   1  -7  -5 2804.57 453.341   4
   1  -7  -4 3836.79 500.812   4
   1  -7  -4 4224.96 557.036   2
   1  -7  -3 19334.2 1030.32   2
   1  -7  -3 18116.6 869.295  24
  -1   7   2 3285.92 458.754  22
   1  -7  -2 3358.70 559.319   2
   1  -7  -2 3028.92 431.252  24
  -1   7   1 14587.7 873.128  22
   1  -7  -1 16525.2 966.496   2
   1  -7  -1 14170.9 775.299  24
  -1   7   0 252.086 283.798  22
   1  -7   0 118.554 221.946  24
   1  -7   1 454.997 272.898  24
  -1   7  -1 1280.06 338.139  22
   1  -7   2 1551.45 337.628  24
  -1   7  -2 2023.05 375.489  22
   1  -7   3-563.484 279.551  24
  -1   7  -3-334.017 269.294  22
   1  -7   3-135.521 271.873   1
   1  -7   4 4002.13 512.071   1
  -1   7  -4 3556.90 457.847  22
  -1   7  -5 11602.7 751.180  22
   1  -7   5 11311.8 764.440   1
   1  -7   6 1973.43 404.978   1
  -1   7  -6 1480.89 375.764  22
  -1   7  -7 778.457 329.191  22
   1  -7   7 865.265 281.859   1
  -1   7  -8 4177.77 480.295  22
   1  -7   8 4552.56 497.966   1
  -1   7  -9 1475.61 315.794  22
   1  -7   9 678.232 271.594   1
  -1   7 -10 14248.6 719.662  22
   1  -7  10 12891.8 664.178   1
   1  -7  11 292.887 170.257   1
  -1   7 -11 436.738 213.145  22
   1  -7  12 17.4583 107.019   1
  -1   7 -12 33.4637 108.695  22
  -1   7 -13 861.683 128.086  22
   1  -6 -13 65.9516 70.8450   3
   1  -6 -12 7.89362 138.181  23
   1  -6 -11 385.052 215.493   4
  -1   6  11 357.475 179.640  13
   1  -6 -11 453.656 174.242  23
   1  -6 -10 4659.85 504.550   4
   1  -6 -10 4232.95 476.455  23
   1  -6  -9 9063.84 726.452  23
   1  -6  -9 9571.53 741.896   4
   1  -6  -8 2438.74 463.301  23
   1  -6  -8 2840.05 529.087   4
   1  -6  -7 6868.76 712.482  23
   1  -6  -7 8479.35 778.835   4
   1  -6  -6 2.53356 311.451   4
   1  -6  -6-364.476 341.039   2
   1  -6  -6-862.583 329.186  24
   1  -6  -5 58096.3 1883.93   4
   1  -6  -5 56375.5 1886.95   2
   1  -6  -5 58075.4 1715.74  24
   1  -6  -4 12657.3 944.224   2
  -1   6   4 11154.0 835.499  22
   1  -6  -4 10994.0 791.797  24
  -1   6   3 4133.92 559.158  22
   1  -6  -3 4540.18 623.195   2
   1  -6  -3 4853.54 531.495  24
  -1   6   2 160.354 221.716  22
   1  -6  -2 1178.67 288.267  24
  -1   6   1 2698.43 498.548  27
   1  -6  -1 1788.33 378.926  24
  -1   6   1 2077.53 444.053  22
  -1   6   0 1251.04 407.986  27
   1  -6   0 1151.90 298.714  24
  -1   6   0 941.953 337.279  22
  -1   6  -1 18211.5 941.574  22
   1  -6   1 19754.3 958.140  24
   1  -6   1 19402.8 1025.81   1
  -1   6  -1 19947.2 1229.23  27
  -1   6  -2 266.974 253.196  22
  -1   6  -2 320.666 263.542  27
   1  -6   2 502.369 354.428   1
  -1   6  -3 598.357 348.167  25
   1  -6   3 42.9924 258.643   1
  -1   6  -3 273.604 264.287  22
   1  -6   4 14031.4 875.221   1
  -1   6  -4 12493.8 786.331  22
  -1   6  -5 21981.8 1065.54  22
   1  -6   5 23449.3 1105.99   1
   1  -6   6 421.175 296.518   1
  -1   6  -6 495.023 312.285  22
  -1   6  -7 370.261 284.504  22
   1  -6   7 335.287 237.899   1
  -1   6  -8 47440.7 1601.60  22
  -1   6  -9 7799.40 690.310  22
  -1   6 -10 160.401 256.803  22
  -1   6 -11 421.897 291.987  22
  -1   6 -12 1455.01 331.812  22
   1  -6  13 154.945 146.785   1
  -1   6 -13 178.017 178.116  22
  -1   6 -14 4792.50 353.493  22
   1  -6  14 4132.10 307.421   1
  -1   6 -15 5327.99 273.671  22
   1  -5 -14 14306.5 546.133  23
   1  -5 -14 14028.8 638.725   3
  -1   5  13 90.4208 131.002  13
   1  -5 -13 100.960 130.668  23
   1  -5 -12 455.831 285.479   4
   1  -5 -12 1025.08 311.599  23
  -1   5  12 563.390 173.396  13
   1  -5 -11 4169.51 522.848  23
   1  -5 -11 5184.68 615.738   4
   1  -5 -10 5888.60 684.926  23
   1  -5 -10 7331.09 737.802   4
   1  -5  -9 132.109 283.495  23
   1  -5  -9 362.046 360.771   4
   1  -5  -8 987.191 430.284   4
   1  -5  -8 439.467 255.861  23
   1  -5  -7 17884.8 1099.64   4
   1  -5  -7 14560.1 959.922  24
   1  -5  -6 22229.4 1146.79  24
   1  -5  -6 22720.7 1209.74   2
   1  -5  -6 22679.2 1209.17   4
   1  -5  -5 19311.2 1044.93  24
   1  -5  -5 18673.1 1068.21   2
   1  -5  -4 1732.15 422.329   2
  -1   5   4 1250.25 345.680  22
   1  -5  -4 1812.43 340.748  24
  -1   5   4 2029.80 445.350  27
  -1   5   3 624.418 320.093  27
  -1   5   2 383.809 256.034  27
  -1   5   1 57572.8 1840.79  27
  -1   5   0-25.2720 208.145  27
  -1   5  -1 170.142 194.260  27
  -1   5  -2 34648.3 1438.87  27
  -1   5  -3 539.524 286.229  27
  -1   5  -4 24077.6 1211.51  25
  -1   5  -5 272.321 173.381  22
  -1   5  -5-92.0341 315.772  25
   1  -5   6 33449.1 1564.57  26
  -1   5  -6 31405.7 1362.60  21
  -1   5  -6 32939.4 1293.66  22
   1  -5   6 36436.5 1263.57  15
  -1   5  -6 37441.2 1595.81  25
  -1   5  -7 63659.7 2104.10  25
  -1   5  -7 57645.2 1873.69  21
   1  -5   7 57296.3 2108.77  26
  -1   5  -7 60366.9 1789.40  22
   1  -5   7 62260.7 1688.00  15
   1  -5   8 99735.2 2176.43  15
  -1   5  -8 97242.8 2488.84  21
   1  -5   8 94564.8 2718.25  26
  -1   5  -8 102174. 2415.34  22
  -1   5  -9 11.8889 248.087  22
  -1   5  -9-258.228 201.104  21
   1  -5   9-28.1702 212.250  15
  -1   5 -10 2192.56 495.625  22
  -1   5 -10 1577.46 430.077  21
  -1   5 -11 757.749 328.966  21
  -1   5 -11 560.417 383.711  22
  -1   5 -12 19667.6 1095.46  21
  -1   5 -12 21709.8 1115.43  22
  -1   5 -13 16015.3 927.381  21
  -1   5 -13 16080.3 894.338  22
  -1   5 -14 5740.44 510.066  22
  -1   5 -14 5101.82 501.717  21
  -1   5 -15 1311.69 258.514  22
  -1   5 -16 384.572 132.124  22
   1  -4 -16 3060.62 268.713   3
   1  -4 -15 6331.31 485.659   3
  -1   4  14 4509.05 394.009  13
   1  -4 -14 6210.51 544.304  23
   1  -4 -13 17525.3 968.157  23
  -1   4  13 14724.1 814.226  13
   1  -4 -12 1793.50 441.055  23
   1  -4 -12 2045.18 458.763   4
  -1   4  12 1772.42 355.935  13
   1  -4 -11 12847.5 954.706   4
   1  -4 -11 11329.2 879.869  23
   1  -4 -10 2683.91 524.667   4
   1  -4 -10 2687.48 483.630  23
  -1   4   9 3476.29 616.412  27
   1  -4  -9 3431.09 533.188   4
   1  -4  -9 3414.07 561.027  23
   1  -4  -8 3151.37 515.051  23
   1  -4  -8 2892.19 524.999  24
  -1   4   8 3685.60 549.748  27
   1  -4  -8 3639.14 538.663   4
   1  -4  -7 44939.4 1558.40  24
  -1   4   7 54087.7 1859.92  27
   1  -4  -7 51236.9 1667.93   4
   1  -4  -7 48423.2 1617.05   2
  -1   4   6 7819.46 709.879  27
  -1   4   5 29151.5 1236.16  27
  -1   4   4 19178.9 977.138  27
  -1   4   3 39519.5 1346.83  27
  -1   4   2 24758.7 1055.23  27
  -1   4   1 16536.7 858.569  27
  -1   4   0 1475.54 316.995  27
  -1   4  -1 56494.5 1584.11  27
  -1   4  -2 36376.8 1301.17  27
  -1   4  -3 7356.56 635.157  27
  -1   4  -4 5290.58 560.335  25
  -1   4  -5 2736.61 450.781  25
   1  -4   6 38898.2 1520.59  26
  -1   4  -6 42864.7 1520.98  25
  -1   4  -7 54.5155 158.332  25
   1  -4   7-25.1505 195.119  26
  -1   4  -8 10022.1 818.467  25
  -1   4  -8 10470.9 789.891  21
   1  -4   8 9951.06 848.341  26
   1  -4   9 10482.3 895.603  26
  -1   4  -9 9745.34 865.168  25
   1  -4   9 11674.0 812.554  15
  -1   4  -9 9787.26 787.086  21
   1  -4  10 5871.54 542.533  15
  -1   4 -10 6246.35 685.200  21
   1  -4  10 5665.39 744.561  26
  -1   4 -11 8454.15 765.950  21
   1  -4  11 9728.78 724.289  15
   1  -4  12 11737.9 755.205  15
  -1   4 -12 11051.1 875.531  21
  -1   4 -13 283.118 208.871  21
  -1   4 -14 3226.28 450.069  21
  -1   4 -15 389.619 213.233  21
  -1   4 -15 267.462 229.163  22
  -1   4 -16 5192.53 428.404  21
  -1   4 -16 5055.18 403.089  22
  -1   4 -17 2186.63 224.086  22
   1  -3 -17 4975.15 353.814   3
   1  -3 -16 413.952 122.522  21
   1  -3 -16 673.681 204.139   3
   1  -3 -15 6782.09 579.801  23
   1  -3 -15 6872.83 584.410   3
  -1   3  14 13000.1 732.806  13
   1  -3 -14 15357.3 928.388  23
  -1   3  13 325.912 221.830  13
   1  -3 -13-171.996 264.031  23
   1  -3 -12 13757.4 978.667  23
   1  -3 -12 13556.5 932.216   4
  -1   3  12 11816.7 802.770  13
   1  -3 -11 13810.3 974.573  23
   1  -3 -11 13278.4 895.733   4
  -1   3  11 12073.6 822.899  13
  -1   3  10 321.447 206.029  27
   1  -3 -10 392.042 272.164   4
   1  -3 -10 10.6630 189.196  23
  -1   3   9 8390.64 740.102  27
   1  -3  -9 8345.11 734.649  23
   1  -3  -9 8181.35 681.654   4
  -1   3   8 11059.1 776.885  27
  -1   3   7 88076.0 1989.93  27
  -1   3   6 12842.5 729.191  27
  -1   3   5 13920.6 709.098  27
  -1   3   4 28476.6 945.742  27
  -1   3   3 11649.5 594.057  27
  -1   3   2 9006.61 522.251  27
  -1   3   1 32161.9 967.622  27
  -1   3   0 18789.6 778.711  27
  -1   3  -1 133872. 2084.91  27
  -1   3  -2 235242. 2825.43  27
  -1   3  -3 25523.1 967.059  27
  -1   3  -4 80.0351 203.677  25
  -1   3  -5 48200.2 1307.38  25
   1  -3   5 52637.6 1442.17  26
   1  -3   6 232784. 3195.10  26
  -1   3  -6 218340. 2845.16  25
  -1   3  -7 29986.6 1110.39  25
   1  -3   7 32339.4 1217.94  26
   1  -3   8 10668.4 769.900  26
  -1   3  -8 10095.2 677.717  25
   1  -3   9 632.592 303.536  26
  -1   3  -9 620.494 200.459  25
   1  -3  10 16046.2 1025.94  26
  -1   3 -10 13370.6 860.915  21
  -1   3 -11 1167.14 351.601  21
   1  -3  11 611.354 214.732  26
   1  -3  11 1304.13 278.085  15
  -1   3 -12 48113.1 1665.39  21
   1  -3  12 58466.7 1618.61  15
  -1   3 -13 8129.01 732.780  21
   1  -3  13 9371.01 672.166  15
  -1   3 -14 879.103 324.449  21
   1  -3  14 1327.92 272.557  15
  -1   3 -15 31967.2 1242.23  21
   1  -3  15 33184.9 1040.63  15
  -1   3 -16 7993.88 577.667  21
  -1   3 -17 911.268 195.850  22
  -1   3 -17 1322.91 211.214  21
   1  -2 -17 515.804 170.964   3
   1  -2 -17 454.062 167.839  21
   1  -2 -16 430.176 228.697  21
   1  -2 -16 380.294 206.178   3
   1  -2 -15 7512.25 645.402  23
  -1   2  15 8044.34 562.384  13
   1  -2 -15 8415.35 679.662   3
  -1   2  14 3642.33 441.647  13
   1  -2 -14 4507.54 542.640   3
   1  -2 -14 4384.81 568.856  23
   1  -2 -13 59569.8 1851.66  23
  -1   2  13 55666.3 1600.03  13
   1  -2 -12 16474.1 986.357  23
  -1   2  12 15123.8 857.095  13
   1  -2 -11 7344.43 634.334   4
  -1   2  11 8130.24 729.845  27
  -1   2  11 7243.74 589.258  13
   1  -2 -11 7883.04 673.440  23
   1  -2 -10 33431.7 1233.25   4
   1  -2 -10 35365.3 1339.58  23
  -1   2   9 61725.9 1662.20  27
  -1   2   8 61554.7 1539.52  27
  -1   2   7 22875.8 884.841  27
  -1   2   6 1733.32 268.658  27
  -1   2   5 22833.3 758.923  27
  -1   2   4 27773.6 779.469  27
  -1   2   3 90265.5 1271.14  27
  -1   2   2 1183.97 181.274  27
  -1   2   1 718.545 162.851  27
  -1   2   0 75704.4 1210.79  27
  -1   2  -1 40474.5 944.441  27
   1  -2   2 5594.01 185.859  19
  -1   2  -2 6845.92 421.930  27
   1  -2   4 155052. 1320.08  18
   1  -2   4 156006. 1934.90  26
   1  -2   5 18466.8 485.040  18
   1  -2   5 17017.5 699.207  26
  -1   2  -5 17982.5 627.699  25
  -1   2  -6 24490.6 779.370  25
   1  -2   6 24445.9 880.927  26
  -1   2  -7 1227.68 230.696  25
   1  -2   7 1603.42 297.652  26
   1  -2   7 1913.52 204.553  18
   1  -2   8 477.441 173.430  26
  -1   2  -8 578.293 182.253  25
   1  -2   9 2928.21 413.456  26
  -1   2  -9 2546.48 353.067  25
   1  -2  10 33164.6 1302.23  26
  -1   2 -11 2942.81 404.930   3
  -1   2 -11 2473.52 381.087  21
   1  -2  11 3096.48 427.335  13
  -1   2 -12 4106.08 495.830  21
   1  -2  12 4339.33 535.679  13
   1  -2  13 28234.2 1098.35  15
  -1   2 -13 25581.8 1152.70  21
  -1   2 -14 1527.66 345.865  21
   1  -2  14 1688.23 289.045  15
  -1   2 -15 1913.51 385.171  21
   1  -2  15 1952.31 318.559  15
   1  -2  16 1102.79 223.237  15
  -1   2 -16 939.264 215.755  21
  -1   2 -17 146.851 120.319  21
  -1   2 -18 401.925 122.657  22
   1  -1 -18 6003.66 428.432  21
   1  -1 -17 233.701 170.590   3
   1  -1 -17 476.457 196.178  21
   1  -1 -16 6383.87 559.137   3
   1  -1 -16 6229.54 536.050  21
   1  -1 -15 1404.45 307.868   3
  -1   1  15 1058.42 267.518  13
   1  -1 -14 15539.9 961.118  23
  -1   1  14 15766.0 833.012  13
   1  -1 -14 15762.2 939.681   3
  -1   1  13 3142.44 384.720  13
   1  -1 -13 3518.74 502.739  23
   1  -1 -13 3743.60 497.681   3
   1  -1 -12 1056.32 276.794  23
  -1   1  12 1001.89 291.567  27
  -1   1  12 667.999 237.370  13
  -1   1  11 1192.87 295.736  27
   1  -1 -11 1057.39 276.734  23
  -1   1  11 1528.30 277.623  13
  -1   1  10 1985.55 343.064  27
  -1   1   9 35930.2 1158.46  27
  -1   1   8 81.6530 160.922  27
  -1   1   7 5680.07 418.694  27
  -1   1   6 29392.4 829.038  27
  -1   1   5 37530.3 846.151  27
  -1   1   4 50418.0 889.804  27
  -1   1   3 77314.2 952.838  27
  -1   1   2 50759.5 662.931  27
  -1   1   1 104123. 877.856  27
  -1   1   0 45382.1 604.550  27
  -1   1  -1 15241.3 372.440  27
   1  -1   1 15010.6 349.601  19
   1  -1   1 15094.3 342.861  18
  -1   1  -2 3223.49 165.305  25
   1  -1   2 3136.33 181.963  18
   1  -1   2 3208.66 220.859  26
  -1   1  -3 133.915 93.7364  25
   1  -1   3 111.491 122.679  26
   1  -1   3 169.717 85.4330  18
  -1   1  -4 410801. 2104.80  25
   1  -1   4 409126. 2182.21  18
  -1   1  -5 21220.8 547.353  25
   1  -1   5 21516.1 557.842  18
   1  -1   5 21597.7 704.922  26
   1  -1   6 286689. 2216.95  18
   1  -1   6 288179. 2709.59  26
  -1   1  -6 280907. 2190.37  25
  -1   1  -7 89415.4 1339.30  25
   1  -1   7 93078.3 1668.11  26
   1  -1   7 90950.9 1329.88  18
  -1   1  -8 49167.4 1059.51  25
   1  -1   8 51452.6 1067.49  18
   1  -1   9 68992.3 1314.11  18
  -1   1 -11 29.8469 127.026  21
   1  -1  11 663.560 254.881  27
   1  -1  11 459.271 203.615  13
  -1   1 -11 235.624 171.676   3
   1  -1  12 279.533 202.147  13
  -1   1 -12 350.768 192.953  21
   1  -1  13 35.0235 183.221  13
  -1   1 -13 226.016 142.198   3
  -1   1 -13 284.457 177.578  21
  -1   1 -14 1853.94 331.377   3
  -1   1 -14 1588.46 309.508  21
   1  -1  14 1793.47 354.291  13
  -1   1 -15 12233.8 761.780  21
  -1   1 -16 1516.49 292.796  21
   1  -1  16 1357.20 255.885  15
   1  -1  17 17811.2 621.709  15
  -1   1 -17 17943.4 731.855  21
   1   0 -18 1796.20 285.506  21
   1   0 -17 2294.80 338.490  21
   1   0 -16 8042.95 628.840   3
   1   0 -16 8721.45 634.142  21
   1   0 -15 612.094 264.229  21
   1   0 -15 638.652 253.852   3
  -1   0  14 2452.38 370.928  13
   1   0 -14 2160.69 403.619   3
   1   0 -13 2329.28 387.181   3
  -1   0  13 2022.77 316.419  13
  -1   0  12 15650.7 947.641  27
   1   0 -12 14428.1 882.515  23
  -1   0  12 16351.3 818.638  13
   1   0 -12 15207.5 886.418   3
  -1   0  11 126663. 2459.70  27
   1   0 -11 119403. 2369.50  23
   1   0 -11 126200. 2399.90   3
  -1   0  10 21865.0 980.010  27
   1   0  -9 23774.1 952.669  25
   1   0  -8 68555.5 1496.27  25
   1   0  -7 7817.81 495.012  25
   1   0  -6 138671. 1835.26  25
   1   0  -5 18706.2 633.761  25
  -1   0   5 17189.9 451.256  26
  -1   0   4 16431.9 383.976  26
   1   0  -4 17761.7 563.791  25
  -1   0   3 49330.5 522.400  26
   1   0  -3 50010.6 823.062  25
  -1   0   2 120.607 42.4470  26
   1   0  -2 184.593 105.789  25
   1   0  -1 18727.5 357.530  25
   1   0  -1 20008.0 336.295  18
   1   0   0 5209.66 144.538  25
   1   0   1 25195.1 241.350  27
   1   0   2 47409.0 486.621  27
   1   0   3 1103.66 160.239  18
   1   0   3 1039.12 113.583  27
   1   0   5 41518.3 938.189  18
   1   0   5 39156.1 782.409  27
   1   0   6 24850.8 694.816  27
   1   0   6 26965.7 820.469  18
   1   0   7 24719.7 761.020  27
   1   0   7 25055.4 862.779  18
   1   0   8 7996.38 529.160  18
   1   0   8 7958.12 479.921  27
   1   0   9 1850.44 263.057  27
   1   0   9 1668.89 284.699  18
   1   0  10 7924.77 577.376  18
   1   0  10 8093.41 558.420  27
   1   0  11 6642.06 582.930  13
   1   0  11 6588.71 561.039  27
  -1   0 -11 6791.75 600.436  23
  -1   0 -12 10050.7 695.075   3
   1   0  12 9262.86 704.492  13
  -1   0 -13 8924.42 667.589   3
   1   0  13 9391.23 713.078  13
  -1   0 -13 8489.35 623.896  21
  -1   0 -14 22256.3 1004.62   3
  -1   0 -14 22330.0 1006.42  21
   1   0  14 23928.9 1099.99  13
  -1   0 -15 767.177 235.707   3
  -1   0 -15 643.199 234.251  21
   1   0  15 609.564 259.799  13
   1   0  16 9401.30 615.263  13
  -1   0 -16 8295.77 575.592  21
   1   0  17 740.559 164.667  15
   1   1 -18 1655.54 277.612  21
   1   1 -17 2372.21 362.484  21
   1   1 -16 872.535 290.795  21
   1   1 -15 11736.7 775.988  21
   1   1 -14 286.820 218.945   3
   1   1 -14 236.146 215.591  21
   1   1 -13 7797.66 694.783   3
   1   1 -13 6295.40 621.429  20
   1   1 -13 7107.46 609.932  21
   1   1 -12 3659.87 459.055  21
   1   1 -12 3354.87 500.367  25
   1   1 -12 3895.63 464.922  20
   1   1 -12 4078.16 506.767   3
   1   1 -11 138.833 98.1982   3
   1   1 -11 102.768 166.155  25
   1   1 -10 88.2196 207.132  25
   1   1  -9 582.032 237.098  25
  -1  -1   8 4142.10 354.457  26
   1   1  -8 4460.78 440.327  25
   1   1  -7 78299.0 1603.27  25
  -1  -1   7 80750.4 1332.54  26
   1   1  -6 58153.0 1292.87  25
  -1  -1   6 61912.1 1086.97  26
   1   1  -5 48807.5 1105.79  25
  -1  -1   5 48314.6 872.755  26
   1   1  -4 11717.5 508.809  25
   1   1  -3 47569.3 677.580  19
   1   1  -3 45742.5 911.225  25
   1   1  -2 172904. 1642.42  25
   1   1  -2 173044. 1289.75  19
   1   1  -2 172772. 921.454  18
   1   1  -1 23194.2 449.805  18
   1   1  -1 22975.8 525.739  19
   1   1  -1 23658.9 573.704  27
   1   1   0 276202. 1916.11  27
   1   1   1 465696. 2370.42  27
   1   1   2 60382.8 812.854  27
   1   1   3 11989.5 393.013  27
   1   1   4 62770.3 987.632  27
   1   1   5 1070.05 173.224  27
   1   1   6 56293.1 1116.08  27
   1   1   7 216264. 2385.58  27
   1   1   8 146722. 2130.89  27
   1   1   8 151003. 2630.88  18
   1   1   9 130.939 172.986  27
   1   1   9 149.079 175.737  18
   1   1  10 346.162 233.695  14
   1   1  10 47.1876 186.864  18
  -1  -1 -10-95.7150 88.8977   4
   1   1  10 222.400 165.350  13
  -1  -1 -10 125.493 292.003  23
   1   1  11 18044.6 1032.06  18
   1   1  11 19023.1 1002.80  13
  -1  -1 -11 20098.0 977.750  23
  -1  -1 -12-82.1098 180.775  23
   1   1  12 222.656 222.668  13
   1   1  13 7528.85 657.872  13
  -1  -1 -14 519.192 239.544   3
   1   1  14 632.731 282.452  13
  -1  -1 -14 122.447 138.858  21
  -1  -1 -15 10404.6 645.014   3
   1   1  15 10871.3 695.824  13
   1   1  16 328.168 157.441  13
  -1  -1 -16 309.500 119.833   3
   1   1  17 9723.35 460.590  15
   1   2 -18 14829.4 638.650  21
   1   2 -17 36221.0 1176.26  21
   1   2 -16 4740.21 502.124  21
   1   2 -15 1671.59 351.580  21
   1   2 -14 36996.0 1446.78  21
   1   2 -13 2842.82 473.769  20
   1   2 -13 3806.35 515.319  21
   1   2 -12 1482.70 398.196  25
   1   2 -12 1257.05 309.907  20
   1   2 -12 1578.20 362.655  21
   1   2 -11 30294.3 1437.92  25
   1   2 -11 30362.9 1241.86  21
   1   2 -10 15.1751 203.598  25
  -1  -2  10 31.2904 40.6059  26
  -1  -2   9 22225.2 939.966  26
   1   2  -9 22595.0 1123.65  25
   1   2  -8 161033. 2783.58  25
  -1  -2   8 151621. 2321.33  26
   1   2  -7 9727.38 681.179  25
  -1  -2   7 8739.29 536.386  26
   1   2  -6 332.493 227.574  25
  -1  -2   6 97.3247 179.302  26
   1   2  -5 179.857 256.031  25
   1   2  -5 50.0342 85.8184  19
   1   2  -4 137693. 1213.73  19
   1   2  -4 138235. 2101.31  25
   1   2  -3 16294.7 239.137  18
   1   2  -3 27969.3 931.241  25
   1   2  -2 125042. 1830.95  27
   1   2  -2 121090. 1131.36  18
   1   2  -2 120496. 1846.23  25
   1   2  -1 68046.9 1307.34  27
   1   2   0 31165.5 882.254  27
   1   2   1 497.943 185.031  27
   1   2   2 14936.0 591.513  27
   1   2   3 31298.0 837.849  27
   1   2   4 24787.4 769.614  27
   1   2   5 125800. 1816.81  27
   1   2   6 106.643 158.929  27
   1   2   7 2273.07 325.174  27
   1   2   8 225.064 166.693  27
   1   2   9 11239.9 740.741  14
   1   2   9 10321.2 865.239  18
  -1  -2  -9 11217.5 719.863   4
  -1  -2 -10 11044.2 769.169   4
  -1  -2 -10 12053.9 801.374  23
   1   2  10 8941.62 849.341  18
   1   2  10 10325.1 759.384  14
  -1  -2 -11 10183.8 732.344  23
  -1  -2 -11 9986.47 745.426   4
   1   2  11 10776.0 785.223  14
   1   2  11 10476.5 828.239  13
   1   2  12-58.7887 207.324  13
  -1  -2 -12 28.3507 134.540  23
   1   2  13 2998.04 456.699  13
   1   2  14 6793.33 597.966  13
  -1  -2 -14 6391.85 542.649   3
  -1  -2 -15 19998.8 820.279   3
   1   2  15 21957.7 917.020  13
   1   2  16 4837.81 375.580  13
   1   3 -18 159.125 103.845  21
   1   3 -17 7559.18 512.215  21
   1   3 -16 1249.73 226.365  22
   1   3 -16 1384.09 299.449  21
   1   3 -15-36.4558 192.940  21
   1   3 -14 5056.99 594.570  21
   1   3 -14 4666.31 519.513  22
   1   3 -13 4924.55 638.997  21
   1   3 -12 5451.73 659.877  21
   1   3 -11 7233.15 754.639  25
   1   3 -11 7024.55 702.097  21
   1   3 -11 5930.44 636.564  20
   1   3 -10 7177.35 798.876  25
   1   3 -10 9042.28 753.080  21
   1   3 -10 7384.10 654.626  20
   1   3  -9 753.200 329.150  21
   1   3  -9 264.122 205.119  20
   1   3  -9 163.329 283.860  25
  -1  -3   9 706.414 246.198  26
  -1  -3   8 29640.4 1187.80  26
   1   3  -8 33649.0 1477.72  25
   1   3  -7 1368.47 352.181  25
  -1  -3   7 917.012 280.782  26
   1   3  -6 4422.54 557.588  25
   1   3  -5 20258.3 1009.09  25
   1   3  -4 83703.6 1948.87  25
   1   3  -3 10058.3 707.892  25
   1   3  -2 230.757 204.288  27
   1   3  -1 66220.7 1554.54  27
   1   3   0 5978.75 495.864  27
   1   3   1 262883. 3006.98  27
   1   3   2 152821. 2307.66  27
   1   3   3 86487.8 1775.11  27
   1   3   4 323.176 194.861  27
   1   3   5 16653.2 841.612  27
   1   3   6 18689.3 923.317  27
  -1  -3  -7 11591.7 802.781   4
   1   3   7 11175.5 810.089  14
   1   3   8 2299.44 418.041  14
  -1  -3  -8 2291.43 439.212   4
  -1  -3  -9 50180.1 1705.54   4
   1   3   9 48013.8 1658.84  14
  -1  -3 -10 767.838 346.287   4
   1   3  10 430.944 324.025  14
  -1  -3 -11 6693.92 658.148   4
   1   3  11 6041.25 664.384  13
   1   3  11 6000.63 619.289  14
  -1  -3 -12 192.696 244.574   4
   1   3  12-63.9911 209.900  13
   1   3  13 5920.17 567.224  13
   1   3  14 5703.67 489.373  13
  -1  -3 -14 4693.56 407.358   3
  -1  -3 -15 1505.47 224.380   3
   1   3  15 1606.45 245.114  13
   1   4 -16 11609.0 433.922  22
   1   4 -16 11801.7 629.927  21
   1   4 -15 8732.39 632.016  21
   1   4 -15 7936.72 474.797  22
   1   4 -14 26433.9 963.408  22
   1   4 -14 29123.5 1267.03  21
   1   4 -13 1116.92 423.036  21
   1   4 -13 914.204 308.969  22
   1   4 -12 893.186 305.586  22
   1   4 -12 787.046 371.756  21
   1   4 -11 1983.30 473.753  21
   1   4 -11 2596.16 449.017  22
   1   4 -10 50915.7 1880.66  21
   1   4 -10 49887.7 1594.99  22
   1   4  -9 59823.5 1998.40  21
   1   4  -9 59021.7 2266.31  25
   1   4  -9 57418.1 1665.64  22
   1   4  -8 46755.6 1497.96  22
   1   4  -8 45380.6 1924.40  25
   1   4  -8 46745.6 1698.03  21
  -1  -4   7 599.802 282.910  26
   1   4  -7 353.935 352.572  25
   1   4  -7 379.215 237.390  22
   1   4  -7 439.379 243.902  21
   1   4  -6 11476.9 941.906  25
   1   4  -5 658.285 381.573  25
   1   4  -4 22022.3 1153.27  25
   1   4  -3 311.566 290.677  25
   1   4  -2 26335.3 1198.02  25
   1   4  -2 25090.0 1142.17  27
   1   4  -1 18286.5 961.441  27
   1   4   0 434.186 254.916  27
   1   4   1 2279.25 378.427  27
   1   4   2 21303.6 1046.11  27
   1   4   3 35096.5 1339.56  27
   1   4   4 14941.7 940.815  22
   1   4   4 16346.8 1027.80  14
   1   4   4 17230.0 957.824  27
  -1  -4  -5 39474.8 1441.45   2
   1   4   5 38072.5 1569.69  14
   1   4   6 1860.58 412.213  14
  -1  -4  -6 1123.28 341.363   4
  -1  -4  -7 972.068 400.201   4
   1   4   7 656.912 330.747  14
  -1  -4  -8 6709.52 694.131   4
   1   4   8 5227.57 651.491  14
   1   4   9 7292.32 679.277  14
  -1  -4  -9 8129.62 754.845   4
  -1  -4 -10 2369.11 469.388   4
   1   4  10 2154.77 394.200  14
  -1  -4 -11 1216.48 343.383   4
   1   4  11 675.681 228.393  14
   1   4  11 683.429 306.673  13
  -1  -4 -12 4101.26 448.799   4
   1   4  12 4344.37 500.641  13
   1   4  13 1283.46 263.653  13
   1   4  14 237.485 110.208  13
  -1  -5  16-57.1310 92.8557   1
   1   5 -15 733.865 118.462  22
   1   5 -14 1941.00 252.381  22
   1   5 -14 1109.61 210.350  16
   1   5 -13 19.4380 144.883  22
   1   5 -12 263.881 170.763  22
   1   5 -12 273.339 215.664  21
   1   5 -11 2949.88 424.873  22
   1   5 -11 2977.79 491.040  21
   1   5 -10 53857.9 1546.79  22
   1   5 -10 57115.9 1927.86  21
   1   5  -9 875.963 315.193  22
   1   5  -8 37.3098 271.307  22
   1   5  -7 20872.3 1001.22  22
   1   5  -6 4491.57 523.378  22
   1   5  -5 12200.9 1001.15  25
   1   5  -5 10525.5 725.203  22
  -1  -5   4 4720.81 560.779   1
   1   5  -4 5350.83 736.911  25
   1   5  -4 4504.52 498.343  22
   1   5  -3 8028.23 822.536  25
  -1  -5   3 8242.37 636.017   1
   1   5  -3 7827.12 633.946  22
   1   5  -2 9176.60 815.486  25
  -1  -5   2 6541.86 636.538   1
   1   5  -2 7976.49 652.030  22
  -1  -5   1 7258.26 660.427   1
   1   5  -1 7892.30 740.894  25
   1   5  -1 6700.39 635.808  22
   1   5   0 6866.45 737.591  25
   1   5   0 6052.74 653.703  27
   1   5   0 6292.85 615.949  22
   1   5   1 18533.3 1079.13  27
   1   5   1 18131.0 1003.18  22
   1   5   2 912.915 326.469  27
   1   5   2 1608.32 435.945  22
   1   5   3 183581. 3442.90  14
   1   5   3 186114. 3313.13  22
  -1  -5  -4 11895.4 825.982   2
   1   5   4 15734.0 1041.15  14
   1   5   5 263.472 293.629  14
  -1  -5  -5 184.303 135.354   2
  -1  -5  -6 459.437 302.998   4
   1   5   6 81.9726 254.957  14
  -1  -5  -7 8903.68 788.115   4
   1   5   7 9329.02 764.423  14
  -1  -5  -8 2926.38 489.114   4
   1   5   8 2189.79 414.413  14
   1   5   9 5700.77 527.558  14
  -1  -5  -9 6178.43 613.784   4
  -1  -5 -10-170.531 225.522   4
   1   5  10-17.0791 203.451  14
  -1  -5 -11 584.744 219.820   4
   1   5  11 589.545 206.830  13
   1   5  12-228.291 132.624  13
  -1  -6  14-126.069 114.615   1
  -1  -6  13-16.4728 153.328   1
   1   6 -13-285.908 96.2292  22
   1   6 -12 13902.1 572.580  22
  -1  -6  12 16651.8 725.398   1
  -1  -6  11 557.310 256.081   1
   1   6 -11 341.003 168.031  22
  -1  -6  10 4502.59 500.150   1
   1   6 -10 3725.14 399.727  22
  -1  -6   9 887.685 335.981   1
   1   6  -9 802.534 255.890  22
  -1  -6   8 7291.52 639.279   1
   1   6  -8 7546.33 603.837  22
  -1  -6   7 2123.43 412.765   1
   1   6  -7 2616.33 383.896  22
  -1  -6   6 7841.34 658.357   1
   1   6  -6 8964.54 672.034  22
  -1  -6   5-337.682 269.439   1
   1   6  -5-58.8673 243.134  22
   1   6  -4 2699.88 426.901  22
  -1  -6   4 2171.65 435.759   1
  -1  -6   3 863.867 341.621   1
   1   6  -3 841.405 327.917  22
   1   6  -2 1542.95 396.334  22
   1   6  -1 4601.32 565.086  22
   1   6   0-28.0650 297.052  22
  -1  -6  -1 17508.4 919.621   2
   1   6   1 19805.8 1044.89  22
   1   6   2 647.423 345.175  22
   1   6   2 1065.17 333.158  14
  -1  -6  -2 1571.03 359.068   2
   1   6   3 1495.41 334.734  14
  -1  -6  -3 1354.08 358.972   2
  -1  -6  -4 566.156 266.204   2
   1   6   4 1214.61 339.216  14
   1   6   5 8694.69 655.884  14
  -1  -6  -5 10839.3 785.310   4
  -1  -6  -6 1337.47 303.347   4
   1   6   6 1002.67 287.222  14
   1   6   7 10632.5 619.019  14
  -1  -6  -7 11313.6 709.405   4
   1   6   8 1190.25 223.798  14
  -1  -6  -8 1541.86 294.929   4
  -1  -6  -9 2427.44 299.340   4
   1   6  10 945.629 171.012  13
  -1  -6 -10 911.708 156.192   4
  -1  -7  11 1154.92 179.629   1
   1   7 -11 1253.40 163.113  17
   1   7 -10 90.6858 94.7531  17
  -1  -7  10-1.81060 143.907   1
   1   7 -10 165.587 102.372  22
  -1  -7   9 3333.49 347.039   1
   1   7  -9 2874.28 282.892  22
   1   7  -9 3437.08 315.835  17
   1   7  -8 7444.94 491.812  17
  -1  -7   8 6632.25 480.146   1
   1   7  -8 7233.54 460.851  22
  -1  -7   7 2925.60 366.012   1
   1   7  -7 3350.59 363.099  17
   1   7  -7 3170.90 360.037  22
   1   7  -6 1985.46 310.544  17
   1   7  -6 1869.40 315.034  22
   1   7  -5 2387.24 360.160  22
   1   7  -5 2120.02 317.046  17
   1   7  -4 3212.83 414.212  22
   1   7  -3 11841.9 695.166  22
   1   7  -2 241.493 241.900  22
  -1  -7   1 4033.97 443.600   2
   1   7  -1 3701.04 452.642  22
  -1  -7   0 2361.97 358.225   2
   1   7   0 2471.80 391.635  14
   1   7   1 139.034 201.598  14
  -1  -7  -1 313.477 194.194   2
   1   7   2 655.027 208.980  14
  -1  -7  -2 814.268 243.754   2
  -1  -7  -3 16138.0 762.038   4
   1   7   3 15157.3 682.085  14
   1   7   4 7197.99 430.803  14
  -1  -7  -4 8214.88 527.052   4
   1   7   5 14185.6 527.549  14
  -1  -7  -5 16788.5 677.278   4
  -1  -7  -6 724.776 171.747   4
  -1  -7  -7 952.416 152.589   4
   1   8  -5 1923.31 211.729  14
   1   8  -4 1579.62 200.487  14
   1   8  -3 1915.35 213.110  14
   1   8  -2-284.850 117.507  14
  -1  -8   1-19.9791 98.8212   4
  -1  -8   0 257.198 104.851   4
  -1  -8  -1 1940.41 205.110   4
   2  -9  -2 63.7362 78.5495  23
   2  -9   0-91.9943 139.497   2
   2  -9   1 1219.40 222.144   2
   2  -9   2 1295.56 240.205   2
   2  -9   3 8561.85 440.290   2
   2  -9   4 259.037 136.692   2
   2  -9   5 1830.30 212.552   2
   2  -8  -8 6309.57 337.404  23
   2  -8  -7 237.958 137.859  23
   2  -8  -7 513.410 131.067   4
   2  -8  -6 1720.61 290.505  23
   2  -8  -6 1185.47 181.805   4
   2  -8  -5 7751.15 554.032  23
   2  -8  -5 6058.67 423.441   4
   2  -8  -4 736.779 217.961  24
   2  -8  -4 285.304 138.709   4
   2  -8  -3 310.036 180.012   4
   2  -8  -3 589.671 306.116   2
   2  -8  -3 509.426 208.243  24
   2  -8  -2 2135.83 346.970  24
   2  -8  -2 1737.91 247.598   4
   2  -8  -2 2035.15 406.292   2
   2  -8  -1 8329.55 667.836   2
  -2   8   1 7049.59 522.452  22
   2  -8  -1 8758.97 589.298  24
   2  -8   0 8419.45 661.134   2
  -2   8   0 7332.92 553.445  22
   2  -8   0 8956.53 611.853  24
   2  -8   1 26550.4 1058.51   2
   2  -8   1 27063.4 1001.68  24
  -2   8  -2-280.231 268.558  22
   2  -8   2-260.261 304.338  24
   2  -8   3 272.586 256.345  24
  -2   8  -3 19.9790 214.849  22
   2  -8   4 13411.4 730.052  24
  -2   8  -4 13319.5 696.777  22
   2  -8   5 46520.0 1267.14  24
  -2   8  -5 43695.2 1189.15  22
  -2   8  -6 1588.66 278.616  22
   2  -8   6 1759.31 318.483  24
   2  -8   7 9463.13 571.460  24
  -2   8  -7 8945.52 534.738  22
   2  -8   8 12599.1 602.587  24
  -2   8  -8 11756.0 561.667  22
  -2   8  -9 1432.16 216.666  22
   2  -8   9 1235.35 225.962  24
   2  -8  10-212.151 155.225  24
  -2   8 -10 529.685 135.312  22
   2  -7 -11 2696.77 254.300  23
   2  -7 -10 1000.97 226.094   4
   2  -7 -10 1605.36 241.879  23
   2  -7  -9 580.554 177.190   4
   2  -7  -9 530.240 236.163  23
   2  -7  -8 1190.16 303.800   4
   2  -7  -8 1061.03 317.669  23
   2  -7  -7 513.037 237.942   4
   2  -7  -7 163.957 284.589  23
   2  -7  -6 1558.38 359.237   4
   2  -7  -6 1269.11 361.504  24
   2  -7  -5 865.939 322.981  24
   2  -7  -5 926.608 318.948   4
   2  -7  -5 266.789 344.451   2
   2  -7  -4 1190.26 325.139  24
   2  -7  -4 966.200 350.986   4
   2  -7  -4 1402.37 453.751   2
   2  -7  -3-230.887 263.354   4
   2  -7  -3 146.484 228.634  24
   2  -7  -3 798.745 414.029   2
  -2   7   3 417.609 259.408  22
   2  -7  -2-236.179 389.561   2
   2  -7  -2 54.4673 253.699  24
  -2   7   2-607.943 301.674  22
  -2   7   1 34041.7 1281.28  22
   2  -7  -1 38308.6 1390.73  24
   2  -7   0 9900.19 754.089  24
  -2   7   0 9256.68 699.773  22
   2  -7   1 211.070 291.590  24
  -2   7  -1-186.228 279.209  22
   2  -7   2 2246.99 435.475  24
  -2   7  -2 2460.62 419.716  22
   2  -7   3 1774.86 403.910   1
  -2   7  -3 1902.96 391.359  22
  -2   7  -4 1725.36 362.278  22
   2  -7   4 1247.15 356.678   1
   2  -7   5 5913.07 592.705   1
  -2   7  -5 5755.38 561.610  22
  -2   7  -6 420.446 217.020  22
   2  -7   6 536.807 242.038   1
  -2   7  -7 2557.01 426.152  22
   2  -7   7 2681.77 438.864   1
   2  -7   8 1336.54 286.732   1
  -2   7  -8 1257.74 302.968  22
  -2   7  -9 7864.16 582.343  22
   2  -7   9 6047.99 499.417   1
   2  -7  10 3538.72 350.292   1
  -2   7 -10 4993.72 470.751  22
  -2   7 -11 1686.35 286.177  22
   2  -7  11 1343.10 203.413   1
   2  -7  12 19069.6 561.499   1
  -2   7 -12 22206.3 706.088  22
  -2   7 -13 4262.09 262.745  22
   2  -6 -13 1318.23 209.625  23
   2  -6 -13 1639.22 213.474   3
   2  -6 -12 759.083 233.306  23
   2  -6 -11 3592.00 454.527  23
   2  -6 -11 2715.94 407.978   4
   2  -6 -10 2379.52 457.982  23
   2  -6 -10 1840.64 348.290   4
   2  -6  -9 3006.14 468.151   4
   2  -6  -9 2196.44 486.505  23
   2  -6  -8 23128.1 1155.82  24
   2  -6  -8 20883.1 1262.28  23
   2  -6  -8 22841.6 1164.98   4
   2  -6  -7 622.028 298.342   4
   2  -6  -7-133.839 378.664  24
   2  -6  -6 30813.6 1392.27   4
   2  -6  -6 30557.2 1445.55   2
   2  -6  -6 34433.2 1461.02  24
   2  -6  -5 9049.42 810.362   4
   2  -6  -5 10952.1 923.350   2
   2  -6  -5 11316.0 863.101  24
   2  -6  -4 807.705 319.751   4
  -2   6   4 735.573 302.819  22
   2  -6  -4 692.552 271.371  24
   2  -6  -4 1599.03 463.094   2
   2  -6  -3 16025.6 1023.38   2
   2  -6  -3 16654.5 995.648  24
  -2   6   3 15275.6 898.321  22
  -2   6   3 16300.6 1138.01  27
  -2   6   2 18713.7 1205.91  27
   2  -6  -2 18255.4 1017.17  24
  -2   6   2 17301.3 945.451  22
  -2   6   1 26636.6 1418.69  27
   2  -6  -1 27510.8 1214.64  24
  -2   6   1 25971.5 1107.59  22
  -2   6   0 5988.84 561.415  22
  -2   6   0 6834.71 746.381  27
   2  -6   0 6718.79 572.523   5
   2  -6   0 7234.25 673.888  24
   2  -6   1 6096.25 549.478   5
  -2   6  -1 7691.57 756.985  27
   2  -6   1 6936.75 693.542   1
  -2   6  -1 6575.87 589.190  22
  -2   6  -2 3251.73 529.326  27
   2  -6   2 3743.41 519.058   1
   2  -6   2 2981.80 438.294   5
  -2   6  -2 3308.17 460.758  22
   2  -6   3 11161.9 718.289   5
  -2   6  -3 13638.8 996.524  25
   2  -6   3 12695.6 827.743   1
  -2   6  -3 12833.2 759.392  22
   2  -6   4 70.4064 257.429   1
   2  -6   4 531.835 152.173   5
  -2   6  -4-504.120 342.630  25
  -2   6  -4 517.601 228.278  22
   2  -6   4-329.092 217.961  15
   2  -6   5 57444.9 1698.71  15
  -2   6  -5 58544.1 1680.24  22
   2  -6   5 54481.6 1524.12   5
   2  -6   5 58377.3 1693.89   1
   2  -6   6 6522.51 633.090   1
   2  -6   6 7275.35 678.171  15
  -2   6  -6 6898.57 673.157  22
  -2   6  -7 40298.9 1467.39  22
   2  -6   7 38337.6 1380.15   1
   2  -6   7 37966.5 1451.20  15
  -2   6  -8 6724.41 668.246  22
   2  -6   8 6258.76 627.060  15
   2  -6   8 6223.20 580.685   1
   2  -6   9 2569.16 416.210  15
  -2   6  -9 3143.73 489.866  22
   2  -6   9 2791.61 405.329   1
   2  -6  10 2906.80 432.928  15
   2  -6  10 3670.43 451.956   1
  -2   6 -10 4095.22 547.050  22
  -2   6 -11 3632.93 484.411  22
   2  -6  11 3226.11 411.744  15
   2  -6  11 3509.10 400.289   1
  -2   6 -12 635.315 290.612  22
   2  -6  12 465.818 189.337   1
   2  -6  12 618.922 207.958  15
   2  -6  13 1986.52 239.732   1
  -2   6 -13 2311.73 325.914  22
  -2   6 -14 5221.39 367.554  22
   2  -5 -15 97.2316 80.2834   3
   2  -5 -14 2014.86 303.848  23
   2  -5 -14 2147.04 282.464   3
   2  -5 -13-69.2158 222.567  23
   2  -5 -12 6343.43 650.782  23
   2  -5 -11 12745.8 960.196  23
   2  -5 -11 13615.7 911.424   4
   2  -5 -10 3199.26 574.591  23
   2  -5 -10 4166.12 567.909   4
   2  -5  -9 3001.88 592.036  23
   2  -5  -9 3174.33 535.303   4
   2  -5  -8 1933.52 435.747   4
   2  -5  -8 773.101 406.986  24
   2  -5  -8 1099.80 427.022  23
   2  -5  -7 35028.1 1452.44   4
   2  -5  -7 31631.8 1422.09  24
   2  -5  -6-313.216 277.268   4
   2  -5  -6 844.413 303.094  24
   2  -5  -6 145.923 325.528   2
  -2   5   6-41.2882 271.558  27
   2  -5  -5 8121.16 718.862   4
   2  -5  -5 6928.41 630.232  24
  -2   5   5 8811.34 809.377  27
   2  -5  -5 8232.34 787.227   2
  -2   5   4 6978.34 715.565  27
   2  -5  -4 6491.84 626.536   2
  -2   5   3 13103.9 913.892  27
  -2   5   2 2372.73 404.417  27
  -2   5   1 22962.9 1133.63  27
  -2   5   0 2604.33 450.592  27
  -2   5  -1 9122.37 740.417  27
  -2   5  -2 101683. 2430.37  27
  -2   5  -3 15730.4 956.159  27
  -2   5  -4 7043.45 681.532  25
   2  -5   5 2543.34 531.106  26
   2  -5   5 3916.77 497.692  15
  -2   5  -5 3623.42 540.017  25
   2  -5   6 23317.7 1357.51  26
  -2   5  -6 25740.3 1239.11  25
   2  -5   6 23965.8 1124.21  15
  -2   5  -6 24297.0 1119.05  22
  -2   5  -7 660.623 279.466  21
   2  -5   7 568.574 248.679  15
   2  -5   7 498.206 326.710  26
  -2   5  -7 780.112 358.757  22
  -2   5  -8-52.1293 296.612  22
   2  -5   8-554.700 325.413  26
   2  -5   8 58.9568 260.831  15
  -2   5  -8 257.068 198.592  21
   2  -5   9 264.543 324.035  15
  -2   5  -9 279.432 355.066  22
  -2   5  -9 274.129 221.553  21
  -2   5 -10 522.515 276.031  21
   2  -5  10 559.083 241.662  15
  -2   5 -10 522.521 318.164  22
  -2   5 -11 515.564 277.351  21
   2  -5  11 373.689 238.729  15
  -2   5 -11 233.120 278.773  22
   2  -5  12 18311.8 964.823  15
  -2   5 -12 20361.3 1046.90  21
  -2   5 -12 21327.0 1086.74  22
  -2   5 -13 4498.64 504.733  22
   2  -5  13 4075.81 430.298  15
   2  -5  14 103.917 121.569  15
  -2   5 -14 212.069 226.937  22
  -2   5 -15 23826.1 788.539  22
  -2   5 -16 10074.5 403.674  22
   2  -4 -16 1233.81 207.122   3
   2  -4 -15 827.737 232.837   3
   2  -4 -15 985.229 276.846  23
   2  -4 -14 1444.65 340.202  23
   2  -4 -13 36059.8 1463.62  23
   2  -4 -12 5632.33 671.063  23
   2  -4 -12 6151.79 666.974   4
   2  -4 -11 511.744 298.052   4
   2  -4 -11 34.1316 313.726  23
   2  -4 -10 796.227 338.782   4
   2  -4 -10 857.244 348.003  23
   2  -4  -9 16556.2 995.943   4
   2  -4  -9 17378.9 1144.10  23
  -2   4   9 17997.1 1154.37  27
   2  -4  -8 1745.24 358.351  24
   2  -4  -8 2155.16 457.349   4
  -2   4   8 1885.73 420.696  27
   2  -4  -8 2201.87 461.773  23
  -2   4   7 32380.5 1387.72  27
  -2   4   6 1273.73 343.629  27
  -2   4   5 4860.72 524.698  27
  -2   4   4 1655.70 310.252  27
  -2   4   3 32118.3 1157.36  27
  -2   4   2 4594.10 474.502  27
  -2   4   1 11133.1 693.064  27
  -2   4   0 169847. 2678.60  27
  -2   4  -1 27690.5 1107.03  27
  -2   4  -2 111.442 182.186  27
  -2   4  -3 160.160 184.683  27
  -2   4  -4 4519.17 473.499  25
   2  -4   5 1486.75 408.264  26
  -2   4  -5 1138.49 333.922  25
   2  -4   6 28701.2 1330.27  26
  -2   4  -6 23294.5 1067.32  25
   2  -4   7 32642.5 1445.08  26
   2  -4   8 158.830 187.629  15
  -2   4  -8 338.500 237.818  21
   2  -4   8-49.4336 276.097  26
  -2   4  -9 3705.10 517.250  21
   2  -4   9 3920.28 469.907  15
   2  -4   9 4213.15 651.081  26
   2  -4  10 31366.0 1300.03  15
  -2   4 -10 26150.5 1243.40  21
   2  -4  11 4224.55 544.584  15
  -2   4 -11 3661.26 528.498  21
   2  -4  12 71.6763 167.434  15
  -2   4 -12 535.730 174.944  21
   2  -4  13 4933.47 519.806  15
  -2   4 -13 4606.16 524.646  21
  -2   4 -14 4229.57 452.043  21
   2  -4  14 4092.31 412.204  15
   2  -4  15 818.081 203.043  15
  -2   4 -15 710.180 206.762  21
  -2   4 -16 11294.8 553.350  22
   2  -3 -17 784.926 177.992   3
   2  -3 -17 827.524 204.153  21
   2  -3 -16 654.919 229.746   3
   2  -3 -15 8596.64 668.325   3
   2  -3 -15 10205.8 739.926  23
   2  -3 -14 9306.74 756.010  23
   2  -3 -14 8929.07 729.044   3
   2  -3 -13 16197.3 1015.62  23
   2  -3 -12-133.910 280.101  23
   2  -3 -11 409.093 297.373   4
   2  -3 -11 653.045 299.423  23
   2  -3 -10 6.23302 214.191   4
   2  -3 -10 205.471 326.255  23
  -2   3  10-5.87030 225.534  27
  -2   3   9 85591.1 2168.87  27
   2  -3  -9 82218.7 2093.62  23
  -2   3   8 6467.86 607.775  27
  -2   3   7 3597.13 447.810  27
  -2   3   6 112006. 2064.03  27
  -2   3   5 57849.0 1381.18  27
  -2   3   4 68519.5 1411.94  27
  -2   3   3 2054.85 277.535  27
  -2   3   2 38361.3 1008.25  27
  -2   3   1 23279.9 812.883  27
  -2   3   0 8454.52 534.509  27
   2  -3   1 59577.1 985.775  19
  -2   3  -1 65022.5 1446.89  27
   2  -3   2 50496.0 827.345  19
  -2   3  -2 47793.3 1249.38  27
  -2   3  -3 3796.05 388.629  27
  -2   3  -4 110394. 1752.04  25
   2  -3   4 130736. 2179.23  26
  -2   3  -5 13030.8 615.772  25
   2  -3   5 14606.7 791.532  26
   2  -3   6 4803.96 505.737  26
  -2   3  -6 3570.22 348.152  25
   2  -3   7 24827.3 1127.97  26
   2  -3   8 32184.1 1325.06  26
   2  -3   9 28218.4 1126.81  15
   2  -3   9 28539.6 1306.81  26
   2  -3  10 685.324 298.789  15
  -2   3 -10 988.392 300.563  21
   2  -3  10 518.528 354.138  26
   2  -3  11 1915.73 334.101  15
  -2   3 -11 1598.06 344.919  21
   2  -3  12 3821.89 485.741  15
  -2   3 -12 3136.84 456.789  21
  -2   3 -13 2286.65 401.771  21
   2  -3  13 3044.91 434.261  15
   2  -3  14 10017.7 657.796  15
  -2   3 -14 8834.41 661.341  21
  -2   3 -15 4016.63 440.484  21
   2  -3  15 3972.33 401.237  15
   2  -3  16 6119.39 404.858  15
  -2   3 -17 10935.7 490.493  22
   2  -2 -18 51.4893 92.4678  21
   2  -2 -17 3729.88 394.207   3
   2  -2 -17 3647.70 373.010  21
   2  -2 -16 289.625 187.418   3
   2  -2 -15 6063.55 610.067  23
   2  -2 -15 6175.10 588.054   3
   2  -2 -14 5075.48 583.212  23
   2  -2 -14 5231.08 584.349   3
   2  -2 -13 67438.2 1953.61   3
   2  -2 -13 70654.1 1991.23  23
   2  -2 -12 9533.21 768.577  23
   2  -2 -11 29245.5 1257.71  23
  -2   2  11 30596.9 1332.44  27
   2  -2 -10-241.423 223.035   4
  -2   2  10 5.78348 128.755  27
   2  -2 -10-279.390 136.496  23
  -2   2   9 6382.58 540.470  27
  -2   2   8 30474.7 1065.20  27
  -2   2   7 43481.7 1178.75  27
  -2   2   6 178.476 140.956  27
  -2   2   5 3237.61 304.672  27
  -2   2   4 1032.56 182.854  27
  -2   2   3 10568.1 451.412  27
  -2   2   2 11188.5 433.408  27
  -2   2   1 145252. 1522.03  27
  -2   2   0 268216. 2274.65  27
   2  -2   1 165870. 1653.19  19
  -2   2  -1 162214. 1779.45  27
   2  -2   2 37406.9 843.456  26
  -2   2  -2 36288.3 816.577  27
   2  -2   2 35672.1 804.030  19
   2  -2   2 36578.3 784.977  18
   2  -2   3 26356.3 685.247  18
  -2   2  -3 26936.0 590.453  25
   2  -2   3 25554.4 756.025  26
  -2   2  -4 1047.85 161.666  25
   2  -2   4 913.298 202.927  26
   2  -2   4 1081.46 184.026  18
   2  -2   5 924.849 186.423  18
  -2   2  -5 866.435 166.244  25
   2  -2   5 1039.64 247.904  26
   2  -2   6 3538.03 305.528  18
   2  -2   6 3412.25 379.997  26
   2  -2   7 477.990 157.143  18
   2  -2   7 534.497 240.167  26
   2  -2   8 24340.2 1043.29  26
   2  -2   8 26309.6 873.871  18
   2  -2   9 93.7095 199.980  26
   2  -2  10 42019.5 1405.88  13
  -2   2 -11 3120.27 450.466  21
   2  -2  11 3061.98 444.702  13
   2  -2  12 2671.42 458.515  13
  -2   2 -12 2496.53 417.554  21
  -2   2 -13 40175.7 1425.21  21
   2  -2  13 45738.9 1566.48  13
   2  -2  14-63.4422 175.143  15
  -2   2 -14 134.786 210.234  21
   2  -2  15 2086.71 326.894  15
   2  -2  16 2512.16 289.310  15
   2  -2  17-102.506 45.3471  15
   2  -1 -18 1251.61 234.786  21
   2  -1 -17 2269.14 339.381  21
   2  -1 -16 12003.6 763.165   3
   2  -1 -16 13036.5 760.267  21
   2  -1 -15 70720.1 1906.80   3
   2  -1 -14 4294.31 543.744  23
   2  -1 -14 4206.40 530.589   3
   2  -1 -13 128.278 197.665   3
   2  -1 -13 156.081 240.637  23
  -2   1  12 73835.6 1989.83  27
   2  -1 -12 78617.5 2000.18   3
   2  -1 -12 78009.7 2008.30  23
   2  -1 -11 17927.0 865.803  20
   2  -1 -11 15048.2 872.913  23
  -2   1  11 14872.8 862.646  27
   2  -1 -11 16417.4 900.842   3
  -2   1  10 6475.47 548.827  27
  -2   1   9 8625.01 591.358  27
  -2   1   8 311.195 178.872  27
  -2   1   7 45786.7 1134.78  27
  -2   1   6 100270. 1534.15  27
   2  -1  -6 102485. 1695.62  25
   2  -1  -5 133837. 1772.19  25
  -2   1   5 140673. 1645.87  27
   2  -1  -4 264.288 158.685  25
  -2   1   4 368.013 127.382  27
  -2   1   3 156108. 1400.65  27
   2  -1  -3 162209. 1611.95  25
   2  -1  -2 992465. 1675.85  26
  -2   1   2 999999. 2945.07  27
  -2   1   1 189313. 1175.70  27
   2  -1  -1 195217. 990.414  26
   2  -1   0 31915.8 528.556  26
  -2   1   0 29186.8 459.212  27
   2  -1   1 4364.58 323.332  19
   2  -1   1 3911.67 236.932  26
   2  -1   2 43981.7 823.003  26
   2  -1   2 45380.5 858.027  18
   2  -1   3 16103.7 553.736  26
   2  -1   3 16847.5 554.978  18
   2  -1   4 85172.9 1378.51  26
   2  -1   4 85555.7 1297.20  18
   2  -1   5 5208.55 359.855  18
   2  -1   5 5510.81 415.104  26
   2  -1   6 4672.65 412.310  26
   2  -1   6 4776.34 362.080  18
   2  -1   7 12074.8 588.713  18
   2  -1   8 62619.0 1418.03  18
   2  -1   9 5565.87 465.354  18
   2  -1  10 16694.4 813.410  18
   2  -1  10 15899.9 853.723  13
   2  -1  11 127467. 2480.75  13
   2  -1  12 10817.7 774.533  13
   2  -1  13 804.095 314.233  13
   2  -1  14 219.365 162.447  13
   2  -1  15 642.503 215.411  15
   2  -1  15 77.6128 194.512  13
   2  -1  16-53.9776 164.287  15
   2  -1  17 12334.6 509.341  15
   2   0 -18 801.521 205.334  21
   2   0 -17 21245.9 892.855  21
   2   0 -16 731.967 258.168  21
   2   0 -15-135.059 218.523   3
   2   0 -15 219.357 226.934  21
   2   0 -14 6824.74 660.877  20
   2   0 -14 6907.19 655.868   3
   2   0 -14 8084.97 644.854  21
   2   0 -13 16895.6 954.459  20
   2   0 -13 18003.1 997.727   3
   2   0 -12 14222.5 837.361  20
   2   0 -12 15202.3 937.227  23
  -2   0  12 14751.7 942.096  27
   2   0 -12 15221.0 907.432   3
   2   0 -11 38906.2 1289.97  20
   2   0 -11 40631.9 1409.11   3
  -2   0  11 37969.7 1407.40  27
   2   0 -11 39897.5 1407.51  23
   2   0 -11 37048.0 1423.82  25
   2   0 -10 6098.83 583.852  25
   2   0  -9 5223.27 510.531  25
   2   0  -8 3904.40 429.644  25
   2   0  -7 45900.9 1260.05  25
   2   0  -6 4969.75 432.281  25
   2   0  -5 1246.50 240.284  25
   2   0  -4 66893.2 1186.87  25
   2   0  -3 102075. 1318.14  25
   2   0  -2 23023.2 633.913  19
   2   0  -2 23041.7 543.442  18
   2   0  -2 21922.3 555.916  25
   2   0  -1 10801.5 349.833  25
   2   0  -1 11085.1 458.912  19
   2   0  -1 11759.2 408.935  18
   2   0   0 3867.40 299.063  19
   2   0   0 4299.47 270.274  18
   2   0   0 3582.85 178.957  25
   2   0   1 62279.7 1005.79  18
   2   0   1 64767.9 1240.30  19
   2   0   2 229204. 2088.91  18
   2   0   3 2459.55 270.734  18
   2   0   3 2338.72 127.163  27
   2   0   4 85559.4 900.218  27
   2   0   4 87394.2 1520.31  18
   2   0   5 22333.9 821.140  18
   2   0   5 18748.8 489.082  27
   2   0   6 1550.21 283.531  18
   2   0   6 1175.28 153.591  27
   2   0   7 51925.1 1398.37  18
   2   0   8 907.261 237.307  18
   2   0   9 18991.5 888.214  14
   2   0   9 18330.8 912.761  18
   2   0   9 19694.7 940.184  13
   2   0  10 24210.2 1084.19  13
   2   0  10 21417.6 1017.30  18
   2   0  11 28340.3 1201.34  18
   2   0  11 26105.2 1169.94  13
   2   0  12 17682.4 986.003  13
   2   0  13 11304.6 778.913  13
   2   0  14 214.640 230.249  13
   2   0  15 11569.5 710.860  13
   2   0  16 5811.88 429.146  15
   2   0  17 8187.64 398.758  15
   2   1 -18 3575.26 351.730  21
   2   1 -17 4.32963 170.866  21
   2   1 -16 13192.0 773.622  21
   2   1 -15 533.139 244.321  20
   2   1 -15 571.187 257.025  21
   2   1 -14 5606.61 603.766  20
   2   1 -14 6566.56 608.985  21
   2   1 -13 28289.7 1268.69  20
   2   1 -13 32075.8 1275.51  21
   2   1 -12 33529.8 1336.64  20
   2   1 -12 35378.8 1554.68  25
   2   1 -12 35934.2 1441.01   3
   2   1 -12 37137.8 1355.96  21
   2   1 -11 79217.7 1960.17  20
   2   1 -11 84742.6 2128.34   3
   2   1 -11 84293.2 2311.55  25
   2   1 -11 85986.6 1975.12  21
   2   1 -10 27726.8 1286.71  25
   2   1  -9 8009.38 670.416  25
   2   1  -8 60323.2 1653.96  25
   2   1  -7 11690.9 710.664  25
  -2  -1   6 10247.9 416.503  26
   2   1  -6 10602.9 652.208  25
   2   1  -5 233.269 231.774  25
   2   1  -5 268.541 138.345  19
  -2  -1   5 249.635 114.939  26
   2   1  -4 41082.0 873.533  19
   2   1  -4 41507.8 1074.37  25
   2   1  -3 69783.1 1155.42  19
   2   1  -3 70483.2 1296.34  25
   2   1  -3 67017.6 865.527  18
   2   1  -2 112425. 1540.30  25
   2   1  -2 109706. 1480.86  19
   2   1  -2 110012. 1234.45  18
   2   1  -1 1607.30 245.434  19
   2   1  -1 1805.88 226.545  25
   2   1  -1 1744.34 195.581  18
   2   1   0 168607. 2070.45  19
   2   1   0 168923. 1808.73  18
   2   1   0 172547. 1696.69  25
   2   1   1 28765.6 837.180  18
   2   1   1 27902.3 635.800  27
   2   1   1 28079.1 673.780  25
   2   1   2 54847.3 1254.94  18
   2   1   2 53172.5 897.191  27
   2   1   3 4200.31 403.093  18
   2   1   3 3988.56 257.503  27
   2   1   4 84015.8 1773.52  18
   2   1   4 84406.4 1179.17  27
   2   1   5 24478.6 1038.23  18
   2   1   6 901.430 264.991  18
   2   1   7 16923.7 957.863  18
   2   1   8 642.552 256.409  18
   2   1   9 9295.13 779.217  18
   2   1   9 8362.12 652.159  14
   2   1   9 9637.17 716.248  13
   2   1  10 5265.56 566.914  14
   2   1  10 5288.53 645.494  18
   2   1  10 6562.96 618.187  13
   2   1  11 39617.9 1516.98  13
   2   1  12 64.0304 227.800  13
   2   1  13 6572.45 610.353  13
   2   1  14 14523.4 833.583  13
   2   1  15 3114.21 378.941  13
   2   1  16 1931.19 255.615  13
   2   2 -18 91.9468 100.120  21
   2   2 -17 13400.8 695.736  21
   2   2 -16 1096.45 277.518  21
   2   2 -15 4997.68 546.557  21
   2   2 -14 10447.5 789.625  21
   2   2 -14 8993.88 737.937  20
   2   2 -13 2689.99 470.434  21
   2   2 -13 2221.44 415.678  20
   2   2 -12 17485.6 1029.20  20
   2   2 -12 19874.3 1092.67  21
   2   2 -11 20456.5 1298.34  25
   2   2 -11 18671.3 1047.19  20
   2   2 -11 21480.3 1110.70  21
   2   2 -10 5013.74 538.222  20
   2   2 -10 4380.82 522.427  21
   2   2 -10 4979.93 650.694  25
   2   2  -9 7567.31 750.031  25
   2   2  -8 21875.7 1155.88  25
   2   2  -7 8602.08 732.216  25
  -2  -2   6 5437.79 439.465  26
   2   2  -6 5848.87 590.927  25
   2   2  -5 886.314 194.243  19
   2   2  -5 867.277 313.055  25
   2   2  -4 65347.1 1629.02  25
   2   2  -4 63641.8 1192.68  19
   2   2  -3 1222.58 224.552  19
   2   2  -3 1416.86 324.295  25
   2   2  -2 16024.7 522.147  18
   2   2  -2 16424.3 777.786  25
   2   2  -1 17117.7 624.457  18
   2   2  -1 15726.4 728.645  25
   2   2   0 22127.7 796.573  18
   2   2   0 23965.0 802.972  27
   2   2   0 22497.5 839.961  25
   2   2   1 28103.0 860.044  27
   2   2   1 26166.0 926.207  18
   2   2   2 21158.8 898.842  18
   2   2   2 22322.2 774.579  27
   2   2   3 11030.5 707.606  18
   2   2   3 10774.5 531.715  27
   2   2   4 3655.45 453.883  18
   2   2   5 54950.1 1747.00  18
   2   2   6 19977.4 1112.59  18
   2   2   7 4234.08 503.711  14
   2   2   7 3125.52 498.623  18
   2   2   8 18075.3 1019.09  14
  -2  -2  -8 19903.4 990.996   4
   2   2   9 51183.0 1710.86  14
  -2  -2  -9 51234.6 1593.02   4
   2   2  10 233.360 249.579  14
  -2  -2 -10 319.661 162.314   4
   2   2  10-240.594 275.271  13
  -2  -2 -11 841.740 253.461   4
   2   2  11 286.169 258.315  13
   2   2  11 404.139 247.259  14
   2   2  12 162.326 286.048  13
   2   2  13 1313.91 316.875  13
   2   2  14 1924.18 322.466  13
   2   2  15 6237.74 436.222  13
   2   3 -17 4858.85 359.809  21
   2   3 -16 6221.10 503.038  21
   2   3 -15 3010.74 445.235  21
   2   3 -14 170.648 238.565  21
   2   3 -13 3297.95 528.916  21
   2   3 -12 4291.02 606.987  21
   2   3 -11 2142.35 459.140  20
   2   3 -11 2130.33 438.866  21
   2   3 -10 108287. 2531.04  20
   2   3 -10 104653. 2547.22  21
   2   3  -9 5286.43 609.284  20
   2   3  -9 5492.39 728.416  25
   2   3  -9 5591.12 631.565  21
   2   3  -8 5163.48 590.580  20
   2   3  -8 6004.07 786.485  25
   2   3  -8 5331.28 603.314  21
   2   3  -7 9312.66 864.540  25
   2   3  -6 66520.0 2045.59  25
   2   3  -5 9246.10 753.463  25
   2   3  -4 3578.37 502.415  25
   2   3  -3-100.901 274.006  25
   2   3  -2 2914.25 469.481  25
   2   3  -1 1054.48 317.628  25
   2   3   0 54617.6 1343.10  18
   2   3   0 54745.5 1485.45  27
   2   3   1 5166.06 470.224  27
   2   3   1 5413.09 451.346  18
   2   3   2 3395.95 382.869  18
   2   3   3 35761.8 1373.48  18
   2   3   4 1604.48 303.428  18
   2   3   4 661.515 324.228  14
   2   3   5 481.600 215.521  18
   2   3   5-52.5885 191.838  14
   2   3   6 1505.77 345.127  18
   2   3   6 762.088 321.309  14
  -2  -3  -6 956.529 295.186   4
  -2  -3  -7 28347.2 1280.38   4
   2   3   7 27657.4 1451.40  18
   2   3   7 28322.1 1372.74  14
  -2  -3  -8 1002.55 269.159   4
   2   3   8 620.897 289.741  14
  -2  -3  -9 2292.61 432.572   4
   2   3   9 2196.53 457.578  14
   2   3  10 3206.03 481.730  14
  -2  -3 -10 3141.61 474.000   4
   2   3  11 3125.56 492.048  14
   2   3  11 3972.28 552.468  13
  -2  -3 -11 3422.21 444.446   4
   2   3  12 56.6484 204.137  13
   2   3  13 13577.6 726.712  13
   2   3  14 5493.00 379.938  13
   2   4 -16 1320.74 193.351  16
   2   4 -15 9127.64 575.928  21
   2   4 -14 2474.00 386.144  21
   2   4 -13 2164.05 389.900  21
   2   4 -12 15989.9 754.302  22
   2   4 -12 16347.8 1001.96  21
   2   4 -11 937.393 292.141  22
   2   4 -11 187.978 225.302  21
   2   4 -10 22827.5 973.383  22
   2   4 -10 23739.6 1223.40  21
   2   4  -9 1296.82 279.290  22
   2   4  -9 831.283 307.016  21
   2   4  -8 165.046 217.019  22
   2   4  -8 6.42888 231.312  21
   2   4  -7 977.002 415.129  25
   2   4  -7 626.406 205.482  22
   2   4  -7 245.237 205.457  21
   2   4  -6 27620.8 1118.69  16
   2   4  -6 26813.4 1072.92  22
   2   4  -6 29449.1 1538.50  25
   2   4  -5-106.696 318.155  25
   2   4  -5 447.146 206.073  16
   2   4  -5 229.682 233.783  22
   2   4  -4 3507.70 566.443  25
   2   4  -4 3263.42 433.791  22
   2   4  -3 18164.3 1077.36  25
   2   4  -3 16039.7 877.750  22
   2   4  -2 15822.4 994.353  25
   2   4  -2 15433.9 857.523  22
   2   4  -1 36664.7 1398.68  17
   2   4  -1 36170.2 1422.75  25
   2   4  -1 34707.1 1284.00  22
   2   4   0 1776.09 454.590  25
   2   4   0 2328.10 378.898  17
   2   4   0 1872.57 352.255  22
   2   4   1 5259.02 545.855  17
   2   4   1 2849.31 489.956  22
   2   4   2 71156.5 1996.85  22
   2   4   3 2467.12 513.008  14
   2   4   3 3168.01 418.952  18
   2   4   4 3097.32 499.637  18
   2   4   4 2749.30 526.871  14
   2   4   5 1576.98 379.472  18
   2   4   5 1002.33 351.867  14
  -2  -4  -6-122.330 215.123   4
   2   4   6-128.553 276.272  14
   2   4   7 17529.2 1094.88  14
  -2  -4  -7 16286.6 1014.59   4
  -2  -4  -8 2016.45 446.005   4
   2   4   8 2261.23 444.130  14
   2   4   9 14191.5 886.574  14
  -2  -4  -9 10633.1 751.941   4
   2   4  10 6810.87 586.917  14
   2   4  10 5953.27 589.753  13
  -2  -4 -10 6035.01 543.161   4
   2   4  11 11279.9 707.592  13
   2   4  12 6814.45 467.600  13
   2   4  13 357.803 95.9834  13
  -2  -5  15 1848.54 198.523   1
  -2  -5  14 1204.75 231.465   1
   2   5 -14 1059.35 173.427  16
   2   5 -13 2883.00 291.918  16
   2   5 -12-193.977 202.034  16
   2   5 -12-56.9888 108.749  22
   2   5 -11-40.6251 103.153  16
   2   5 -11 60.0542 84.9017  22
   2   5 -10 3874.75 404.170  16
   2   5 -10 3572.44 402.939  22
   2   5  -9 4946.06 479.385  16
   2   5  -9 5331.63 478.620  22
   2   5  -8 22006.5 933.351  22
   2   5  -7 837.696 305.538  22
  -2  -5   7 909.447 345.759   1
  -2  -5   6 9718.40 706.352   1
   2   5  -6 9479.61 672.491  22
  -2  -5   5 1709.05 381.792   1
   2   5  -5 1738.02 366.175  22
   2   5  -4 22046.8 1009.45  22
  -2  -5   4 19082.8 935.423   1
  -2  -5   3 22767.4 1012.85   1
   2   5  -3 26759.2 1127.75  22
  -2  -5   2 370.916 279.737   1
   2   5  -2-118.229 123.223  17
   2   5  -2-201.298 260.355  22
   2   5  -1 1608.59 374.965  17
   2   5  -1 1902.37 394.854  22
   2   5   0 933.766 329.341  17
   2   5   0 1113.00 318.765  22
   2   5   1 718.996 314.235  22
   2   5   2 1429.10 366.187  14
   2   5   3 2165.29 510.249  14
   2   5   4 1529.80 383.404  14
  -2  -5  -5 663.479 338.911   4
   2   5   5 755.044 316.215  14
  -2  -5  -6 571.903 264.818   4
   2   5   6 185.608 252.597  14
  -2  -5  -7 6642.75 588.966   4
   2   5   7 7559.97 636.202  14
  -2  -5  -8 359.969 202.076   4
   2   5   8 418.244 203.642  14
   2   5   9 5700.20 447.769  14
   2   5   9 5566.71 478.137  13
  -2  -5  -9 4688.06 406.361   4
   2   5  10 2746.13 300.385  13
   2   5  11 889.806 137.846  13
   2   6 -13 412.544 91.0420  17
  -2  -6  12 18140.0 570.871   1
   2   6 -12 16144.6 612.099  17
  -2  -6  11 684.945 162.930   1
  -2  -6  10 3133.41 333.011   1
   2   6 -10 2862.43 272.450  22
  -2  -6   9 2321.74 336.924   1
   2   6  -9 2612.26 278.995  22
  -2  -6   8 266.630 194.428   1
   2   6  -8 155.617 165.609  22
  -2  -6   7 1896.46 334.872   1
   2   6  -7 1404.49 266.066  22
  -2  -6   6 3524.62 406.639   1
   2   6  -6 3765.97 445.077  17
   2   6  -6 3799.54 389.812  22
   2   6  -5 6545.71 596.385  17
   2   6  -5 7289.37 572.058  22
   2   6  -4 16889.0 879.370  17
   2   6  -4 18927.3 895.080  22
   2   6  -3 5680.42 532.005  17
   2   6  -3 5859.74 573.725  22
   2   6  -2 3462.61 429.272  17
   2   6  -2 4739.84 527.850  22
   2   6  -1-223.740 262.437  22
   2   6   1 24492.0 1129.57  14
   2   6   2 9298.90 719.462  14
   2   6   3 1679.16 355.217  14
  -2  -6  -4 19636.5 880.588   4
   2   6   4 20527.7 915.596  14
  -2  -6  -5 4549.43 427.066   4
   2   6   5 4922.07 430.231  14
  -2  -6  -6 376.658 193.242   4
   2   6   6 686.096 202.035  14
  -2  -6  -7 8086.39 433.083   4
   2   6   7 7690.61 416.758  14
   2   6   8 4336.74 291.029  13
   2   7  -8 4190.04 298.547  17
   2   7  -7 994.546 155.610  22
   2   7  -7 595.676 131.412  17
   2   7  -6 1494.76 208.298  17
   2   7  -6 1247.36 187.482  22
   2   7  -5 3968.08 299.094  17
   2   7  -5 4082.87 327.118  22
   2   7  -4 3317.51 332.317  22
   2   7  -3 1069.46 240.848  14
   2   7  -2 265.579 185.468  14
   2   7  -1 13027.1 651.513  14
   2   7   0 2395.76 309.604  14
   2   7   1 1029.00 206.920  14
  -2  -7  -1 797.653 202.539   4
  -2  -7  -2-26.1220 121.447   4
   2   7   2 15.2261 89.6888  14
  -2  -7  -3 1788.98 211.613   4
   2   7   3 2026.14 206.292  14
  -2  -7  -4 151.774 101.077   4
   3  -9  -4 5163.20 329.785  23
   3  -9  -3 413.224 133.944  23
   3  -9  -2 30.4655 111.541  24
   3  -9  -1 2531.97 265.136  24
   3  -9   0-263.792 189.479  24
   3  -9   1 2988.30 308.359   2
   3  -9   1 2968.98 305.404  24
   3  -9   2-145.543 181.155  24
   3  -9   2 112.049 180.680   2
   3  -9   3 257.593 158.494  24
   3  -9   3 66.4184 143.649   2
   3  -9   4 13320.8 493.084   2
   3  -9   4 13946.5 540.841  24
   3  -9   5 4309.77 310.214  24
   3  -9   6 75.7431 108.023  24
   3  -8  -9 612.730 132.291  23
   3  -8  -8 186.174 149.830  23
   3  -8  -7 2880.91 353.043  23
   3  -8  -6 7183.87 559.442  23
   3  -8  -6 6898.48 483.830  24
   3  -8  -5 6485.34 549.163  23
   3  -8  -5 7083.09 543.365  24
   3  -8  -4 297.989 256.118  24
   3  -8  -3 4071.50 500.341   2
   3  -8  -3 4373.78 489.014  24
   3  -8  -2-75.2372 253.521  24
   3  -8  -2 43.0526 230.602   2
   3  -8  -1-21.1596 271.409  24
   3  -8  -1 8.75057 243.912   2
   3  -8   0 201.335 280.220   2
   3  -8   0 404.110 258.649  24
   3  -8   1 1789.34 356.163  24
  -3   8  -1 2026.15 312.136  22
   3  -8   2-164.831 299.425  24
  -3   8  -2 125.349 190.853  22
   3  -8   3 5523.84 556.313  24
  -3   8  -3 3837.24 377.543  22
   3  -8   4 9753.26 667.952  24
  -3   8  -4 7859.07 495.348  22
  -3   8  -5 3827.40 365.997  22
   3  -8   5 3998.59 461.940  24
  -3   8  -6 2328.57 294.800  22
   3  -8   6 2813.22 382.465  24
   3  -8   7 495.531 224.959  24
  -3   8  -7 531.328 197.457  22
   3  -8   8 8575.08 509.445  24
  -3   8  -8 7165.56 421.943  22
   3  -8   9 1104.42 219.872  24
  -3   8  -9 1116.90 164.982  22
   3  -8  10-235.346 157.172  24
   3  -7 -11 4128.19 361.734  23
   3  -7 -10 186.604 200.026  23
   3  -7  -9 280.307 113.850   4
   3  -7  -9 548.819 273.620  23
   3  -7  -8 475.682 140.719   4
   3  -7  -8-127.359 222.540  23
   3  -7  -7 25327.2 1112.51  24
   3  -7  -7 25327.6 1253.48  23
   3  -7  -6 12646.3 870.884  24
   3  -7  -5 3839.06 586.697   2
   3  -7  -5 3747.12 543.789  24
   3  -7  -4 133.298 298.211  24
   3  -7  -4 370.522 409.765   2
   3  -7  -3 417.697 352.234  24
   3  -7  -3 783.361 422.258   2
   3  -7  -2 9952.11 817.798   2
   3  -7  -2 9663.14 775.651  24
   3  -7  -1 6309.08 667.776  24
   3  -7  -1 8273.15 734.620   2
   3  -7   0 835.139 351.177  24
   3  -7   1 1539.49 419.464  24
   3  -7   1 1917.49 383.879   5
  -3   7  -1 1266.61 268.726  22
   3  -7   2 10709.3 749.785   5
   3  -7   2 11246.0 822.651  24
  -3   7  -2 9170.18 636.863  22
   3  -7   3 22044.4 1053.20   5
  -3   7  -3 21502.6 940.651  22
  -3   7  -4 3087.03 393.316  22
   3  -7   4 3066.52 439.626   5
   3  -7   5 5571.54 550.532   5
   3  -7   5 5903.12 560.501   1
  -3   7  -5 6035.76 536.029  22
   3  -7   6 86103.6 1872.23   1
   3  -7   6 85762.9 1824.05   5
  -3   7  -6 90397.3 1872.64  22
   3  -7   7 251.279 264.329   1
  -3   7  -7-240.989 228.222  22
   3  -7   8 2637.07 349.188   1
  -3   7  -8 3653.66 411.856  22
  -3   7  -9 12120.8 659.606  22
  -3   7 -10 502.469 190.796  22
  -3   7 -11 258.103 173.192  22
  -3   7 -12 10586.4 434.113  22
   3  -6 -14 73.6342 111.829  23
   3  -6 -13 4069.25 384.907  23
   3  -6 -13 3160.03 288.468   3
   3  -6 -12 6668.70 552.650  23
   3  -6 -11-121.834 238.862  23
   3  -6 -10-261.949 213.662   4
   3  -6 -10 57.2209 287.622  23
   3  -6  -9 10787.1 778.995   4
   3  -6  -9 12109.9 946.973  23
   3  -6  -8 15805.2 947.549   4
   3  -6  -8 17059.9 1067.49  24
   3  -6  -8 16657.8 1155.84  23
   3  -6  -7 15237.5 1031.87  24
   3  -6  -7 13859.9 905.527   4
   3  -6  -6 237.255 386.853   2
   3  -6  -6 687.277 302.841   4
   3  -6  -6-142.895 309.046  24
   3  -6  -5 240.614 271.337  24
   3  -6  -5 925.817 396.203   2
   3  -6  -4 1808.52 459.808  24
   3  -6  -4 2250.15 470.237   2
  -3   6   3 33235.9 1565.81  27
   3  -6  -3 32846.2 1415.55  24
   3  -6  -3 31747.6 1389.20   2
   3  -6  -2 1191.71 344.242   5
   3  -6  -2 1261.67 401.250  24
   3  -6  -2 434.172 306.814   2
  -3   6   2 1029.36 319.850  27
   3  -6  -1 87.2216 241.299   5
   3  -6  -1-355.996 322.195  24
  -3   6   1 104.558 223.470  27
   3  -6   0 3624.83 505.187  24
  -3   6   0 3521.63 536.499  27
   3  -6   0 2826.68 466.853   5
  -3   6  -1 594.160 291.966  27
   3  -6   1 356.939 258.181   5
  -3   6  -2-123.664 206.506  27
   3  -6   2 143.874 340.879   1
   3  -6   2-471.198 235.698   5
   3  -6   3 16755.7 957.142   5
   3  -6   3 18552.6 973.266   1
   3  -6   3 17326.6 983.208  15
  -3   6  -3 17498.9 860.414  22
   3  -6   4 24754.8 1162.72   5
   3  -6   4 23099.9 1453.99  26
   3  -6   4 24687.8 1095.82   1
   3  -6   4 24707.5 1182.30  15
  -3   6  -4 25274.4 1045.46  22
   3  -6   5 17674.6 1021.59  15
   3  -6   5 15530.9 950.418   5
   3  -6   5 17246.1 946.531   1
  -3   6  -5 15783.3 885.497  22
   3  -6   6 116838. 2583.91  15
   3  -6   6 110498. 2339.74   5
   3  -6   6 115594. 2256.08   1
  -3   6  -6 112285. 2283.60  22
   3  -6   7 357.105 265.126   1
  -3   6  -7-265.250 231.619  22
   3  -6   7 391.840 158.239   5
   3  -6   7 65.6007 237.775  15
   3  -6   8 5823.83 638.193  15
  -3   6  -8 4829.17 549.736  22
   3  -6   9 1069.47 324.717  15
  -3   6  -9 830.407 299.336  22
   3  -6  10 17523.5 960.957  15
  -3   6 -10 18115.8 918.138  22
   3  -6  11 7383.97 604.459  15
  -3   6 -11 7668.66 588.697  22
   3  -6  12 734.962 222.971  15
  -3   6 -12 584.369 238.883  22
   3  -6  13 121.417 117.602  15
  -3   6 -13 114.852 167.426  22
  -3   6 -14 68.6223 99.9254  22
   3  -5 -15-225.023 136.007  23
   3  -5 -15 91.2767 70.9715   3
   3  -5 -14 345.717 163.910   3
   3  -5 -14 234.840 195.042  23
   3  -5 -13 597.388 281.580  23
   3  -5 -12 8374.18 737.591  23
   3  -5 -11 3341.99 539.413  23
   3  -5 -10 264.276 282.014   4
   3  -5 -10 557.131 367.915  23
   3  -5  -9 17904.9 1199.90  23
   3  -5  -9 15401.5 1059.01  24
   3  -5  -9 15459.6 968.974   4
   3  -5  -8 55.1540 193.823  20
   3  -5  -8 226.470 294.490   4
   3  -5  -8-690.729 340.904  24
   3  -5  -8 93.8717 341.494  23
   3  -5  -7 21687.8 1201.67  24
  -3   5   7 23851.7 1347.78  27
   3  -5  -7 23167.4 1109.02   4
   3  -5  -6 10764.4 819.082   2
  -3   5   6 10455.7 875.821  27
   3  -5  -6 9341.00 792.593  24
  -3   5   5 29470.6 1413.16  27
   3  -5  -5 33496.7 1336.96   2
   3  -5  -5 30154.5 1324.31  24
   3  -5  -4 8107.80 636.149   5
  -3   5   4 6995.65 714.424  27
   3  -5  -4 6665.59 654.073  24
  -3   5   3 3274.35 497.666  27
  -3   5   2 8617.73 708.939  27
  -3   5   1 2801.10 439.110  27
  -3   5   0 45669.7 1600.93  27
  -3   5  -1 13645.2 874.939  27
  -3   5  -2 385.257 229.244  27
   3  -5   3 4616.90 601.327  26
   3  -5   4 61768.7 2102.56  26
   3  -5   4 60488.2 1756.64  15
   3  -5   5-13.4355 199.433  15
  -3   5  -5-690.567 215.882  22
   3  -5   5-22.9117 370.325  26
   3  -5   6 66123.9 1940.90  15
   3  -5   6 66625.6 2243.45  26
  -3   5  -6 69059.1 1806.32  22
   3  -5   7 62793.4 1671.53   5
   3  -5   7 58730.6 1854.97  15
   3  -5   7 60190.6 2217.47  26
  -3   5  -7 55062.3 1683.86  22
   3  -5   8 30057.2 1152.97   5
   3  -5   8 29103.3 1334.79  15
   3  -5   9-4.97734 303.318  15
   3  -5  10-530.922 329.340  15
   3  -5  11 6015.10 635.434  15
  -3   5 -11 6684.07 620.234  22
   3  -5  12 10434.7 728.023  15
  -3   5 -12 9510.46 685.504  22
   3  -5  13 1502.10 295.243  15
  -3   5 -13 1680.76 349.033  22
   3  -5  14 9050.34 520.203  15
  -3   5 -14 10090.7 557.079  22
  -3   5 -15 694.608 152.435  22
   3  -4 -16 1174.65 199.188   3
   3  -4 -15 70.1256 132.212   3
   3  -4 -15 142.454 218.339  23
   3  -4 -14 17000.4 937.769  23
   3  -4 -14 15484.8 863.344   3
   3  -4 -13 5521.15 609.140  23
   3  -4 -12 2514.15 478.457  23
   3  -4 -11 13512.5 978.583  23
   3  -4 -10 3928.73 505.908  20
   3  -4 -10 4615.68 640.006  23
   3  -4 -10 3450.96 483.754   4
   3  -4  -9 60250.9 1784.18  20
   3  -4  -9 61226.7 1980.49  23
  -3   4   9 58217.4 1944.37  27
   3  -4  -9 58694.8 1869.79  24
   3  -4  -9 59183.4 1711.66   4
   3  -4  -8 5809.85 578.683  20
  -3   4   8 6075.23 638.936  27
   3  -4  -8 6162.89 696.250  23
   3  -4  -8 6861.87 642.687  24
   3  -4  -8 6015.64 566.988   4
  -3   4   7 2973.05 440.195  27
   3  -4  -7 2833.38 409.785  24
  -3   4   6 8041.48 646.912  27
  -3   4   5 8096.57 631.235  27
  -3   4   4 92.9469 171.888  27
  -3   4   3 106013. 2091.52  27
  -3   4   2 362.157 202.192  27
  -3   4   1 24569.2 1021.40  27
   3  -4   0 113831. 1789.36  19
  -3   4   0 107661. 2148.93  27
  -3   4  -1 999.775 266.749  27
  -3   4  -2 266.326 183.741  27
   3  -4   3 1543.54 356.517  26
   3  -4   4 38242.7 1402.68  26
   3  -4   5 34705.1 1377.41  26
   3  -4   6 40149.4 1566.65  26
   3  -4   7 1611.25 336.186  15
   3  -4   7 1498.06 424.923  26
   3  -4   8 9830.84 896.326  26
   3  -4   8 9622.05 731.440  15
   3  -4   9-70.2722 230.413  15
   3  -4  10 74224.3 1978.36  15
   3  -4  11 3017.19 466.492  15
   3  -4  12 5793.59 582.074  15
   3  -4  13 26650.7 1073.63  15
   3  -4  14 5298.20 462.994  15
   3  -4  15 2098.48 264.331  15
  -3   4 -15 2555.85 303.405  22
  -3   4 -16 839.500 160.777  22
   3  -3 -17 3713.47 321.713  21
   3  -3 -16 629.567 197.711   3
   3  -3 -15 6610.33 575.374   3
   3  -3 -15 8052.05 660.203  23
   3  -3 -14 832.231 282.747   3
   3  -3 -14 871.649 312.141  23
   3  -3 -13 840.183 305.714   3
   3  -3 -13 749.750 327.977  23
   3  -3 -12 3224.92 424.369  20
   3  -3 -12 3700.00 550.927  23
   3  -3 -11 15998.2 900.601  20
   3  -3 -11 16259.2 993.442  23
   3  -3 -10 15844.8 891.305  20
  -3   3  10 14561.6 944.932  27
   3  -3 -10 15527.6 944.049  23
   3  -3  -9 22491.1 1011.70  20
  -3   3   9 21693.9 1093.37  27
   3  -3  -9 21780.9 1070.41  23
   3  -3  -9 20924.2 962.790   4
  -3   3   8 5875.90 547.789  27
  -3   3   7 469.297 259.560  27
  -3   3   6 29804.0 1045.83  27
  -3   3   5 92899.2 1726.86  27
  -3   3   4 25109.8 856.085  27
  -3   3   3 534.268 196.448  27
  -3   3   2 62529.9 1317.23  27
  -3   3   1 2503.97 311.028  27
   3  -3   0 16987.0 734.192  19
  -3   3   0 18999.8 772.043  27
   3  -3   1 33401.8 982.440  19
  -3   3  -1 32792.4 985.580  27
   3  -3   1 33465.5 944.278  26
   3  -3   2 88091.8 1570.66  19
   3  -3   2 85449.9 1591.54  26
   3  -3   3 30716.7 1002.16  26
   3  -3   4 50696.8 1345.87  26
   3  -3   5 33128.6 1179.75  26
   3  -3   6 4463.65 494.729  26
   3  -3   7 67324.0 1852.45  26
   3  -3   8 136739. 2768.72  26
   3  -3   8 130766. 2371.41  15
   3  -3   9 2226.72 355.407  12
   3  -3   9 2042.49 373.782  15
   3  -3   9 2139.97 443.572  26
   3  -3  10 1302.84 252.244  12
   3  -3  10 1155.86 334.748  15
   3  -3  11 1393.10 356.100  15
   3  -3  12 179.874 205.824  15
   3  -3  13 90.2686 213.339  15
   3  -3  14 11144.9 679.355  15
   3  -3  15 12.3243 133.336  15
   3  -3  16 277.384 168.092  15
   3  -2 -18 1833.56 233.688  21
   3  -2 -17 479.666 190.824  21
   3  -2 -16 2130.33 331.723   3
   3  -2 -16 2481.88 318.732  21
   3  -2 -15 30.6440 186.296   3
   3  -2 -14 3054.34 425.330  20
   3  -2 -14 3422.70 446.623   3
   3  -2 -14 3306.62 456.262  23
   3  -2 -13 1695.44 354.903  20
   3  -2 -13 1777.00 363.036   3
   3  -2 -13 1550.72 365.709  23
   3  -2 -12 5186.52 561.019  23
   3  -2 -12 4445.58 508.154  20
   3  -2 -12 4960.52 555.693   3
   3  -2 -11 41452.4 1390.08  20
  -3   2  11 40676.8 1522.38  27
   3  -2 -11 40715.3 1439.95  23
   3  -2 -11 39417.5 1384.70   3
   3  -2 -10 2921.20 385.593  20
   3  -2 -10 3101.52 422.500  23
  -3   2  10 2243.70 381.390  27
  -3   2   9 8296.40 613.065  27
  -3   2   8 27589.4 1018.65  27
  -3   2   7 16279.5 731.498  27
  -3   2   6 39073.0 1039.99  27
  -3   2   5 28950.2 840.770  27
  -3   2   4 8376.42 437.558  27
  -3   2   3 5499.90 337.741  27
  -3   2   2 76506.7 1129.10  27
   3  -2  -2 71046.1 825.773  26
  -3   2   1 24488.4 663.709  27
   3  -2  -1 24092.1 852.018  19
   3  -2   0 18816.4 518.707  26
  -3   2   0 17327.2 539.493  27
   3  -2   1 3281.73 263.965  26
   3  -2   1 3057.17 368.640  19
   3  -2   1 3174.42 308.381  18
   3  -2   2 140632. 2156.68  19
   3  -2   2 145634. 1896.72  18
   3  -2   2 145475. 1749.86  26
   3  -2   3 9847.74 634.748  19
   3  -2   3 9352.84 508.998  18
   3  -2   3 9417.06 503.758  26
   3  -2   4 54515.1 1240.22  18
   3  -2   4 53151.7 1239.55  26
   3  -2   5 673.624 224.965  26
   3  -2   5 624.679 200.626  18
   3  -2   6 31711.1 1031.50  18
   3  -2   6 33005.1 1119.93  26
   3  -2   7 27864.4 1005.92  18
   3  -2   7 28189.2 1101.58  26
   3  -2   8 7105.78 545.993  18
   3  -2   9 184.086 141.202  12
   3  -2   9 203.754 137.842  11
   3  -2   9 199.513 145.921  18
   3  -2   9-191.548 194.284  13
   3  -2  10 754.615 228.481  12
   3  -2  10 732.574 273.740  13
   3  -2  11 3185.05 435.023  13
   3  -2  11 2975.78 372.123  12
   3  -2  12 15205.3 892.994  13
   3  -2  12 14628.9 734.378  12
   3  -2  13 8402.21 645.054  15
   3  -2  14 1857.31 312.955  15
   3  -2  15 24829.5 897.359  15
   3  -2  16 352.677 149.337  15
   3  -1 -18 410.378 143.412  21
   3  -1 -17 4773.33 414.514  21
   3  -1 -16 950.249 249.186  21
   3  -1 -15 1917.68 351.958   3
   3  -1 -15 2274.71 361.424  21
   3  -1 -14-12.9763 224.548  20
   3  -1 -14-55.2984 208.814   3
   3  -1 -13 16016.9 910.245  20
   3  -1 -13 15311.2 905.743   3
   3  -1 -13 15794.2 939.105  23
   3  -1 -12 24045.9 1079.76  20
   3  -1 -12 24339.7 1122.89   3
   3  -1 -12 24245.6 1132.87  23
   3  -1 -11 5188.69 509.945  20
   3  -1 -11 5214.57 545.780  23
   3  -1 -11 5906.85 539.186   3
  -3   1  11 4567.87 516.697  27
   3  -1 -10 22360.6 976.191  20
  -3   1  10 22156.7 1012.82  27
   3  -1 -10 23881.6 1024.17   3
  -3   1   9 19718.1 908.790  27
  -3   1   8 40595.4 1191.31  27
   3  -1  -7 170.409 205.623  25
  -3   1   7 387.150 160.921  27
  -3   1   6 26871.6 823.971  27
   3  -1  -6 28917.5 974.534  25
   3  -1  -5 46841.0 1141.44  25
  -3   1   5 44441.9 962.796  27
   3  -1  -4 44996.3 1023.28  25
  -3   1   4 44598.6 860.001  27
  -3   1   3 12248.5 395.401  27
   3  -1  -3 12799.7 505.708  25
   3  -1  -2 2947.88 341.149  19
  -3   1   2 2636.80 177.539  27
   3  -1  -1 60311.6 1298.93  19
   3  -1  -1 60070.2 1158.09  18
  -3   1   1 59558.7 622.782  27
   3  -1   0 28771.7 943.711  19
   3  -1   0 29128.7 828.034  18
   3  -1   1 71566.6 1540.12  19
   3  -1   1 69359.3 1303.64  18
   3  -1   2 103381. 1972.43  19
   3  -1   2 102354. 1641.50  18
   3  -1   3 24387.7 843.656  18
   3  -1   4 14817.2 692.143  18
   3  -1   5 2309.47 301.662  18
   3  -1   6 38400.0 1198.18  18
   3  -1   7 7072.52 553.201  18
   3  -1   8 80715.2 1900.62  18
   3  -1   9 58571.4 1694.17  18
   3  -1   9 57882.7 1608.40  13
   3  -1  10 230.894 295.252  18
   3  -1  10 426.117 222.985  13
   3  -1  11 465.248 235.146  12
   3  -1  11 418.097 223.497  13
   3  -1  12 4854.31 519.285  13
   3  -1  12 4465.29 440.688  12
   3  -1  13 234.530 111.668  12
   3  -1  13-40.1571 178.176  13
   3  -1  14 997.357 275.590  15
   3  -1  14 1152.11 267.865  13
   3  -1  15 359.192 191.896  15
   3  -1  16 2210.77 249.592  15
   3   0 -18-39.0779 122.748  21
   3   0 -17 11632.8 630.301  21
   3   0 -16 1227.45 254.786  20
   3   0 -16 1717.37 323.850  21
   3   0 -15 3249.44 466.231  20
   3   0 -15 3521.63 423.239  21
   3   0 -14 4474.64 516.166  20
   3   0 -14 4397.21 493.108  21
   3   0 -13 1133.89 352.769  20
   3   0 -13 1111.46 329.854   3
   3   0 -13 1230.39 284.804  21
   3   0 -12 10497.6 747.289  20
   3   0 -12 9851.77 758.726   3
   3   0 -11 368.132 213.873  20
  -3   0  11 146.485 188.478  27
   3   0 -11-397.871 242.731  25
   3   0 -11 143.014 193.534   3
   3   0 -10-140.416 191.152  20
  -3   0  10 294.483 242.663  27
   3   0 -10-75.7209 285.517  25
   3   0 -10-201.472 176.996   3
   3   0  -9 49919.3 1611.91  25
   3   0  -8 71031.5 1812.43  25
   3   0  -7 65295.0 1637.71  25
   3   0  -6 792.428 246.198  25
   3   0  -5 39398.2 1056.84  19
   3   0  -5 39833.1 1122.47  25
   3   0  -4 128554. 1885.05  19
   3   0  -4 129335. 1833.53  25
   3   0  -3 1296.93 249.189  19
   3   0  -3 1395.38 219.335  25
   3   0  -2 1231.80 265.682  19
   3   0  -2 1469.05 216.783  18
   3   0  -2 1381.56 197.651  25
   3   0  -1 74.1305 180.987  19
   3   0  -1 128.897 139.513  18
   3   0  -1 5.33482 92.9004  25
   3   0   0 450.958 230.189  19
   3   0   0 476.924 86.6157  25
   3   0   0 658.347 196.311  18
   3   0   1 2083.07 357.571  19
   3   0   1 2328.33 300.529  18
   3   0   2 78793.1 1542.02  18
   3   0   3 10258.0 594.725  18
   3   0   4 45469.0 1295.86  18
   3   0   5 73004.9 1728.07  18
   3   0   6 46174.0 1448.15  18
   3   0   7 3897.89 452.584  18
   3   0   8 378.860 250.240  11
   3   0   8 116.345 134.894  18
   3   0   8-117.588 197.241  14
   3   0   8-187.979 150.564  13
   3   0   9 15306.2 964.011  18
   3   0   9 15072.8 855.404  14
   3   0   9 15747.7 898.970  13
   3   0  10 871.750 320.661  13
   3   0  11 1793.97 367.481  13
   3   0  12 3382.02 453.230  13
   3   0  13 1071.36 246.720  12
   3   0  13 706.635 266.607  13
   3   0  14 2918.91 374.915  13
   3   0  15 21485.2 820.583  15
   3   0  15 21202.6 828.005  13
   3   0  16-0.61975 104.245  15
   3   1 -18 4640.65 305.853  16
   3   1 -18 5367.09 351.511  21
   3   1 -17 6069.96 447.052  21
   3   1 -16 7422.03 556.271  21
   3   1 -15 377.656 232.211  20
   3   1 -15 399.465 198.112  21
   3   1 -14 8.29910 124.890  20
   3   1 -14-167.507 125.300  21
   3   1 -13 5428.29 596.916  20
   3   1 -13 6070.57 576.486  21
   3   1 -12 14816.3 944.350  20
   3   1 -12 14708.0 874.646  21
   3   1 -11 686.479 293.446  20
   3   1 -11 1333.25 403.728  25
   3   1 -11 1371.07 282.838  21
   3   1 -10 91770.2 2490.44  25
   3   1 -10 95439.6 2018.13  21
   3   1  -9 11719.6 728.754  20
   3   1  -9 11467.6 903.881  25
   3   1  -8 892.711 214.781  19
   3   1  -8 1275.55 395.227  25
   3   1  -7 57.3722 199.319  19
   3   1  -7 156.803 235.953  25
   3   1  -6 105321. 1815.13  19
   3   1  -6 110737. 2222.89  25
   3   1  -5 2244.44 304.810  19
   3   1  -5 2934.62 412.565  25
   3   1  -4 130038. 1999.06  19
   3   1  -4 138809. 2212.82  25
   3   1  -3 84.6342 147.071  19
   3   1  -3 95.2367 112.879  18
   3   1  -3 34.7999 204.318  25
   3   1  -2 3042.15 363.489  19
   3   1  -2 2951.31 293.026  18
   3   1  -2 2759.12 304.046  25
   3   1  -1 58.0712 189.190  19
   3   1  -1 76.0477 146.374  18
   3   1  -1 29.2958 67.2141  25
   3   1   0 63228.7 1376.89  18
   3   1   0 69708.1 1168.41  25
   3   1   1 14951.3 710.227  18
   3   1   2 805.942 214.701  18
   3   1   3 187634. 2819.62  18
   3   1   4 926.110 246.638  18
   3   1   5 2339.30 366.416  18
   3   1   6 5744.73 588.832  18
   3   1   7 2203.78 361.057  11
   3   1   7 1485.01 354.101  18
   3   1   7 1739.49 345.099  14
   3   1   8 3280.83 532.374  18
   3   1   8 4186.16 498.612  14
   3   1   8 4189.30 519.725  13
   3   1   9 49462.0 1634.50  14
   3   1   9 49974.8 1689.58  13
   3   1  10 10081.8 780.629  14
   3   1  10 9808.99 783.547  13
   3   1  11 447.512 201.894  13
   3   1  12 1778.57 371.973  13
   3   1  13 13728.5 774.899  13
   3   1  14 5991.24 466.976  13
   3   1  14 5148.85 376.995  12
   3   1  15 973.411 191.158  15
   3   1  15 1156.34 194.007  13
   3   2 -17 210.434 117.736  21
   3   2 -16 8702.45 555.480  21
   3   2 -15 12534.8 740.996  21
   3   2 -14 1105.86 330.466  20
   3   2 -14 702.049 334.722  21
   3   2 -13 4493.95 579.792  20
   3   2 -13 4453.60 537.866  21
   3   2 -12 308.649 280.106  20
   3   2 -12 781.008 284.694  21
   3   2 -11 4325.46 576.541  20
   3   2 -11 4779.14 541.802  21
   3   2 -10 44525.6 1617.90  20
   3   2 -10 47047.9 1975.40  25
   3   2 -10 43605.7 1505.12  21
   3   2  -9 1309.79 354.270  20
   3   2  -9 1592.72 436.687  25
   3   2  -8-324.707 230.802  20
   3   2  -8 90.5107 231.881  25
   3   2  -7 66.8863 323.553  25
   3   2  -6 99305.2 2418.77  25
   3   2  -5 6840.65 663.077  25
   3   2  -4 12461.6 819.688  25
   3   2  -3 55381.6 1565.66  25
   3   2  -2 44581.7 1352.60  25
   3   2  -1 14675.7 678.617  18
   3   2  -1 13487.5 731.262  25
   3   2   0 737.893 171.174  18
   3   2   1 12704.9 711.169  18
   3   2   2 1592.90 271.952  18
   3   2   3 8851.48 678.653  18
   3   2   4 11658.4 813.606  18
   3   2   4 14099.0 934.622  14
   3   2   5 12853.6 900.246  18
   3   2   5 16655.0 964.612  17
   3   2   5 16017.6 1001.45  14
   3   2   5 13055.3 860.952   6
   3   2   6-271.327 245.132  18
   3   2   6-106.070 248.887  14
   3   2   7 24868.6 1212.50  11
   3   2   7 25875.5 1270.32  14
   3   2   8 103.830 255.244  14
   3   2   9 14600.6 981.526  13
   3   2   9 14281.5 968.321  14
   3   2  10 315.579 277.548  14
   3   2  10 170.262 178.509  13
   3   2  11 6458.84 610.817  13
   3   2  12 3758.74 443.898  13
   3   2  13-206.185 139.181  13
   3   2  14 204.876 111.239  13
   3   3 -16 8276.48 459.705  16
   3   3 -15-77.3973 157.935  16
   3   3 -15 15.6273 158.983  21
   3   3 -14 1770.43 290.586  21
   3   3 -13 7094.21 591.063  21
   3   3 -12 39973.6 1401.97  21
   3   3 -11 10059.4 784.608  21
   3   3 -11 10633.0 838.839  20
   3   3 -10 67179.5 2052.89  20
   3   3  -9 7099.55 694.037  20
   3   3  -8 15246.6 1015.49  20
   3   3  -8 15932.9 1203.48  25
   3   3  -7-50.6262 230.563  20
   3   3  -7 185.559 225.145  16
   3   3  -6 19285.7 1008.54  16
   3   3  -6 19690.3 1263.25  25
   3   3  -6 19564.7 1037.98  20
   3   3  -5 896.127 221.013  16
   3   3  -5 384.365 182.503  10
   3   3  -5 896.735 470.895  25
   3   3  -4 30138.8 1209.82  16
   3   3  -4 28884.3 1219.15  10
   3   3  -4 27450.5 1316.60  25
   3   3  -3 1754.20 325.188  10
   3   3  -3 2319.88 434.828  25
   3   3  -2 7144.04 645.719  10
   3   3  -2 7944.66 723.224  17
   3   3  -2 7682.69 728.362  25
   3   3  -1 1939.75 367.115  10
   3   3  -1 1706.24 359.346  17
   3   3   0 31809.9 1257.91  10
   3   3   0 30150.7 1393.80  17
   3   3   1 5680.15 618.862  17
   3   3   1 4343.36 530.350  22
   3   3   2 29562.9 1232.34   6
   3   3   2 27588.8 1149.02  18
   3   3   3 58665.8 1837.53  17
   3   3   3 60271.4 2064.59  14
   3   3   4 21351.9 1059.80   6
   3   3   4 22916.9 1167.08  18
   3   3   4 17718.9 1017.39  17
   3   3   4 18986.6 1223.55  14
   3   3   5 5480.46 588.053  18
  -3  -3  -5 3585.15 460.564   4
   3   3   5 4646.60 695.440  14
  -3  -3  -6 3310.71 452.453   4
   3   3   6 4027.50 638.444  14
  -3  -3  -7 4463.96 529.419   4
   3   3   7 4819.19 539.296  11
   3   3   7 4209.46 601.579  14
   3   3   8 6297.86 673.159  14
   3   3   9 1875.70 422.604  14
   3   3   9 1616.22 391.399  13
   3   3  10 1207.74 306.673  14
   3   3  10 847.879 288.968  13
   3   3  11 4593.41 458.396  13
   3   3  12-79.1880 123.100  13
   3   4 -15 1861.78 208.627  16
   3   4 -14 1040.66 183.503  17
   3   4 -14 904.733 200.040  16
   3   4 -13 4159.56 405.591  16
   3   4 -12 27602.9 1033.11  16
   3   4 -11-60.8550 231.852  16
   3   4 -10 4050.67 490.478  16
   3   4  -9 28299.8 1173.47  16
   3   4  -8 11199.6 764.946  16
   3   4  -7 263.877 186.920  16
   3   4  -6 1760.89 371.703  16
   3   4  -5 258.147 166.463  16
   3   4  -4 4023.66 566.414  17
   3   4  -4 2985.65 412.092  16
   3   4  -3 16834.8 1075.12  17
   3   4  -3 15683.9 856.714  16
   3   4  -3 16057.0 903.481  22
   3   4  -2 19612.5 1140.28  17
   3   4  -2 19134.2 1013.67  22
   3   4  -1 870.281 299.270  17
   3   4  -1 673.548 335.613  22
   3   4   0 17403.0 1050.54  17
   3   4   0 18867.4 1034.17  22
   3   4   1 49897.3 1718.67  17
   3   4   2 1296.46 297.156  17
   3   4   2 1048.44 433.954  14
   3   4   3 973.172 374.237  14
   3   4   4 559.884 341.021  14
  -3  -4  -5 9562.13 749.669   4
   3   4   5 14151.3 988.888  14
  -3  -4  -6 824.181 293.720   4
   3   4   6 1434.69 360.281  14
   3   4   7 5319.52 590.927  14
  -3  -4  -7 4724.32 472.312   4
  -3  -4  -8-496.578 186.236   4
   3   4   8 45.7107 210.656  14
   3   4   9 151.833 199.821  14
   3   4   9 201.121 165.816  13
   3   4  10 1870.73 268.189  13
   3   4  11 3547.01 255.527  13
   3   5 -13 23.0426 75.6505  17
   3   5 -12 106.871 133.651  17
   3   5 -12 239.816 108.322  16
   3   5 -11 466.585 193.265  17
   3   5 -11 382.764 152.174  16
  -3  -5  11-19.1794 162.698   1
   3   5 -10 14688.1 792.289  17
   3   5 -10 13164.5 623.194  16
  -3  -5  10 14929.9 634.694   1
   3   5  -9 1047.75 298.717  17
   3   5  -9 916.960 181.283  16
  -3  -5   9 607.614 152.864   1
   3   5  -8 19243.3 975.274  17
   3   5  -8 18458.3 789.285  16
  -3  -5   8 19078.6 787.589   1
   3   5  -7 1227.29 340.737  17
   3   5  -6 3454.51 496.878  17
   3   5  -6 3605.33 396.529  22
   3   5  -5 4475.37 553.554  17
   3   5  -5 4846.60 468.996  22
   3   5  -4 4377.58 565.253  17
   3   5  -4 4806.64 501.900  22
   3   5  -3 1952.68 388.239  17
   3   5  -3 1697.73 390.101  22
   3   5  -2 1528.73 331.230  17
   3   5  -2 1956.34 385.277  22
   3   5  -1 3931.96 498.557  17
   3   5   0 1853.80 328.680  17
   3   5   0 2633.85 484.800  14
   3   5   1-19.4752 164.339  17
   3   5   1 37.7052 285.461  14
   3   5   2 12648.7 883.344  14
   3   5   3 5371.17 592.535  14
  -3  -5  -4-120.204 225.774   4
   3   5   4 433.632 300.193  14
  -3  -5  -5 19815.2 847.529   4
   3   5   5 25061.2 1034.19  14
  -3  -5  -6-35.2051 158.351   4
   3   5   6 112.725 186.783  14
  -3  -5  -7 1501.45 183.217   4
   3   5   7 2315.76 301.400  14
   3   5   7 2145.69 267.116  13
   3   5   8 1121.67 194.429  14
   3   5   8 867.947 155.969  13
   3   6 -11 1084.00 143.660  17
   3   6 -10 2182.26 244.751  17
   3   6  -9 7250.14 447.689  17
   3   6  -8 9527.81 534.913  17
   3   6  -7 11659.1 613.534  17
   3   6  -6 177.797 167.436  17
   3   6  -5 1074.20 259.500  17
   3   6  -4-125.742 142.819  17
   3   6  -3 4251.99 382.712  17
   3   6  -2 437.262 153.185  17
   3   6  -2 42.7001 173.519  14
   3   6  -1 2294.70 361.382  14
   3   6   0 474.377 215.163  14
   3   6   1 1968.98 301.799  14
  -3  -6  -2-180.675 167.305   4
   3   6   2 68.4554 153.779  14
  -3  -6  -3 4995.68 351.528   4
   3   6   3 6615.79 431.628  14
  -3  -6  -4 823.646 130.411   4
   3   6   4 1108.82 199.596  14
   3   6   5 1372.85 174.851  14
   4  -9  -4 446.914 117.796  24
   4  -9  -4 328.844 110.940  23
   4  -9  -3 941.167 197.950  24
   4  -9  -3 687.378 167.888  23
   4  -9  -2 7602.33 448.749  24
   4  -9  -1 19746.4 696.255  24
   4  -9   0 68.7867 196.619  24
   4  -9   1 1024.39 224.869  24
   4  -9   2 365.500 182.050  24
   4  -9   3 5942.44 390.965  24
   4  -9   4 1401.20 220.280  24
   4  -9   5 6027.04 351.563  24
   4  -9   6 3160.53 239.198  24
   4  -8  -9 227.352 122.687  23
   4  -8  -8 4651.46 367.355  23
   4  -8  -7 6521.65 490.147  23
   4  -8  -6 5760.53 402.570  20
   4  -8  -6 6640.71 545.373  23
   4  -8  -5-47.9830 231.632  24
   4  -8  -5-53.4656 211.678  23
   4  -8  -4 277.685 285.918  24
   4  -8  -3 26284.7 1067.86  24
   4  -8  -2 2343.12 434.301  24
   4  -8  -2 1647.19 313.190   2
   4  -8  -1 225.233 273.922  24
   4  -8  -1-306.233 227.513   2
   4  -8   0 226.216 275.068  24
   4  -8   0 355.338 164.067   2
   4  -8   1 3.46745 286.247  24
   4  -8   1 113.052 160.970   2
   4  -8   2 2406.59 404.628  24
   4  -8   2 2494.09 325.653   2
   4  -8   3 6044.75 542.471  24
   4  -8   4 7188.48 578.641  24
   4  -8   5 269.581 213.552  24
   4  -8   6 240.237 200.911  24
   4  -8   7 8150.13 511.092  24
   4  -8   8 3249.59 314.551  24
   4  -8   9 2186.55 237.618  24
   4  -7 -12 1432.98 168.567  23
   4  -7 -11-340.001 162.532  23
   4  -7 -10 4609.27 451.602  23
   4  -7  -9-229.486 201.466  23
   4  -7  -8 13280.7 703.145  20
   4  -7  -8 14135.4 871.441  23
   4  -7  -7 11014.7 731.006  20
   4  -7  -7 10295.5 784.531  23
   4  -7  -7 11226.1 818.341  24
   4  -7  -6 4283.27 585.894  24
   4  -7  -6 4458.49 600.008  23
   4  -7  -5 25634.8 1223.79  24
   4  -7  -4 841.078 363.355   2
   4  -7  -4 1150.66 390.507  24
   4  -7  -3 1014.81 397.992  24
   4  -7  -3 1100.84 398.400   2
   4  -7  -2 61.0528 338.894  24
   4  -7  -2-209.895 303.776   2
   4  -7  -1 6884.98 676.827   2
   4  -7  -1 6457.31 650.429   5
   4  -7  -1 7013.27 710.044  24
   4  -7   0-1110.97 402.107   2
   4  -7   0-615.270 402.884  24
   4  -7   0-706.487 322.624   5
   4  -7   1 12139.5 837.402   5
   4  -7   1 11307.4 803.888   2
   4  -7   1 11712.7 870.632  24
   4  -7   2 30.0910 288.947   5
   4  -7   2-196.861 308.741  24
   4  -7   3 30856.6 1307.17   5
   4  -7   4 2344.72 454.507   5
   4  -7   5 6866.23 649.967   5
   4  -7   6 2825.97 447.227   5
   4  -7   6 2285.11 442.524  15
   4  -7   7-242.524 260.431  15
   4  -7   7 276.279 200.080   5
   4  -7   8 5220.87 516.110  15
   4  -7   8 4390.06 389.679   5
  -4   7  -8 4099.15 366.877  22
   4  -7   9-87.4242 231.998  15
  -4   7  -9-34.3894 114.931  22
  -4   7 -10 2257.17 232.149  22
   4  -6 -13 9862.17 537.455  23
   4  -6 -12 2140.07 335.406  23
   4  -6 -11 710.837 274.929  23
   4  -6 -10 101.951 220.063  20
   4  -6 -10-426.623 236.129  23
   4  -6  -9 2087.80 412.610  20
   4  -6  -9 2182.71 469.066  23
   4  -6  -8 841.845 294.136  20
   4  -6  -8 1541.17 401.033  23
   4  -6  -8 1292.28 426.976  24
   4  -6  -7 14955.7 1077.13  23
   4  -6  -7 15276.7 1052.25  24
   4  -6  -6 1103.32 403.662  24
   4  -6  -5 20887.3 1205.38  24
   4  -6  -4-96.1603 252.584   5
   4  -6  -4-680.002 360.982   2
   4  -6  -4 119.837 332.056  24
   4  -6  -3 11799.1 842.310   2
   4  -6  -3 13524.9 888.084   5
   4  -6  -3 12065.8 920.168  24
   4  -6  -2 6711.80 726.884   2
   4  -6  -2 7223.34 660.214   5
  -4   6   2 7446.76 731.486  27
   4  -6  -2 6204.76 696.022  24
  -4   6   1 29835.5 1430.78  27
   4  -6  -1 26586.6 1195.63   5
   4  -6   0 34099.3 1414.17  24
   4  -6   0 33999.7 1388.01   5
   4  -6   1 10121.6 963.469  26
   4  -6   1 11036.0 838.689   5
   4  -6   2 4952.74 577.321  15
   4  -6   2 4167.00 546.082   5
   4  -6   2 4372.65 805.668  26
   4  -6   3 394.008 280.261  15
   4  -6   3 227.423 228.681   5
   4  -6   4 10883.9 837.357  15
   4  -6   4 9598.34 813.537   5
   4  -6   5 15900.0 998.316  15
   4  -6   5 13672.2 912.043   5
   4  -6   6 14213.9 951.299  15
   4  -6   6 12304.5 880.746   5
   4  -6   7-164.109 196.063   5
   4  -6   7 301.954 301.567  15
   4  -6   8 390.545 254.179  15
   4  -6   8 135.573 228.274   5
  -4   6  -8 701.662 272.353  22
   4  -6   9 47.7701 284.772  15
   4  -6   9 268.974 120.621   5
  -4   6  -9 46.6247 163.891  22
   4  -6  10 41290.5 1375.15  15
  -4   6 -10 41303.0 1160.05  22
   4  -6  11 7886.35 574.960  15
  -4   6 -11 7646.36 497.735  22
   4  -6  12 170.116 177.964  15
  -4   6 -12 46.3716 124.897  22
   4  -6  13 21448.0 641.322  15
   4  -5 -14 1228.38 266.217  23
   4  -5 -14 704.248 152.495   3
   4  -5 -13 171.159 89.2164   3
   4  -5 -13 205.502 200.246  23
   4  -5 -12 1299.68 261.840   3
   4  -5 -12 1427.30 339.101  23
   4  -5 -11 4219.30 451.818  20
   4  -5 -11 5384.08 607.967  23
   4  -5 -10 1628.59 344.078  20
   4  -5 -10 1937.83 506.084  23
   4  -5  -9 5593.27 633.053  20
   4  -5  -9 7632.71 771.011  24
   4  -5  -9 7401.52 720.540  23
   4  -5  -8 2023.32 413.556  20
   4  -5  -8 2211.30 465.593  24
   4  -5  -8 1959.81 487.946  23
   4  -5  -7 1548.93 459.319  24
   4  -5  -7 1805.76 486.972  23
  -4   5   6 1477.23 311.419  27
   4  -5  -6 2182.42 442.888  24
   4  -5  -5 49730.2 1701.23  24
   4  -5  -5 50261.9 1553.19   5
   4  -5  -4 6214.78 642.260   5
  -4   5   4 5098.99 598.775  27
   4  -5  -4 5460.04 640.189  24
  -4   5   3 22.4614 213.836  27
   4  -5  -3-5.94384 285.081  24
   4  -5  -3 127.343 273.914   5
  -4   5   2 25128.2 1231.54  27
   4  -5  -2 25520.1 1115.82   5
   4  -5  -2 24297.8 1133.39  24
  -4   5   1 594.907 265.683  27
   4  -5  -1 815.522 268.727   5
  -4   5   0 2078.82 407.203  27
   4  -5   0 1934.83 327.178   5
   4  -5   1 22862.9 1069.10  15
   4  -5   1 20233.7 1110.75  26
   4  -5   1 19430.3 948.371   5
   4  -5   2 1243.97 432.994  26
   4  -5   2 1213.27 343.305  15
   4  -5   2 1361.31 301.418   5
   4  -5   3 2538.91 516.969  26
   4  -5   3 2302.51 415.903  15
   4  -5   4 26153.1 1357.27  26
   4  -5   4 24982.1 1202.51  15
   4  -5   5 2851.85 547.879  26
   4  -5   5 2267.51 442.550  15
   4  -5   6 7172.08 706.109  15
   4  -5   7 994.121 372.298  15
   4  -5   8 11815.7 891.317  15
  -4   5  -8 10939.9 709.024  22
   4  -5   9 1310.10 382.093  15
  -4   5  -9 990.978 274.293  22
   4  -5  10 1639.77 420.658  15
  -4   5 -10 1666.77 297.695  22
   4  -5  11 1310.13 362.568  15
  -4   5 -11 1750.26 353.525  22
   4  -5  12 934.959 288.524  15
  -4   5 -12 1020.92 254.508  22
   4  -5  13 272.439 171.035  15
  -4   5 -13 132.920 167.506  22
   4  -5  14 22198.2 698.806  15
  -4   5 -14 27576.4 655.442  22
   4  -4 -16 323.926 121.782  21
   4  -4 -15-94.7172 160.430  23
   4  -4 -15-254.891 97.6990   3
   4  -4 -14 5676.09 483.640   3
   4  -4 -14 7056.22 584.667  23
   4  -4 -13 1361.49 294.125   3
   4  -4 -13 1853.06 348.772  20
   4  -4 -13 1694.66 366.027  23
   4  -4 -12 3978.16 490.688  20
   4  -4 -12 4817.68 565.246  23
   4  -4 -12 4336.72 508.867   3
   4  -4 -11 45445.4 1575.01  20
   4  -4 -11 44323.5 1515.30   3
   4  -4 -10 3095.21 474.030  20
   4  -4 -10 3039.12 490.206  23
   4  -4  -9-7.63107 181.604  20
   4  -4  -9 215.878 307.158  23
   4  -4  -8 7981.43 691.401  20
  -4   4   8 7969.83 699.475  27
   4  -4  -8 8844.07 725.448  23
   4  -4  -8 8154.15 694.656  24
  -4   4   7 11315.1 799.320  27
   4  -4  -7 12079.1 824.506  24
   4  -4  -7 12743.3 828.233  23
  -4   4   6 9236.83 699.372  27
   4  -4  -6 10571.6 768.667  24
  -4   4   5 13393.5 785.237  27
  -4   4   4 4746.99 491.874  27
  -4   4   3 7884.35 614.607  27
   4  -4  -2 4886.87 472.162  19
  -4   4   2 4090.64 475.900  27
   4  -4  -1 71480.9 1772.35  19
  -4   4   1 76983.4 1864.50  27
   4  -4   0 340.939 134.098  19
   4  -4   0 223.554 185.390  26
   4  -4   1 317.645 230.475  26
   4  -4   2 111386. 2119.74  26
   4  -4   3 3188.52 454.890  26
   4  -4   4 14632.9 900.670  26
   4  -4   5 14461.7 920.913  26
   4  -4   5 13015.5 808.362  15
   4  -4   6 769.153 342.770  26
   4  -4   6 303.844 225.629  15
   4  -4   7 83770.0 2316.28  26
   4  -4   7 74191.2 1955.52  15
   4  -4   8 6782.51 652.033  15
   4  -4   9 4394.33 534.093  15
   4  -4  10 745.228 323.214  15
   4  -4  11 22001.0 1053.43  15
   4  -4  12 19250.4 952.907  15
   4  -4  13 6840.99 528.889  15
   4  -4  14 11116.7 590.379  15
  -4   4 -14 11435.0 536.286  22
   4  -4  15 15297.8 552.601  15
   4  -3 -17 176.631 126.119  21
   4  -3 -16 21621.7 768.656  21
   4  -3 -15 7961.38 558.452   3
   4  -3 -14 1808.46 342.569  20
   4  -3 -14 2113.41 316.945   3
   4  -3 -14 2508.22 402.358  23
   4  -3 -13 17949.6 944.765  20
   4  -3 -13 19858.6 998.630   3
   4  -3 -13 19651.2 994.403  23
   4  -3 -12 1466.29 343.161   3
   4  -3 -12 1207.78 326.300  20
   4  -3 -12 1363.00 348.157  23
   4  -3 -11 13503.2 867.712  20
   4  -3 -11 12864.2 817.904  23
   4  -3 -11 12548.3 793.720   3
  -4   3  10 8231.76 729.356  27
   4  -3 -10 7531.67 639.432  20
   4  -3 -10 7836.46 661.867  23
   4  -3 -10 7867.45 631.274   3
   4  -3  -9 4532.34 521.754  20
  -4   3   9 4192.15 505.992  27
   4  -3  -9 4340.81 514.585  23
   4  -3  -8 1501.89 300.983  20
  -4   3   8 1692.40 342.554  27
  -4   3   7 10445.1 674.944  27
  -4   3   6 5.57697 168.604  27
  -4   3   5 41910.1 1196.15  27
  -4   3   4 376.111 191.110  27
  -4   3   3 71526.2 1498.77  27
   4  -3  -2 82195.9 1945.42  19
  -4   3   2 98804.3 1779.78  27
   4  -3  -1 10599.9 679.875  19
   4  -3   0 1491.08 310.747  19
   4  -3   1 193.239 148.502  19
   4  -3   1-16.7978 130.185  26
   4  -3   2 10510.2 699.563  19
   4  -3   2 10671.5 573.186  26
   4  -3   3 441.443 215.453  26
   4  -3   4 18299.6 846.472  26
   4  -3   5 10536.5 697.297  26
   4  -3   6 3839.05 418.547  11
   4  -3   6 3637.61 474.286  26
   4  -3   6 3546.16 426.401  15
   4  -3   6 3744.76 411.555  12
   4  -3   7 7993.86 637.132  11
   4  -3   7 9038.24 682.916  15
   4  -3   7 8465.57 620.308  12
   4  -3   8 37112.7 1343.31  11
   4  -3   8 35693.7 1315.53  15
   4  -3   8 37189.5 1317.63  12
   4  -3   9 409.914 209.413  12
   4  -3   9 564.583 259.665  15
   4  -3  10 5553.26 569.647  15
   4  -3  10 4556.95 501.142  12
   4  -3  11 29202.4 1191.64  15
   4  -3  11 28775.4 1093.52  12
   4  -3  12 239.777 232.179  15
   4  -3  13-51.6795 177.427  15
   4  -3  14 158.325 171.058  15
   4  -3  15 1116.90 204.600  15
   4  -2 -17 25132.2 759.212  21
   4  -2 -16 3157.07 381.021  20
   4  -2 -16 2611.44 319.617  21
   4  -2 -15 3103.34 418.782  20
   4  -2 -15 2615.81 324.558  21
   4  -2 -14 2159.78 373.473  20
   4  -2 -14 1666.15 349.999   3
   4  -2 -13 621.148 259.728  20
   4  -2 -13 183.774 223.226  23
   4  -2 -13 432.607 214.591   3
   4  -2 -12 620.284 306.206  20
   4  -2 -12 361.455 257.351  23
   4  -2 -12 410.412 231.875   3
   4  -2 -11 25315.2 1134.01  20
   4  -2 -11 23770.5 1071.01   3
   4  -2 -11 24018.1 1064.33  23
   4  -2 -10 2707.95 403.870   3
   4  -2 -10 2133.81 376.247  20
  -4   2  10 2264.88 346.127  27
   4  -2 -10 2121.15 380.187  23
   4  -2  -9 15335.2 835.831  20
  -4   2   9 14305.2 824.617  27
  -4   2   8 22057.4 958.127  27
  -4   2   7 19565.9 847.522  27
  -4   2   6 4647.04 396.323  27
  -4   2   5 71509.7 1416.02  27
  -4   2   4 390740. 3005.28  27
   4  -2  -3 44973.5 1405.84  19
   4  -2  -2 9859.83 663.584  19
   4  -2  -1 338.068 188.417  19
   4  -2   0 225.285 211.368  19
   4  -2   1 68890.7 1809.35  19
   4  -2   1 73645.5 1591.62  18
   4  -2   2 26995.7 1193.47  19
   4  -2   2 29219.9 1030.21  18
   4  -2   3 3119.50 362.848  18
   4  -2   4 6493.87 533.896  18
   4  -2   5 29390.7 1121.38  18
   4  -2   6 68584.6 1661.58  11
   4  -2   6 65393.9 1718.35  18
   4  -2   6 67587.2 1684.05  12
   4  -2   7 34011.9 1207.64  11
   4  -2   7 33164.6 1261.22  18
   4  -2   7 35168.9 1252.62  12
   4  -2   8 367.078 165.851  11
   4  -2   8 177.575 155.665  18
   4  -2   8-10.2273 148.153  13
   4  -2   9 173800. 2780.19  11
   4  -2   9 169305. 2758.97  13
   4  -2   9 167767. 2826.81  12
   4  -2  10 437.162 211.293  12
   4  -2  10-144.246 157.418  11
   4  -2  10 272.026 223.759  15
   4  -2  10 538.221 227.712  13
   4  -2  11 5813.08 578.979  15
   4  -2  11 5784.34 521.341  13
   4  -2  11 5265.86 496.025  12
   4  -2  12 19842.1 965.977  15
   4  -2  12 17076.8 801.387  12
   4  -2  13-133.047 206.979  15
   4  -2  13 187.046 105.863  12
   4  -2  14 494.330 213.782  15
   4  -2  15 21771.1 741.883  15
   4  -1 -17 1508.20 223.570  21
   4  -1 -16 406.262 163.388  20
   4  -1 -16 531.163 191.845  21
   4  -1 -15 551.396 271.024  20
   4  -1 -15 434.244 147.665  21
   4  -1 -14-19.9654 168.249  20
   4  -1 -14 33.5682 171.160  21
   4  -1 -13 26607.6 1168.15  20
   4  -1 -13 23706.5 993.155  21
   4  -1 -12 10106.9 749.001  20
   4  -1 -12 9335.02 708.781   3
   4  -1 -11 5298.86 551.684  20
   4  -1 -11 4932.09 537.416   3
   4  -1 -11 5564.45 541.543  23
   4  -1 -10 15379.5 862.868  20
   4  -1 -10 15828.5 875.399   3
  -4   1  10 15922.3 890.044  27
   4  -1  -9 21292.9 975.898  20
  -4   1   9 19338.3 905.605  27
  -4   1   8 734.993 177.291  27
  -4   1   7 1583.55 278.080  27
  -4   1   6 12139.5 582.564  27
   4  -1  -6 15020.4 804.648  19
   4  -1  -5 28277.5 1083.03  19
  -4   1   5 24512.6 736.499  27
   4  -1  -4 51190.7 1427.49  19
   4  -1  -3 19814.6 890.250  19
   4  -1  -2 6804.03 553.428  19
   4  -1  -1 33182.0 1206.82  19
   4  -1  -1 33242.3 1057.60  18
   4  -1   0 64320.7 1715.92  19
   4  -1   0 63302.6 1469.81  18
   4  -1   1 311.767 183.044  19
   4  -1   1 23.7504 115.029  18
   4  -1   2 14227.5 745.694  18
   4  -1   3 318.465 145.491  18
   4  -1   4 964.799 243.849  18
   4  -1   5 246.679 152.513  18
   4  -1   6 24978.4 1041.34  11
   4  -1   6 24507.4 1142.53  18
   4  -1   7 22904.5 1028.00  11
   4  -1   7 23889.9 1174.88  18
   4  -1   8 5229.73 497.335  11
   4  -1   8 4905.63 553.314  18
   4  -1   8 4557.52 451.932  13
   4  -1   9 27408.0 1095.89  11
   4  -1   9 27077.9 1120.93  13
   4  -1  10 18126.9 896.747  11
   4  -1  10 17327.5 912.613  13
   4  -1  10 17735.9 932.424  12
   4  -1  11 13477.9 809.929  13
   4  -1  11 13902.2 806.938  12
   4  -1  12 940.308 245.986  12
   4  -1  12 1051.66 231.547  13
   4  -1  13 18859.1 867.932  15
   4  -1  13 18941.4 849.203  13
   4  -1  13 16511.6 708.023  12
   4  -1  14 2045.57 297.300  15
   4  -1  15 5558.18 365.246  15
   4   0 -17 1841.03 219.093  16
   4   0 -17 1912.56 231.071  21
   4   0 -16 2784.71 379.182  20
   4   0 -16 2956.58 323.786  21
   4   0 -15 15858.6 863.117  20
   4   0 -15 12929.3 694.615  21
   4   0 -14 4116.45 512.274  20
   4   0 -14 3008.71 412.573  21
   4   0 -13 2706.83 440.963  20
   4   0 -13 3464.14 368.579  10
   4   0 -13 2799.28 400.882  21
   4   0 -12 196.856 246.425  20
   4   0 -12-29.7905 141.903  21
   4   0 -11 5642.15 563.506  20
   4   0 -10 4168.70 510.912  20
   4   0 -10 3986.40 512.426  19
  -4   0  10 4533.84 511.720  27
   4   0 -10 3141.04 555.649  25
   4   0  -9 11319.0 747.577  20
   4   0  -9 10463.9 727.009  19
  -4   0   9 11083.9 764.163  27
   4   0  -9 11051.4 858.545  25
   4   0  -8 6612.98 577.774  20
   4   0  -8 6153.13 553.059  19
   4   0  -8 6497.93 634.144  25
  -4   0   8 6042.23 538.889  27
   4   0  -7 310.745 189.203  19
   4   0  -7 5.65624 205.016  25
  -4   0   7-48.1948 104.161  27
   4   0  -6 4916.57 486.305  19
   4   0  -6 5609.33 549.308  25
   4   0  -5 17182.7 847.346  19
   4   0  -5 17159.9 825.856  25
   4   0  -4 64412.1 1618.01  19
   4   0  -4 64665.4 1442.88  25
   4   0  -3 10400.0 675.715  19
   4   0  -3 9495.73 534.631  25
   4   0  -2 101828. 2079.96  19
   4   0  -2 91282.6 1756.05  18
   4   0  -1 12240.1 773.327  19
   4   0  -1 11102.2 637.619  18
   4   0   0 26318.1 1161.74  19
   4   0   0 24784.9 982.332  18
   4   0   1 25816.3 1047.35  18
   4   0   2 4393.45 465.147  18
   4   0   3 20937.0 1024.60  18
   4   0   4 10516.2 754.581  18
   4   0   5 8701.02 686.527  11
   4   0   5 8771.63 740.513   6
   4   0   5 8027.99 698.966  18
   4   0   6 10869.7 746.709  11
   4   0   6 11194.6 868.852  18
   4   0   6 10335.2 676.815  14
   4   0   7 13208.0 831.438  11
   4   0   7 13425.8 968.810  18
   4   0   7 11882.6 776.220  14
   4   0   7 13156.5 787.171  13
   4   0   8-170.125 115.074  11
   4   0   8 14.5038 176.095  14
   4   0   8 278.035 226.501  13
   4   0   9 91549.7 2023.86  11
   4   0   9 97153.0 2185.13  13
   4   0  10 10679.7 753.617  13
   4   0  11 30438.5 1177.29  13
   4   0  12-9.58434 148.973  12
   4   0  12-115.652 75.8768  13
   4   0  13 744.493 190.892  12
   4   0  13 685.230 222.985  15
   4   0  13 484.728 140.020  13
   4   0  14 4007.64 336.954  15
   4   1 -17 4254.10 314.947  16
   4   1 -16 3093.10 360.089  16
   4   1 -16 2444.69 250.093  21
   4   1 -15 237.719 190.536  20
   4   1 -15 165.939 120.994  21
   4   1 -14 132.237 221.833  20
   4   1 -14-240.718 104.030  21
   4   1 -13 3028.92 487.578  20
   4   1 -12 8238.42 740.133  20
   4   1 -11 19327.3 1072.64  20
   4   1 -11 19482.9 973.381  10
   4   1 -10 17732.6 1014.09  20
   4   1 -10 14962.6 898.157  10
   4   1  -9 18388.3 1021.11  20
   4   1  -9 18608.1 981.603  10
   4   1  -9 18637.8 1201.30  25
   4   1  -8 5088.96 553.832  20
   4   1  -8 5237.01 561.805  10
   4   1  -8 4543.02 631.985  25
   4   1  -7-84.8168 211.932  20
   4   1  -7 51.1170 135.732  19
   4   1  -7 63.8847 77.9943  10
   4   1  -7-25.5796 246.780  25
   4   1  -6 33420.2 1241.66  19
   4   1  -6 37998.7 1489.89  16
   4   1  -6 35837.1 1410.68  25
   4   1  -5 203.106 249.386  19
   4   1  -5 492.656 330.836  25
   4   1  -4 1691.52 323.641  19
   4   1  -4 2072.19 356.698  25
   4   1  -3 664.071 280.481  19
   4   1  -2 5064.43 534.531  19
   4   1  -2 5362.69 428.300  18
   4   1  -1 556.293 163.882  18
   4   1   0 50702.9 1486.72  18
   4   1   1 6329.88 555.923  18
   4   1   2 1106.52 258.390  18
   4   1   3 21339.9 1102.26   6
   4   1   3 25075.6 1200.64  10
   4   1   3 21979.2 1139.25  18
   4   1   3 26310.2 1225.92  17
   4   1   3 21629.9 1067.67   7
   4   1   4 5302.17 609.232   6
   4   1   4 5905.07 612.135  18
   4   1   4 6426.92 635.974  17
   4   1   4 7146.02 646.740  14
   4   1   5 362.350 258.674  18
   4   1   5-48.7004 211.452   6
   4   1   5 42.8667 263.458  14
   4   1   6-16.0035 205.495  11
   4   1   6 102.246 138.326  18
   4   1   6 247.139 262.467  14
   4   1   6-2.67244 154.574  13
   4   1   7 11426.4 835.733  11
   4   1   7 11386.0 824.001  14
   4   1   7 12191.4 811.573  13
   4   1   8 206.505 217.724  11
   4   1   8 173.437 215.222  14
   4   1   8 148.404 269.050  13
   4   1   9 2166.47 337.191  11
   4   1   9 2379.00 389.944  14
   4   1   9 2702.57 411.375  13
   4   1  10 52.4907 171.283  13
   4   1  11 671.734 217.928  13
   4   1  12 294.631 191.629  12
   4   1  12 201.002 129.870  13
   4   1  13 18245.5 668.406  15
   4   1  13 16973.1 639.664  13
   4   1  13 17243.4 631.337  12
   4   2 -16 210.347 129.425  16
   4   2 -15 3773.37 399.619  16
   4   2 -14 3096.04 409.932  16
   4   2 -14 3005.24 396.517  20
   4   2 -13 88.4714 247.286  20
   4   2 -13 305.534 259.076  16
   4   2 -12 20151.4 1102.10  20
   4   2 -12 18411.6 976.983  17
   4   2 -11 1970.77 464.655  20
   4   2 -10 1933.22 449.230  20
   4   2 -10 2095.57 406.283  16
   4   2  -9 739.754 344.262  20
   4   2  -9 455.024 192.390  10
   4   2  -9 409.819 288.105  16
   4   2  -8 26864.9 1305.11  20
   4   2  -8 26019.1 1247.53  10
   4   2  -8 29161.8 1341.41  16
   4   2  -7 3743.82 525.520  20
   4   2  -7 3838.97 524.138  10
   4   2  -7 3623.15 516.740  16
   4   2  -7 4516.92 657.613  25
   4   2  -6 4369.35 517.394  20
   4   2  -6 2868.09 436.957  10
   4   2  -6 3063.75 489.751  16
   4   2  -6 3098.56 540.867  25
   4   2  -5 209.097 238.375  10
   4   2  -5 159.548 236.724  17
   4   2  -5 60.6093 193.080  16
   4   2  -4 4957.27 594.931  10
   4   2  -4 4276.34 609.530  17
   4   2  -4 6214.06 629.055  16
   4   2  -4 5319.38 576.784   7
   4   2  -3 1611.25 340.068  10
   4   2  -3 1728.09 423.480  17
   4   2  -3 2327.80 442.179  16
   4   2  -2 68451.4 2152.21  17
   4   2  -2 66436.0 1817.38   7
   4   2  -1 268.044 250.796  10
   4   2  -1-141.809 213.113  17
   4   2  -1-250.918 142.419  16
   4   2   0 1270.40 315.422  10
   4   2   0 1064.44 291.975  17
   4   2   1 27164.0 1236.84  10
   4   2   1 21630.4 1051.55  18
   4   2   1 27688.7 1268.49   6
   4   2   1 22057.7 1215.24  17
   4   2   1 24758.1 1271.23  14
   4   2   2 687.473 226.012  18
   4   2   2 846.595 292.123   6
   4   2   2 537.235 274.732  17
   4   2   2 396.994 365.400  14
   4   2   3 7766.27 752.243   6
   4   2   3 9305.17 758.013  18
   4   2   3 6812.67 718.240  17
   4   2   3 7948.11 781.348  14
   4   2   4 447.253 324.094  18
   4   2   4 383.309 240.695   6
   4   2   4-77.5276 216.723  17
   4   2   4 335.354 307.878  14
   4   2   5 16801.2 1043.42   6
   4   2   5 17031.9 1053.21  14
   4   2   6-39.3803 219.348  11
   4   2   6-427.988 276.998  14
   4   2   7 7209.17 662.265  11
   4   2   7 9301.08 784.266  14
   4   2   7 7734.30 695.269  13
   4   2   8 5881.76 549.147  11
   4   2   8 7483.42 680.658  14
   4   2   8 5844.79 604.296  13
   4   2   9 10769.7 765.189  14
   4   2   9 9522.78 685.727  13
   4   2  10 5833.62 497.160  13
   4   2  11 36355.5 1041.94  13
   4   2  12 44.8946 105.047  12
   4   2  12 145.650 84.8627  13
   4   3 -15 1050.92 174.578  16
   4   3 -14 5785.01 425.734  16
   4   3 -13 3774.67 393.388  17
   4   3 -13 5029.93 460.674  16
   4   3 -12 8371.17 620.741  17
   4   3 -12 9109.76 638.961  16
   4   3 -11 680.390 247.969  17
   4   3 -11 451.893 268.107  16
   4   3 -10 3225.12 483.614  17
   4   3 -10 2382.18 409.286  16
   4   3  -9 173.019 251.276  17
   4   3  -9 77.2575 215.802  16
   4   3  -8 24817.7 1309.35  17
   4   3  -8 24044.2 1142.11  16
   4   3  -7 556.442 172.342  10
   4   3  -7 86.0275 278.253  17
   4   3  -7 87.1765 209.976  16
   4   3  -6 4533.92 542.898  10
   4   3  -6 4598.85 618.436  17
   4   3  -6 4129.00 513.345  16
   4   3  -5 10077.4 798.624  10
   4   3  -5 11176.6 922.356  17
   4   3  -5 10104.8 769.173  16
   4   3  -4 9271.32 778.357  10
   4   3  -4 9870.64 888.591  17
   4   3  -4 8780.39 737.770  16
   4   3  -3 17149.0 1031.79  10
   4   3  -3 18935.5 1184.41  17
   4   3  -3 18071.8 1004.18  16
   4   3  -2 984.763 356.420  10
   4   3  -2 1158.12 372.953  17
   4   3  -1 16394.9 960.115   6
   4   3  -1 14457.2 1073.72  17
   4   3   0 11058.2 798.463   6
   4   3   0 10724.1 892.069  17
   4   3   1 31909.1 1288.03   6
   4   3   1 29816.3 1398.08  17
   4   3   1 28567.0 1430.05  14
   4   3   2-68.3002 197.827   6
   4   3   2 352.316 280.214  17
   4   3   2 22.2929 312.208  14
   4   3   3 1708.90 365.289   6
   4   3   3 1135.76 330.485  17
   4   3   3 1027.15 391.633  14
   4   3   4 30.3697 279.076  14
   4   3   5 13438.5 917.536  14
   4   3   6 336.469 223.815  11
   4   3   6 364.623 253.972  14
   4   3   7 1707.25 309.805  11
   4   3   7 1939.30 322.414  13
   4   3   8 268.671 211.628  14
   4   3   8 88.0298 137.840  13
   4   3   9 8514.84 566.111  14
   4   3   9 7145.75 474.337  13
   4   3  10 4796.90 326.848  13
   4   3  11 1010.60 152.853  12
   4   4 -13 149.419 88.6188  17
   4   4 -13 162.907 112.848  16
   4   4 -12 538.082 178.071  17
   4   4 -12 567.987 171.681  16
   4   4 -11 86.4559 140.622  17
   4   4 -11-87.6625 143.293  16
   4   4 -10 2070.10 348.885  17
   4   4 -10 1868.70 330.835  16
   4   4  -9 2597.48 423.095  17
   4   4  -9 2294.97 372.594  16
   4   4  -8 8024.90 692.495  17
   4   4  -8 5829.56 513.283  16
   4   4  -7 18.7576 242.777  17
   4   4  -7 99.6741 190.965  16
   4   4  -6 18565.9 1073.30  17
   4   4  -6 16064.8 850.102  16
   4   4  -5 15582.7 986.283  17
   4   4  -5 12890.3 768.954  16
   4   4  -4 303.564 239.705  17
   4   4  -3 3125.77 428.108   6
   4   4  -3 3383.03 524.859  17
   4   4  -2 9758.71 681.804   6
   4   4  -2 11795.9 849.955  17
   4   4  -1 11940.6 845.472  17
   4   4  -1 13550.5 936.192  14
   4   4   0 326.507 211.057   6
   4   4   0 510.266 285.395  17
   4   4   0 277.102 261.743  14
   4   4   1 3325.16 397.432   6
   4   4   1 3859.20 487.582  17
   4   4   1 3872.28 569.440  14
   4   4   2 1697.57 318.069  17
   4   4   2 2544.01 475.443  14
   4   4   3 94.2402 282.582  14
   4   4   4 4107.26 482.649  14
   4   4   5 9064.78 636.500  11
   4   4   5 12330.7 748.983  14
   4   4   6 262.667 137.823  11
   4   4   6 305.203 195.084  14
   4   4   6 69.8367 125.623  13
   4   4   7 8950.18 542.566  14
   4   4   7 5862.63 361.836  13
   4   4   8 692.141 155.093  14
   4   5 -11 1066.79 169.299  17
   4   5 -10 311.347 138.949  17
   4   5  -9 5326.05 417.339  17
   4   5  -8 1578.90 274.252  17
   4   5  -7 6349.38 503.103  17
   4   5  -6 8255.83 579.479  17
   4   5  -5 6147.93 524.290  17
   4   5  -4 5833.76 508.793  17
   4   5  -3-54.8612 145.326  17
   4   5  -3 502.858 237.697  14
   4   5  -2 231.057 161.744  17
   4   5  -2-123.589 210.543  14
   4   5  -1 21345.9 845.911  17
   4   5  -1 24926.1 1026.69  14
   4   5   0-25.5300 117.189  17
   4   5   0-45.5103 163.375  14
  -4  -5  -1 3138.76 332.337   4
   4   5   1 3978.07 420.223  14
   4   5   2 868.170 227.008  14
   4   5   3 140.488 160.319  14
   4   5   4 518.253 136.654  11
   4   5   4 1028.90 205.955  14
   4   5   5 7973.81 401.809  14
   4   6  -5 652.500 127.759  14
   4   6  -4-115.933 87.5811  14
   4   6  -3 6760.83 353.920  14
   4   6  -2 54.6613 108.630  14
   4   6  -1 3804.15 258.564  14
   4   6   0 1434.18 156.080  11
   4   6   0 1700.38 157.096  14
   5  -9  -4 857.021 142.502  24
   5  -9  -3 691.370 164.286  20
   5  -9  -3 1054.28 172.433  24
   5  -9  -2-270.832 146.937  24
   5  -9  -1 4050.28 325.468  24
   5  -9   0 2235.51 272.359  24
   5  -9   1 10936.9 503.199  24
   5  -9   2 308.872 156.461  24
   5  -9   3 989.968 159.446  24
   5  -9   4 1785.19 197.118  24
   5  -8  -8 5887.01 350.393  23
   5  -8  -7 116.389 120.588  20
   5  -8  -7-169.174 104.775  23
   5  -8  -6 179.946 179.911  20
   5  -8  -6 331.239 215.774  24
   5  -8  -6 146.189 119.742  23
   5  -8  -5 235.405 166.089  20
   5  -8  -5-57.6320 198.125  24
   5  -8  -5-226.457 176.295  23
   5  -8  -4 1041.86 293.026  24
   5  -8  -4 777.796 193.998  23
   5  -8  -3 14171.8 773.740  24
   5  -8  -2 3455.22 471.397  24
   5  -8  -1 2030.91 390.509  24
   5  -8   0 4291.59 490.363  24
   5  -8   1 11135.3 694.185  24
   5  -8   2 23.3389 223.824   5
   5  -8   2-218.854 229.678  24
   5  -8   3 5126.78 478.946   5
   5  -8   3 5310.26 479.207  24
   5  -8   4 10865.0 618.709   5
   5  -8   4 10653.2 625.670  24
   5  -8   5 5384.69 418.330   5
   5  -8   5 5341.86 436.238  24
   5  -8   6 2568.02 280.400   5
   5  -8   6 2518.91 294.846  24
   5  -8   7 8894.75 449.938  24
   5  -8   8-71.2891 83.5072  24
   5  -7 -11 2201.25 227.142  23
   5  -7 -10 2788.45 265.125  20
   5  -7 -10 2457.66 299.817  23
   5  -7  -9 11334.4 607.522  20
   5  -7  -9 10061.9 605.401  23
   5  -7  -8 131.582 200.162  20
   5  -7  -8 248.598 171.124  23
   5  -7  -7 4189.05 499.623  20
   5  -7  -7 5039.63 566.678  24
   5  -7  -7 3160.09 427.556  23
   5  -7  -6 8936.14 695.554  20
   5  -7  -6 8066.95 722.780  24
   5  -7  -5 28376.7 1263.11  24
   5  -7  -5 19147.4 1030.87  23
   5  -7  -4 16.9165 305.134  24
   5  -7  -3 2695.50 446.629  24
   5  -7  -2 86.1255 268.699   5
   5  -7  -2-401.924 322.951  24
   5  -7  -1 778.298 354.711  24
   5  -7  -1 716.028 322.798   5
   5  -7   0 1455.51 400.125   5
   5  -7   0 1146.97 417.766  24
   5  -7   1 26802.2 1224.14   5
   5  -7   1 27340.8 1211.02  24
   5  -7   2 2183.18 448.420  24
   5  -7   2 2239.94 459.517   5
   5  -7   3 28647.7 1235.33   5
   5  -7   3 29232.1 1207.17  24
   5  -7   4 74305.3 1915.71   5
   5  -7   4 72792.0 1828.88  24
   5  -7   5 3597.37 481.613   5
   5  -7   6 857.217 273.398  15
   5  -7   6 758.709 257.094   5
   5  -7   7 2733.13 380.148   5
   5  -7   7 2733.65 397.167  15
   5  -7   8 21259.7 776.283   5
   5  -7   8 22710.3 896.064  15
   5  -7   9 2722.12 314.449  15
   5  -7  10 187.791 101.127  24
   5  -6 -13-214.794 126.274  23
   5  -6 -12 616.339 185.131  23
   5  -6 -11 9618.86 578.417  20
   5  -6 -11 10366.1 635.443  23
   5  -6 -10 4120.69 471.439  20
   5  -6 -10 5105.54 511.196  23
   5  -6  -9 3437.30 479.892  20
   5  -6  -9 2627.82 441.644  23
   5  -6  -8 1767.78 411.300  20
   5  -6  -8 2033.07 462.408  24
   5  -6  -8 1923.24 416.161  23
   5  -6  -7 5920.04 662.475  20
   5  -6  -7 6682.45 708.755  24
   5  -6  -7 6338.25 673.927  23
   5  -6  -6 15722.8 1013.47  24
   5  -6  -6 14740.1 952.381  23
   5  -6  -5 8001.01 764.836  24
   5  -6  -5 8258.71 722.728  23
   5  -6  -4 1582.34 394.413   5
   5  -6  -4 1194.97 361.642  24
   5  -6  -3 14746.8 956.344   5
   5  -6  -3 11913.9 895.293  24
   5  -6  -2-364.247 347.188  24
   5  -6  -2 76.7700 260.773   5
   5  -6  -1 29074.4 1275.81   5
   5  -6  -1 25756.2 1239.51  24
   5  -6   0 477.461 373.982  24
   5  -6   0 965.588 385.470   5
   5  -6   1 3580.69 564.304   5
   5  -6   1 3317.07 533.764  24
   5  -6   2 30542.0 1316.89  15
   5  -6   2 30271.2 1315.24   5
   5  -6   2 30127.8 1312.24  24
   5  -6   3 1077.70 354.658  15
   5  -6   3 1380.42 431.240   5
   5  -6   4 3559.04 517.806  15
   5  -6   4 3103.68 506.347   5
   5  -6   5-87.0097 303.992  15
   5  -6   5 140.201 355.438   5
   5  -6   6 4232.27 568.103  15
   5  -6   6 3824.09 505.250   5
   5  -6   7 1616.07 401.235  15
   5  -6   7 1377.18 331.600   5
   5  -6   8 347.544 291.310  15
   5  -6   8 770.766 242.582   5
   5  -6   9 2111.80 371.629  15
   5  -6   9 1567.58 298.208   5
   5  -6  10 17172.1 798.032  15
   5  -6  10 15521.6 633.351   5
   5  -6  11 532.280 176.051  15
   5  -6  12 1408.57 200.833  15
   5  -5 -13 218.009 201.105  20
   5  -5 -13-322.311 194.606  23
   5  -5 -12 639.701 249.805  20
   5  -5 -12 738.365 229.958  23
   5  -5 -11 11893.1 767.576  20
   5  -5 -11 12420.8 771.007  23
   5  -5 -10 5207.91 567.268  20
   5  -5 -10 5481.61 554.200  23
   5  -5  -9 13518.5 917.674  20
   5  -5  -9 13103.1 848.840  23
   5  -5  -8 78.6305 267.007  20
   5  -5  -8 354.362 285.270  24
   5  -5  -8 578.401 272.903  23
   5  -5  -7 1106.20 350.621  20
   5  -5  -7 1836.11 403.366  24
   5  -5  -7 1338.27 351.430  23
   5  -5  -6 9717.17 783.166  24
   5  -5  -5 104037. 2692.36  19
   5  -5  -5 103809. 2264.41   5
   5  -5  -5 101564. 2343.45  24
   5  -5  -4 4953.39 602.128  19
   5  -5  -4 4073.53 501.314  24
   5  -5  -4 3219.08 446.306   5
   5  -5  -3 29382.9 1247.66   5
   5  -5  -3 30140.6 1248.59  24
   5  -5  -2 19234.4 1038.92   5
   5  -5  -2 22334.1 1086.82  24
   5  -5  -1 837.126 374.839  24
   5  -5  -1 919.188 312.700   5
   5  -5   0 325.047 331.371  24
   5  -5   0 419.574 230.864   5
   5  -5   1 4448.48 593.427  15
   5  -5   1 4657.63 505.023   5
   5  -5   2 11138.0 830.493  15
   5  -5   3 40622.4 1519.84  15
   5  -5   4 6546.71 677.136  15
   5  -5   5 5332.15 598.150  15
   5  -5   6 31876.7 1382.92  15
   5  -5   7 4203.28 570.538  15
   5  -5   8 65007.7 1911.87  15
   5  -5   9 41.3986 216.434  15
   5  -5  10 3419.04 457.641  15
   5  -5  11 17084.1 823.829  15
   5  -5  11 14969.5 626.198   5
   5  -5  12 1315.49 237.593  15
   5  -5  13 5621.33 356.432  15
   5  -4 -15 1109.41 161.237  21
   5  -4 -14-110.633 226.563  20
   5  -4 -13 1496.28 316.383  20
   5  -4 -13 1387.86 260.207  23
   5  -4 -12 22458.4 1046.75  20
   5  -4 -12 22234.7 961.115  23
   5  -4 -11 5786.39 578.751  20
   5  -4 -11 5225.04 528.338  23
   5  -4 -10 1164.02 327.454  20
   5  -4 -10 884.537 321.857  23
   5  -4  -9 16714.1 1003.83  20
   5  -4  -8 3599.34 498.639  20
   5  -4  -7 44140.6 1553.76  20
   5  -4  -7 41839.3 1396.07  24
   5  -4  -6 1838.99 362.242  24
   5  -4  -6 1601.59 374.088  20
   5  -4  -5 4463.64 582.403  19
   5  -4  -4 45201.4 1786.11  19
   5  -4  -4 60790.3 1595.06   8
   5  -4  -3 4056.41 503.136  19
   5  -4  -2 2023.84 351.168  19
   5  -4  -1 12488.3 874.530  19
   5  -4   0 7987.50 687.567  19
   5  -4   1 5894.68 555.958  11
   5  -4   2 49621.3 1551.23  11
   5  -4   2 52040.5 1659.84  15
   5  -4   2 52122.4 1685.63   9
   5  -4   3 12508.5 813.895  11
   5  -4   3 11232.4 801.989  15
   5  -4   4 993.573 277.041  11
   5  -4   4 832.775 331.097  15
   5  -4   5 1925.27 371.501  15
   5  -4   6 13954.1 911.302  15
   5  -4   7 690.001 331.333  15
   5  -4   8 4858.77 578.694  15
   5  -4   9-44.7203 205.844  15
   5  -4  10 1621.79 364.149  15
   5  -4  11 2577.10 387.600  15
   5  -4  12 10051.6 624.669  15
   5  -4  13 1905.33 278.608  15
   5  -3 -16 2475.55 243.328  10
   5  -3 -15 150.009 145.432  20
   5  -3 -15-44.4444 69.4586  21
   5  -3 -14 217.857 230.467  20
   5  -3 -13 17887.2 919.323  20
   5  -3 -12 537.481 297.427  20
   5  -3 -12 434.817 255.060  23
   5  -3 -11 5715.18 595.697  20
   5  -3 -10 4097.87 510.784  20
   5  -3  -9 8171.92 669.528  20
   5  -3  -8 68.1641 280.568  20
   5  -3  -7 524.876 299.864  20
   5  -3  -7-31.1893 279.672  19
   5  -3  -6 1008.33 276.042  20
   5  -3  -6 743.643 234.385  19
   5  -3  -5 17574.8 885.798  20
   5  -3  -5 17530.8 1102.53  19
   5  -3  -4 72108.2 2147.10  19
   5  -3  -3 39569.7 1559.40  19
   5  -3  -2 214.834 182.067  19
   5  -3  -1 425.919 175.591  19
   5  -3   0 92525.2 2407.41  19
   5  -3   1 175.425 205.843  19
   5  -3   2 20404.4 927.019  11
   5  -3   2 19026.2 1147.66  19
   5  -3   2 20644.7 943.233  12
   5  -3   3 176.072 109.285  12
   5  -3   3 213.607 146.083  11
   5  -3   4 8196.34 631.818  11
   5  -3   4 9016.86 688.576  15
   5  -3   4 7847.41 606.216  12
   5  -3   5 30814.1 1221.55  11
   5  -3   5 31221.7 1243.25  15
   5  -3   5 30732.1 1217.70  12
   5  -3   6 17967.8 955.695  11
   5  -3   6 17902.0 967.803  15
   5  -3   6 17225.5 932.405  12
   5  -3   7 19823.7 1000.60  11
   5  -3   7 20160.8 1029.28  15
   5  -3   7 20104.6 998.233  12
   5  -3   8 1993.75 354.151  11
   5  -3   8 2284.26 419.588  15
   5  -3   8 1784.46 363.924  12
   5  -3   9 5956.38 604.292  15
   5  -3   9 5293.29 550.236  12
   5  -3  10 17415.9 931.080  15
   5  -3  10 14606.7 817.797  12
   5  -3  11 12168.8 755.708  15
   5  -3  12 3036.86 392.702  15
   5  -3  13 13954.4 663.322  15
   5  -3  14 960.466 153.449  15
   5  -2 -16 3471.11 332.608  20
   5  -2 -16 3871.92 302.466  10
   5  -2 -15 33904.1 1140.28  20
   5  -2 -15 30591.2 965.685  10
   5  -2 -14 1132.92 308.959  20
   5  -2 -13 612.684 277.716  20
   5  -2 -12 1475.60 371.284  20
   5  -2 -11 648.780 314.626  20
   5  -2 -10 23982.4 1101.38  20
   5  -2  -9 14583.8 867.832  20
   5  -2  -9 15354.8 1024.71  19
   5  -2  -8 832.676 238.257  20
   5  -2  -8 576.742 216.374  19
   5  -2  -7 11113.3 735.384  20
   5  -2  -7 11417.1 865.097  19
   5  -2  -7 13242.2 774.503   8
   5  -2  -6 28067.1 1100.18  20
   5  -2  -6 29054.1 1350.57  19
   5  -2  -5 992.077 316.740  19
   5  -2  -4 11945.3 841.335  19
   5  -2  -3 42883.3 1577.44  19
   5  -2  -2 29603.0 1340.65  19
   5  -2  -1 107.676 113.755  19
   5  -2   0 528.603 227.167  19
   5  -2   1-45.0644 90.8282  19
   5  -2   2 32357.0 1274.87  18
   5  -2   3 1737.88 327.409  12
   5  -2   3 1646.35 307.263  11
   5  -2   3 1556.24 303.502  18
   5  -2   3 1387.91 341.579   6
   5  -2   4 14907.1 823.908  11
   5  -2   4 13645.9 880.041  18
   5  -2   4 15000.4 856.483  12
   5  -2   5 5688.70 516.868  11
   5  -2   5 4973.89 553.488  18
   5  -2   5 5411.32 534.301  12
   5  -2   6 19871.8 975.238  11
   5  -2   6 19783.5 1080.51  18
   5  -2   6 22293.3 1042.69  15
   5  -2   6 21333.9 901.673   8
   5  -2   6 22127.8 1068.92  12
   5  -2   7 6644.75 578.404  11
   5  -2   7 7623.75 661.124  15
   5  -2   7 7105.70 633.245  12
   5  -2   8 5142.34 510.968  11
   5  -2   8 5146.36 550.947  15
   5  -2   8 5026.49 530.510  12
   5  -2   9 620.381 234.270  12
   5  -2   9 447.324 192.906  11
   5  -2   9 865.289 207.627  15
   5  -2  10 1628.55 336.954  15
   5  -2  10 1743.83 309.125  12
   5  -2  11 1026.66 241.841  12
   5  -2  11 917.988 276.601  15
   5  -2  12 341.705 196.953  15
   5  -2  12 443.299 188.183  12
   5  -2  13 658.664 192.802  15
   5  -1 -16 154.328 151.419  20
   5  -1 -15 1632.78 322.082  20
   5  -1 -15 2222.56 274.786  10
   5  -1 -14 202.027 206.641  20
   5  -1 -14-221.852 136.651  10
   5  -1 -13 11443.2 769.454  20
   5  -1 -13 11278.2 715.641  10
   5  -1 -12 144.220 209.830  20
   5  -1 -12 589.037 285.199  16
   5  -1 -11 9871.22 735.907  20
   5  -1 -11 9435.98 828.938  16
   5  -1 -10 38241.9 1367.84  20
   5  -1 -10 35432.9 1528.13  16
   5  -1  -9 21679.9 1027.99  20
   5  -1  -9 20351.4 1092.32  19
   5  -1  -9 19814.7 1160.64  16
   5  -1  -8 1563.66 340.787  20
   5  -1  -8 1157.66 301.750  19
   5  -1  -8 1950.57 391.898  16
   5  -1  -7-69.8100 212.031  20
   5  -1  -7-137.553 160.621  19
   5  -1  -7-85.9261 162.429  16
   5  -1  -7-146.763 148.573   8
   5  -1  -6 14676.0 800.156  20
   5  -1  -6 14113.8 896.025  19
   5  -1  -6 15853.1 989.163  16
   5  -1  -6 14271.1 790.986   8
   5  -1  -5 208.104 179.316  19
   5  -1  -5 41.2837 132.767   8
   5  -1  -4 10322.3 774.438  19
   5  -1  -3 10044.3 765.974  19
   5  -1  -2 10539.4 819.304  19
   5  -1  -1 10899.3 845.182  19
   5  -1   0 60743.5 2009.99  19
   5  -1   0 56131.7 1677.86  18
   5  -1   1 1300.58 264.784  18
   5  -1   2 62603.6 1721.91  11
   5  -1   2 64416.3 1791.88   6
   5  -1   2 62530.5 1568.83   8
   5  -1   2 62257.9 1718.03   7
   5  -1   3 41137.7 1430.42  11
   5  -1   3 42389.7 1515.88   6
   5  -1   3 38388.8 1501.00  18
   5  -1   3 41399.0 1275.59   8
   5  -1   3 40685.0 1443.32   7
   5  -1   4 38751.4 1417.45  11
   5  -1   4 43801.7 1558.05   6
   5  -1   4 37430.9 1516.01  18
   5  -1   4 44513.4 1316.93   8
   5  -1   4 39160.3 1437.63   7
   5  -1   5 6575.85 609.400  11
   5  -1   5 5530.92 609.962  18
   5  -1   5 6885.65 760.392   7
   5  -1   6 145.667 167.526  11
   5  -1   6 546.988 279.131  18
   5  -1   7 2551.58 379.670  11
   5  -1   7 2542.07 417.767  12
   5  -1   8 7572.86 599.874  11
   5  -1   8 7440.90 631.541  15
   5  -1   8 8173.79 691.732  12
   5  -1   9 10988.9 702.579  11
   5  -1   9 11392.8 767.185  15
   5  -1   9 11631.4 794.105  12
   5  -1  10 1408.22 311.830  12
   5  -1  10 2015.71 293.241  11
   5  -1  10 1915.64 348.582  15
   5  -1  11 2319.82 326.979  15
   5  -1  11 2606.44 346.597  12
   5  -1  12-3.17410 123.784  12
   5  -1  12-159.010 153.237  15
   5  -1  13 24891.6 754.533  15
   5   0 -16 1438.49 243.243  20
   5   0 -16 1216.34 169.812  16
   5   0 -15 24547.1 949.763  20
   5   0 -15 20261.0 836.432  16
   5   0 -14 926.366 280.116  20
   5   0 -14 218.933 243.726  16
   5   0 -13 9420.46 700.107  20
   5   0 -13 8595.57 592.207  10
   5   0 -13 8715.59 705.976  16
   5   0 -12 30497.5 1270.21  20
   5   0 -12 28161.4 1128.71  10
   5   0 -12 32716.0 1424.63  16
   5   0 -11 2297.13 402.133  20
   5   0 -11 2377.47 385.055  10
   5   0 -11 3251.52 531.185  16
   5   0 -10 1996.64 361.981  20
   5   0 -10 1383.64 336.636  10
   5   0 -10 2211.36 435.285  16
   5   0  -9 176.670 280.312  20
   5   0  -9 361.832 239.844  10
   5   0  -9 631.560 335.053  16
   5   0  -8 17801.5 945.898  20
   5   0  -8 18867.4 1081.83  19
   5   0  -8 17796.3 979.635  10
   5   0  -8 18985.0 1164.42  16
   5   0  -7 14142.5 835.613   7
   5   0  -7 14723.5 829.313  20
   5   0  -7 14363.9 920.681  19
   5   0  -7 14739.7 901.224  10
   5   0  -7 14984.2 1034.09  16
   5   0  -6 51545.1 1517.94   7
   5   0  -6 54255.0 1507.02  20
   5   0  -6 46737.3 1633.04  19
   5   0  -6 46639.1 1581.57  10
   5   0  -6 54255.4 1739.73  17
   5   0  -6 46386.1 1736.87  16
   5   0  -6 47524.4 1547.04   8
   5   0  -5 1311.33 282.673   7
   5   0  -5 1181.75 302.538  19
   5   0  -5 1367.28 347.725  17
   5   0  -5 1109.14 296.611  10
   5   0  -5 1149.25 416.381  16
   5   0  -5 1192.29 312.698   8
   5   0  -4-205.373 201.349   7
   5   0  -4-288.909 188.548  19
   5   0  -4 310.519 240.741  17
   5   0  -4-33.4351 227.325  10
   5   0  -4-257.671 253.158  16
   5   0  -4 252.030 180.878   8
   5   0  -3 10350.6 730.381   7
   5   0  -3 9137.64 748.826  19
   5   0  -3 9432.80 742.222  10
   5   0  -3 11276.5 803.251  17
   5   0  -3 8595.30 761.027  16
   5   0  -3 8630.85 751.019   9
   5   0  -3 10092.8 699.019   8
   5   0  -2 63246.0 1727.50   7
   5   0  -2 60538.9 1944.38  19
   5   0  -2 60039.9 1807.99  10
   5   0  -2 73323.2 1987.11  17
   5   0  -2 56269.1 1833.74  16
   5   0  -2 71510.4 1950.25   9
   5   0  -2 64294.9 1696.88   8
   5   0  -1 1760.67 336.820   7
   5   0  -1 1894.22 414.298  19
   5   0  -1 1598.22 294.446  18
   5   0  -1 1827.76 420.239  17
   5   0  -1 1450.93 377.486  10
   5   0  -1 1510.41 432.492   9
   5   0  -1 1805.52 339.333   8
   5   0   0 8513.65 679.692  18
   5   0   0 10631.1 826.342  10
   5   0   0 9858.20 809.261   6
   5   0   0 11319.8 827.668  17
   5   0   0 9560.87 783.683   9
   5   0   0 10032.6 672.040   8
   5   0   0 8977.52 711.334   7
   5   0   1 28573.8 1283.78  18
   5   0   1 31324.2 1382.78   6
   5   0   1 34164.8 1431.60  10
   5   0   1 35944.2 1429.07  17
   5   0   1 31325.0 1307.86   9
   5   0   1 34363.0 1240.35   8
   5   0   1 30765.8 1254.33   7
   5   0   2 44.5978 230.758   7
   5   0   2 445.091 224.619  11
   5   0   2 191.507 147.027  18
   5   0   2 149.559 228.640  10
   5   0   2 781.776 306.432   6
   5   0   2 343.651 233.517  17
   5   0   2-481.577 289.473   9
   5   0   2-410.222 179.891   8
   5   0   3 670.710 467.320   7
   5   0   3 1002.54 300.257  11
   5   0   3 656.146 274.999  18
   5   0   3 909.263 331.864   6
   5   0   3 527.068 224.478  10
   5   0   4 20803.7 1123.55  11
   5   0   4 19492.0 1168.72   6
   5   0   4 18185.1 1121.78  18
   5   0   4 22439.2 1191.17   7
   5   0   5 4106.31 534.290  11
   5   0   5 3875.32 576.521   6
   5   0   6-68.5769 146.469  11
   5   0   6 459.737 148.201  14
   5   0   7 27437.9 1211.69  11
   5   0   7 26689.8 1093.43  14
   5   0   8 1247.72 290.326  11
   5   0   9 2916.71 360.472  11
   5   0   9 3160.27 368.027  15
   5   0   9 2955.91 471.362  12
   5   0  10 1227.46 310.401  12
   5   0  10 1037.24 225.407  11
   5   0  10 1241.21 245.232  15
   5   0  11 8606.93 526.446  15
   5   0  11 10349.9 626.607  12
   5   0  12 3887.72 303.289   9
   5   0  12 3534.66 279.823  15
   5   0  12 3326.81 314.458  12
   5   1 -16 82.8483 108.395  16
   5   1 -15 57.1362 97.3804  16
   5   1 -15 184.785 157.641  20
   5   1 -14-184.302 186.878  20
   5   1 -14 142.550 158.881  16
   5   1 -13 2143.77 382.405  20
   5   1 -13 2879.03 429.168  16
   5   1 -12 636.696 295.050  20
   5   1 -12 1145.73 228.603  10
   5   1 -12 771.990 348.352  16
   5   1 -11 6015.35 603.816  20
   5   1 -11 5866.65 549.169  10
   5   1 -11 7039.71 691.424  16
   5   1 -10 2041.19 409.300  20
   5   1 -10 1436.45 324.065  10
   5   1 -10 2201.59 461.677  16
   5   1  -9 1597.42 418.429  20
   5   1  -9 1880.06 385.259  17
   5   1  -9 1993.57 402.590  10
   5   1  -9 1828.97 481.015  16
   5   1  -8 53419.9 1694.14  20
   5   1  -8 53502.1 1762.09  10
   5   1  -7 219.904 232.009  20
   5   1  -7 885.450 296.702  17
   5   1  -7 133.471 267.893  10
   5   1  -7 561.503 384.263  16
   5   1  -6 965.219 293.656   7
   5   1  -6 809.357 334.517  17
   5   1  -6 242.758 257.609  10
   5   1  -6 476.551 340.794  16
   5   1  -5 7753.17 738.714  19
   5   1  -5 5965.98 653.749  10
   5   1  -5 6204.82 691.200  17
   5   1  -5 6569.10 716.482  16
   5   1  -5 6016.75 595.706   7
   5   1  -4 16224.7 1002.08  10
   5   1  -4 15557.2 1089.09  17
   5   1  -4 18914.6 1146.48  16
   5   1  -4 16778.8 957.374   7
   5   1  -3 3760.75 525.473  10
   5   1  -3 3859.72 572.506  17
   5   1  -3 4078.51 590.448  16
   5   1  -3 3756.00 494.564   7
   5   1  -2 514.239 270.205   7
   5   1  -2 443.308 274.899  10
   5   1  -2 750.074 301.912  17
   5   1  -2 57.2446 217.525  16
   5   1  -2 769.365 320.621   8
   5   1  -1-31.0288 248.270   7
   5   1  -1 201.244 218.796  10
   5   1  -1-37.5393 198.608  17
   5   1  -1 221.165 191.428   8
   5   1   0 885.731 438.728   7
   5   1   0 167.974 208.232  10
   5   1   0 403.022 254.916   6
   5   1   0 225.769 268.279  17
   5   1   0 585.055 275.582   8
   5   1   1 738.624 271.269  18
   5   1   1 449.058 304.514  10
   5   1   1 847.535 349.056   6
   5   1   1 730.744 343.559  17
   5   1   1 1081.98 253.001   8
   5   1   2 44924.6 1647.23  10
   5   1   2 45005.6 1711.12  18
   5   1   2 46399.9 1754.91  17
   5   1   3 1406.15 382.523  11
   5   1   3 1269.82 365.346  17
   5   1   3 822.577 339.298   6
   5   1   3 1816.63 353.960   9
   5   1   3 1163.82 312.748  14
   5   1   4 152.638 222.359  11
   5   1   4 625.463 191.867   9
   5   1   4 294.112 172.723  14
   5   1   5 28338.9 1374.64  11
   5   1   5 25631.7 1090.55   9
   5   1   5 26278.2 1153.39  14
   5   1   6 120.436 179.918  11
   5   1   6 438.880 263.422  14
   5   1   7 13563.3 854.775  11
   5   1   7 14705.1 851.430  14
   5   1   8 530.639 207.304  11
   5   1   8 201.323 150.304   9
   5   1   9-133.962 125.931  11
   5   1   9-346.270 111.470   9
   5   1  10 12488.6 694.583  12
   5   1  11 1307.76 221.510  12
   5   2 -15 11399.0 463.084  16
   5   2 -14 2079.86 281.050  16
   5   2 -13 33005.4 1073.59  16
   5   2 -12 13743.4 781.675  16
   5   2 -12 13789.5 770.104  20
   5   2 -11 2100.17 351.280  17
   5   2 -11 2380.80 399.722  16
   5   2 -11 2638.14 406.496  20
   5   2 -10 6598.59 636.623  20
   5   2 -10 8132.30 698.929  17
   5   2 -10 8209.14 709.024  16
   5   2  -9 1490.04 300.831  20
   5   2  -9 1159.76 300.286  10
   5   2  -9 1258.47 358.719  17
   5   2  -9 1544.49 412.868  16
   5   2  -8 13425.2 844.920  20
   5   2  -8 14396.4 909.566  10
   5   2  -8 15539.0 1028.99  17
   5   2  -8 17013.7 1007.67  16
   5   2  -7 176.492 247.991  10
   5   2  -7 548.071 331.981  17
   5   2  -7-92.5102 268.281  16
   5   2  -6 7427.82 721.778  10
   5   2  -6 8741.57 836.034  17
   5   2  -6 9151.89 787.234  16
   5   2  -5 961.136 284.751  10
   5   2  -5 207.906 298.531  17
   5   2  -5 148.914 266.437  16
   5   2  -4 4439.26 594.995  10
   5   2  -4 5335.16 724.239  17
   5   2  -4 5353.17 626.393  16
   5   2  -3 239.432 264.028  10
   5   2  -3 334.300 292.736  17
   5   2  -2 38572.6 1549.46  10
   5   2  -2 40178.4 1716.69  17
   5   2  -1 1879.33 404.616  10
   5   2  -1 1295.24 412.632  17
   5   2  -1 1427.86 408.319   6
   5   2   0 24974.6 1212.67  10
   5   2   0 25508.0 1250.38   6
   5   2   0 19658.2 1223.96  17
   5   2   0 18751.5 1080.41  14
   5   2   1 21700.2 1178.17   6
   5   2   1 18917.6 1154.09  17
   5   2   1 18122.0 1067.61  14
   5   2   2 4027.76 553.932   6
   5   2   2 3308.37 544.008  17
   5   2   2 3261.93 493.255  14
   5   2   3 2402.98 463.182   6
   5   2   3 2413.16 392.226  14
   5   2   4-81.7398 172.616  11
   5   2   4-74.4204 228.680  14
   5   2   5 432.084 244.219  11
   5   2   5 532.991 309.481  14
   5   2   6 1304.56 300.246  11
   5   2   6 1494.62 332.280  14
   5   2   7 5126.50 463.454  11
   5   2   7 6560.23 538.051  14
   5   2   8 279.151 125.442  11
   5   2   9 2424.07 282.685  12
   5   2  10 1247.50 189.640  12
   5   3 -13 269.583 121.073  16
   5   3 -12 860.438 166.841  17
   5   3 -12 326.757 159.812  16
   5   3 -11 365.213 127.265  17
   5   3 -11 172.947 137.221  16
   5   3 -10 735.083 239.789  17
   5   3 -10 761.721 232.529  16
   5   3  -9 28.6720 177.720  17
   5   3  -9-98.1709 161.554  16
   5   3  -8 4907.60 469.266  10
   5   3  -8 5402.45 564.428  17
   5   3  -8 4735.51 498.146  16
   5   3  -7 178.743 189.516  10
   5   3  -7 294.404 243.288  17
   5   3  -7 435.900 217.279  16
   5   3  -6 4635.88 498.944  10
   5   3  -6 4914.07 599.981  17
   5   3  -6 4526.82 531.256  16
   5   3  -5 4647.95 555.159  10
   5   3  -5 5853.70 658.655  17
   5   3  -4 7882.75 688.734  10
   5   3  -4 8505.77 795.417  17
   5   3  -3 3659.96 492.179   6
   5   3  -3 3682.65 556.911  17
   5   3  -3 2651.67 468.501  14
   5   3  -2 8785.79 697.636   6
   5   3  -2 9687.41 820.797  17
   5   3  -2 7871.26 733.199  14
   5   3  -1 28077.8 1157.55   6
   5   3  -1 30082.1 1358.08  17
   5   3  -1 25529.5 1209.76  14
   5   3   0-246.049 235.587   6
   5   3   0 135.391 228.517  17
   5   3   0-7.90509 247.551  14
   5   3   1 559.398 255.532   6
   5   3   1 1028.53 306.615  17
   5   3   1 1049.33 326.028  14
   5   3   2 4264.98 477.193   6
   5   3   2 3476.93 455.406  14
   5   3   3 737.961 280.465  11
   5   3   3 586.917 256.855  14
   5   3   4 5372.18 544.382  11
   5   3   4 5498.24 507.972  14
   5   3   5 4933.83 474.886  11
   5   3   5 5884.75 488.121  14
   5   3   6 290.909 151.941  11
   5   3   6 302.043 157.902  14
   5   3   7 340.661 86.8799  11
   5   3   7 122.537 135.455  14
   5   3   8 1945.88 194.329  12
   5   4 -11-108.787 80.7617  17
   5   4 -10 10161.9 490.798  17
   5   4  -9 1239.49 223.021  17
   5   4  -8 1873.68 240.786   6
   5   4  -8 2494.95 323.495  17
   5   4  -7 4090.13 344.531   6
   5   4  -7 5036.09 468.358  17
   5   4  -6 2976.72 324.646   6
   5   4  -6 3876.48 434.338  17
   5   4  -6 2933.34 287.047  14
   5   4  -5 632.109 199.165   6
   5   4  -5 1248.79 289.930  17
   5   4  -5 1001.48 199.535  14
   5   4  -4 1261.97 240.705   6
   5   4  -4 1319.22 267.958  14
   5   4  -3 1899.91 275.358   6
   5   4  -3 2975.57 395.998  17
   5   4  -3 2292.98 334.151  14
   5   4  -2 150.453 136.000   6
   5   4  -2-108.379 161.679  17
   5   4  -2 240.288 103.525  14
   5   4  -1-155.224 72.6631   6
   5   4  -1 38.9691 144.386  17
   5   4  -1 36.1480 138.528  14
   5   4   0 5254.31 380.001   6
   5   4   0 6765.26 492.511  17
   5   4   0 6313.24 492.068  14
   5   4   1 4330.16 395.366  14
   5   4   2 400.029 182.220  11
   5   4   2 71.4992 118.936  14
   5   4   3 9892.70 551.995  11
   5   4   3 10938.8 533.171  14
   5   4   4-137.378 99.8879  11
   5   4   4-140.767 103.580  14
   5   4   5 475.765 123.120  14
   5   5  -7 19.2293 42.7551  17
   5   5  -6 750.464 133.726  17
   5   5  -5 1176.92 156.904  17
   5   5  -4 22.7109 54.4062  11
   5   5  -4 168.483 94.5339  17
   5   5  -3 542.265 118.338  11
   5   5  -3 516.847 123.436  17
   5   5  -2-147.979 103.345  11
   5   5  -1 2523.09 224.045  11
   5   5   0 187.727 91.9992  11
   6  -9  -2 47.9522 81.0560  20
   6  -9  -1 156.935 85.7723  20
   6  -9   0 451.545 122.214  20
   6  -8  -7 677.412 164.240  20
   6  -8  -6 828.931 206.956  20
   6  -8  -5 9.66583 155.914  20
   6  -8  -5-206.818 165.505  24
   6  -8  -4 7.64232 175.551  20
   6  -8  -4 31.8236 171.885  24
   6  -8  -3 6560.92 472.882  24
   6  -8  -2-138.496 201.679  24
   6  -8  -1 3377.36 382.365  24
   6  -8   0-15.2428 151.949  24
   6  -8   1 25605.8 885.306   5
   6  -8   1 25190.1 863.739  24
   6  -8   2 61.2071 190.182   5
   6  -8   2 53.1305 95.0735  24
   6  -8   3 10619.0 563.153   5
   6  -8   3 8883.46 489.849  24
   6  -8   4 240.598 151.960   5
   6  -8   4-36.0974 54.6577  24
   6  -8   5 488.374 162.498   5
   6  -8   5 195.063 94.6215  24
   6  -8   6 146.180 96.6752   5
   6  -7 -10 1148.38 190.826  20
   6  -7  -9 2174.16 287.361  20
   6  -7  -8 202.202 211.958  20
   6  -7  -7 16122.1 834.859  20
   6  -7  -6 2931.14 434.524  20
   6  -7  -6 2726.06 373.084  24
   6  -7  -5 3052.27 460.634  20
   6  -7  -5 2428.48 407.925  24
   6  -7  -4 1513.34 332.996  24
   6  -7  -3 9659.15 641.570   5
   6  -7  -3 8319.41 658.551  24
   6  -7  -2 21365.6 961.103   5
   6  -7  -2 17425.9 905.331  24
   6  -7  -1 6880.56 616.478   5
   6  -7  -1 5562.51 551.633  24
   6  -7   0 4283.58 542.520   5
   6  -7   0 3173.01 434.580  24
   6  -7   1 1493.47 296.046  24
   6  -7   1 1670.92 400.702   5
   6  -7   2 1209.14 220.682  24
   6  -7   2 1187.57 371.584   5
   6  -7   3 1636.53 265.014  24
   6  -7   3 1704.41 416.422   5
   6  -7   4 1675.84 230.530  24
   6  -7   4 1413.89 338.539   5
   6  -7   5 11126.4 678.177   5
   6  -7   6 1787.92 315.601   5
   6  -7   7-163.001 160.617   5
   6  -7   8 11884.1 486.391   5
   6  -7   9 394.498 122.751   8
   6  -6 -12 667.796 166.044  20
   6  -6 -11 5152.40 412.261  20
   6  -6 -10 549.435 226.754  20
   6  -6  -9 144.791 208.768  20
   6  -6  -8 243.254 231.638  20
   6  -6  -7 1164.95 369.233  20
   6  -6  -6 2647.42 475.199  20
   6  -6  -6 2556.85 466.986  24
   6  -6  -5-200.221 294.364  20
   6  -6  -5 439.709 315.877  24
   6  -6  -4 9804.80 733.741   5
   6  -6  -4 8967.60 717.392  24
   6  -6  -3 1642.44 366.583   5
   6  -6  -3 1523.78 375.254  24
   6  -6  -3 1133.35 274.770   8
   6  -6  -2 4055.76 503.848   5
   6  -6  -2 4421.70 482.481  24
   6  -6  -1 17622.9 999.763   5
   6  -6   0 718.043 385.060   5
   6  -6   1 2011.09 454.815   5
   6  -6   2 27813.1 1242.46   5
   6  -6   3 15727.0 905.894  15
   6  -6   3 15103.5 912.095   5
   6  -6   4-126.333 249.806  15
   6  -6   4-118.229 247.254   5
   6  -6   5 434.368 247.939  15
   6  -6   5-331.429 308.642   5
   6  -6   6 6667.11 573.534  15
   6  -6   6 5733.04 561.363   5
   6  -6   7 5009.06 486.416  15
   6  -6   7 4284.57 462.184   5
   6  -6   8 163.545 169.616  15
   6  -6   8 153.244 192.977   5
   6  -6   9 3869.92 363.862  15
   6  -6   9 2980.61 306.837   5
   6  -6  10 770.086 154.254  15
   6  -6  10 778.780 118.385   5
   6  -5 -13 18051.1 686.864  20
   6  -5 -12 260.442 205.276  20
   6  -5 -11 339.485 243.384  20
   6  -5 -10 4788.02 524.383  20
   6  -5  -9 7571.43 667.597  20
   6  -5  -8 5875.42 624.443  20
   6  -5  -7 8511.51 749.869  20
   6  -5  -6 1344.90 373.600  20
   6  -5  -5 17724.4 1036.90  20
   6  -5  -4 442.279 183.497   8
   6  -5  -3 32030.5 1333.66   5
   6  -5  -3 29972.0 1232.84   8
   6  -5  -2 1902.32 432.858   5
   6  -5  -1 4751.30 554.074   5
   6  -5   0 50221.8 1638.12   5
   6  -5   1 2178.16 411.960   5
   6  -5   2 2669.95 451.225  15
   6  -5   3 656.965 247.352   9
   6  -5   3 1512.98 384.467  15
   6  -5   4 7930.53 645.802   9
   6  -5   4 7208.51 686.801  15
   6  -5   5 775.298 279.157   9
   6  -5   5-162.876 275.374  15
   6  -5   6 8012.56 690.621  15
   6  -5   6 9045.68 658.876   9
   6  -5   7 8.93887 126.813   9
   6  -5   7 101.673 164.307  15
   6  -5   8 291.018 193.160   9
   6  -5   8 610.228 244.008  15
   6  -5   9 6460.31 538.201  15
   6  -5   9 5374.25 429.046   8
   6  -5  10 6166.37 459.274  15
   6  -5  10 4838.74 376.062   5
   6  -5  11 1945.34 246.889  15
   6  -5  11 1804.68 187.704   5
   6  -4 -15 3073.85 265.895  10
   6  -4 -14 277.927 159.432  20
   6  -4 -13 240.270 181.557  20
   6  -4 -12 524.752 238.134  20
   6  -4 -11 3564.34 465.894  20
   6  -4 -10 647.474 257.093  20
   6  -4  -9 5670.99 591.632  20
   6  -4  -8 1843.17 407.921  20
   6  -4  -7 16174.6 958.198  20
   6  -4  -6 9868.17 763.694  20
   6  -4  -5 4535.60 550.330  20
   6  -4  -5 4324.55 476.436   8
   6  -4  -4 51103.0 1596.78  20
   6  -4  -4 48791.7 2000.99  19
   6  -4  -4 49805.2 1548.10   8
   6  -4  -3 7734.53 656.630  20
   6  -4  -3 7431.63 786.515  19
   6  -4  -3 8305.58 659.462   8
   6  -4  -2 8364.80 808.692  19
   6  -4  -2 7387.25 760.648   9
   6  -4  -2 7992.99 648.533   5
   6  -4  -2 8970.25 656.103   8
   6  -4  -1 3375.80 520.903  19
   6  -4  -1 3247.88 523.030   9
   6  -4   0 5791.21 553.261  11
   6  -4   0 5658.42 628.811   9
   6  -4   1 215.124 207.190  11
   6  -4   1 10.3327 232.249   9
   6  -4   2 13870.8 849.411  11
   6  -4   2 14370.0 1031.28   9
   6  -4   3 22853.9 1095.71  11
   6  -4   3 22686.0 1258.87   9
   6  -4   4 27564.4 1214.36  11
   6  -4   4 25278.3 1319.22   9
   6  -4   5 406.502 323.650  15
   6  -4   5 51.8218 220.787   9
   6  -4   6 25811.8 1235.14  15
   6  -4   6 30139.2 1392.22   9
   6  -4   7 1424.09 369.197  15
   6  -4   8 1579.42 317.642  15
   6  -4   8 1913.32 291.654   8
   6  -4   9 32312.2 1194.00  15
   6  -4   9 36944.0 1311.50   9
   6  -4  10 843.744 237.456  15
   6  -4  10 705.203 218.464   9
   6  -4  11 513.297 176.482  15
   6  -4  11 76.0309 108.378   9
   6  -3 -15 568.790 177.539  20
   6  -3 -15 662.160 192.817  10
   6  -3 -14 1627.18 304.579  20
   6  -3 -14 1365.02 280.060  10
   6  -3 -13 11942.9 698.490  20
   6  -3 -12 8212.46 632.871  20
   6  -3 -11 24540.3 1077.49  20
   6  -3 -10 5983.41 558.099  20
   6  -3  -9 24489.2 1104.18  20
   6  -3  -8 16.9216 213.761  20
   6  -3  -7 32046.8 1258.24  20
   6  -3  -7 33104.4 1275.13   8
   6  -3  -6 97934.4 2134.65  20
   6  -3  -6 98332.9 2820.63  19
   6  -3  -6 101452. 2187.40   8
   6  -3  -5 45837.5 1440.58  20
   6  -3  -5 47207.1 1940.45  19
   6  -3  -5 45260.1 1462.05   8
   6  -3  -4 1166.84 318.109  20
   6  -3  -4 1054.53 331.107  19
   6  -3  -4 553.841 230.211   8
   6  -3  -3-2.60823 263.110  19
   6  -3  -3 29.2093 199.664  10
   6  -3  -3-338.520 410.665   9
   6  -3  -3 486.169 226.869   8
   6  -3  -2 718.442 350.055  19
   6  -3  -2 122.601 240.228  10
   6  -3  -2 4.88425 228.955   8
   6  -3  -1 4838.91 472.404  11
   6  -3  -1 5619.47 726.189  19
   6  -3  -1 4578.36 665.927   9
   6  -3  -1 3675.96 465.349   8
   6  -3   0 56847.6 1567.57  11
   6  -3   0 53043.6 2003.85   9
   6  -3   0 55440.0 1593.25   8
   6  -3   1 6708.08 570.141  11
   6  -3   1 6440.39 767.876   9
   6  -3   1 6386.62 561.844   8
   6  -3   2 1941.56 330.646  11
   6  -3   2 2414.76 442.500   7
   6  -3   2 1763.11 450.589   9
   6  -3   2 1985.52 336.442   8
   6  -3   2 1895.54 366.908  12
   6  -3   3 7595.98 681.250   7
   6  -3   3 8316.29 645.959  11
   6  -3   3 7097.65 801.329   9
   6  -3   3 7339.52 602.531   8
   6  -3   3 8207.47 690.175  12
   6  -3   4 29926.2 1215.40  11
   6  -3   4 29699.4 1534.77   9
   6  -3   4 27366.3 1119.83   8
   6  -3   4 31349.6 1295.28  12
   6  -3   5 4283.22 499.023  11
   6  -3   5 4108.71 447.706   8
   6  -3   5 4846.30 554.132  12
   6  -3   6 39786.1 1408.59  11
   6  -3   6 38690.7 1266.71   8
   6  -3   6 42202.0 1483.30  12
   6  -3   7 26025.2 1118.26  11
   6  -3   7 22655.2 1091.94  15
   6  -3   7 24250.9 948.583   8
   6  -3   7 26949.9 1171.94  12
   6  -3   8 2351.06 348.219  15
   6  -3   8 3019.84 425.895  12
   6  -3   9 3509.17 388.925  15
   6  -3  10 9681.60 610.826  15
   6  -3  11 536.899 157.940  15
   6  -3  11 369.983 233.462   9
   6  -3  12 89.5217 128.988   9
   6  -2 -15 9690.27 536.023  20
   6  -2 -15 9038.39 455.143  10
   6  -2 -14 1256.73 289.006  20
   6  -2 -14 1102.95 238.490  10
   6  -2 -13 1661.50 316.902  20
   6  -2 -13 1165.31 278.312  10
   6  -2 -12-1.32001 205.276  20
   6  -2 -12 196.182 237.271  10
   6  -2 -11 753.832 267.935  20
   6  -2 -10 68.3930 234.454  20
   6  -2  -9 12258.6 768.987  20
   6  -2  -8 7309.56 628.980  20
   6  -2  -7 594.104 242.827  20
   6  -2  -7 833.028 320.497  10
   6  -2  -7 482.611 189.676   8
   6  -2  -6 19907.8 936.531  20
   6  -2  -6 20975.8 1279.65  19
   6  -2  -6 23099.7 1186.56  10
   6  -2  -6 20302.5 1012.05   8
   6  -2  -5 749.601 175.397  20
   6  -2  -5 940.509 410.225  19
   6  -2  -5 902.412 358.936  10
   6  -2  -5 1329.59 307.455   8
   6  -2  -4 20781.3 1256.10  19
   6  -2  -4 21693.6 1135.91  10
   6  -2  -4 20422.7 993.373   8
   6  -2  -3 26410.0 1413.33  19
   6  -2  -3 27333.2 1315.54  10
   6  -2  -3 27055.7 1480.77   9
   6  -2  -3 26641.7 1125.69   8
   6  -2  -2 63445.0 1600.24  11
   6  -2  -2 55176.0 2101.16  19
   6  -2  -2 60362.3 1662.01   6
   6  -2  -2 56603.3 1870.41  10
   6  -2  -2 57112.3 2072.42   9
   6  -2  -2 52564.4 1565.04   8
   6  -2  -1 4888.94 498.749  11
   6  -2  -1 4955.56 660.130  19
   6  -2  -1 4693.55 537.270   6
   6  -2  -1 4773.58 593.733  10
   6  -2  -1 4761.94 665.198   9
   6  -2  -1 4975.33 529.482   8
   6  -2   0 1444.69 358.780   7
   6  -2   0 1231.21 450.995  19
   6  -2   0 1093.16 303.236  11
   6  -2   0 1404.31 275.531   6
   6  -2   0 2413.83 413.346  10
   6  -2   0 1581.70 505.543   9
   6  -2   0 1361.82 327.149   8
   6  -2   0 1467.39 294.030  12
   6  -2   1 209.700 186.654  12
   6  -2   1 183.910 254.804   7
   6  -2   1-28.2644 138.360  11
   6  -2   1 392.976 229.570   6
   6  -2   1 352.703 317.747   9
   6  -2   1-160.307 177.762   8
   6  -2   2 581.862 232.762  12
   6  -2   2 580.845 271.079   7
   6  -2   2 549.725 255.370  11
   6  -2   2 470.599 258.459   6
   6  -2   2 774.201 386.753   9
   6  -2   2 281.867 197.762   8
   6  -2   3-318.547 221.780  12
   6  -2   3-206.850 145.601   7
   6  -2   3-121.467 236.849   6
   6  -2   3 138.056 165.251  11
   6  -2   3 80.6794 292.620   9
   6  -2   3-102.811 136.195   8
   6  -2   4 40697.7 1439.84  11
   6  -2   4 37532.6 1267.29   8
   6  -2   4 37974.4 1438.26   7
   6  -2   4 42150.0 1500.75  12
   6  -2   5 264.419 250.043  12
   6  -2   5 264.649 203.086  11
   6  -2   5 324.234 194.952   8
   6  -2   6 8906.54 673.207  11
   6  -2   6 10438.7 758.502  12
   6  -2   7 30810.5 1200.00  11
   6  -2   7 32250.0 1282.82  12
   6  -2   8 31655.1 1171.76  11
   6  -2   8 31283.4 1207.88  12
   6  -2   9 10140.4 671.218  12
   6  -2  10 1852.14 243.510  15
   6  -2  10 3586.46 381.848  12
   6  -2  11 16477.1 776.392   9
   6  -2  12 496.893 142.562   9
   6  -1 -15 2722.28 299.281  20
   6  -1 -14 172.002 160.636  20
   6  -1 -14 23.2980 132.512  10
   6  -1 -13 2516.94 365.566  20
   6  -1 -13 2279.73 321.119  10
   6  -1 -12 214.825 218.048  20
   6  -1 -12-133.632 78.1535  16
   6  -1 -11 25076.5 1059.29  20
   6  -1 -11 24008.9 1067.13  10
   6  -1 -10 502.032 242.715  20
   6  -1 -10 302.509 246.732  10
   6  -1 -10 517.830 342.462  16
   6  -1  -9 220.989 230.793  20
   6  -1  -9-3.35691 206.798  10
   6  -1  -9-194.609 223.641  16
   6  -1  -8 14441.4 804.650   7
   6  -1  -8 15259.5 836.419  20
   6  -1  -8 16608.6 1009.02  10
   6  -1  -8 14462.8 966.287  16
   6  -1  -7 22508.7 1013.91   7
   6  -1  -7 23769.8 1023.91  20
   6  -1  -7 25407.4 1223.64  10
   6  -1  -7 22274.0 1191.53  16
   6  -1  -6 16842.3 830.229  20
   6  -1  -6 16444.9 910.052   7
   6  -1  -6 18434.5 1049.13  10
   6  -1  -6 16365.7 1017.33  16
   6  -1  -6 16938.6 970.439   8
   6  -1  -5 262.311 213.098   7
   6  -1  -5 298.300 271.854  19
   6  -1  -5 685.944 327.511  10
   6  -1  -5 553.772 258.527  16
   6  -1  -5 543.550 233.523   8
   6  -1  -4 13685.4 855.866   7
   6  -1  -4 13775.6 1041.69  19
   6  -1  -4 14817.7 977.060  10
   6  -1  -4 15746.7 891.224  17
   6  -1  -4 14109.7 869.706   8
   6  -1  -3 16351.8 933.734   7
   6  -1  -3 16073.1 1119.33  19
   6  -1  -3 17051.6 1057.91  10
   6  -1  -3 16633.8 937.789  17
   6  -1  -3 18717.3 1200.73   9
   6  -1  -3 16563.6 925.046   8
   6  -1  -2 14380.8 892.805   7
   6  -1  -2 15684.4 880.471  11
   6  -1  -2 13548.3 1087.93  19
   6  -1  -2 15660.9 994.006   6
   6  -1  -2 14074.4 986.473  10
   6  -1  -2 16112.0 937.505  17
   6  -1  -2 15738.4 1083.67   9
   6  -1  -2 14981.7 873.351   8
   6  -1  -1 2318.13 442.677   7
   6  -1  -1 2854.76 403.181  11
   6  -1  -1 2673.83 450.509  17
   6  -1  -1 2628.06 498.347   6
   6  -1  -1 3094.31 509.852  10
   6  -1  -1 1561.64 487.778   9
   6  -1  -1 2522.09 423.372   8
   6  -1   0 30069.1 1274.94  11
   6  -1   0 29729.4 1337.76   6
   6  -1   0 29123.6 1403.51  10
   6  -1   0 30064.4 1446.16   9
   6  -1   0 29082.0 1179.87   8
   6  -1   0 29070.8 1267.58   7
   6  -1   1 1036.33 299.974  12
   6  -1   1 390.033 264.422   7
   6  -1   1 816.707 246.682  11
   6  -1   1 351.808 310.425   6
   6  -1   1 832.685 315.552  10
   6  -1   1 219.987 320.081   9
   6  -1   1 674.279 241.583   8
   6  -1   2 16167.7 971.582  11
   6  -1   2 16003.9 1009.99   6
   6  -1   2 14491.8 956.562  10
   6  -1   2 16710.7 1089.94   9
   6  -1   2 14655.4 813.868   8
   6  -1   2 14712.1 927.166   7
   6  -1   2 14669.0 898.490  12
   6  -1   3 6638.71 638.269  11
   6  -1   3 6149.64 658.121   6
   6  -1   3 5685.60 664.222   9
   6  -1   3 5420.88 491.673   8
   6  -1   3 5330.82 621.570   7
   6  -1   3 6190.05 609.348  12
   6  -1   4 5838.18 615.611  11
   6  -1   4 6159.51 684.888   9
   6  -1   4 5784.75 512.314   8
   6  -1   4 5663.69 610.956  12
   6  -1   5 6287.78 612.706  11
   6  -1   5 7686.47 738.141   9
   6  -1   5 6519.99 635.164  12
   6  -1   6 7930.92 657.102  11
   6  -1   6 9683.53 754.596  12
   6  -1   7 9321.84 663.860  11
   6  -1   7 9499.44 733.009  12
   6  -1   8 1703.16 338.143  12
   6  -1   8 2143.56 342.874  11
   6  -1   9 8933.34 565.909  11
   6  -1   9 9050.40 639.188   9
   6  -1   9 9172.67 619.074  12
   6  -1  10 14.3106 108.543  12
   6  -1  10 359.532 181.382   9
   6  -1  11 404.491 151.406   9
   6  -1  11 270.491 107.342  12
   6   0 -15 3305.97 287.390  20
   6   0 -14 2189.00 291.210  20
   6   0 -14 2063.44 235.112  16
   6   0 -13 3134.43 369.359  20
   6   0 -13 2912.66 323.154  10
   6   0 -13 2821.92 351.345  16
   6   0 -12 9094.28 630.043  20
   6   0 -12 8785.90 596.202  10
   6   0 -12 8918.39 639.801  16
   6   0 -11 1273.16 302.052  20
   6   0 -11 1214.79 300.010  10
   6   0 -11 1422.76 338.270  16
   6   0 -10-166.677 219.250  20
   6   0 -10-172.702 194.005  10
   6   0 -10-361.096 315.318  16
   6   0  -9 608.020 251.898  20
   6   0  -9 566.602 271.648  10
   6   0  -9 625.999 350.528  16
   6   0  -8 5272.69 532.629  20
   6   0  -8 5330.56 613.469  10
   6   0  -8 6100.57 682.299  16
   6   0  -7 392.254 220.119   7
   6   0  -7-133.839 193.837  20
   6   0  -7 49.5045 257.138  10
   6   0  -7-57.0290 239.164  16
   6   0  -6 3091.11 474.631  17
   6   0  -6 2528.05 472.835  10
   6   0  -6 3533.03 564.818  16
   6   0  -6 3198.76 458.945   7
   6   0  -5 1253.93 326.684   7
   6   0  -5 1364.44 322.201  17
   6   0  -5 668.769 317.916  10
   6   0  -5 916.895 331.000  16
   6   0  -4 544.073 242.943   7
   6   0  -4-71.5053 180.623  17
   6   0  -4 390.827 297.829  10
   6   0  -4 513.730 257.151   8
   6   0  -3 3971.24 534.692  11
   6   0  -3 4287.45 605.140  10
   6   0  -3 4849.88 636.339  17
   6   0  -3 4202.92 561.251   8
   6   0  -3 4362.02 521.146   7
   6   0  -2 65446.2 1956.67  11
   6   0  -2 61754.4 1976.46  10
   6   0  -2 57585.4 1971.44   6
   6   0  -2 68118.9 2062.17  17
   6   0  -2 58568.2 1849.28   9
   6   0  -2 65782.8 1866.94   8
   6   0  -2 60710.0 1820.61   7
   6   0  -1 21477.6 1171.99  11
   6   0  -1 21149.5 1174.41  10
   6   0  -1 18869.8 1144.27   6
   6   0  -1 22594.8 1213.79  17
   6   0  -1 18431.4 1040.21   9
   6   0  -1 21068.3 1066.31   8
   6   0  -1 18606.3 1039.83   7
   6   0   0 9079.53 781.305  11
   6   0   0 7255.74 746.836   6
   6   0   0 8513.83 792.809  10
   6   0   0 8371.82 775.035  17
   6   0   0 6187.80 654.655   9
   6   0   0 8624.92 687.976   8
   6   0   0 8083.20 717.852   7
   6   0   1 11101.6 851.663  11
   6   0   1 9791.45 865.150   6
   6   0   1 10340.0 849.925  10
   6   0   1 9490.16 767.935   9
   6   0   1 9798.80 717.276   8
   6   0   1 10934.0 871.362   7
   6   0   2 7517.44 735.144  11
   6   0   2 6177.12 711.415   6
   6   0   2 6705.69 678.639  10
   6   0   2 6582.57 650.115   9
   6   0   2 6411.20 577.651   8
   6   0   2 5700.70 583.346  12
   6   0   3-54.3173 241.016  12
   6   0   3-4.49456 233.846  11
   6   0   3 29.8552 251.596   6
   6   0   3-189.388 203.731   9
   6   0   4 699.867 253.266  12
   6   0   4 665.385 309.547  11
   6   0   4 783.826 270.046   9
   6   0   5 918.262 305.230  12
   6   0   5 1057.47 286.142  11
   6   0   5 1574.78 338.138   9
   6   0   6 5492.85 525.877  11
   6   0   6 5732.45 521.193   9
   6   0   6 5864.69 574.224  12
   6   0   7 353.405 209.037  12
   6   0   7 576.512 239.380  11
   6   0   7 380.075 201.861   9
   6   0   8 4293.08 416.423  11
   6   0   8 4001.63 404.356   9
   6   0   8 4311.46 456.400  12
   6   0   9 4712.52 350.266  11
   6   0   9 5616.42 387.415   9
   6   0   9 5771.36 453.600  12
   6   0  10 1230.90 197.822  12
   6   1 -14 18512.1 591.543  16
   6   1 -13-0.29209 139.966  16
   6   1 -12 1969.93 266.869  10
   6   1 -12 2822.56 360.328  16
   6   1 -12 2109.61 297.630  20
   6   1 -11 1026.62 224.557  10
   6   1 -11 968.908 275.184  16
   6   1 -10 1277.05 272.543  20
   6   1 -10 1558.48 336.942  10
   6   1 -10 1702.36 350.939  16
   6   1  -9 8062.45 587.309  20
   6   1  -9 7341.23 638.341  10
   6   1  -9 6575.67 576.373  17
   6   1  -8 2562.65 453.459  17
   6   1  -8 2285.05 422.160  10
   6   1  -8 2771.14 487.368  16
   6   1  -7 3246.99 498.042  10
   6   1  -7 3274.39 498.090  17
   6   1  -7 4015.07 573.394  16
   6   1  -6-82.6623 229.269  10
   6   1  -6 243.250 153.158  17
   6   1  -6 207.323 254.612  16
   6   1  -5-27.5069 254.341  10
   6   1  -5-116.587 187.440  17
   6   1  -5-379.250 268.610  16
   6   1  -4 28948.0 1290.35  11
   6   1  -4 32727.5 1409.61  10
   6   1  -4 30721.0 1474.52  17
   6   1  -4 29173.5 1211.57   7
   6   1  -3 2659.39 483.381  11
   6   1  -3 2422.96 500.389  10
   6   1  -3 2146.89 491.041  17
   6   1  -3 2140.88 472.929   6
   6   1  -2 542.202 259.691  11
   6   1  -2 266.031 290.859  10
   6   1  -2 93.7006 231.293  17
   6   1  -2-238.684 376.646   6
   6   1  -1 27192.9 1382.05  11
   6   1  -1 27580.5 1297.04  10
   6   1  -1 29704.1 1396.46   6
   6   1  -1 26831.7 1364.30  17
   6   1   0 1421.13 424.295  11
   6   1   0 1579.22 402.283  10
   6   1   0 1589.03 409.998   6
   6   1   0 1213.27 402.476  17
   6   1   1 1453.00 386.606  11
   6   1   1 1022.70 379.906   6
   6   1   2 13372.4 954.164  11
   6   1   2 13386.9 947.783   6
   6   1   3 5083.45 598.893  11
   6   1   3 5368.10 655.651   6
   6   1   3 4229.06 467.159  12
   6   1   4-378.234 223.184  12
   6   1   4 58.3391 222.151  11
   6   1   5 5385.02 542.360  11
   6   1   5 6060.15 523.611  12
   6   1   6 5304.56 488.203  11
   6   1   6 6467.44 531.507  12
   6   1   7 1489.86 237.482  11
   6   1   7 1909.40 299.275  12
   6   1   8 365.836 145.876  12
   6   1   8 69.2787 41.4007  11
   6   1   9 9743.36 432.779  12
   6   2 -12 169.953 117.060  16
   6   2 -11 412.373 169.258  16
   6   2 -10 6782.17 444.223  10
   6   2 -10 6898.92 489.482  17
   6   2  -9-76.2620 133.958  10
   6   2  -9 100.913 130.124  17
   6   2  -9 105.117 179.532  16
   6   2  -8 2465.80 347.896  10
   6   2  -8 2129.22 333.022  17
   6   2  -8 2896.70 385.536  16
   6   2  -7 2347.91 378.223  10
   6   2  -7 1892.67 353.631  17
   6   2  -6 8381.15 676.225  10
   6   2  -6 7937.93 688.943  17
   6   2  -5 767.402 242.819  11
   6   2  -5 769.108 282.212  10
   6   2  -5 1111.63 362.875  17
   6   2  -4 398.706 234.557  11
   6   2  -4 689.336 304.812  10
   6   2  -4 757.016 306.612  17
   6   2  -4 682.395 345.783   6
   6   2  -3 6928.66 626.486  10
   6   2  -3 7510.11 675.816   6
   6   2  -3 7309.95 701.223  17
   6   2  -2 1561.94 373.380  11
   6   2  -2 984.701 355.647   6
   6   2  -2 1527.66 405.220  17
   6   2  -1 38518.9 1554.69  11
   6   2  -1 40655.0 1561.56  17
   6   2   0 3497.56 510.609  11
   6   2   0 4111.79 511.370   6
   6   2   0 3724.95 520.953  17
   6   2   1 10.1199 138.211  11
   6   2   1-354.741 245.962   6
   6   2   2 156.551 221.887  11
   6   2   2 70.1348 191.657   6
   6   2   3 13132.9 810.876  11
   6   2   4 32.6750 48.3906  12
   6   2   4 189.666 87.5017  11
   6   2   5 1131.35 248.246  11
   6   2   5 1583.17 220.495  12
   6   2   6 6.91114 78.8938  12
   6   2   6 226.741 104.445  11
   6   3 -10 800.257 154.920   6
   6   3  -9 1213.68 199.721   6
   6   3  -9 1251.37 200.389  17
   6   3  -8 3517.90 323.446   6
   6   3  -8 3719.05 344.949  17
   6   3  -7 5813.13 433.782   6
   6   3  -7 6739.64 482.548  17
   6   3  -6 1770.71 305.721  17
   6   3  -6 1384.21 248.792   6
   6   3  -5-94.9843 84.5072  11
   6   3  -5-102.457 166.275   6
   6   3  -5 266.220 180.966  17
   6   3  -4 2152.55 298.136  11
   6   3  -4 2695.77 334.681   6
   6   3  -4 2965.02 384.972  17
   6   3  -3 3628.35 395.740  11
   6   3  -3 3094.64 362.146   6
   6   3  -3 4323.71 458.644  17
   6   3  -2 246.399 157.518  11
   6   3  -2 12.5056 167.847  17
   6   3  -1 5070.82 478.500  11
   6   3  -1 4844.33 403.957   6
   6   3  -1 6041.48 483.028  17
   6   3   0 4188.04 408.554  11
   6   3   0 3695.53 347.562   6
   6   3   1 2594.07 330.141  11
   6   3   2 623.743 179.542  11
   6   3   3 850.545 177.635  11
   6   3   4 687.689 111.874  11
   6   4  -6 2555.41 208.603  17
   6   4  -5 224.195 98.7671  17
   7  -8  -5 35.8041 95.3615  20
   7  -8  -4 38.5042 107.984  20
   7  -8  -3 198.268 125.835  20
   7  -8  -2 90.7250 121.527  20
   7  -8  -1 11758.6 544.370  20
   7  -8   0 851.964 201.229  20
   7  -8   1 8309.17 404.076  20
   7  -8   1 10431.7 416.140   8
   7  -8   2 31674.2 753.262   5
   7  -8   2 27951.1 688.763   8
   7  -8   3 855.278 143.661   5
   7  -8   3 567.943 132.306   8
   7  -7  -9 872.794 163.522  20
   7  -7  -8-207.861 142.714  20
   7  -7  -7 1378.70 258.726  20
   7  -7  -6 6034.71 493.164  20
   7  -7  -5 7911.63 575.811  20
   7  -7  -4 209.804 222.635  20
   7  -7  -3 10689.7 681.820  20
   7  -7  -2 467.073 221.417  20
   7  -7  -2 508.406 191.235   5
   7  -7  -2 512.560 142.218   8
   7  -7  -1-86.4992 149.389  20
   7  -7  -1 25.3663 179.059   5
   7  -7  -1-18.9805 124.332   8
   7  -7   0 2467.29 331.031  20
   7  -7   0 3157.61 375.318   8
   7  -7   1 66.9096 136.543  20
   7  -7   1 119.826 204.642   5
   7  -7   1 268.044 186.466   8
   7  -7   2 1597.44 287.521   5
   7  -7   2 1711.55 297.137   8
   7  -7   3-76.0859 175.393   5
   7  -7   3-92.7423 135.284   8
   7  -7   4 1412.34 255.188   5
   7  -7   4 1583.95 253.436   8
   7  -7   5 1164.49 229.497   5
   7  -7   5 829.882 194.969   8
   7  -7   6 2076.85 234.555   5
   7  -7   6 1429.09 219.644   8
   7  -7   7 8467.89 380.604   8
   7  -6 -11 3797.39 302.095  20
   7  -6 -10 637.612 185.818  20
   7  -6 -10 1070.02 207.876  10
   7  -6  -9 8098.71 518.368  20
   7  -6  -9 8411.64 506.315  10
   7  -6  -8 1250.27 284.318  20
   7  -6  -8 1707.79 280.467  10
   7  -6  -7 21853.0 962.630  20
   7  -6  -6 2465.83 398.018  20
   7  -6  -5 16620.5 901.611  20
   7  -6  -4 10144.5 721.822  20
   7  -6  -3 234.525 185.520  20
   7  -6  -3 362.507 168.890   5
   7  -6  -3 489.321 168.459   8
   7  -6  -2 39.9472 136.374  20
   7  -6  -2 37.8109 43.7140   8
   7  -6  -1 2374.48 374.138  20
   7  -6  -1 3292.48 418.896   5
   7  -6  -1 2781.21 424.568   8
   7  -6   0 680.203 197.720  20
   7  -6   0 1070.80 316.330   5
   7  -6   0 634.999 244.960   8
   7  -6   1 25016.6 1060.83   5
   7  -6   1 24545.3 1103.80   8
   7  -6   2 6501.07 574.663   5
   7  -6   2 6737.75 580.003   8
   7  -6   3 4915.85 524.448   5
   7  -6   3 4661.02 483.525   8
   7  -6   4 7087.69 563.003   5
   7  -6   4 7577.61 607.275   8
   7  -6   5-107.612 211.063   5
   7  -6   5-45.5608 143.314   8
   7  -6   6 36491.7 1058.69   5
   7  -6   6 32231.0 1044.82   8
   7  -6   7 1251.99 237.598   5
   7  -6   7 1413.98 224.639   8
   7  -6   8 3150.18 280.440   5
   7  -6   8 2119.82 205.253   8
   7  -5 -12 1424.39 223.604  20
   7  -5 -12 1446.82 223.953  10
   7  -5 -11 4042.87 383.027  20
   7  -5 -11 3645.53 399.839  10
   7  -5 -10 657.155 254.891  20
   7  -5 -10 606.324 209.624  10
   7  -5  -9 6248.22 536.207  20
   7  -5  -9 5625.24 545.410  10
   7  -5  -8 0.45084 182.002  20
   7  -5  -8 48.9018 182.959  10
   7  -5  -7 3592.42 445.076  20
   7  -5  -7 3212.56 409.008  10
   7  -5  -6-259.861 243.434  20
   7  -5  -6 512.510 220.553  10
   7  -5  -5 1279.69 343.804  20
   7  -5  -5 777.304 240.831   8
   7  -5  -4 1252.60 322.326  20
   7  -5  -4 1280.64 297.649   8
   7  -5  -3 13049.4 797.985  20
   7  -5  -3 11868.5 782.406   8
   7  -5  -2 4323.76 494.979  20
   7  -5  -2 3957.95 519.750   5
   7  -5  -2 4278.34 502.141   8
   7  -5  -1 3285.92 469.757   5
   7  -5  -1 3393.57 460.790   8
   7  -5   0 11424.5 792.085   5
   7  -5   0 12055.9 806.572   8
   7  -5   1 2513.74 410.161   9
   7  -5   1 2189.64 410.026   8
   7  -5   1 2256.09 435.791   5
   7  -5   2 948.329 282.325   9
   7  -5   2 1193.64 320.347   5
   7  -5   2 940.301 280.765   8
   7  -5   3 1099.13 302.468   9
   7  -5   3 1526.42 334.132   8
   7  -5   4 16005.8 861.441   9
   7  -5   4 16758.9 908.265   8
   7  -5   5 454.227 180.045   9
   7  -5   5 193.218 192.710   8
   7  -5   6 3601.32 387.152   9
   7  -5   6 3407.53 387.197   8
   7  -5   7 2658.49 305.631   9
   7  -5   7 2521.09 343.156   5
   7  -5   7 2455.78 310.025   8
   7  -5   8 1666.40 249.060   5
   7  -5   8 1414.86 201.979   8
   7  -5   9-255.785 151.634   5
   7  -4 -13 312.377 127.643  20
   7  -4 -13 110.068 117.925  10
   7  -4 -12 836.365 224.583  20
   7  -4 -12 825.509 236.242  10
   7  -4 -11 5326.87 455.175  20
   7  -4 -11 5947.61 535.496  10
   7  -4 -10-130.479 187.112  20
   7  -4 -10-96.2557 190.031  10
   7  -4  -9 1321.26 313.199  20
   7  -4  -9 1556.75 380.077  10
   7  -4  -8 8241.06 623.875  20
   7  -4  -8 7301.13 676.371  10
   7  -4  -7-186.347 212.711  20
   7  -4  -7 154.044 269.263  10
   7  -4  -6 24934.1 1063.32  20
   7  -4  -6 25772.4 1278.83  10
   7  -4  -6 24019.3 1058.83   8
   7  -4  -5 32896.3 1203.23  20
   7  -4  -5 33570.3 1444.09  10
   7  -4  -5 31964.2 1248.80   8
   7  -4  -4 1138.25 283.993  20
   7  -4  -4 868.450 304.290  10
   7  -4  -4 1104.19 290.977   8
   7  -4  -3-186.353 186.947  20
   7  -4  -3-19.6105 208.720   8
   7  -4  -2 39015.8 1408.98   8
   7  -4  -1-126.008 281.633   9
   7  -4  -1-249.778 267.168   5
   7  -4  -1 173.175 182.803   8
   7  -4   0 5748.51 698.608   9
   7  -4   0 5497.07 548.277   8
   7  -4   1 1513.36 395.360   7
   7  -4   1 802.105 359.450   9
   7  -4   1 1634.36 365.669   8
   7  -4   2 2462.30 464.788   7
   7  -4   2 2630.10 517.571   9
   7  -4   2 2678.68 436.050   8
   7  -4   3 6567.23 697.182   9
   7  -4   3 6358.20 588.082   8
   7  -4   4 14819.7 984.885   9
   7  -4   4 15967.2 866.958   8
   7  -4   5 1950.14 420.190   9
   7  -4   5 1367.49 283.833   8
   7  -4   6 3144.92 496.358   9
   7  -4   6 2070.39 324.262   8
   7  -4   7 11082.6 744.001   9
   7  -4   7 9274.35 526.242   8
   7  -4   8 9143.18 605.312   9
   7  -4   9 3520.14 349.227   9
   7  -3 -14-126.085 120.487  20
   7  -3 -14-162.521 121.552  10
   7  -3 -13 3355.30 322.288  20
   7  -3 -13 3722.49 362.748  10
   7  -3 -12 401.921 177.595  20
   7  -3 -12 652.211 239.967  10
   7  -3 -11 13699.5 695.957  20
   7  -3 -11 14752.1 807.436  10
   7  -3 -10 17.6994 168.987  20
   7  -3 -10 259.986 138.651   7
   7  -3 -10 298.493 218.043  10
   7  -3  -9 4838.07 449.960  20
   7  -3  -9 4276.88 553.052  10
   7  -3  -8 4344.46 461.278  20
   7  -3  -8 5203.62 589.569  10
   7  -3  -7 730.792 260.819  20
   7  -3  -7 936.472 354.886  10
   7  -3  -7 382.545 233.497   8
   7  -3  -6 558.607 228.049  20
   7  -3  -6 412.505 311.141  10
   7  -3  -6 59.8861 229.863   8
   7  -3  -5 901.708 250.741  20
   7  -3  -5 601.254 319.994  10
   7  -3  -5 285.478 217.955   8
   7  -3  -4 663.462 345.640  10
   7  -3  -4 623.225 241.765   8
   7  -3  -3 229.308 194.520  10
   7  -3  -3 82.9815 238.840   8
   7  -3  -2 563.748 367.023  10
   7  -3  -2 312.638 206.194   8
   7  -3  -1-53.2786 266.947   7
   7  -3  -1 124.879 147.515  11
   7  -3  -1-193.141 392.529   9
   7  -3  -1 34.2688 179.139   8
   7  -3   0 21544.1 1122.96   7
   7  -3   0 20502.5 969.541  11
   7  -3   0 19489.3 1253.21   9
   7  -3   0 21217.0 1030.87   8
   7  -3   1 314.493 305.992   7
   7  -3   1 558.090 229.758  11
   7  -3   1 537.039 358.104   9
   7  -3   1 202.846 224.750   8
   7  -3   2 8431.93 637.540  11
   7  -3   2 7285.78 807.120   9
   7  -3   2 8250.04 630.885   8
   7  -3   2 7275.83 677.033   7
   7  -3   3 3299.57 425.995  11
   7  -3   3 2674.04 456.258   7
   7  -3   3 3023.41 563.432   9
   7  -3   3 2519.46 391.924   8
   7  -3   4 27246.1 1115.01  11
   7  -3   4 24062.1 1343.05   9
   7  -3   4 24621.5 1008.59   8
   7  -3   5 17179.8 879.399  11
   7  -3   5 16078.1 1066.14   9
   7  -3   5 15457.2 753.787   8
   7  -3   6 313.109 177.624  11
   7  -3   6 686.096 326.866   9
   7  -3   6 595.081 142.821   8
   7  -3   7 736.768 323.042   9
   7  -3   8-46.7411 195.675   9
   7  -3   9 1255.21 270.018   9
   7  -2 -14 1505.64 203.686  20
   7  -2 -13 13374.9 603.823  20
   7  -2 -13 13436.2 620.447  10
   7  -2 -12 8143.28 509.026  20
   7  -2 -12 8427.89 558.535  10
   7  -2 -11 13429.4 680.869  20
   7  -2 -11 14167.9 782.259  10
   7  -2 -10 3296.71 379.357  20
   7  -2 -10 3534.05 454.503  10
   7  -2  -9 106.756 145.224  20
   7  -2  -9-312.911 214.679   7
   7  -2  -9 191.782 256.731  10
   7  -2  -8 3206.64 420.460   7
   7  -2  -8 3676.30 409.886  20
   7  -2  -8 4523.62 546.914  10
   7  -2  -7 2257.59 371.058   7
   7  -2  -7 2216.64 357.878  20
   7  -2  -7 2684.96 481.605  10
   7  -2  -6 503.073 215.826   7
   7  -2  -6 524.129 255.784  10
   7  -2  -6 488.438 265.501   8
   7  -2  -5 6880.67 614.171   7
   7  -2  -5 8629.97 793.766  10
   7  -2  -5 7776.31 659.373   8
   7  -2  -4 18522.7 985.209   7
   7  -2  -4 17778.8 928.564   6
   7  -2  -4 20753.5 1165.85  10
   7  -2  -4 20147.5 1018.08   8
   7  -2  -3 14351.1 906.224   7
   7  -2  -3 13661.1 841.741   6
   7  -2  -3 15803.6 1042.08  10
   7  -2  -3 14446.2 864.076   8
   7  -2  -2 26743.2 1207.56   7
   7  -2  -2 26225.5 1038.10  11
   7  -2  -2 25146.8 1094.61   6
   7  -2  -2 25170.9 1310.64  10
   7  -2  -2 27538.9 1455.65   9
   7  -2  -2 26316.9 1144.61   8
   7  -2  -1-264.458 284.716   7
   7  -2  -1-216.716 171.102  11
   7  -2  -1 24.9595 193.053   6
   7  -2  -1-103.354 171.514  10
   7  -2  -1 47.3382 402.241   9
   7  -2  -1-132.589 191.045   8
   7  -2   0 18289.9 922.927  11
   7  -2   0 18090.6 952.440   6
   7  -2   0 15804.2 990.332  10
   7  -2   0 18448.7 1193.49   9
   7  -2   0 17601.0 926.726   8
   7  -2   0 18226.2 1027.58   7
   7  -2   1 18918.5 953.030  11
   7  -2   1 17871.0 961.360   6
   7  -2   1 18294.7 1167.49   9
   7  -2   1 17469.3 896.899   8
   7  -2   1 18522.6 1025.46   7
   7  -2   2 14819.3 838.005  11
   7  -2   2 14129.7 1036.45   9
   7  -2   2 12929.3 759.503   8
   7  -2   2 12620.0 822.196  12
   7  -2   2 13172.9 848.422   7
   7  -2   3 2950.53 414.250  11
   7  -2   3 2979.92 551.324   9
   7  -2   3 2606.56 366.833   8
   7  -2   3 2909.60 432.803  12
   7  -2   4 1197.07 306.837  11
   7  -2   4 897.667 404.389   9
   7  -2   4 506.178 223.612   8
   7  -2   4 653.344 212.598  12
   7  -2   5 439.979 198.420  11
   7  -2   5 430.208 282.963   9
   7  -2   5 140.366 101.110   8
   7  -2   5 154.885 213.870  12
   7  -2   6-199.663 150.260  11
   7  -2   6 175.922 258.007   9
   7  -2   6 220.635 192.924  12
   7  -2   7 867.032 211.028  11
   7  -2   7 914.741 293.172   9
   7  -2   8 11367.7 664.823   9
   7  -2   9 75.9664 125.061   9
   7  -1 -13 160.536 126.432  20
   7  -1 -13-54.0558 118.697  10
   7  -1 -12 106.049 91.9970  20
   7  -1 -12 382.298 175.170  10
   7  -1 -11 4841.94 405.864  20
   7  -1 -11 5730.24 492.148  10
   7  -1 -10 1913.46 256.940  20
   7  -1 -10 1385.44 338.838  10
   7  -1  -9 3819.38 395.234  20
   7  -1  -9 3865.52 476.881  10
   7  -1  -9 3293.10 319.083   7
   7  -1  -8 22695.7 877.957  20
   7  -1  -8 24096.1 1132.75  10
   7  -1  -8 23206.3 913.559   7
   7  -1  -7-11.5900 235.336   7
   7  -1  -7-20.8753 237.406  10
   7  -1  -6-249.715 226.061   7
   7  -1  -6-317.141 256.201   6
   7  -1  -6 5.91890 258.255  10
   7  -1  -5-131.420 216.097   7
   7  -1  -5-43.2163 258.035   6
   7  -1  -5-61.4534 273.440  10
   7  -1  -5 290.332 274.163   8
   7  -1  -4 4455.43 569.261   6
   7  -1  -4 5041.16 602.054  10
   7  -1  -4 4633.76 543.423   8
   7  -1  -4 4635.90 525.889   7
   7  -1  -3 9271.39 774.092   6
   7  -1  -3 10746.8 851.120  10
   7  -1  -3 10310.5 745.839   8
   7  -1  -3 10451.5 768.252   7
   7  -1  -2 1868.32 413.912   7
   7  -1  -2 2080.67 381.585  11
   7  -1  -2 2163.47 433.759   6
   7  -1  -2 1920.73 421.316  10
   7  -1  -2 1922.91 394.734   8
   7  -1  -1 14489.5 851.788  11
   7  -1  -1 14724.6 941.241   6
   7  -1  -1 14228.2 964.586  10
   7  -1  -1 14660.1 970.038   9
   7  -1  -1 14734.8 859.983   8
   7  -1  -1 13617.6 864.266   7
   7  -1   0 1357.91 385.748   7
   7  -1   0 955.386 242.499  11
   7  -1   0 1351.69 375.982   6
   7  -1   0 735.587 300.248  10
   7  -1   0 1020.92 364.972   9
   7  -1   0 1045.42 322.342   8
   7  -1   1 383.749 225.361  11
   7  -1   1 1129.12 303.587  10
   7  -1   1 820.354 341.662   6
   7  -1   1 697.567 333.708   9
   7  -1   1 654.833 263.287   8
   7  -1   2 16964.0 928.452  11
   7  -1   2 17697.4 1001.56   6
   7  -1   2 15541.9 952.884   9
   7  -1   2 14401.7 763.984   8
   7  -1   2 12458.0 742.449  12
   7  -1   3 636.613 166.738  12
   7  -1   3 749.268 261.901  11
   7  -1   3 894.841 303.800   9
   7  -1   3 661.078 179.235   8
   7  -1   4 57.4327 114.597  12
   7  -1   4 262.968 181.175  11
   7  -1   4-207.089 227.113   9
   7  -1   5 31109.5 1176.44   9
   7  -1   5 29815.0 1105.50  12
   7  -1   6 8072.27 574.569   9
   7  -1   6 7945.96 566.255  12
   7  -1   7 320.381 140.467  11
   7  -1   7 321.759 164.775   9
   7  -1   7 8.10343 136.209  12
   7  -1   8 500.884 142.646   9
   7   0 -12 273.726 98.8024  10
   7   0 -12 325.121 95.3140   6
   7   0 -11 326.447 92.9720  20
   7   0 -11 271.311 146.585  10
   7   0 -10 32743.0 1064.76  10
   7   0  -9 1592.65 335.314  10
   7   0  -8 298.875 239.347  10
   7   0  -7 3408.19 474.428  10
   7   0  -7 5252.18 487.242   7
   7   0  -6 4758.88 541.705  10
   7   0  -6 6608.44 599.834   6
   7   0  -6 4201.17 465.044  17
   7   0  -6 5951.33 537.826   7
   7   0  -5 1353.10 310.124  17
   7   0  -5 1514.22 365.243  10
   7   0  -5 1324.84 382.881   6
   7   0  -5 2316.53 435.804   7
   7   0  -4 3595.12 477.488  10
   7   0  -4 3542.62 546.471   6
   7   0  -4 2523.56 411.601  17
   7   0  -3 2306.91 351.558  11
   7   0  -3 3317.55 517.101   6
   7   0  -3 3783.14 516.442  10
   7   0  -2 385.662 315.090   6
   7   0  -2 782.991 336.296  10
   7   0  -1 1215.53 385.593   6
   7   0  -1 1486.19 355.990  10
   7   0   0 12927.7 826.403  11
   7   0   0 11745.6 851.564   6
   7   0   1 4071.13 476.858  11
   7   0   1 3340.75 487.678   6
   7   0   1 3111.76 400.506   9
   7   0   2 680.343 230.644  11
   7   0   2-150.477 123.321   9
   7   0   3 13719.9 782.680  11
   7   0   3 11886.0 645.892   9
   7   0   4-38.3831 126.562  12
   7   0   4-127.206 151.957  11
   7   0   4-321.097 148.657   9
   7   0   5 3043.64 343.480  11
   7   0   5 2453.21 260.250   9
   7   0   5 3478.45 327.363  12
   7   0   6 96.0432 109.631  11
   7   0   6 0.75321 63.9907  12
   7   0   7 3511.99 272.632  11
   7   1 -11 28.2474 33.5425   6
   7   1 -10 407.359 120.020  10
   7   1 -10 553.302 177.814   6
   7   1  -9 2033.04 273.580   6
   7   1  -9 1297.54 233.573  10
   7   1  -8 5294.93 451.889  10
   7   1  -8 6618.58 498.375   6
   7   1  -7 63.5128 176.378  10
   7   1  -7-140.867 119.764  17
   7   1  -7 56.9827 174.352   6
   7   1  -6 2461.48 361.208  10
   7   1  -6 2544.34 351.141   6
   7   1  -6 1800.31 317.905  17
   7   1  -5 34.2703 210.557  10
   7   1  -5 72.3426 189.672  17
   7   1  -5-427.452 274.464   6
   7   1  -4 15173.6 819.981  10
   7   1  -4 13009.0 786.016  17
   7   1  -3 7094.26 619.830   6
   7   1  -3 7307.42 571.892  10
   7   1  -2 1735.80 307.867  11
   7   1  -2 2435.62 417.488   6
   7   1  -1 15113.2 810.786  11
   7   1  -1 20978.7 967.866   6
   7   1   0 3853.28 446.549  11
   7   1   0 5700.31 544.260   6
   7   1   1 1786.65 314.034  11
   7   1   1 2569.47 382.316   6
   7   1   2 126.112 165.911  11
   7   1   3-43.2115 108.141  11
   7   1   4 1313.47 214.840  11
   7   1   5 5910.00 349.802  11
   7   2  -9 2236.43 198.428   6
   7   2  -8 4596.46 308.334   6
   7   2  -7 1643.76 216.406   6
   7   2  -6 6724.92 418.556   6
   7   2  -5 363.313 176.331   6
   7   2  -4 6732.90 443.619   6
   7   2  -3 3993.98 309.326  11
   7   2  -3 5530.05 405.089   6
   7   2  -2 487.430 133.388  11
   7   2  -2 289.746 180.667   6
   7   2  -1 2244.38 263.387  11
   7   2  -1 2780.13 300.041   6
   7   2   0 560.334 143.149  11
   7   2   1 2363.29 251.659  11
   7   2   2 401.290 100.844  11
   8  -7  -3 3499.68 266.281   7
   8  -7  -1-386.935 128.732   8
   8  -7   0 8292.93 384.758   5
   8  -7   0 9366.07 448.500   8
   8  -7   1 4046.79 270.167   5
   8  -7   1 4014.97 307.797   8
   8  -7   2 85.8258 105.374   5
   8  -7   2 489.417 106.635   8
   8  -7   3 54.3146 65.1243   8
   8  -6  -8 266.143 105.260  20
   8  -6  -7-387.683 142.408  20
   8  -6  -6 2072.70 273.608  20
   8  -6  -5 9210.45 500.199  20
   8  -6  -4 2060.34 256.672  20
   8  -6  -3 540.300 165.317   8
   8  -6  -2 13220.9 674.578   7
   8  -6  -2 13985.4 668.144   8
   8  -6  -1-317.235 135.840   5
   8  -6  -1 35.2909 158.291   8
   8  -6   0 1595.15 223.536   7
   8  -6   0 1113.59 202.600   5
   8  -6   0 1158.96 262.030   8
   8  -6   1 1749.16 300.153   8
   8  -6   1 1730.99 276.343   5
   8  -6   2 1638.64 268.316   8
   8  -6   2 1654.89 269.786   5
   8  -6   3-167.441 141.424   5
   8  -6   3-8.29484 132.519   8
   8  -6   4 11698.6 523.220   5
   8  -6   4 9102.03 491.878   8
   8  -6   5 1220.93 193.379   5
   8  -6   5 1174.40 173.352   8
   8  -5 -10-115.985 110.004  20
   8  -5  -9 12916.8 547.248  20
   8  -5  -9 12515.7 555.536   7
   8  -5  -9 12196.4 557.841  10
   8  -5  -8 230.275 155.741  20
   8  -5  -8 841.931 155.008  10
   8  -5  -7 22561.5 792.027  20
   8  -5  -7 20625.9 779.730  10
   8  -5  -6 5930.84 438.742  20
   8  -5  -5-243.103 174.056  20
   8  -5  -5-139.204 163.640   8
   8  -5  -4-44.0635 155.630   8
   8  -5  -3 53.4080 186.947   7
   8  -5  -3-10.0190 170.275   8
   8  -5  -2 1813.01 354.829   7
   8  -5  -2 2454.81 358.815   8
   8  -5  -1 1689.59 325.503   7
   8  -5  -1 1628.07 310.675   8
   8  -5   0 4412.78 376.861   5
   8  -5   0 4628.92 470.969   8
   8  -5   0 3608.15 405.806   7
   8  -5   1 11496.7 659.695   5
   8  -5   1 10587.6 621.021   7
   8  -5   2 8020.14 562.960   5
   8  -5   2 9305.21 606.948   8
   8  -5   3 438.355 226.796   5
   8  -5   3 277.403 168.007   8
   8  -5   4 13633.5 645.922   5
   8  -5   4 14011.5 647.962   8
   8  -5   5 14.7271 125.675   5
   8  -5   5 60.0979 89.4055   8
   8  -5   6 3417.29 290.494   5
   8  -4 -11 4932.56 317.008  20
   8  -4 -11 4763.61 351.729  10
   8  -4 -10 520.093 126.093   7
   8  -4 -10 839.385 138.548  20
   8  -4 -10 994.723 202.986  10
   8  -4  -9 23366.6 779.743   7
   8  -4  -9 24468.6 766.118  20
   8  -4  -9 25668.1 963.934  10
   8  -4  -8 15821.7 725.230   7
   8  -4  -8 14998.4 616.578  20
   8  -4  -8 15150.6 790.251  10
   8  -4  -7 12783.8 593.217  20
   8  -4  -7 13901.9 720.868   7
   8  -4  -7 13377.7 788.583  10
   8  -4  -6 4807.05 378.827  20
   8  -4  -6 5967.21 521.691   7
   8  -4  -6 4634.36 500.724  10
   8  -4  -6 5666.57 491.280   8
   8  -4  -5 6704.26 577.095   7
   8  -4  -5 4996.07 517.614  10
   8  -4  -5 6483.20 536.916   8
   8  -4  -4-35.7374 247.035   7
   8  -4  -4 101.114 194.879   8
   8  -4  -3 463.439 296.778   7
   8  -4  -3 838.478 281.357   8
   8  -4  -2 23069.8 1059.14   7
   8  -4  -2 23614.4 1002.89   8
   8  -4  -1 2382.37 409.847   7
   8  -4  -1 2729.05 392.081   8
   8  -4   0 4623.58 468.094   8
   8  -4   0 3807.45 460.058   7
   8  -4   1 95.7637 126.916   7
   8  -4   1-111.940 153.325   5
   8  -4   1 275.570 195.372   8
   8  -4   2 3573.51 470.217   9
   8  -4   2 2951.35 370.072   5
   8  -4   3 5371.21 558.273   9
   8  -4   3 4907.75 448.547   5
   8  -4   3 6052.68 474.318   8
   8  -4   4 22892.6 978.328   9
   8  -4   4 21709.2 816.595   5
   8  -4   4 24018.7 821.819   8
   8  -4   5 6132.21 489.907   9
   8  -4   5 5811.11 419.312   5
   8  -4   5 5773.52 365.748   8
   8  -4   6 4621.07 378.483   9
   8  -4   6 4113.39 340.418   5
   8  -3 -11 7461.51 452.097  10
   8  -3 -10 1895.84 219.675  20
   8  -3 -10 1695.48 284.949  10
   8  -3  -9 314.932 139.890   7
   8  -3  -9 851.174 169.828  20
   8  -3  -9 874.367 253.012  10
   8  -3  -8 14862.4 585.039  20
   8  -3  -8 17136.8 879.384  10
   8  -3  -8 15870.7 700.019   7
   8  -3  -7 16363.3 766.087   7
   8  -3  -7 16962.1 908.239  10
   8  -3  -6 16.1554 193.268   7
   8  -3  -6 84.4050 213.115  10
   8  -3  -5 1538.17 351.131   7
   8  -3  -5 1142.59 349.352  10
   8  -3  -5 1823.82 350.341   8
   8  -3  -4 17071.9 873.322   7
   8  -3  -4 17684.3 884.344   8
   8  -3  -3 407.639 253.525   7
   8  -3  -3 702.035 187.684  10
   8  -3  -3 390.689 231.299   8
   8  -3  -2 1941.20 367.143   7
   8  -3  -2 2375.93 363.048   8
   8  -3  -1-151.100 253.940   7
   8  -3  -1-43.5409 199.483   8
   8  -3   0 37.9422 203.025   7
   8  -3   0-198.933 198.612   8
   8  -3   1 282.811 141.604  11
   8  -3   1 262.624 280.706   7
   8  -3   1-16.8999 278.136   9
   8  -3   1-107.239 188.600   8
   8  -3   2 28565.1 1241.62   9
   8  -3   2 29515.5 991.916   8
   8  -3   2 26209.9 994.266   7
   8  -3   3 213.487 246.259   9
   8  -3   3 291.604 153.930   8
   8  -3   4 1866.05 349.572   9
   8  -3   4 1601.93 230.709   8
   8  -3   5 11014.7 657.818   9
   8  -3   6 7909.25 498.982   9
   8  -2 -11 672.009 142.679  10
   8  -2 -10 3712.65 351.410  10
   8  -2  -9 7428.48 534.486  10
   8  -2  -9 5462.76 351.575   7
   8  -2  -8 1092.23 192.500   7
   8  -2  -8 1159.92 295.413  10
   8  -2  -7 1128.03 246.443   7
   8  -2  -7 1225.65 313.477  10
   8  -2  -6 8963.72 675.058  10
   8  -2  -6 7793.76 548.609   7
   8  -2  -5 278.558 199.907   7
   8  -2  -5 377.087 252.905  10
   8  -2  -4 620.690 258.184   7
   8  -2  -4 677.909 251.502  10
   8  -2  -3 6516.26 598.841  10
   8  -2  -3 6725.20 554.535   8
   8  -2  -3 6332.60 542.295   7
   8  -2  -2 8344.05 536.535   6
   8  -2  -2 9728.73 662.407  10
   8  -2  -2 10509.4 665.161   8
   8  -2  -2 10561.4 683.730   7
   8  -2  -1 1018.87 307.182   7
   8  -2  -1 410.069 171.804  11
   8  -2  -1 623.410 214.852   8
   8  -2   0 9392.98 574.473  11
   8  -2   0 9213.72 593.627   8
   8  -2   1 717.411 182.857  11
   8  -2   1 295.713 193.813   8
   8  -2   2 230.256 124.481  11
   8  -2   2 451.017 225.043   9
   8  -2   2 138.157 169.333   8
   8  -2   3 364.494 157.388  11
   8  -2   3 464.557 208.636   9
   8  -2   4 2120.56 288.039  11
   8  -2   4 2073.17 327.214   9
   8  -2   5 5306.31 413.107   9
   8  -1 -10 1165.62 192.662  10
   8  -1  -9 352.384 145.655  10
   8  -1  -8 1207.94 246.397  10
   8  -1  -7 3031.31 279.773   6
   8  -1  -7 3915.90 418.216  10
   8  -1  -6 7477.60 561.995  10
   8  -1  -6 8737.68 529.056   7
   8  -1  -5 815.342 238.126   6
   8  -1  -5 1472.93 307.339  10
   8  -1  -4 17852.7 850.575  10
   8  -1  -4 19648.3 785.199   7
   8  -1  -3 6517.35 505.400   6
   8  -1  -3 9110.52 621.874  10
   8  -1  -2 2351.08 331.223   6
   8  -1  -2 3305.55 364.757  10
   8  -1  -1 3060.77 330.273  11
   8  -1   0 1400.38 231.144  11
   8  -1   1 4.12738 72.4764  11
   8  -1   2 1776.46 264.086  11
   8  -1   3-125.423 73.7761  11
   8  -1   4 1718.22 216.926  11
   8   0  -8-191.368 113.911  10
   8   0  -7 452.986 119.103   6
   8   0  -7 655.408 156.625  10
   8   0  -6 5784.10 382.367   6
   8   0  -6 7204.94 446.071  10
   8   0  -5-160.372 139.231   6
   8   0  -5-53.2920 145.501  10
   8   0  -4 4487.07 387.435   6
   8   0  -3-224.258 183.562   6
   8   0  -2 667.729 178.202   6
   8   0  -1-30.5501 84.3002  11
   8   0   0 5616.13 362.276  11
   8   0   1 783.823 149.609  11
   8   0   2-61.7325 54.0537  11
   9  -5  -5 510.124 118.076   7
   9  -5  -4 2314.77 248.207   7
   9  -5  -3 614.010 127.854   7
   9  -5  -2-2.45675 101.754   8
   9  -5  -1 1677.64 227.848   8
   9  -5   0 2711.68 251.787   8
   9  -4  -6 1876.98 219.946   7
   9  -4  -5 1173.01 197.294   7
   9  -4  -4 2076.05 261.739   7
   9  -4  -3 6695.42 421.353   7
   9  -4  -2 1289.38 283.802   7
   9  -4  -2 1828.06 249.071   8
   9  -4  -1 100.094 117.315   8
   9  -4  -1 3156.09 327.599   7
   9  -4   0 5184.25 356.621   8
   9  -4   1 331.811 85.8476   8
   9  -3  -6 3524.39 291.118   7
   9  -3  -5 2184.03 273.822   7
   9  -3  -4 9972.18 490.040   7
   9  -3  -3 4063.44 367.911   7
   9  -3  -2 8759.68 483.571   7
   0   0   0    0.00    0.00   0
TITL rr-22 in P-1
REM P-1 (#2 in standard setting)
CELL 1.54184   7.301541   7.505973  14.966540  92.5391  98.5225 113.6569
ZERR    2.00   0.000433   0.000629   0.000784   0.0054   0.0046   0.0068
LATT  1
SFAC C H N O Cl
UNIT 40.00 40.00 8.00 8.00 2.00
TREF
HKLF 4
END
;
_shelx_hkl_checksum              81161
_shelx_res_file
;
    shelx.res created by SHELXL-2014/7
TITL rr-22_a.res in P-1
REM Old TITL rr-22 in P-1
REM SHELXT solution in P-1
REM R1 0.119,  Rweak 0.004,  Alpha 0.024,  Orientation as input
REM Formula found by SHELXT:  C14 N2 O2 Cl3
CELL  1.54184   7.3015   7.5060  14.9665   92.539   98.522  113.657
ZERR    2.000   0.0004   0.0006   0.0008    0.005    0.005    0.007
LATT  1
SFAC C H N O CL
UNIT 26 24 6 4 6
temp -153
L.S. 10
BOND $H
acta 135
conf
htab
EQIV $1 -x+1, -y, -z+2
HTAB N4A N3A_$1
EQIV $2 -x+1, -y+1, -z+2
HTAB N4A O2B_$2
HTAB O1B N1A
omit -2 1 2
WGHT    0.078100    0.423000
FVAR       7.20700
CL1   5    0.923604    0.675677    1.080795    11.00000    0.02872    0.02857 =
         0.02804    0.00297    0.00289    0.01156
N1A   3    0.564167    0.461508    0.840088    11.00000    0.02628    0.02996 =
         0.02445    0.01065    0.00561    0.01483
C2A   1    0.479630    0.273265    0.851755    11.00000    0.02426    0.03061 =
         0.02456    0.00792    0.00563    0.01539
N3A   3    0.520289    0.195732    0.927170    11.00000    0.02461    0.02696 =
         0.02364    0.00932    0.00541    0.01314
N4A   3    0.692312    0.241545    1.073843    11.00000    0.03120    0.02721 =
         0.02373    0.01000    0.00213    0.01105
H41   2    0.623544    0.118056    1.076840    11.00000    0.02382
H42   2    0.759995    0.318466    1.123729    11.00000    0.04668
C4A   1    0.653725    0.319174    0.998204    11.00000    0.02205    0.02818 =
         0.02398    0.00747    0.00643    0.01372
C5A   1    0.748808    0.520585    0.989815    11.00000    0.02496    0.02709 =
         0.02453    0.00557    0.00533    0.01308
C6A   1    0.703434    0.589147    0.909444    11.00000    0.02392    0.02810 =
         0.02907    0.00976    0.00769    0.01502
C7A   1    0.323353    0.132827    0.775616    11.00000    0.03201    0.03224 =
         0.02453    0.00760    0.00295    0.01398
AFIX 137
H7AA  2    0.278874    0.206174    0.731304    11.00000   -1.50000
H7AB  2    0.206370    0.045022    0.800087    11.00000   -1.50000
H7AC  2    0.382821    0.055626    0.745765    11.00000   -1.50000
AFIX   0
C8A   1    0.800071    0.799040    0.894288    11.00000    0.03615    0.03108 =
         0.03889    0.01407    0.00593    0.01472
AFIX 137
H8AA  2    0.755465    0.813522    0.831029    11.00000   -1.50000
H8AB  2    0.948288    0.844620    0.906756    11.00000   -1.50000
H8AC  2    0.760043    0.877082    0.935108    11.00000   -1.50000
AFIX   0
CL2   5   -0.049480    0.744629    0.614577    11.00000    0.02867    0.04190 =
         0.03029    0.00862    0.00629    0.01918
CL3   5    0.207779    0.876040    0.298331    11.00000    0.04355    0.05115 =
         0.02324    0.01146    0.00227    0.02651
O1B   4    0.469166    0.568107    0.682509    11.00000    0.04551    0.05766 =
         0.02978    0.02331    0.01144    0.03661
H1B   2    0.503030    0.539801    0.738978    11.00000    0.08045
O2B   4    0.235347    0.642886    0.733342    11.00000    0.05693    0.07305 =
         0.02452    0.01331    0.00971    0.04626
C1B   1    0.290639    0.696808    0.581009    11.00000    0.02673    0.02113 =
         0.02276    0.00208   -0.00044    0.00923
C2B   1    0.129827    0.748017    0.549899    11.00000    0.02616    0.02393 =
         0.02581    0.00421    0.00296    0.01093
C3B   1    0.102998    0.802103    0.462816    11.00000    0.02739    0.02680 =
         0.02689    0.00342   -0.00247    0.01226
AFIX  43
H3BA  2   -0.007441    0.835215    0.441968    11.00000   -1.20000
AFIX   0
C4B   1    0.240031    0.806892    0.406965    11.00000    0.03419    0.02706 =
         0.01897    0.00527    0.00072    0.01325
C5B   1    0.402237    0.759479    0.435796    11.00000    0.03170    0.03384 =
         0.02633    0.00623    0.00485    0.01633
AFIX  43
H5BA  2    0.495602    0.764302    0.397002    11.00000   -1.20000
AFIX   0
C6B   1    0.425204    0.705081    0.522123    11.00000    0.02903    0.03198 =
         0.02696    0.00665    0.00164    0.01757
AFIX  43
H6BA  2    0.536070    0.672122    0.542293    11.00000   -1.20000
AFIX   0
C7B   1    0.327098    0.633548    0.673595    11.00000    0.03008    0.02426 =
         0.02501    0.00366    0.00258    0.01271
HKLF 4
REM  rr-22_a.res in P-1
REM R1 =  0.0465 for    2546 Fo > 4sig(Fo)  and  0.0575 for all    3050 data
REM    204 parameters refined using      0 restraints
END
WGHT      0.0779      0.4294
REM Instructions for potential hydrogen bonds
HTAB N4A N3A_$1
HTAB N4A O2B_$2
HTAB O1B N1A
REM Highest difference peak  0.389,  deepest hole -0.511,  1-sigma level  0.082
Q1    1   0.3407  0.4749  0.6034  11.00000  0.05    0.38
Q2    1   0.8628  0.5354  1.1022  11.00000  0.05    0.36
Q3    1   0.9613  0.8843  1.0075  11.00000  0.05    0.35
Q4    1   0.9988  0.8220  1.0622  11.00000  0.05    0.35
Q5    1  -0.0846  0.6062  0.5479  11.00000  0.05    0.32
Q6    1   0.7444  0.5598  0.9538  11.00000  0.05    0.31
Q7    1   0.2691 -0.0282  0.7727  11.00000  0.05    0.30
Q8    1  -0.0939  0.5224  0.6884  11.00000  0.05    0.30
Q9    1   0.8652  0.7858  0.8178  11.00000  0.05    0.29
Q10   1   0.2529 -0.0447  0.8311  11.00000  0.05    0.29
Q11   1  -0.1037  0.5968  0.6298  11.00000  0.05    0.28
Q12   1   0.1714  0.6271  0.3557  11.00000  0.05    0.28
Q13   1   0.6956  0.3987  0.9923  11.00000  0.05    0.28
Q14   1   0.4582  0.0791  0.9350  11.00000  0.05    0.27
Q15   1   0.1806  0.8105  0.7599  11.00000  0.05    0.26
Q16   1   0.3478  0.6948  0.5517  11.00000  0.05    0.26
Q17   1   0.0597  0.7925  0.6790  11.00000  0.05    0.26
Q18   1   0.0059  0.4588  0.7857  11.00000  0.05    0.25
Q19   1   0.1590  0.7400  0.3072  11.00000  0.05    0.24
Q20   1   0.7103  0.9127  0.7679  11.00000  0.05    0.24
;
_shelx_res_checksum              60295
loop_
_space_group_symop_operation_xyz
'x, y, z'
'-x, -y, -z'
loop_
_atom_site_type_symbol
_atom_site_label
_atom_site_fract_x
_atom_site_fract_y
_atom_site_fract_z
_atom_site_U_iso_or_equiv
_atom_site_adp_type
_atom_site_calc_flag
_atom_site_occupancy
Cl Cl1 0.92360(9) 0.67568(9) 1.08079(4) 0.02879(18) Uani d 1
N N1A 0.5642(3) 0.4615(3) 0.84009(15) 0.0255(5) Uani d 1
C C2A 0.4796(4) 0.2733(4) 0.85176(17) 0.0249(5) Uani d 1
N N3A 0.5203(3) 0.1957(3) 0.92717(15) 0.0239(4) Uani d 1
N N4A 0.6923(4) 0.2415(4) 1.07384(16) 0.0278(5) Uani d 1
H H41 0.624(5) 0.118(5) 1.077(2) 0.024(8) Uiso d 1
H H42 0.760(6) 0.318(6) 1.124(3) 0.047(11) Uiso d 1
C C4A 0.6537(4) 0.3192(4) 0.99820(17) 0.0232(5) Uani d 1
C C5A 0.7488(4) 0.5206(4) 0.98982(18) 0.0246(5) Uani d 1
C C6A 0.7034(4) 0.5891(4) 0.90944(18) 0.0251(5) Uani d 1
C C7A 0.3234(4) 0.1328(4) 0.77562(18) 0.0295(6) Uani d 1
H H7AA 0.2789 0.2062 0.7313 0.044 Uiso calc 1
H H7AB 0.2064 0.0450 0.8001 0.044 Uiso calc 1
H H7AC 0.3828 0.0556 0.7458 0.044 Uiso calc 1
C C8A 0.8001(5) 0.7990(4) 0.8943(2) 0.0349(6) Uani d 1
H H8AA 0.7555 0.8135 0.8310 0.052 Uiso calc 1
H H8AB 0.9483 0.8446 0.9068 0.052 Uiso calc 1
H H8AC 0.7600 0.8771 0.9351 0.052 Uiso calc 1
Cl Cl2 -0.04948(10) 0.74463(11) 0.61458(4) 0.03186(19) Uani d 1
Cl Cl3 0.20778(12) 0.87604(12) 0.29833(4) 0.0372(2) Uani d 1
O O1B 0.4692(4) 0.5681(4) 0.68251(15) 0.0382(5) Uani d 1
H H1B 0.503(7) 0.540(8) 0.739(4) 0.080(16) Uiso d 1
O O2B 0.2353(4) 0.6429(4) 0.73334(14) 0.0446(6) Uani d 1
C C1B 0.2906(4) 0.6968(4) 0.58101(17) 0.0243(5) Uani d 1
C C2B 0.1298(4) 0.7480(4) 0.54990(18) 0.0253(5) Uani d 1
C C3B 0.1030(4) 0.8021(4) 0.46282(18) 0.0275(5) Uani d 1
H H3BA -0.0074 0.8352 0.4420 0.033 Uiso calc 1
C C4B 0.2400(4) 0.8069(4) 0.40696(17) 0.0269(5) Uani d 1
C C5B 0.4022(4) 0.7595(4) 0.43580(19) 0.0297(6) Uani d 1
H H5BA 0.4956 0.7643 0.3970 0.036 Uiso calc 1
C C6B 0.4252(4) 0.7051(4) 0.52212(19) 0.0280(6) Uani d 1
H H6BA 0.5361 0.6721 0.5423 0.034 Uiso calc 1
C C7B 0.3271(4) 0.6335(4) 0.67360(18) 0.0262(5) Uani d 1
loop_
_atom_site_aniso_label
_atom_site_aniso_U_11
_atom_site_aniso_U_22
_atom_site_aniso_U_33
_atom_site_aniso_U_12
_atom_site_aniso_U_13
_atom_site_aniso_U_23
Cl1 0.0287(3) 0.0286(3) 0.0280(3) 0.0116(3) 0.0029(2) 0.0030(2)
N1A 0.0263(11) 0.0300(11) 0.0245(10) 0.0148(9) 0.0056(9) 0.0107(9)
C2A 0.0243(12) 0.0306(13) 0.0246(12) 0.0154(10) 0.0056(10) 0.0079(10)
N3A 0.0246(10) 0.0270(11) 0.0236(10) 0.0131(9) 0.0054(8) 0.0093(8)
N4A 0.0312(12) 0.0272(12) 0.0237(11) 0.0110(10) 0.0021(9) 0.0100(9)
C4A 0.0220(11) 0.0282(13) 0.0240(12) 0.0137(10) 0.0064(9) 0.0075(10)
C5A 0.0250(12) 0.0271(13) 0.0245(12) 0.0131(10) 0.0053(10) 0.0056(10)
C6A 0.0239(12) 0.0281(13) 0.0291(13) 0.0150(10) 0.0077(10) 0.0098(10)
C7A 0.0320(13) 0.0322(14) 0.0245(12) 0.0140(11) 0.0029(11) 0.0076(10)
C8A 0.0362(15) 0.0311(15) 0.0389(16) 0.0147(12) 0.0059(12) 0.0141(12)
Cl2 0.0287(3) 0.0419(4) 0.0303(3) 0.0192(3) 0.0063(3) 0.0086(3)
Cl3 0.0436(4) 0.0511(4) 0.0232(3) 0.0265(3) 0.0023(3) 0.0115(3)
O1B 0.0455(12) 0.0577(14) 0.0298(11) 0.0366(11) 0.0114(9) 0.0233(10)
O2B 0.0569(14) 0.0731(17) 0.0245(10) 0.0463(13) 0.0097(10) 0.0133(10)
C1B 0.0267(12) 0.0211(12) 0.0228(12) 0.0092(10) -0.0004(9) 0.0021(9)
C2B 0.0262(12) 0.0239(12) 0.0258(12) 0.0109(10) 0.0030(10) 0.0042(9)
C3B 0.0274(12) 0.0268(13) 0.0269(13) 0.0123(11) -0.0025(10) 0.0034(10)
C4B 0.0342(14) 0.0271(13) 0.0190(11) 0.0133(11) 0.0007(10) 0.0053(9)
C5B 0.0317(14) 0.0338(14) 0.0263(13) 0.0163(12) 0.0048(11) 0.0062(11)
C6B 0.0290(13) 0.0320(14) 0.0270(13) 0.0176(11) 0.0016(10) 0.0066(10)
C7B 0.0301(13) 0.0243(12) 0.0250(12) 0.0127(11) 0.0026(10) 0.0037(10)
loop_
_atom_type_symbol
_atom_type_description
_atom_type_scat_dispersion_real
_atom_type_scat_dispersion_imag
_atom_type_scat_source
C C 0.0181 0.0091 'International Tables Vol C Tables 4.2.6.8 and 6.1.1.4'
H H 0.0000 0.0000 'International Tables Vol C Tables 4.2.6.8 and 6.1.1.4'
N N 0.0311 0.0180 'International Tables Vol C Tables 4.2.6.8 and 6.1.1.4'
O O 0.0492 0.0322 'International Tables Vol C Tables 4.2.6.8 and 6.1.1.4'
Cl Cl 0.3639 0.7018 'International Tables Vol C Tables 4.2.6.8 and 6.1.1.4'
loop_
_geom_angle_atom_site_label_1
_geom_angle_atom_site_label_2
_geom_angle_atom_site_label_3
_geom_angle
C2A N1A C6A 118.5(2)
N1A C2A N3A 125.4(2)
N1A C2A C7A 118.4(2)
N3A C2A C7A 116.2(2)
C2A N3A C4A 117.6(2)
C4A N4A H41 119(2)
C4A N4A H42 119(3)
H41 N4A H42 119(3)
N4A C4A N3A 117.5(2)
N4A C4A C5A 122.9(2)
N3A C4A C5A 119.6(2)
C6A C5A C4A 119.6(2)
C6A C5A Cl1 121.5(2)
C4A C5A Cl1 118.9(2)
N1A C6A C5A 119.3(2)
N1A C6A C8A 117.7(2)
C5A C6A C8A 123.0(3)
C2A C7A H7AA 109.5
C2A C7A H7AB 109.5
H7AA C7A H7AB 109.5
C2A C7A H7AC 109.5
H7AA C7A H7AC 109.5
H7AB C7A H7AC 109.5
C6A C8A H8AA 109.5
C6A C8A H8AB 109.5
H8AA C8A H8AB 109.5
C6A C8A H8AC 109.5
H8AA C8A H8AC 109.5
H8AB C8A H8AC 109.5
C7B O1B H1B 115(3)
C6B C1B C2B 117.7(2)
C6B C1B C7B 118.3(2)
C2B C1B C7B 124.0(2)
C3B C2B C1B 121.0(2)
C3B C2B Cl2 115.8(2)
C1B C2B Cl2 123.2(2)
C4B C3B C2B 118.9(2)
C4B C3B H3BA 120.5
C2B C3B H3BA 120.5
C5B C4B C3B 121.6(2)
C5B C4B Cl3 119.4(2)
C3B C4B Cl3 119.0(2)
C6B C5B C4B 118.5(3)
C6B C5B H5BA 120.8
C4B C5B H5BA 120.8
C5B C6B C1B 122.2(3)
C5B C6B H6BA 118.9
C1B C6B H6BA 118.9
O2B C7B O1B 123.7(2)
O2B C7B C1B 123.7(2)
O1B C7B C1B 112.7(2)
loop_
_geom_bond_atom_site_label_1
_geom_bond_atom_site_label_2
_geom_bond_distance
Cl1 C5A 1.729(3)
N1A C2A 1.327(4)
N1A C6A 1.359(4)
C2A N3A 1.341(3)
C2A C7A 1.502(4)
N3A C4A 1.349(3)
N4A C4A 1.340(3)
N4A H41 0.87(4)
N4A H42 0.87(4)
C4A C5A 1.408(4)
C5A C6A 1.377(4)
C6A C8A 1.489(4)
C7A H7AA 0.9800
C7A H7AB 0.9800
C7A H7AC 0.9800
C8A H8AA 0.9800
C8A H8AB 0.9800
C8A H8AC 0.9800
Cl2 C2B 1.733(3)
Cl3 C4B 1.740(3)
O1B C7B 1.307(3)
O1B H1B 0.90(5)
O2B C7B 1.210(4)
C1B C6B 1.399(4)
C1B C2B 1.400(4)
C1B C7B 1.506(3)
C2B C3B 1.392(4)
C3B C4B 1.387(4)
C3B H3BA 0.9500
C4B C5B 1.384(4)
C5B C6B 1.379(4)
C5B H5BA 0.9500
C6B H6BA 0.9500
loop_
_geom_hbond_atom_site_label_D
_geom_hbond_atom_site_label_H
_geom_hbond_atom_site_label_A
_geom_hbond_site_symmetry_A
_geom_hbond_distance_DH
_geom_hbond_distance_HA
_geom_hbond_distance_DA
_geom_hbond_angle_DHA
N4A H41 N3A 2_657 0.87(4) 2.15(4) 3.014(3) 172(3)
N4A H42 O2B 2_667 0.87(4) 2.14(4) 2.884(3) 143(4)
O1B H1B N1A . 0.90(5) 1.71(5) 2.610(3) 174(5)
loop_
_geom_torsion_atom_site_label_1
_geom_torsion_atom_site_label_2
_geom_torsion_atom_site_label_3
_geom_torsion_atom_site_label_4
_geom_torsion
C6A N1A C2A N3A -0.2(4)
C6A N1A C2A C7A 179.1(2)
N1A C2A N3A C4A 2.0(4)
C7A C2A N3A C4A -177.3(2)
C2A N3A C4A N4A 179.3(2)
C2A N3A C4A C5A -2.0(4)
N4A C4A C5A C6A 179.1(2)
N3A C4A C5A C6A 0.4(4)
N4A C4A C5A Cl1 0.1(4)
N3A C4A C5A Cl1 -178.59(19)
C2A N1A C6A C5A -1.5(4)
C2A N1A C6A C8A 178.6(2)
C4A C5A C6A N1A 1.4(4)
Cl1 C5A C6A N1A -179.66(19)
C4A C5A C6A C8A -178.8(2)
Cl1 C5A C6A C8A 0.2(4)
C6B C1B C2B C3B 1.1(4)
C7B C1B C2B C3B -178.9(2)
C6B C1B C2B Cl2 179.8(2)
C7B C1B C2B Cl2 -0.1(4)
C1B C2B C3B C4B -0.7(4)
Cl2 C2B C3B C4B -179.6(2)
C2B C3B C4B C5B -0.1(4)
C2B C3B C4B Cl3 -179.6(2)
C3B C4B C5B C6B 0.5(4)
Cl3 C4B C5B C6B 180.0(2)
C4B C5B C6B C1B -0.1(4)
C2B C1B C6B C5B -0.6(4)
C7B C1B C6B C5B 179.3(3)
C6B C1B C7B O2B 171.1(3)
C2B C1B C7B O2B -8.9(4)
C6B C1B C7B O1B -8.7(4)
C2B C1B C7B O1B 171.3(3)

_cod_database_fobs_code 2021199
