#------------------------------------------------------------------------------
#$Date: 2019-06-29 07:07:33 +0300 (Sat, 29 Jun 2019) $
#$Revision: 216640 $
#$URL: file:///home/coder/svn-repositories/cod/cif/2/02/16/2021692.cif $
#------------------------------------------------------------------------------
#
# This file is available in the Crystallography Open Database (COD),
# http://www.crystallography.net/. The original data for this entry
# were provided by IUCr Journals, http://journals.iucr.org/.
#
# The file may be used within the scientific community so long as
# proper attribution is given to the journal article from which the
# data were obtained.
#
data_2021692
loop_
_publ_author_name
'Bomfim Filho, Lucius Flavius Ourives'
'Rocha, Cleidivania'
'Rodrigues, Bernardo Lages'
'Beraldo, Heloisa'
'Teixeira, Leticia Regina'
_publ_section_title
;
 Synthesis, crystal structure and studies on the interaction with albumin
 of a new silver(I) complex based on 2-(4-nitrobenzenesulfonamido)benzoic
 acid
;
_journal_coeditor_code           QS3085
_journal_issue                   7
_journal_name_full               'Acta Crystallographica Section C'
_journal_page_first              1011
_journal_page_last               1020
_journal_paper_doi               10.1107/S2053229619008593
_journal_volume                  75
_journal_year                    2019
_chemical_formula_iupac          'C13 H10 N2 O6 S'
_chemical_formula_moiety         'C13 H10 N2 O6 S'
_chemical_formula_sum            'C13 H10 N2 O6 S'
_chemical_formula_weight         322.29
_chemical_name_systematic
;
2-(4-Nitrobenzenesulfonamido)benzoic acid
;
_space_group_IT_number           2
_space_group_name_Hall           '-P 1'
_space_group_name_H-M_alt        'P -1'
_symmetry_cell_setting           triclinic
_symmetry_space_group_name_Hall  '-P 1'
_symmetry_space_group_name_H-M   'P -1'
_atom_sites_solution_hydrogens   mixed
_audit_creation_method           'WinGX routine CIF_UPDATE'
_cell_angle_alpha                102.153(4)
_cell_angle_beta                 100.951(4)
_cell_angle_gamma                99.745(4)
_cell_formula_units_Z            2
_cell_length_a                   6.9140(3)
_cell_length_b                   10.0641(5)
_cell_length_c                   10.1532(5)
_cell_measurement_reflns_used    5557
_cell_measurement_temperature    300.70(14)
_cell_measurement_theta_max      32.5900
_cell_measurement_theta_min      3.0740
_cell_volume                     661.77(6)
_computing_cell_refinement
;
CrysAlis PRO (Rigaku OD, 2018)
;
_computing_data_collection
;
CrysAlis PRO (Rigaku OD, 2018)
;
_computing_data_reduction
;
CrysAlis PRO (Rigaku OD, 2018)
;
_computing_molecular_graphics
;
Mercury (Macrae <i>et al.</i>, 2008)
;
_computing_publication_material
;
SHELXL2018 (Sheldrick, 2015)
;
_computing_structure_refinement
;
SHELXL2018 (Sheldrick, 2015)
;
_computing_structure_solution
;
SHELXS97 (Sheldrick, 2008)
;
_diffrn_ambient_temperature      300.70(14)
_diffrn_detector_area_resol_mean 10.4186
_diffrn_measured_fraction_theta_full 0.999
_diffrn_measured_fraction_theta_max 0.922
_diffrn_measurement_device       'four-circle diffractometer'
_diffrn_measurement_device_type  'Rigaku Xcalibur, Atlas, Gemini ultra'
_diffrn_measurement_method       '\w scans'
_diffrn_radiation_monochromator  graphite
_diffrn_radiation_type           MoK\a
_diffrn_radiation_wavelength     0.71073
_diffrn_reflns_av_R_equivalents  0.0425
_diffrn_reflns_av_unetI/netI     0.0328
_diffrn_reflns_limit_h_max       10
_diffrn_reflns_limit_h_min       -10
_diffrn_reflns_limit_k_max       14
_diffrn_reflns_limit_k_min       -14
_diffrn_reflns_limit_l_max       14
_diffrn_reflns_limit_l_min       -15
_diffrn_reflns_number            13718
_diffrn_reflns_theta_full        25.242
_diffrn_reflns_theta_max         32.754
_diffrn_reflns_theta_min         2.59
_exptl_absorpt_coefficient_mu    0.279
_exptl_absorpt_correction_T_max  1.00000
_exptl_absorpt_correction_T_min  0.90048
_exptl_absorpt_correction_type   multi-scan
_exptl_absorpt_process_details
;
(CrysAlis PRO; Rigaku OD, 2018)
;
_exptl_crystal_colour            colourless
_exptl_crystal_density_diffrn    1.617
_exptl_crystal_description       prism
_exptl_crystal_F_000             332
_exptl_crystal_size_max          0.68
_exptl_crystal_size_mid          0.35
_exptl_crystal_size_min          0.14
_refine_diff_density_max         0.331
_refine_diff_density_min         -0.372
_refine_ls_extinction_method     none
_refine_ls_goodness_of_fit_ref   1.061
_refine_ls_hydrogen_treatment    constr
_refine_ls_matrix_type           full
_refine_ls_number_parameters     200
_refine_ls_number_reflns         4515
_refine_ls_number_restraints     0
_refine_ls_restrained_S_all      1.061
_refine_ls_R_factor_all          0.0486
_refine_ls_R_factor_gt           0.0408
_refine_ls_shift/su_max          0
_refine_ls_shift/su_mean         0
_refine_ls_structure_factor_coef Fsqd
_refine_ls_weighting_details
'w=1/[\s^2^(Fo^2^)+(0.0534P)^2^+0.1382P] where P=(Fo^2^+2Fc^2^)/3'
_refine_ls_weighting_scheme      calc
_refine_ls_wR_factor_gt          0.107
_refine_ls_wR_factor_ref         0.116
_reflns_number_gt                3841
_reflns_number_total             4515
_reflns_threshold_expression     'I > 2\s(I)'
_iucr_refine_instructions_details
;
TITL exp_7844 in P -1
    shelx.res
    created by SHELXL-2018/3 at 13:51:18 on 26-Feb-2019
CELL  0.71073   6.9140  10.0641  10.1532  102.153  100.951   99.745
ZERR     2.00   0.0003   0.0005   0.0005    0.004    0.004    0.004
LATT   1
SFAC  C    H    N    O    S
UNIT  26 20 4 12 2
MERG   2
FMAP   2
PLAN   20
eqiv $1 -1-x,-y,1-z
eqiv $2 1-x,1-y, 1-z
eqiv $3 -1+x, y, z
eqiv $4 1+x, y, z
htab o1 o2_$1
htab C5 O4_$2
htab c9 o6_$3
htab c12 o3_$4
ACTA
BOND   $H
CONF
L.S.  25
TEMP    30.00
WGHT    0.053400    0.138200
FVAR       6.58471
S1    5    0.124542    0.476281    0.741048    11.00000    0.02764    0.02435 =
         0.03087    0.00453    0.00438    0.00152
O1    4   -0.338985   -0.039404    0.381673    11.00000    0.03861    0.03506 =
         0.04491   -0.00168    0.01233   -0.01041
AFIX 147
H1    2   -0.443606   -0.066604    0.404167    11.00000   -1.50000
AFIX   0
O2    4   -0.325273    0.147674    0.548812    11.00000    0.02879    0.03462 =
         0.05167    0.00005    0.01472   -0.00380
O3    4   -0.014978    0.514829    0.821601    11.00000    0.03984    0.03851 =
         0.04210    0.00322    0.01219    0.01278
O4    4    0.254165    0.580082    0.702471    11.00000    0.03746    0.02832 =
         0.04650    0.01264    0.00306   -0.00458
O5    4    0.580566    0.113058    1.127751    11.00000    0.05378    0.04280 =
         0.04098    0.01760    0.00507    0.00877
O6    4    0.799372    0.149610    1.005409    11.00000    0.04031    0.05720 =
         0.07463    0.02516    0.01562    0.02016
N1    3   -0.015044    0.362290    0.602675    11.00000    0.02302    0.03153 =
         0.03194    0.00222    0.00530   -0.00143
AFIX   3
H1N   2   -0.129422    0.323849    0.611424    11.00000   -1.20000
AFIX   0
N2    3    0.641556    0.162446    1.039188    11.00000    0.03549    0.02924 =
         0.03776    0.00561    0.00189    0.00466
C1    1   -0.252065    0.086792    0.457811    11.00000    0.02546    0.02944 =
         0.03306    0.00706    0.00305   -0.00017
C2    1   -0.061433    0.146793    0.426459    11.00000    0.02506    0.02945 =
         0.02660    0.00814    0.00428    0.00167
C3    1    0.054250    0.280661    0.498121    11.00000    0.02455    0.02878 =
         0.02484    0.00871    0.00321    0.00224
C4    1    0.232941    0.330324    0.462342    11.00000    0.03094    0.03767 =
         0.03601    0.00864    0.00974   -0.00372
AFIX  43
H4    2    0.308010    0.419659    0.507179    11.00000   -1.20000
AFIX   0
C5    1    0.299315    0.247962    0.360910    11.00000    0.03757    0.05193 =
         0.03923    0.01599    0.01723    0.00404
AFIX  43
H5    2    0.420223    0.281618    0.339510    11.00000   -1.20000
AFIX   0
C6    1    0.188040    0.116206    0.290969    11.00000    0.04571    0.04641 =
         0.03551    0.00919    0.01921    0.00976
AFIX  43
H6    2    0.233994    0.060917    0.223264    11.00000   -1.20000
AFIX   0
C7    1    0.008283    0.067353    0.322375    11.00000    0.04137    0.03446 =
         0.03031    0.00408    0.00945    0.00351
AFIX  43
H7    2   -0.068407   -0.020376    0.273293    11.00000   -1.20000
AFIX   0
C8    1    0.280901    0.384942    0.830016    11.00000    0.02609    0.02743 =
         0.02774    0.00552    0.00509    0.00181
C9    1    0.200871    0.305386    0.911624    11.00000    0.02794    0.04679 =
         0.04595    0.02072    0.01467    0.00778
AFIX  43
H9    2    0.068394    0.301506    0.919686    11.00000   -1.20000
AFIX   0
C10   1    0.319555    0.232211    0.980582    11.00000    0.03455    0.04197 =
         0.04128    0.02021    0.01394    0.00592
AFIX  43
H10   2    0.268501    0.178123    1.035203    11.00000   -1.20000
AFIX   0
C11   1    0.515233    0.241283    0.966501    11.00000    0.03031    0.02686 =
         0.02908    0.00419    0.00357    0.00355
C12   1    0.597017    0.320601    0.887349    11.00000    0.02658    0.04606 =
         0.04168    0.01581    0.01139    0.00674
AFIX  43
H12   2    0.729840    0.324516    0.880113    11.00000   -1.20000
AFIX   0
C13   1    0.478502    0.394637    0.818502    11.00000    0.02950    0.04146 =
         0.03640    0.01585    0.01090    0.00356
AFIX  43
H13   2    0.531170    0.449933    0.765428    11.00000   -1.20000
AFIX   0
HKLF    4
REM  exp_7844 in P -1
REM wR2 = 0.1160, GooF = S = 1.061, Restrained GooF = 1.061 for all data
REM R1 = 0.0408 for 3841 Fo > 4sig(Fo) and 0.0486 for all 4515 data
REM 200 parameters refined using 0 restraints
END
WGHT      0.0534      0.1382
REM Highest difference peak  0.331,  deepest hole -0.372,  1-sigma level  0.068
Q1    1   0.5388  0.2757  0.9216  11.00000  0.05    0.33
Q2    1  -0.1463  0.1131  0.4482  11.00000  0.05    0.29
Q3    1  -0.0211  0.1140  0.3763  11.00000  0.05    0.29
Q4    1   0.1322  0.3043  0.4677  11.00000  0.05    0.28
Q5    1   0.3662  0.3817  0.8138  11.00000  0.05    0.27
Q6    1   0.2222  0.4218  0.8031  11.00000  0.05    0.26
Q7    1   0.4192  0.2333  0.9695  11.00000  0.05    0.25
Q8    1   0.2454  0.3592  0.8747  11.00000  0.05    0.24
Q9    1   0.1060  0.1004  0.3230  11.00000  0.05    0.24
Q10   1  -0.0013  0.2063  0.4735  11.00000  0.05    0.23
Q11   1   0.2787  0.2247  1.0878  11.00000  0.05    0.22
Q12   1   0.6424  0.3967  1.0098  11.00000  0.05    0.21
Q13   1   0.0524  0.4801  0.8046  11.00000  0.05    0.21
Q14   1  -0.2243  0.1326  0.7007  11.00000  0.05    0.21
Q15   1  -0.0508  0.4809  0.9268  11.00000  0.05    0.20
Q16   1   0.7927  0.4486  1.0153  11.00000  0.05    0.20
Q17   1   0.2556  0.1715  0.3522  11.00000  0.05    0.19
Q18   1  -0.3140  0.2841  0.5054  11.00000  0.05    0.19
Q19   1   0.6408  0.5829  0.7895  11.00000  0.05    0.19
Q20   1   0.0863  0.5529  0.9016  11.00000  0.05    0.18
;
_cod_data_source_file            qs3085sup1.cif
_cod_data_source_block           HL
_cod_database_code               2021692
_shelx_hkl_file
;
   0   1   1 10446.3 193.340   6
   0   1   1 11372.0 221.632   5
   0  -1  -1 10514.0 193.648   4
   0  -2  -2 472869. 5316.50   5
   0   2   2 473132. 5210.45   6
   0  -2  -2 466810. 5211.65   6
   0  -3  -3 8919.52 316.177   5
   0  -3  -3 8666.17 265.612   6
   0   3   3 8473.14 262.302   6
   0   3   3 7895.57 289.198   5
   0   4   4 24349.9 540.545   6
   0  -4  -4 23564.9 578.464   7
   0  -5  -5 43689.1 936.600   7
   0   5   5 45810.6 882.550   6
   0   6   6 1299.64 165.576   5
   0   6   6 1263.54 140.228   6
   0  -6  -6 1269.35 122.868   2
   0  -6  -6 925.208 129.415   7
   0  -7  -7 10050.3 391.076   2
   0  -7  -7 9316.95 365.233   3
   0  -7  -7 8693.39 445.432   7
   0   7   7 9003.47 495.776   5
   0   8   8 914.702 139.114   6
   0   8   8 799.147 154.379   5
   0  -8  -8 965.545 158.651   7
   0   9   9 2582.16 306.549   5
   0  -9  -8 539.427 125.892   7
   0   9   8 467.709 128.887   5
   0   8   7 4935.85 380.111   5
   0   8   7 5486.98 329.573   6
   0  -7  -6 1788.60 187.593   7
   0   7   6 2280.40 233.637   5
   0   7   6 2269.21 194.843   6
   0  -7  -6 2360.43 168.553   2
   0  -6  -5 2534.00 156.697   2
   0   6   5 2367.57 180.937   6
   0   6   5 2161.21 203.636   5
   0   5   4 135.500 32.4643   6
   0  -5  -4 84.6054 25.1124   7
   0  -5  -4 239.541 42.4294   2
   0   5   4 205.543 63.4648   5
   0  -4  -3 29241.2 638.925   7
   0   4   3 30830.2 701.524   5
   0   3   2 2372.70 123.186   6
   0  -3  -2 2063.70 137.812   5
   0  -3  -2 2323.94 125.972   4
   0   3   2 2080.17 136.992   5
   0   2   1 207648. 2188.36   6
   0   2   1 182172. 2181.39   7
   0  -2  -1 216228. 2290.92   5
   0  -2  -1 190103. 2191.08   4
   0   2   1 190724. 2257.05   5
   0   1   2 301210. 3320.01   5
   0   1   2 273310. 3254.31   6
   0   1   2 281612. 3249.82   4
   0  -1  -2 300392. 3325.56   5
   0  -1  -2 277391. 3262.00   6
   0   2   3 25245.4 470.991   6
   0  -2  -3 24627.5 528.531   5
   0  -2  -3 24459.3 478.089   6
   0   2   3 23506.0 506.460   5
   0   2   3 23452.1 462.539   4
   0   3   4 123249. 1814.65   5
   0  -3  -4 130275. 1739.84   6
   0   4   5 4405.06 224.607   6
   0   4   5 4217.09 253.446   5
   0   5   6 8224.28 346.088   6
   0   5   6 7553.54 385.056   5
   0  -6  -7 2956.27 188.243   3
   0  -6  -7 3232.44 213.515   2
   0  -6  -7 3168.37 260.388   7
   0   6   7 3039.90 228.204   6
   0   6   7 2696.51 253.885   5
   0  -7  -8 768.682 138.413   7
   0   7   8 506.140 117.952   5
   0   7   8 809.282 129.392   6
   0  -7  -8 812.072 115.148   2
   0  -8  -9 1486.37 207.388   7
   0   8   9 1499.22 227.474   5
   0  10   8 331.748 102.056   5
   0  -9  -7 79.6365 49.1436   7
   0   9   7-12.1374 41.7451   6
   0   9   7 68.7576 34.2510   5
   0   8   6 209.314 70.0629   5
   0   8   6 186.104 57.7769   6
   0  -8  -6 161.187 65.4997   7
   0   7   5 145.958 43.9514   6
   0  -7  -5 149.632 51.1095   7
   0   7   5 83.9785 38.7328   5
   0  -7  -5 137.966 38.6598   2
   0   6   4 891.581 101.850   6
   0  -6  -4 813.902 104.660   7
   0   6   4 854.812 127.114   5
   0  -6  -4 788.842 78.9475   2
   0  -5  -3 3535.15 198.128   7
   0   5   3 4192.05 247.887   5
   0  -5  -3 4198.01 215.231   4
   0   5   3 4259.35 207.921   6
   0  -5  -3 4333.08 158.003   2
   0   4   2 8323.30 317.971   5
   0  -4  -2 8235.03 271.468   4
   0  -4  -2 8478.06 197.360   2
   0  -4  -2 4227.16 201.243   7
   0   4   2 8134.78 256.954   6
   0  -4  -2 4400.03 236.171   5
   0   3   1 37856.5 551.770   7
   0  -3  -1 32823.6 502.656   3
   0   3   1 30702.5 589.827   5
   0  -3  -1 34843.6 435.878   2
   0  -3  -1 29853.0 526.091   4
   0   3   1 31539.8 528.731   6
   0  -3  -1 27518.3 507.264   7
   0   2   0 308.881 31.4968   1
   0  -2   0 511.546 37.0111   3
   0   2   0 369.735 43.5032   5
   0  -2   0 336.587 31.5469   7
   0  -2   0 371.901 34.1321   4
   0   2   0 368.938 32.5578   3
   0   2   0 344.671 29.4581   7
   0  -1   1 12811.6 190.508   4
   0  -1   1 11627.0 208.464   1
   0   0  -2 19422.2 291.042   3
   0   0   2 20185.1 326.902   6
   0  -1  -3 71940.4 920.061   3
   0  -1  -3 70665.1 980.671   6
   0   1   3 71190.8 1028.62   5
   0   2   4-7.17906 8.56137   4
   0  -2  -4 7.12862 12.1310   5
   0   2   4 50.3246 21.5334   5
   0  -2  -4 44.0257 17.9988   6
   0   2   4 77.9833 22.9029   6
   0  -2  -4 101.399 24.4326   3
   0   3   5 4586.46 251.599   5
   0   3   5 5106.96 233.871   6
   0  -3  -5 4880.04 194.212   3
   0  -4  -6 1833.57 128.537   3
   0   4   6 2143.94 166.364   6
   0   4   6 1766.35 171.666   5
   0  -4  -6 1568.17 156.642   7
   0  -5  -7 2390.90 216.050   7
   0  -5  -7 2339.97 158.367   3
   0   5   7 2210.84 217.176   5
   0   5   7 2276.92 189.619   6
   0  -6  -8 3529.22 289.779   7
   0   6   8 2947.00 238.962   6
   0   6   8 3068.17 282.069   5
   0  -6  -8 3782.70 248.911   2
   0  -7  -9 1184.02 177.811   7
   0   7   9 1425.75 175.872   6
   0  10   7 1308.56 213.871   5
   0 -10  -7 1111.30 184.837   7
   0  -9  -6 905.905 150.675   7
   0   9   6 913.075 161.463   5
   0   9   6 1136.71 150.229   6
   0  -8  -5 409.123 62.0740   2
   0  -8  -5 351.901 83.4838   7
   0   8   5 238.310 68.9511   5
   0   8   5 293.567 70.6081   6
   0   7   4 3185.24 212.781   6
   0  -7  -4 3149.62 158.347   2
   0   7   4 2970.24 249.747   5
   0  -6  -3 2664.61 129.608   2
   0   6   3 2958.69 188.034   6
   0  -6  -3 2572.69 183.784   4
   0  -6  -3 3138.73 195.026   7
   0   6   3 3073.49 230.318   5
   0  -5  -2 2404.33 151.840   7
   0  -5  -2 1934.40 121.283   3
   0   5   2 3497.28 222.723   5
   0  -5  -2 3678.74 194.109   4
   0   5   2 3289.85 172.548   6
   0  -5  -2 3830.34 130.235   2
   0  -4  -1 2149.09 113.323   3
   0  -4  -1 2101.24 123.229   4
   0  -4  -1 2644.68 169.963   5
   0   4   1 2097.42 145.747   5
   0  -4  -1 2368.80 79.2080   2
   0  -3   0 40397.3 724.088   5
   0  -3   0 40167.7 628.250   4
   0   3   0 40408.1 706.041   5
   0   3   0 42014.1 641.134   1
   0   3   0 44812.3 619.693   7
   0  -3   0 44482.9 626.920   7
   0  -3   0 40408.0 610.764   3
   0   2  -1 34524.5 496.816   3
   0   2  -1 34900.9 498.520   4
   0  -2   1 35239.9 504.763   1
   0   2  -1 34800.2 510.594   1
   0  -2   1 35391.1 479.687   7
   0  -1   2 37532.5 532.639   3
   0  -1   2 38778.4 603.032   1
   0   0  -3 2619.98 97.9471   3
   0   0   3 2146.41 105.369   6
   0   0  -3 2413.29 123.270   5
   0   0   3 2393.72 95.8124   3
   0   0  -3 2705.19 121.605   6
   0  -1  -4 25450.4 540.927   5
   0  -1  -4 24745.0 432.616   3
   0  -1  -4 26023.4 501.650   6
   0   2   5 433.243 65.7444   6
   0  -2  -5 477.638 54.2328   3
   0   2   5 422.400 66.2927   5
   0  -2  -5 403.153 66.7623   7
   0  -3  -6 13703.1 463.324   7
   0   3   6 13686.0 481.220   5
   0  -3  -6 14116.1 366.679   3
   0  -4  -7 10658.8 335.764   3
   0   4   7 9975.64 449.624   5
   0   4   7 10315.9 407.357   6
   0   5   8 118.543 37.8022   6
   0  -5  -8 77.6934 27.0779   3
   0   5   8 121.312 57.5468   5
   0  -5  -8 126.168 60.0745   7
   0   6   9 885.319 134.365   6
   0  -6  -9 609.033 123.812   7
   0  -6  -9 961.311 130.850   2
   0   7  10-13.8552 53.5413   1
   0  -7 -10-41.3285 28.2731   7
   0  11   7 693.003 161.536   5
   0  10   6 1840.17 248.090   5
   0 -10  -6 1856.14 227.544   7
   0   9   5 1213.71 146.411   6
   0   9   5 1049.11 167.504   5
   0  -9  -5 1182.98 167.995   7
   0   8   4 3285.48 231.230   6
   0   8   4 3221.13 275.914   5
   0  -8  -4 3343.05 157.399   2
   0  -7  -3 1535.05 93.8435   2
   0  -7  -3 1243.77 134.359   7
   0   7   3 1464.69 168.606   5
   0  -7  -3 1462.23 145.949   4
   0  -6  -2 625.016 86.1027   4
   0   6   2 591.294 96.2126   5
   0   6   2 489.442 70.5613   6
   0  -6  -2 553.392 47.7596   2
   0  -6  -2 355.574 64.6862   7
   0  -5  -1 1827.89 128.784   4
   0  -5  -1 1326.83 96.6477   3
   0   5   1 1779.57 147.720   5
   0  -5  -1 1532.30 115.824   7
   0   5   1 1890.43 122.548   7
   0  -5  -1 1541.34 64.1864   2
   0   4   0 16794.0 332.858   7
   0   4   0 12102.2 313.983   1
   0  -4   0 10942.2 293.071   7
   0  -4   0 15224.1 418.378   5
   0  -4   0 13576.7 324.448   4
   0   4   0 13487.0 392.739   5
   0  -4   0 11561.3 287.122   3
   0  -3   1 17964.7 333.124   4
   0  -3   1 16756.8 337.305   1
   0   3  -1 17996.4 341.082   3
   0   3  -1 17881.6 349.312   4
   0  -3   1 16582.8 320.538   7
   0   3  -1 18750.0 424.221   5
   0   3  -1 18465.3 352.036   1
   0  -2   2 120012. 1389.72   4
   0  -2   2 115789. 1450.26   1
   0   2  -2 121208. 1405.66   3
   0   2  -2 115245. 1443.52   1
   0   1  -3 13264.2 266.172   3
   0  -1   3 13984.8 357.453   1
   0  -1   3 14024.3 276.855   3
   0   0  -4 9774.37 234.836   3
   0   0   4 9422.47 236.823   3
   0   0   4 8817.47 326.353   1
   0   0  -4 9777.29 299.918   5
   0  -1  -5 1252.88 86.1554   3
   0   1   5 1080.43 99.4901   6
   0  -1  -5 1375.67 111.312   6
   0   2   6 5111.70 248.901   6
   0  -2  -6 4699.81 190.200   3
   0  -3  -7 27056.2 560.923   3
   0   3   7 32085.5 732.785   6
   0  -4  -8 11594.8 358.532   3
   0   4   8 10794.2 438.474   6
   0  -5  -9 1972.14 220.897   7
   0   5   9 1583.72 175.287   6
   0  -6 -10 429.040 95.0688   2
   0   6  10 377.619 126.955   1
   0   6  10 481.584 103.308   6
   0  -6 -10 432.655 107.072   7
   0  11   6 6.56096 20.3487   5
   0 -11  -6-54.0379 52.8499   7
   0  10   5 3371.46 322.577   5
   0 -10  -5 2810.54 273.545   7
   0  -9  -4 47.7103 40.2888   7
   0   9   4-17.4255 25.6779   5
   0   9   4 39.2663 20.0622   6
   0   8   3 2507.38 196.228   6
   0  -8  -3 2221.66 194.619   7
   0  -8  -3 2366.86 111.175   2
   0   8   3 2262.56 226.757   5
   0   7   2 226.325 51.1999   6
   0  -7  -2 311.104 63.2766   4
   0  -7  -2 313.158 33.2450   2
   0   7   2 405.682 88.1284   5
   0  -7  -2 385.582 71.1197   7
   0  -6  -1 3740.56 97.4913   2
   0  -6  -1 4114.52 212.400   4
   0   6   1 4149.20 252.216   5
   0  -5   0 32617.3 602.058   4
   0  -5   0 33034.1 593.708   7
   0   5   0 33867.1 717.828   5
   0   4  -1 1476.12 97.8007   4
   0   4  -1 1939.71 110.775   1
   0   4  -1 1690.01 100.925   3
   0  -4   1 1618.94 96.8129   7
   0  -4   1 1840.19 106.625   1
   0   4  -1 1749.58 57.1489   2
   0   4  -1 1336.09 81.2685   7
   0  -4   1 1900.24 106.135   3
   0  -4   1 1555.66 93.6454   4
   0   4  -1 1588.16 128.077   5
   0   3  -2 22379.2 411.808   4
   0  -3   2 23653.4 415.389   4
   0   3  -2 22783.5 389.863   7
   0   3  -2 21843.4 412.917   3
   0  -3   2 22437.4 431.070   1
   0  -3   2 26512.3 407.307   7
   0   3  -2 27116.0 476.269   1
   0   2  -3 3659.05 134.698   3
   0  -2   3 3488.05 132.724   3
   0  -2   3 3451.43 157.126   1
   0   2  -3 4179.23 182.259   1
   0   1  -4 1376.62 81.9325   3
   0  -1   4 1515.57 125.453   1
   0  -1   4 1321.81 84.4476   3
   0   1  -4 1230.78 94.4805   6
   0   0  -5 356.626 57.0020   6
   0   0   5 366.581 70.2673   1
   0   0   5 405.668 57.5062   6
   0   0   5 330.839 46.6241   3
   0   0  -5 378.799 47.1910   3
   0   1   6 11889.8 375.213   6
   0  -1  -6 11522.5 310.233   3
   0  -2  -7 5673.64 225.109   3
   0  -2  -7 5028.92 283.720   7
   0   3   8 18.5492 11.1418   6
   0  -3  -8 48.3077 18.5008   3
   0  -3  -8 34.7401 30.7926   7
   0  -4  -9 6396.94 272.281   3
   0   4   9 6718.23 357.060   6
   0  -5 -10 718.902 126.305   2
   0   5  10 663.330 161.885   1
   0  -5 -10 598.125 129.289   7
   0   5  10 572.526 109.680   6
   0  -6 -11 1743.49 205.170   2
   0   6  11 1848.06 297.134   1
   0  -6 -11 1640.93 230.111   7
   0 -11  -5 238.410 89.0222   7
   0  11   5 270.287 100.798   5
   0  10   4 36.8000 46.8379   5
   0  10   4-59.8661 43.5245   6
   0 -10  -4 32.8628 20.8704   7
   0  -9  -3 656.318 114.556   7
   0   9   3 665.300 106.646   6
   0   9   3 695.248 136.360   5
   0   8   2 111.852 36.7662   6
   0  -8  -2 127.268 40.9824   7
   0   8   2 95.3169 44.6587   5
   0  -8  -2 136.400 46.2992   4
   0  -8  -2 147.784 18.0812   2
   0  -7  -1 9318.01 350.782   7
   0   7   1 9901.77 361.408   6
   0  -7  -1 10147.2 372.374   4
   0   6   0 3793.80 179.331   7
   0   6   0 3821.98 238.825   5
   0  -6   0 4224.62 206.644   4
   0   5  -1 889.758 85.3706   4
   0   5  -1 947.100 73.7201   7
   0   5  -1 768.202 76.6098   3
   0  -5   1 940.047 83.2623   4
   0  -5   1 772.075 75.4845   7
   0   5  -1 1207.22 122.003   5
   0   5  -1 916.109 37.8487   2
   0  -5   1 1143.60 94.6786   1
   0   5  -1 1299.72 100.437   1
   0  -4   2 32548.5 558.808   1
   0  -4   2 24444.6 489.522   7
   0  -4   2 33610.4 546.119   4
   0   4  -2 38091.1 586.508   3
   0   4  -2 33504.1 563.856   4
   0   4  -2 25470.2 485.027   7
   0   4  -2 36605.7 617.149   1
   0  -3   3 2021.17 121.074   1
   0   3  -3 1912.26 121.748   1
   0  -3   3 1704.07 93.7463   4
   0   3  -3 1786.16 100.534   3
   0   3  -3 1613.14 89.5269   7
   0  -2   4 942.109 74.7179   3
   0  -2   4 946.026 98.1905   1
   0   2  -4 883.869 69.4074   3
   0   2  -4 940.302 95.7855   1
   0   1  -5 12.0298 12.2577   6
   0   1  -5 35.1374 16.3983   3
   0  -1   5 15.6354 8.75903   3
   0  -1   5-0.34329 14.5596   1
   0   0  -6 511.279 59.9714   3
   0   0   6 501.904 88.4483   1
   0   0   6 511.302 62.1733   3
   0   0   6 730.053 87.2862   6
   0  -1  -7 1529.65 110.528   3
   0   1   7 1597.48 183.669   1
   0   2   8 1712.42 159.848   6
   0   2   8 1738.81 213.980   1
   0  -2  -8 1798.87 129.377   3
   0   3   9 357.398 112.080   1
   0  -3  -9 278.527 70.3992   7
   0  -3  -9 354.780 60.8410   3
   0   3   9 361.155 75.1825   6
   0   4  10 276.439 100.866   1
   0   4  10 292.643 82.6136   6
   0  -4 -10 203.409 61.6195   7
   0   5  11 357.251 122.902   1
   0  -5 -11 521.284 119.786   2
   0   5  11 345.908 95.9674   6
   0  -5 -11 244.440 89.0720   7
   0 -12  -5 1325.68 203.262   7
   0  12   5 1324.40 220.303   5
   0 -11  -4 265.480 83.8922   7
   0  11   4 374.457 134.988   5
   0 -10  -3 218.059 73.2544   7
   0  10   3 126.501 62.7252   5
   0  10   3 131.562 48.5665   6
   0  -9  -2 2430.87 213.259   4
   0  -9  -2 2598.31 218.641   7
   0   9   2 2457.22 199.667   6
   0   9   2 2476.99 254.826   5
   0   8   1 19.1667 15.0879   5
   0  -8  -1 34.7063 17.6563   4
   0  -8  -1 14.2561 12.0200   7
   0   8   1 22.8563 19.3693   6
   0  -7   0 15.2704 9.85144   7
   0   7   0 17.8779 22.3571   5
   0  -7   0-1.52826 9.54186   4
   0  -6   1 694.307 79.0326   4
   0   6  -1 651.634 69.3605   7
   0   6  -1 585.592 97.2489   5
   0   6  -1 515.119 68.6788   3
   0  -5   2 364.205 48.1455   7
   0   5  -2 374.352 56.1241   1
   0  -5   2 360.162 52.3275   1
   0   5  -2 502.336 54.4170   7
   0  -5   2 333.534 49.1017   4
   0   5  -2 403.937 56.0372   4
   0   5  -2 327.392 66.8447   5
   0   5  -2 332.643 49.4347   3
   0  -4   3 1924.38 121.459   1
   0   4  -3 2223.66 139.797   1
   0   4  -3 2092.17 118.729   3
   0  -4   3 2085.00 106.296   7
   0  -4   3 1946.47 111.485   4
   0   4  -3 1945.43 118.817   4
   0   4  -3 1904.30 101.866   7
   0  -3   4 7956.94 246.154   3
   0   3  -4 8640.31 246.318   7
   0  -3   4 7716.50 232.916   4
   0   3  -4 7867.14 241.372   3
   0   3  -4 8734.11 310.177   1
   0  -3   4 7523.81 279.836   1
   0  -2   5 1244.73 124.956   1
   0   2  -5 1234.53 90.6944   3
   0  -2   5 1342.11 97.4663   3
   0  -1   6 1127.15 95.3104   3
   0   1  -6 1078.66 86.9368   3
   0  -1   6 1146.62 135.453   1
   0   0   7 12261.1 509.329   1
   0   0  -7 12424.4 345.053   3
   0  -1  -8 30.5429 31.2381   7
   0   1   8-16.2570 25.2470   6
   0  -1  -8 1.17781 7.45830   3
   0   1   8 10.1812 34.7054   1
   0  -2  -9 1272.64 115.287   3
   0   2   9 1105.83 181.763   1
   0   2   9 1010.42 134.987   6
   0  -2  -9 1340.67 163.959   7
   0  -3 -10 9.14568 17.0477   3
   0   3  10 11.9319 28.2499   1
   0  -3 -10 14.1300 21.0727   7
   0   3  10-4.26437 13.2619   6
   0  -4 -11 1241.63 190.324   7
   0   4  11 1516.99 197.043   6
   0   4  11 1119.37 218.780   1
   0  -5 -12 68.6160 43.9205   2
   0  12   4 59.3376 63.0706   5
   0 -12  -4-7.85118 16.2299   7
   0  11   3 1902.76 248.988   5
   0  11   3 2258.93 217.149   6
   0 -11  -3 1944.80 222.151   7
   0 -10  -2 1146.01 152.489   7
   0  10   2 1334.69 196.125   5
   0  10   2 1304.22 154.711   6
   0 -10  -2 1330.60 166.463   4
   0   9   1 9018.27 383.877   6
   0   9   1 8180.73 449.222   5
   0  -9  -1 8516.19 394.801   4
   0  -8   0 5076.83 261.536   7
   0   8   0 5726.05 343.718   5
   0  -7   1 13146.9 405.066   4
   0   7  -1 12509.0 486.546   5
   0   6  -2 2997.35 168.498   3
   0  -6   2 2664.32 151.460   4
   0   6  -2 2596.69 136.407   7
   0  -6   2 3102.30 169.487   1
   0   6  -2 2319.05 192.248   5
   0  -6   2 2382.44 138.406   7
   0   6  -2 2910.95 99.1888   2
   0   5  -3 18760.0 410.072   7
   0  -5   3 20635.5 472.397   1
   0   5  -3 20701.0 457.471   3
   0  -5   3 16855.7 392.798   7
   0   5  -3 20093.9 461.766   4
   0  -5   3 20756.6 441.856   4
   0   5  -3 23685.4 530.656   1
   0   4  -4 21.4846 19.5589   3
   0  -4   4 8.86917 13.2863   4
   0   4  -4 10.0803 19.9628   1
   0   4  -4 12.7583 5.82883   7
   0  -4   4-7.80533 18.9653   1
   0  -4   4 8.48464 10.4021   3
   0   3  -5 12.0066 8.11588   3
   0  -3   5 1.14569 7.80550   3
   0  -3   5 21.8402 9.59736   1
   0   2  -6 5343.03 210.363   3
   0  -2   6 5731.65 300.458   1
   0  -2   6 5316.75 219.706   3
   0   1  -7 3770.02 178.573   3
   0  -1   7 4036.16 284.135   1
   0   0   8 1777.24 166.528   6
   0   0   8 1494.98 189.638   1
   0   0  -8 1419.47 114.286   3
   0   1   9 5236.44 315.943   6
   0  -1  -9 5411.22 241.339   3
   0  -1  -9 5495.75 326.355   7
   0   1   9 4607.12 366.730   1
   0  -2 -10 1529.58 181.316   7
   0   2  10 1419.82 221.657   1
   0  -2 -10 1657.58 136.813   3
   0   2  10 1425.73 178.458   6
   0   3  11 2783.85 267.349   6
   0  -3 -11 2148.47 238.966   7
   0   3  11 2612.75 327.172   1
   0   4  12 249.333 114.570   1
   0  -4 -12 332.510 111.592   7
   0  -4 -12 516.795 121.173   2
   0 -12  -3 1558.96 204.972   7
   0  12   3 1795.06 252.995   5
   0  11   2 737.792 122.655   6
   0 -11  -2 572.580 113.561   7
   0 -11  -2 449.714 95.0601   4
   0  11   2 454.887 122.732   5
   0  10   1 1140.80 139.575   6
   0 -10  -1 1155.25 147.001   7
   0  10   1 1142.65 177.739   5
   0 -10  -1 1230.12 157.609   4
   0  -9   0 2895.39 214.157   7
   0   9   0 2660.35 249.619   5
   0  -9   0 2746.26 211.412   4
   0  -8   1 3687.41 223.002   4
   0  -8   1 3990.37 228.280   7
   0   7  -2 28730.0 384.444   2
   0  -7   2 29322.2 601.513   7
   0   7  -2 29023.4 775.096   5
   0   7  -2 28465.0 634.058   3
   0  -7   2 28520.7 624.375   4
   0   6  -3 29731.3 611.918   3
   0   6  -3 28904.2 546.572   7
   0  -6   3 27848.1 549.881   7
   0  -6   3 29608.0 583.081   4
   0   5  -4 10718.2 335.644   4
   0   5  -4 9821.78 310.640   3
   0  -5   4 9637.80 293.615   4
   0  -5   4 9479.18 325.320   1
   0  -4   5 7362.83 308.803   1
   0   4  -5 7590.71 263.841   7
   0  -4   5 7036.14 241.756   4
   0   4  -5 7123.21 255.282   3
   0   3  -6 11297.5 333.696   3
   0  -3   6 10572.4 405.892   1
   0  -2   7 419.895 87.5110   1
   0   2  -7 443.153 63.2990   3
   0  -1   8 2076.31 220.865   1
   0   1  -8 1996.94 136.902   3
   0   0  -9 2417.28 158.238   3
   0   0   9 2087.37 243.977   1
   0   1  10-11.5930 26.7440   1
   0  -1 -10 24.4408 26.5753   7
   0  -1 -10 54.8619 26.6894   3
   0  -2 -11 2155.78 234.441   7
   0   2  11 1969.54 283.065   1
   0   3  12 46.5916 32.6685   1
   0  -3 -12-9.03720 25.7333   7
   0  -4 -13 1129.12 183.617   2
   0  13   3 1038.47 204.096   5
   0 -13  -3 1548.53 219.101   7
   0  12   2 28.1321 28.9695   6
   0  12   2-48.6390 57.3842   5
   0 -12  -2 0.85221 28.6305   7
   0  11   1 2178.55 205.799   6
   0 -11  -1 2711.97 243.596   7
   0  11   1 1852.23 244.910   5
   0 -11  -1 2073.31 218.583   4
   0 -10   0 577.768 102.322   4
   0 -10   0 596.173 104.494   7
   0  10   0 471.889 112.953   5
   0  -9   1 4282.91 258.401   4
   0   9  -1 4016.87 306.952   5
   0  -8   2 1530.15 137.467   4
   0   8  -2 1295.84 165.877   5
   0  -8   2 1399.73 124.833   7
   0   7  -3 1593.79 113.109   7
   0   7  -3 1699.51 180.425   5
   0  -7   3 1502.98 115.569   7
   0   7  -3 1899.48 147.918   3
   0  -7   3 1721.04 131.295   4
   0  -7   3 1693.61 134.790   1
   0  -6   4 15914.9 390.569   7
   0  -6   4 14736.3 434.251   1
   0   6  -4 14529.2 418.042   3
   0  -6   4 15525.1 408.925   4
   0   5  -5 48.6557 22.7297   7
   0  -5   5 57.8352 33.6647   1
   0   5  -5 48.9458 26.0647   3
   0  -5   5 43.7549 20.7587   4
   0  -4   6 11194.0 419.560   1
   0  -4   6 11122.0 333.152   4
   0   4  -6 11851.1 354.806   3
   0   3  -7 1421.15 118.434   3
   0  -3   7 1280.21 150.386   1
   0  -2   8 3035.62 257.928   1
   0   2  -8 3378.08 186.596   3
   0  -1   9 8966.02 497.189   1
   0   1  -9 9589.55 331.626   3
   0   0 -10 227.353 51.1018   3
   0   0  10 262.880 97.9670   1
   0   0 -10 225.320 74.7795   7
   0  -1 -11 1444.06 131.713   3
   0  -1 -11 1542.88 190.833   7
   0   1  11 1473.74 234.491   1
   0  -2 -12 174.524 71.8478   7
   0   2  12 58.8192 34.9155   1
   0  13   2 358.997 116.823   5
   0  12   1 1039.51 192.995   5
   0  12   1 1192.33 159.992   6
   0 -12  -1 1332.61 179.094   7
   0 -12  -1 1315.93 183.706   4
   0  11   0 1984.73 203.151   6
   0  11   0 1774.57 230.940   5
   0 -11   0 1679.94 186.266   7
   0 -11   0 1936.86 206.631   4
   0 -10   1 8829.75 384.793   7
   0 -10   1 8986.24 408.858   4
   0  10  -1 7993.27 466.005   5
   0  -9   2 8372.34 357.993   4
   0  -9   2 7406.39 317.071   7
   0   9  -2 7879.81 442.166   5
   0  -8   3 8489.48 313.499   7
   0  -8   3 10505.9 372.289   1
   0   8  -3 7867.25 195.707   2
   0  -8   3 9799.24 350.438   4
   0   8  -3 9150.18 453.358   5
   0   8  -3 10616.7 384.185   3
   0   7  -4 1968.96 130.159   7
   0  -7   4 2475.16 150.959   7
   0  -7   4 2654.83 178.062   1
   0  -7   4 2430.48 157.237   4
   0   7  -4 2118.86 159.374   3
   0  -6   5 28380.3 656.921   1
   0   6  -5 27354.5 611.281   3
   0  -6   5 28366.0 590.305   4
   0  -5   6 814.239 111.882   1
   0   5  -6 877.663 90.8566   7
   0  -5   6 886.763 89.8300   4
   0   5  -6 1080.59 106.942   3
   0   4  -7 3317.82 189.748   3
   0  -4   7 3214.73 184.800   4
   0  -4   7 2990.20 229.161   1
   0   3  -8-12.0664 24.1274   3
   0  -3   8 18.6523 30.0943   1
   0   2  -9 3549.57 202.224   3
   0  -2   9 3464.34 298.876   1
   0  -1  10 471.887 122.839   1
   0   1 -10 465.004 74.9504   3
   0   0 -11 1652.82 145.366   3
   0   0  11 1669.49 244.136   1
   0   0 -11 1875.87 202.374   7
   0   1  12 1311.57 242.485   1
   0  -1 -12 1275.09 189.491   7
   0   2  13 153.660 90.9430   1
   0  -2 -13 225.085 86.5141   7
   0  13   1 1565.20 248.601   5
   0 -12   0 183.724 65.8150   7
   0  12   0 156.956 70.3387   5
   0 -12   0 133.435 57.1688   4
   0  12   0 135.130 60.5677   6
   0 -11   1 8251.62 396.143   7
   0  11  -1 7570.55 482.215   5
   0 -11   1 8838.15 430.988   4
   0 -10   2 7260.89 359.015   4
   0  10  -2 7039.54 444.293   5
   0 -10   2 7132.51 332.031   7
   0  -9   3 5384.50 260.770   7
   0   9  -3 4723.06 342.043   5
   0   9  -3 5031.48 277.652   3
   0  -9   3 5367.15 281.028   4
   0  -8   4 13615.9 411.528   7
   0  -8   4 15531.5 449.925   4
   0   8  -4 14822.3 479.041   3
   0   8  -4 16692.4 638.146   5
   0   8  -4 12330.6 370.037   7
   0  -8   4 17001.3 491.462   1
   0  -7   5 5019.42 234.424   4
   0   7  -5 4507.81 239.948   3
   0  -7   5 5283.48 267.867   1
   0  -6   6 30573.7 653.549   4
   0   6  -6 30012.2 686.718   3
   0   5  -7 649.744 85.6338   3
   0  -5   7 690.195 82.2630   4
   0  -5   7 725.623 111.961   1
   0   4  -8 4840.71 242.651   3
   0  -4   8 4845.49 310.685   1
   0   3  -9 594.254 90.7908   3
   0  -3   9 612.124 122.213   1
   0   2 -10 252.944 53.3050   3
   0  -2  10 219.197 77.4592   1
   0  -1  11 2149.84 271.190   1
   0   1 -11 2312.63 178.738   3
   0   0  12-26.3777 63.6084   1
   0   0 -12 84.2212 51.0974   7
   0   1  13 2337.28 331.854   1
   0  -1 -13 2372.95 265.666   7
   0  14   1 875.090 190.224   5
   0  13   0 973.643 148.869   6
   0  13   0 866.277 182.746   5
   0 -13   0 731.192 141.932   4
   0 -12   1 2965.88 266.216   4
   0  12  -1 2825.85 306.666   5
   0 -12   1 2562.10 228.135   7
   0  11  -2 658.412 141.016   5
   0 -11   2 581.191 107.588   4
   0 -11   2 641.263 104.193   7
   0 -10   3 22232.5 611.507   7
   0  10  -3 23820.6 846.277   5
   0  -9   4 1423.17 130.291   7
   0   9  -4 1640.86 157.943   3
   0  -9   4 1803.62 162.381   1
   0  -9   4 1713.28 152.227   4
   0   9  -4 1739.58 210.730   5
   0   8  -5 30749.7 735.507   3
   0  -8   5 32178.4 691.930   4
   0  -7   6 14163.3 426.912   4
   0  -7   6 14804.4 494.438   1
   0   6  -7 2148.20 167.843   3
   0  -6   7 1879.91 184.449   1
   0  -6   7 1728.84 135.625   4
   0  -5   8 23245.5 569.657   4
   0   5  -8 22321.4 581.573   3
   0  -5   8 21659.6 703.122   1
   0  -4   9 430.942 96.2745   1
   0   4  -9 382.281 68.7976   3
   0   3 -10 23654.0 624.631   3
   0  -3  10 22301.6 819.100   1
   0  -2  11 426.621 125.816   1
   0   2 -11 458.222 81.6077   3
   0  -1  12 4150.68 404.181   1
   0   1 -12 4212.03 325.654   7
   0   1 -12 4397.81 256.348   3
   0   0  13 558.021 160.426   1
   0   0 -13 534.778 121.641   7
   0  14   0-14.1989 42.5504   5
   0  13  -1 48.0635 44.0523   6
   0 -13   1 30.8521 41.5435   4
   0  13  -1 25.4735 34.0160   5
   0  12  -2 2476.35 287.959   5
   0 -12   2 2788.05 233.448   7
   0 -12   2 2950.51 255.990   4
   0  11  -3 479.122 119.494   5
   0 -11   3 437.845 88.9576   4
   0 -11   3 340.259 72.1310   7
   0 -10   4 272.450 65.3722   4
   0  10  -4 171.557 69.9422   5
   0 -10   4 318.590 74.8870   1
   0 -10   4 271.324 53.1484   7
   0  10  -4 242.796 68.1458   3
   0  -9   5 19256.5 506.236   7
   0  -9   5 18588.1 530.634   4
   0   9  -5 19476.6 595.537   3
   0   8  -6 1837.13 166.436   3
   0  -8   6 1726.17 146.126   4
   0  -8   6 1474.73 152.495   1
   0  -7   7 33486.1 714.846   4
   0   7  -7 31101.2 742.428   3
   0   6  -8 1638.51 151.421   3
   0  -6   8 1529.36 176.402   1
   0  -6   8 1501.36 133.540   4
   0  -5   9 10906.1 520.493   1
   0   5  -9 11754.6 419.230   3
   0  -5   9 11843.7 412.960   4
   0   4 -10 2480.32 189.173   3
   0  -4  10 2583.70 259.020   1
   0  -3  11 873.957 165.851   1
   0   3 -11 962.144 119.824   3
   0  -2  12 1530.27 239.865   1
   0   2 -12 1775.67 165.728   3
   0   1 -13 223.932 78.7448   7
   0  -1  13 303.663 108.109   1
   0   0 -14 1187.50 197.077   7
   0  14  -1 288.829 108.823   5
   0 -14   1 310.740 101.661   4
   0  13  -2 12.3187 37.7594   5
   0 -13   2 58.9857 32.0001   4
   0  12  -3 86.5209 65.7579   5
   0 -12   3 71.0627 34.5332   4
   0  11  -4 44.4078 33.6554   5
   0 -11   4 83.3694 33.8300   7
   0 -11   4 86.9224 42.9062   4
   0 -10   5 789.107 116.417   1
   0 -10   5 799.894 110.833   4
   0  10  -5 880.667 128.218   3
   0  10  -5 716.139 147.015   5
   0 -10   5 826.092 101.897   7
   0  -9   6 31.3045 32.1410   4
   0   9  -6-6.94770 23.7793   3
   0  -9   6-28.8215 30.5963   1
   0  -8   7 526.327 81.4533   4
   0   8  -7 446.320 81.6007   3
   0  -8   7 480.175 97.1487   1
   0   7  -8 119.187 33.3131   3
   0  -7   8 152.596 55.8965   1
   0  -7   8 165.118 45.8156   4
   0  -6   9 923.971 109.297   4
   0  -6   9 915.740 144.046   1
   0   6  -9 752.352 107.664   3
   0   5 -10-41.7954 37.4132   3
   0  -5  10-25.6586 31.7508   4
   0  -5  10 38.9717 33.2741   1
   0   4 -11 218.493 54.2475   3
   0  -4  11 241.716 92.6037   1
   0   3 -12 335.555 73.3920   3
   0  -3  12 229.337 81.6373   1
   0  -2  13 669.300 160.311   1
   0   2 -13 545.009 121.413   7
   0  -1  14 308.642 126.647   1
   0   1 -14 308.790 98.6933   7
   0  14  -2 269.450 114.119   5
   0 -14   2 71.8714 30.1603   4
   0 -13   3 1838.69 210.655   4
   0  13  -3 1801.36 261.602   5
   0  12  -4 1116.58 195.276   5
   0 -12   4 1226.63 158.155   4
   0  11  -5 2491.71 287.301   5
   0  11  -5 2789.75 238.748   3
   0 -11   5 2909.11 236.602   1
   0 -11   5 3055.15 234.231   4
   0 -11   5 2565.82 188.910   7
   0 -10   6 2101.66 180.488   4
   0 -10   6 2413.20 206.275   1
   0  10  -6 2193.65 261.934   5
   0  10  -6 2198.82 205.488   3
   0   9  -7 1640.71 170.878   3
   0  -9   7 1568.00 148.390   4
   0  -9   7 1444.96 159.863   1
   0  -8   8 9239.46 442.510   1
   0   8  -8 9927.62 420.045   3
   0  -8   8 9873.44 382.512   4
   0  -7   9 428.048 74.3005   4
   0   7  -9 353.158 75.5263   3
   0  -7   9 397.303 98.4984   1
   0   6 -10 1246.68 143.203   3
   0  -6  10 1181.85 129.897   4
   0  -6  10 1117.46 173.510   1
   0  -5  11 159.441 47.8305   4
   0   5 -11 111.121 40.1737   3
   0  -5  11 27.6334 28.8696   1
   0   4 -12 1400.52 154.827   3
   0  -4  12 1451.44 218.976   1
   0   3 -13 337.243 74.4369   3
   0  -3  13 271.200 96.7972   1
   0   2 -14 1191.11 188.969   7
   0  -2  14 1709.18 274.188   1
   0 -14   3 359.996 102.869   4
   0  14  -3 149.047 83.4803   5
   0 -13   4 11.3549 28.6469   4
   0  13  -4-22.6131 44.7373   5
   0 -12   5 1455.62 170.693   4
   0  12  -5 1498.82 231.856   5
   0 -11   6-30.3137 26.6079   4
   0  11  -6-31.7537 54.6643   5
   0  11  -6-21.0891 15.9329   3
   0 -11   6-46.5380 37.5073   1
   0 -10   7 3914.41 248.007   4
   0  10  -7 3500.61 272.160   3
   0 -10   7 3841.46 277.226   1
   0   9  -8 268.601 65.6899   3
   0  -9   8 270.737 77.9673   1
   0  -9   8 267.374 60.7639   4
   0   8  -9-12.6977 28.2631   3
   0  -8   9-39.3985 34.4188   1
   0  -7  10 3313.67 217.631   4
   0  -7  10 3790.13 323.565   1
   0   7 -10 3152.84 238.233   3
   0   6 -11 592.532 101.567   3
   0  -6  11 622.495 136.210   1
   0  -6  11 588.179 95.5172   4
   0  -5  12 1286.46 210.107   1
   0   5 -12 1444.13 160.991   3
   0  -5  12 1342.50 153.200   4
   0   4 -13 163.404 56.8855   3
   0  -4  13 94.0686 52.2437   1
   0   3 -14 190.933 70.9625   7
   0  -3  14 205.520 103.017   1
   0  14  -4-36.1804 23.4944   5
   0 -14   4-54.3607 47.3582   4
   0  13  -5-95.3220 75.6947   5
   0 -13   5-9.11359 26.5826   4
   0  12  -6 80.5643 58.1965   5
   0 -12   6 189.322 66.9535   1
   0 -12   6 224.958 74.5887   4
   0 -11   7 112.232 39.5294   1
   0  11  -7 130.612 45.8963   3
   0 -11   7 171.437 49.9593   4
   0  11  -7 144.109 83.8875   5
   0 -10   8 488.724 87.1067   4
   0  10  -8 542.001 106.115   3
   0 -10   8 430.629 97.0677   1
   0  -9   9 15.7394 18.2609   4
   0   9  -9 75.5526 28.3249   3
   0  -9   9 96.6242 47.8798   1
   0  -8  10 86.8865 39.1682   1
   0  -8  10 142.591 47.2541   4
   0   8 -10 41.3535 24.0074   3
   0   7 -11 144.749 50.2729   3
   0  -7  11 36.3498 31.6144   1
   0  -7  11 200.284 55.5203   4
   0   6 -12 994.105 138.032   3
   0  -6  12 951.312 177.016   1
   0  -5  13-34.3471 55.5620   1
   0   5 -13 74.6193 40.6706   3
   0   4 -14 208.434 79.9444   7
   0  -4  14 99.5246 66.0778   1
   0  14  -5 646.978 168.543   5
   0 -14   5 816.129 145.124   4
   0 -13   6-20.3992 33.4732   4
   0  13  -6-25.5535 24.7512   5
   0 -12   7 130.810 39.0946   4
   0  12  -7 194.769 83.3568   5
   0 -12   7 186.873 69.0381   1
   0  12  -7 192.569 67.9453   3
   0 -11   8 22.2604 28.9859   4
   0 -11   8 77.6599 40.6443   1
   0  11  -8-12.7059 29.5492   3
   0  11  -8 70.7958 48.3939   5
   0 -10   9 180.590 58.5715   1
   0 -10   9 54.7216 29.7649   4
   0  10  -9 100.902 45.5113   3
   0  -9  10 115.244 43.9797   1
   0   9 -10 138.345 47.5963   3
   0  -8  11 4.70101 16.5340   4
   0   8 -11 0.13590 16.1517   3
   0  -7  12 58.1048 20.1707   1
   0   7 -12 118.420 37.6281   3
   0  -6  13 5.19338 30.8713   1
   0   6 -13 84.2771 41.2019   3
   0  -5  14 150.149 86.7630   1
   0   5 -14 110.933 41.7532   3
   0   4 -15 176.470 68.3086   7
   0  14  -6 19.4403 51.4055   5
   0 -14   6 92.6384 47.3460   4
   0 -13   7 1070.08 155.132   4
   0  13  -7 1294.95 236.775   5
   0 -12   8 255.124 71.3537   4
   0 -12   8 214.357 65.4894   1
   0  12  -8 119.354 58.9436   3
   0  12  -8 205.900 95.4232   5
   0 -11   9 811.611 139.527   1
   0 -11   9 667.761 103.882   4
   0  11  -9 824.933 141.536   3
   0  10 -10 355.968 85.1238   3
   0 -10  10 542.963 124.330   1
   0 -10  10 481.848 87.7305   4
   0  -9  11-6.69402 50.9247   1
   0   9 -11-14.9829 31.6752   3
   0   8 -12 868.922 139.888   3
   0  -8  12 833.360 173.574   1
   0  -7  13 60.1920 24.6506   1
   0   7 -13 72.6533 45.7692   3
   0  -6  14 671.187 169.173   1
   0   6 -14 527.053 110.759   3
   0   5 -15 404.862 115.505   7
   0 -14   7 547.577 121.191   4
   0  13  -8 542.564 155.354   5
   0 -13   8 662.773 125.122   4
   0 -12   9 3079.76 247.453   4
   0  12  -9 2901.28 360.315   5
   0 -12   9 2771.71 266.120   1
   0  12  -9 2997.75 281.831   3
   0 -11  10 397.346 99.1897   1
   0  11 -10 604.466 125.896   3
   0 -10  11 7.29702 35.3308   1
   0  10 -11 51.7522 19.0159   3
   0  -9  12 1129.97 187.483   1
   0   9 -12 1384.42 183.737   3
   0  -8  13 71.0993 54.5574   1
   0   8 -13 54.3613 38.3500   3
   0   7 -14 2797.34 257.855   3
   0  -7  14 3155.54 356.710   1
   0  12 -10 878.207 153.142   3
   0  12 -10 1047.88 223.142   5
   0  11 -11 184.981 70.6741   3
   0 -11  11 188.149 76.2428   1
   0 -10  12 65.5345 60.8244   1
   0  10 -12 57.0255 26.6395   3
   0   9 -13 51.1424 35.8389   3
   0  -9  13 10.2062 27.9924   1
   0  -8  14 279.996 110.498   1
   0   8 -14 221.308 76.2045   3
   0 -11  12 95.1234 50.2024   1
   0 -10  13-78.9410 53.3058   1
  -1   8 -14 428.694 103.692   3
   1  -8  14 553.860 149.922   1
  -1   9 -13 94.5981 52.1507   3
   1  -9  13 180.389 90.3214   1
  -1  10 -12 91.7437 40.2498   3
   1 -10  12 127.191 59.3625   1
  -1  11 -11 317.469 92.1004   3
  -1  12 -10 77.4649 48.5954   3
   1 -12  10 8.05935 39.0364   4
   1 -13   9-54.3410 27.4141   4
   1 -14   8 117.825 55.7614   4
   1  -7  14 409.188 130.626   1
   1  -8  13 806.461 175.983   1
  -1   8 -13 864.373 141.519   3
  -1   9 -12 290.193 87.4541   3
   1  -9  12 367.689 108.533   1
   1 -10  11 23.9878 26.0318   4
   1 -10  11 18.5633 24.9729   1
  -1  10 -11 41.6755 34.7641   3
   1 -11  10 273.249 80.5636   4
  -1  11 -10 248.748 81.0590   3
   1 -12   9 1135.35 154.262   4
  -1  12  -9 1170.52 176.592   3
  -1  12  -9 1202.16 238.055   5
   1 -13   8 885.721 139.950   4
  -1  13  -8 868.439 199.944   5
   1 -14   7 144.204 57.3762   4
   1  -6  14 762.607 181.132   1
  -1   7 -13 871.024 136.270   3
   1  -7  13 1059.18 201.585   1
   1  -8  12 317.746 82.9093   4
   1  -8  12 340.103 105.495   1
  -1   8 -12 294.716 74.4666   3
  -1   9 -11 2711.02 251.013   3
   1  -9  11 2433.28 256.928   1
   1  -9  11 2510.61 228.390   4
   1 -10  10 593.480 119.777   1
  -1  10 -10 1006.26 153.676   3
   1 -10  10 760.967 124.679   4
  -1  11  -9 2629.63 252.672   3
   1 -11   9 2407.58 227.463   1
   1 -11   9 2538.58 224.894   4
   1 -12   8 302.676 80.5658   4
  -1  12  -8 403.030 133.748   5
   1 -13   7 1967.44 213.740   4
  -1  13  -7 1886.72 286.984   5
  -1  14  -6 188.251 70.2652   5
   1 -14   6 394.517 104.942   4
  -1   5 -14 790.623 141.258   7
   1  -5  14 805.895 179.486   1
  -1   6 -13 247.496 76.3258   7
   1  -6  13 139.183 72.2167   1
  -1   6 -13 139.478 55.5523   3
  -1   7 -12 440.424 90.4226   3
   1  -7  12 674.942 155.981   1
   1  -7  12 495.645 98.5618   4
   1  -8  11 1170.30 184.275   1
  -1   8 -11 1294.02 157.158   3
   1  -8  11 1372.27 161.883   4
  -1   9 -10 57.2138 37.2581   3
   1  -9  10 57.5248 45.5971   1
   1  -9  10 153.202 56.1529   4
   1 -10   9 1501.92 180.641   1
   1 -10   9 1625.16 176.358   4
  -1  10  -9 1824.13 202.481   3
  -1  11  -8 16.8076 19.6299   5
   1 -11   8 34.1207 33.0563   1
  -1  11  -8 97.3116 53.8430   3
   1 -11   8 32.4230 29.1461   4
  -1  12  -7 149.594 71.0114   5
   1 -12   7 82.4336 43.9806   4
  -1  13  -6 122.325 62.2200   5
   1 -13   6 138.999 52.2279   4
  -1  14  -5 722.974 178.788   5
   1 -14   5 657.211 131.194   4
  -1   4 -14 184.413 68.3969   7
   1  -4  14 88.8450 67.2317   1
  -1   5 -13 39.7620 26.8083   3
  -1   5 -13 25.6982 34.5331   7
   1  -5  13 5.50216 43.6762   1
   1  -6  12 449.888 120.701   1
  -1   6 -12 451.127 87.2172   3
   1  -6  12 433.132 98.1035   4
   1  -7  11 966.641 168.121   1
   1  -7  11 990.351 136.555   4
  -1   7 -11 1089.04 142.974   3
  -1   8 -10 420.788 86.9767   3
   1  -8  10 497.204 109.444   1
   1  -8  10 461.375 88.7885   4
   1  -9   9 3844.96 266.270   4
   1  -9   9 3732.61 285.081   1
  -1   9  -9 4139.43 301.744   3
   1 -10   8 296.833 72.9744   4
   1 -10   8 302.337 79.9025   1
  -1  10  -8 338.426 88.5359   3
  -1  11  -7 3517.43 362.055   5
   1 -11   7 3084.08 236.658   1
  -1  11  -7 3646.50 285.329   3
   1 -11   7 3553.92 258.591   4
   1 -12   6-17.2530 32.4342   4
  -1  12  -6 135.821 62.2014   5
  -1  13  -5 33.0486 45.7714   5
   1 -13   5 16.4421 29.1423   4
  -1  14  -4 789.743 187.877   5
   1 -14   4 847.913 147.933   4
   1  -3  14 693.415 166.682   1
  -1   3 -14 558.809 121.625   7
  -1   4 -13 285.972 84.8618   7
   1  -4  13 168.045 76.6747   1
   1  -5  12 2401.78 287.290   1
   1  -5  12 3046.22 262.445   4
  -1   5 -12 2777.44 240.634   7
  -1   5 -12 2693.07 213.868   3
   1  -6  11 505.096 99.9290   4
  -1   6 -11 518.579 92.9503   3
   1  -6  11 656.084 140.640   1
   1  -7  10 1102.28 168.958   1
  -1   7 -10 1217.62 144.007   3
   1  -7  10 1093.58 141.102   4
   1  -8   9 408.598 82.9295   4
   1  -8   9 450.634 108.226   1
  -1   8  -9 402.706 82.3395   3
  -1   9  -8 483.340 97.9973   3
   1  -9   8 340.471 79.0614   1
   1  -9   8 431.040 87.3187   4
   1 -10   7 6041.42 329.001   1
   1 -10   7 6174.75 332.789   4
  -1  10  -7 5812.93 450.183   5
  -1  10  -7 6146.69 358.562   3
   1 -11   6-32.4943 30.4728   4
  -1  11  -6-48.2626 54.5157   5
   1 -11   6 5.09392 16.9254   1
   1 -12   5 4218.67 298.384   4
  -1  12  -5 3932.12 383.588   5
   1 -13   4 123.363 56.5602   4
  -1  13  -4 83.4487 36.5734   5
  -1  14  -3 155.412 84.0247   5
   1 -14   3 330.546 99.7332   4
  -1   2 -14 212.588 73.6639   7
  -1   3 -13 57.0691 55.9668   7
   1  -3  13 81.1050 69.9595   1
  -1   4 -12 41.0942 14.5513   3
   1  -4  12 210.052 82.1418   1
  -1   4 -12 152.079 64.6970   7
   1  -5  11 2676.37 282.472   1
  -1   5 -11 2659.12 203.576   3
   1  -5  11 2371.48 222.316   4
   1  -6  10 375.497 100.814   1
  -1   6 -10 424.551 82.0524   3
   1  -6  10 408.558 85.5915   4
   1  -7   9 2123.94 217.730   1
  -1   7  -9 2192.27 189.606   3
   1  -7   9 2459.26 201.534   4
   1  -8   8 1028.45 139.020   1
  -1   8  -8 1011.69 130.437   3
   1  -8   8 1023.64 130.085   4
   1  -9   7 3048.15 227.861   1
   1  -9   7 2842.61 218.776   4
  -1   9  -7 3054.64 235.778   3
  -1  10  -6 5.18609 22.0176   5
   1 -10   6-8.17480 15.3653   1
  -1  10  -6 32.7866 21.1314   2
  -1  10  -6-7.47080 23.1571   3
   1 -10   6 44.0667 25.7963   4
   1 -11   5 1398.97 157.616   4
   1 -11   5 1586.76 159.649   1
  -1  11  -5 1362.72 215.535   5
  -1  12  -4 7.47130 46.2213   5
   1 -12   4 54.1287 25.6006   4
  -1  13  -3 952.501 194.942   5
   1 -13   3 1154.88 168.842   4
  -1  14  -2 179.293 83.6891   5
   1 -14   2 160.105 72.1721   4
  -1   1 -14 621.266 138.607   7
  -1   2 -13-17.8641 18.7590   7
   1  -2  13 16.9166 55.2335   1
   1  -3  12 425.145 132.475   1
  -1   3 -12 475.329 104.289   7
  -1   3 -12 327.271 65.8853   3
  -1   4 -11 165.406 48.8017   3
   1  -4  11 211.631 71.1537   1
  -1   5 -10 100.822 35.7238   3
   1  -5  10 155.279 65.4329   1
   1  -5  10 150.032 51.9969   4
   1  -6   9 3134.71 229.169   4
   1  -6   9 2947.41 261.210   1
  -1   6  -9 3336.55 222.895   3
   1  -7   8 76.1620 40.6031   1
   1  -7   8-4.12727 20.6084   4
  -1   7  -8 39.9519 31.9568   3
   1  -8   7 12133.4 450.232   4
   1  -8   7 12450.0 466.656   1
  -1   8  -7 13692.1 491.534   3
  -1   9  -6 219.805 62.4737   3
   1  -9   6 84.7260 26.8354   1
   1  -9   6 143.635 45.7141   4
  -1  10  -5 7294.56 475.749   5
   1 -10   5 6909.19 327.308   1
   1 -10   5 7945.93 366.802   4
   1 -11   4 13.6793 25.3631   4
  -1  11  -4-20.7302 27.2301   5
  -1  12  -3 4725.45 409.284   5
   1 -12   3 4528.69 318.406   4
   1 -13   2 213.246 73.9245   4
  -1  13  -2 114.299 80.1540   5
  -1  14  -1 315.430 118.841   5
   1 -14   1 183.362 66.3499   4
  -1   1 -13-177.259 69.0253   7
   1  -1  13-52.7909 71.2577   1
  -1   2 -12 140.825 61.6573   7
   1  -2  12 22.0895 33.2952   1
   1  -3  11 2938.68 316.172   1
  -1   3 -11 2743.98 194.260   3
  -1   3 -11 3143.94 250.740   7
   1  -4  10 14.3643 14.8953   1
  -1   4 -10-13.2514 19.2061   3
  -1   5  -9 682.041 94.2305   3
   1  -5   9 656.536 105.515   4
   1  -5   9 816.513 134.444   1
  -1   6  -8 893.134 110.957   3
   1  -6   8 830.330 110.568   4
   1  -6   8 930.538 139.289   1
   1  -7   7 380.025 78.7301   1
  -1   7  -7 361.020 68.5786   3
  -1   7  -7 354.645 59.4634   7
   1  -7   7 327.714 65.7166   4
  -1   8  -6 4042.57 253.983   3
   1  -8   6 3467.97 230.744   4
   1  -8   6 3370.30 220.754   1
   1  -9   5 221.999 53.2133   4
  -1   9  -5 187.496 21.9404   8
  -1   9  -5 233.469 61.2161   3
   1  -9   5 159.772 45.3017   1
  -1   9  -5 191.529 75.1425   5
   1 -10   4 385.677 79.3818   4
  -1  10  -4 312.934 92.0877   5
   1 -10   4 408.320 77.5416   1
   1 -10   4 425.073 60.4264   7
   1 -11   3 1081.62 143.094   4
  -1  11  -3 1110.29 183.613   5
   1 -12   2 84.0097 41.8200   4
  -1  12  -2 154.814 75.9818   5
   1 -13   1 508.860 111.962   4
  -1  13  -1 554.802 149.279   5
  -1  14   0-46.7437 59.0046   5
   1 -14   0-46.8057 35.4251   4
  -1   0 -13 276.696 80.9240   7
   1   0  13 385.773 122.630   1
  -1   1 -12 321.386 81.8802   7
   1  -1  12 267.383 94.6512   1
  -1   2 -11 941.632 138.237   7
   1  -2  11 951.516 178.323   1
  -1   2 -11 1090.51 113.697   3
   1  -3  10 866.829 157.968   1
  -1   3 -10 919.510 104.587   3
   1  -4   9 405.887 98.2588   1
  -1   4  -9 358.555 70.0591   3
  -1   5  -8 26901.3 639.525   3
   1  -5   8 26089.3 693.526   4
   1  -5   8 28217.9 413.095   8
   1  -6   7 729.361 111.171   1
   1  -6   7 837.803 105.086   4
  -1   6  -7 884.795 93.2404   7
  -1   6  -7 900.131 105.994   3
   1  -7   6 6095.18 296.646   1
  -1   7  -6 6541.08 305.160   3
   1  -7   6 6817.43 303.770   4
  -1   7  -6 7072.75 243.823   7
   1  -8   5 2931.66 189.377   1
  -1   8  -5 3101.44 213.362   3
  -1   8  -5 3128.87 145.994   7
   1  -8   5 2855.36 201.547   4
  -1   9  -4 35.2649 34.0274   5
   1  -9   4-5.93319 13.3022   7
   1  -9   4-12.8347 16.2042   1
   1  -9   4-8.97210 10.6728   4
  -1   9  -4 41.6029 13.0839   2
  -1   9  -4-6.65420 14.0923   7
   1 -10   3 585.273 94.5952   4
   1 -10   3 572.935 74.1454   7
  -1  10  -3 566.978 126.796   5
   1 -11   2-25.6095 13.9789   4
   1 -11   2-31.6212 25.4209   7
  -1  12  -1 833.569 168.701   5
   1 -12   1 822.942 136.633   4
   1 -13   0 402.045 103.949   4
  -1  13   0 351.784 112.291   5
  -1  14   1-37.2058 57.8160   5
  -1  -1 -13 260.773 98.5085   2
   1   1  13 198.583 102.211   1
  -1  -1 -13 191.933 72.1696   7
  -1   0 -12 5240.57 366.809   7
   1   0  12 4692.38 458.255   1
   1  -1  11 2159.18 285.135   1
  -1   1 -11 1859.23 143.923   3
  -1   1 -11 2309.18 225.424   7
  -1   2 -10 998.984 104.685   3
   1  -2  10 925.723 168.215   1
  -1   2 -10 995.686 136.692   7
   1  -3   9 26073.7 860.927   1
  -1   3  -9 26912.2 608.120   3
   1  -4   8 188.705 36.3641   8
  -1   4  -8 275.679 58.1272   3
   1  -4   8 258.386 78.0927   1
   1  -5   7 22115.5 598.928   4
   1  -5   7 23236.8 670.091   1
  -1   6  -6 18159.5 497.140   3
   1  -6   6 17818.2 537.174   1
  -1   6  -6 16931.4 409.167   7
   1  -6   6 18124.4 505.868   4
  -1   7  -5 33043.8 597.647   7
   1  -7   5 32396.9 713.049   1
   1  -7   5 34616.6 759.909   4
   1  -8   4 40692.6 785.090   1
  -1   8  -4 35387.4 998.695   5
  -1   8  -4 39601.0 618.089   8
  -1   8  -4 38288.4 622.760   7
  -1   8  -4 37543.3 835.580   3
   1  -8   4 37209.2 808.222   4
   1  -9   3 10262.0 309.628   7
   1  -9   3 10155.5 392.714   4
  -1   9  -3 9794.54 282.460   7
  -1  10  -2 5554.22 398.033   5
   1 -10   2 5879.70 323.204   4
   1 -10   2 5903.77 266.177   7
   1 -11   1 1263.81 136.273   7
  -1  11  -1 1343.14 202.763   5
   1 -11   1 1473.44 173.580   4
  -1  12   0 2301.44 209.733   6
  -1  12   0 2280.75 280.182   5
   1 -12   0 2057.25 222.488   4
   1 -13  -1 238.064 83.2239   4
  -1  13   1 76.3932 68.1970   5
  -1  -2 -13 350.294 102.828   2
  -1  -1 -12 2564.29 267.055   7
   1   1  12 2365.04 326.540   1
   1   0  11 141.257 63.2326   1
  -1   0 -11 226.999 64.9339   7
  -1   1 -10 6870.42 369.175   7
  -1   1 -10 6669.19 268.652   3
   1  -1  10 6091.98 449.880   1
   1  -2   9 19.3302 32.6541   1
  -1   2  -9 25.6137 24.2872   3
  -1   2  -9 24.1040 36.5613   7
  -1   3  -8 3408.77 184.598   3
   1  -3   8 3164.41 262.842   1
  -1   4  -7 10981.1 348.954   3
   1  -4   7 10218.7 254.873   8
   1  -4   7 9971.29 430.706   1
   1  -5   6 2153.70 174.720   1
  -1   5  -6 2137.12 146.745   3
  -1   5  -6 2246.64 138.158   7
   1  -5   6 1937.49 152.525   4
   1  -6   5 28721.3 665.087   1
   1  -6   5 28247.5 656.477   4
  -1   6  -5 29518.0 655.428   3
   1  -7   4 3581.65 211.148   4
   1  -7   4 3550.30 188.145   1
  -1   7  -4 4061.00 155.146   7
  -1   7  -4 4246.33 230.840   3
  -1   7  -4 3815.34 129.349   8
  -1   8  -3 13091.9 248.757   2
   1  -8   3 13586.8 434.657   4
   1  -8   3 13757.0 397.823   1
  -1   8  -3 13581.4 564.848   5
   1  -8   3 12671.7 329.579   7
   1  -9   2 5906.39 243.214   7
  -1   9  -2 5338.94 366.919   5
  -1   9  -2 5677.47 220.738   7
   1  -9   2 5407.81 284.727   4
  -1  10  -1 2953.92 283.170   5
   1 -10   1 3149.77 200.647   7
   1 -10   1 3108.12 235.650   4
   1 -11   0 11548.8 503.857   4
  -1  11   0 10003.7 566.653   5
   1 -11   0 10873.2 447.066   7
   1 -12  -1-8.21163 25.9586   7
   1 -12  -1-19.9319 22.4199   4
  -1  12   1-23.8673 45.0866   5
   1 -13  -2 3711.91 329.858   4
  -1  13   2 3898.94 400.095   5
   1   2  12 965.756 213.328   1
  -1  -2 -12 842.943 157.999   7
  -1  -2 -12 899.057 160.665   2
   1   1  11 241.095 91.9105   6
   1   1  11 57.7319 67.2972   1
  -1  -1 -11 85.2169 63.1992   7
  -1   0 -10-9.79298 21.0434   3
   1   0  10-29.5892 56.2354   1
   1   0  10 10.4501 15.7461   6
  -1   0 -10-17.7330 25.1380   7
  -1   1  -9 271.853 69.1010   7
  -1   1  -9 267.976 49.9438   3
   1  -1   9 376.298 87.7723   6
   1  -1   9 288.181 92.0262   1
  -1   2  -8 416.741 60.2499   3
   1  -2   8 303.254 85.4271   1
  -1   3  -7 1014.57 93.5053   3
   1  -3   7 967.398 129.846   1
   1  -4   6 78.9243 17.7676   8
   1  -4   6 97.0700 40.7015   1
  -1   4  -6 80.6571 25.4201   3
   1  -5   5 2278.14 155.439   4
  -1   5  -5 2384.62 155.364   3
   1  -5   5 2565.94 172.787   1
  -1   5  -5 2777.19 134.794   7
   1  -6   4 6577.37 249.248   1
   1  -6   4 6694.24 269.545   4
  -1   6  -4 6367.35 137.354   8
   1  -7   3 4612.02 229.120   4
   1  -7   3 4901.69 171.816   7
  -1   7  -3 4384.22 135.283   2
   1  -7   3 5507.13 215.638   1
  -1   7  -3 4121.36 284.568   5
  -1   7  -3 5002.86 241.915   3
  -1   7  -3 5320.89 155.944   7
   1  -8   2 13.6359 23.2721   4
   1  -8   2-14.1064 12.9055   7
  -1   8  -2-1.68907 14.5724   7
  -1   8  -2 16.8922 30.0427   5
  -1   9  -1 13003.0 569.071   5
   1  -9   1 13357.2 406.354   7
   1  -9   1 12868.3 465.677   4
   1 -10   0 869.409 127.244   4
  -1  10   0 790.023 142.930   5
   1 -10   0 690.994 99.1423   7
  -1  11   1 1119.21 133.911   6
   1 -11  -1 1073.20 156.909   4
   1 -11  -1 1084.53 139.085   7
  -1  11   1 1256.78 199.178   5
  -1  12   2 580.899 138.139   5
   1 -12  -2 464.968 101.307   7
  -1  13   3 65.6731 62.6455   5
  -1  -3 -12 1711.62 216.983   2
   1   3  12 1201.77 238.935   1
  -1  -3 -12 1873.82 243.896   7
   1   3  12 2068.21 253.546   6
   1   2  11 1499.61 245.911   1
  -1  -2 -11 1292.65 183.419   7
   1   2  11 1287.27 183.910   6
  -1  -1 -10 1024.81 147.310   7
   1   1  10 1178.39 161.581   6
   1   1  10 985.268 181.810   1
  -1   0  -9 156.141 32.7435   3
   1   0   9 214.788 66.0822   6
   1   0   9 121.460 53.8564   1
  -1   0  -9 165.736 50.5389   7
   1  -1   8 8617.30 458.763   1
  -1   1  -8 8188.01 359.715   7
  -1   1  -8 9457.09 296.210   3
   1  -2   7 4116.56 284.244   1
  -1   2  -7 3627.96 171.457   3
  -1   3  -6 799.288 78.7550   3
   1  -3   6 885.989 116.741   1
   1  -4   5 1301.22 120.139   1
   1  -4   5 1275.52 115.805   4
   1  -4   5 1370.04 62.6967   8
  -1   4  -5 1331.86 101.493   3
   1  -5   4 1004.26 97.2049   1
   1  -5   4 1135.84 103.404   4
  -1   5  -4 1101.92 106.491   1
  -1   5  -4 988.341 70.6790   7
  -1   5  -4 1051.02 96.7820   3
  -1   6  -3 16507.7 426.558   1
  -1   6  -3 16379.5 435.206   3
   1  -6   3 16191.4 387.007   1
   1  -6   3 16817.3 444.225   4
   1  -6   3 15772.6 315.780   7
   1  -7   2 3484.60 176.078   1
   1  -7   2 3202.81 147.613   7
  -1   7  -2 3503.30 78.5832   2
  -1   7  -2 3759.20 264.603   5
   1  -7   2 3903.89 208.588   4
  -1   7  -2 4056.82 153.528   7
   1  -8   1 50.9256 25.4505   7
  -1   8  -1 22.7920 38.0338   5
   1  -8   1 66.9191 28.8175   4
  -1   8  -1 85.4711 26.3276   7
  -1   9   0 175.484 57.6479   5
   1  -9   0 205.045 58.9463   4
   1  -9   0 223.823 49.0486   7
  -1  10   1 1624.28 214.235   5
   1 -10  -1 1939.81 193.418   4
   1 -10  -1 1523.41 154.785   7
  -1  10   1 1862.46 165.299   6
   1 -11  -2 1074.90 158.633   4
  -1  11   2 1235.86 142.449   6
   1 -11  -2 1135.55 149.316   7
  -1  11   2 1001.01 179.907   5
  -1  12   3 1639.55 245.223   5
   1 -12  -3 1446.30 188.849   7
   1 -12  -3 1490.56 202.168   4
  -1  -4 -12 1335.83 195.851   2
   1   4  12 1287.63 202.265   6
   1   3  11 263.838 106.784   1
  -1  -3 -11 399.543 107.223   2
   1   3  11 321.722 93.0407   6
  -1  -3 -11 290.696 89.1695   7
   1   2  10 13517.2 721.127   1
  -1  -2 -10 14349.9 602.508   7
   1   1   9 9837.16 447.721   6
  -1  -1  -9 8527.26 269.603   3
  -1  -1  -9 9185.15 428.790   7
   1   0   8 7684.73 363.749   6
   1   0   8 6648.27 412.034   1
  -1   0  -8 7090.45 237.467   3
  -1   0  -8 6468.62 326.654   7
  -1   1  -7 424.556 55.1281   3
   1  -1   7 399.549 58.1929   3
  -1   1  -7 303.532 59.5384   7
   1  -1   7 467.924 95.4025   1
   1  -1   7 421.661 75.8552   6
   1  -2   6 6001.29 221.443   3
   1  -2   6 5901.17 318.303   1
  -1   2  -6 5903.39 211.344   3
   1  -2   6 6335.33 293.933   6
   1  -3   5 29279.3 551.913   3
  -1   3  -5 29297.1 548.013   3
  -1   4  -4 33356.9 676.491   1
  -1   4  -4 33183.3 611.372   3
   1  -4   4 32166.8 648.479   4
  -1   4  -4 34332.9 543.221   7
   1  -4   4 34037.5 627.220   3
   1  -4   4 32680.2 651.548   1
  -1   5  -3 36750.3 709.062   4
  -1   5  -3 33864.8 629.962   1
  -1   5  -3 32788.2 490.074   7
   1  -5   3 31329.6 576.092   1
  -1   5  -3 29079.2 474.838   8
   1  -5   3 30258.0 617.010   4
  -1   5  -3 36374.7 659.740   3
  -1   6  -2 13074.6 269.468   7
  -1   6  -2 12665.7 469.584   5
  -1   6  -2 14141.9 372.795   1
   1  -6   2 12201.1 283.276   7
  -1   6  -2 13246.4 231.997   2
   1  -6   2 13394.5 381.754   4
   1  -6   2 11684.9 316.599   1
   1  -7   1 7356.18 248.953   7
  -1   7  -1 7226.89 366.916   5
  -1   7  -1 7593.09 227.126   7
   1  -7   1 7364.51 288.295   4
  -1   8   0 5352.07 338.146   5
   1  -8   0 4758.34 227.750   7
   1  -9  -1 1903.24 164.305   7
  -1   9   1 1761.67 152.790   6
  -1   9   1 1616.62 201.289   5
   1  -9  -1 1673.87 167.143   4
  -1  10   2 10554.6 409.886   6
   1 -10  -2 10067.9 435.906   7
  -1  10   2 10321.2 572.925   5
   1 -11  -3 44.8905 20.3576   7
  -1  11   3 75.1713 55.9460   5
   1 -11  -3 97.8600 42.4469   4
  -1  12   4 3737.76 379.225   5
   1 -12  -4 3494.76 307.676   7
  -1  -5 -12 134.979 52.6365   2
   1   5  12 60.5993 40.8090   6
  -1  -4 -11 931.716 153.507   2
  -1  -4 -11 789.333 154.293   7
   1   4  11 774.102 147.246   6
   1   4  11 913.442 200.779   1
  -1  -3 -10 557.185 115.900   2
   1   3  10 474.807 139.174   1
   1   3  10 641.145 121.232   6
  -1  -3 -10 584.859 123.234   7
  -1  -2  -9 6738.76 376.171   7
   1   2   9 7079.30 376.529   6
  -1  -2  -9 5926.08 214.288   3
  -1  -1  -8 14406.7 520.027   7
  -1  -1  -8 15558.3 361.591   3
  -1   0  -7 308.472 63.7066   7
  -1   0  -7 365.715 47.8024   3
   1   0   7 407.776 76.1436   6
   1   0   7 381.138 91.2342   1
   1  -1   6 20798.1 435.544   3
  -1   1  -6 21383.4 427.310   3
   1  -1   6 19779.2 619.937   1
   1  -2   5 3472.86 193.511   6
   1  -2   5 2964.24 140.557   3
  -1   2  -5 2963.53 133.773   3
   1  -2   5 2890.91 197.514   1
   1  -3   4 23499.7 463.530   3
  -1   3  -4 23600.5 457.809   3
   1  -3   4 24650.6 389.037   8
   1  -3   4 23528.5 538.591   1
   1  -4   3 61017.7 978.390   4
  -1   4  -3 66767.6 978.037   3
  -1   4  -3 61958.6 816.545   8
  -1   4  -3 69523.0 1007.21   1
  -1   4  -3 65605.3 838.729   7
   1  -4   3 67974.4 980.226   3
   1  -4   3 67339.5 972.132   1
  -1   5  -2 25857.8 369.756   7
  -1   5  -2 25138.6 480.381   1
  -1   5  -2 23763.2 535.959   4
  -1   5  -2 23065.9 614.647   5
   1  -5   2 23952.6 514.342   4
   1  -5   2 24545.7 381.277   7
  -1   5  -2 22369.0 496.013   3
  -1   5  -2 22701.6 373.108   2
  -1   6  -1 14083.0 299.367   7
  -1   6  -1 14619.1 497.238   5
   1  -6   1 14035.3 388.835   4
  -1   6  -1 13878.9 349.926   1
   1  -7   0 354.407 67.2327   4
   1  -7   0 380.930 57.9093   7
  -1   7   0 350.243 79.1810   5
  -1   8   1 9365.25 455.323   5
  -1   8   1 10531.9 360.558   6
   1  -8  -1 9340.08 343.622   7
   1  -8  -1 9726.70 387.302   4
   1  -9  -2 7476.73 346.652   7
  -1   9   2 8743.97 345.851   6
  -1   9   2 8230.34 474.866   5
   1  -9  -2 8165.83 391.671   4
  -1  10   3 501.393 125.661   5
   1 -10  -3 444.087 90.7255   7
  -1  10   3 472.013 84.0258   6
   1 -10  -3 456.551 102.116   4
   1 -11  -4 4877.03 342.649   7
  -1  11   4 4318.20 393.687   5
   1 -12  -5 679.278 140.844   7
  -1  12   5 644.075 160.001   5
  -1  -5 -11 764.882 140.177   2
  -1  -5 -11 708.033 147.590   7
   1   5  11 522.479 155.478   1
   1   5  11 518.213 120.301   6
  -1  -4 -10 2368.63 256.046   7
  -1  -4 -10 2715.18 247.991   2
   1   4  10 2477.23 242.759   6
   1   3   9 2067.19 208.388   6
  -1  -3  -9 2290.80 214.884   2
  -1  -3  -9 2002.36 217.114   7
   1   2   8 580.292 98.8645   6
  -1  -2  -8 570.970 60.0438   3
  -1  -2  -8 671.369 110.724   7
  -1  -1  -7 12.2371 23.6000   7
   1   1   7 1.63469 27.0616   6
  -1  -1  -7 6.62102 4.37115   3
  -1   0  -6 1363.99 123.897   7
   1   0   6 1345.87 127.033   6
  -1   0  -6 1119.91 76.8767   3
   1  -1   5 4490.03 251.233   1
   1  -1   5 4552.42 215.596   6
  -1   1  -5 4562.88 158.802   3
   1  -1   5 4242.57 159.172   3
  -1   2  -4 424.550 46.4440   3
   1  -2   4 583.161 70.8989   6
   1  -2   4 492.930 49.4075   3
   1  -2   4 521.711 73.2014   1
   1  -3   3 31.9474 17.8352   4
  -1   3  -3 25.8129 12.2250   3
  -1   3  -3 28.5138 13.8700   1
  -1   3  -3 47.5741 20.3971   6
   1  -3   3 45.7941 15.2741   3
   1  -3   3 77.6113 15.6528   8
   1  -3   3 43.0810 18.2953   1
  -1   4  -2 42582.7 740.266   4
  -1   4  -2 42884.3 545.877   7
   1  -4   2 39893.2 690.848   4
  -1   4  -2 42738.4 658.421   1
  -1   4  -2 42056.2 692.224   3
   1  -4   2 40777.8 626.012   1
   1  -5   1 6929.90 190.351   7
  -1   5  -1 7803.42 224.089   1
   1  -5   1 6817.26 244.370   4
  -1   5  -1 6592.48 304.752   5
  -1   5  -1 7977.81 185.584   7
  -1   6   0 31222.1 594.089   1
   1  -6   0 30720.8 571.621   7
   1  -6   0 32161.8 644.641   4
  -1   6   0 32729.0 786.987   5
  -1   7   1 481.780 92.2782   5
   1  -7  -1 667.929 90.0313   4
   1  -7  -1 559.853 74.4461   7
  -1   8   2 0.21311 8.68444   6
   1  -8  -2 32.1009 30.2854   4
   1  -8  -2 20.8036 11.2128   7
  -1   8   2 9.09019 19.4503   5
  -1   9   3 97.6933 55.2943   5
  -1   9   3 176.865 47.2563   6
   1  -9  -3 213.920 63.3362   7
   1  -9  -3 104.403 34.2030   4
  -1  10   4 11.5886 9.73257   6
   1 -10  -4 26.0790 27.0291   7
  -1  10   4 42.6684 51.0600   5
   1 -11  -5 129.527 63.6733   7
  -1  11   5 91.3014 59.0838   5
   1 -12  -6 742.991 145.266   7
   1   6  11 87.8265 48.4876   6
   1   5  10 152.928 55.9103   6
  -1  -5 -10 147.409 65.9682   7
  -1  -5 -10 147.499 50.5299   2
   1   4   9 221.624 68.4699   6
  -1  -4  -9 259.910 75.2052   2
  -1  -4  -9 232.026 68.3672   7
  -1  -3  -8 181.616 33.3200   3
  -1  -3  -8 167.621 56.5489   7
   1   3   8 129.658 42.6760   6
  -1  -2  -7 897.036 120.035   7
   1   2   7 960.752 124.471   6
  -1  -2  -7 979.654 74.8317   3
  -1  -1  -6 15386.4 467.897   7
  -1  -1  -6 14969.2 309.975   3
   1   1   6 15350.6 476.501   6
   1   0   5 1893.62 142.321   6
   1   0   5 1620.22 89.7433   3
  -1   0  -5 1636.98 83.1268   3
   1  -1   4 24305.4 418.632   3
  -1   1  -4 24779.7 411.881   3
   1  -2   3 75559.5 996.106   3
  -1   2  -3 75053.5 986.208   3
   1  -2   3 73917.4 969.427   8
   1  -2   3 74213.2 1104.32   1
   1  -3   2 11200.6 267.942   3
  -1   3  -2 11121.5 272.270   3
   1  -3   2 11554.7 256.358   1
  -1   3  -2 11613.7 220.070   8
  -1   3  -2 11885.1 188.151   7
  -1   3  -2 11876.5 270.515   1
   1  -3   2 10901.6 287.915   4
   1  -4   1 9646.77 197.527   7
  -1   4  -1 9563.87 332.420   5
   1  -4   1 10198.8 283.711   4
  -1   4  -1 10622.2 234.782   1
  -1   4  -1 10793.3 181.325   2
   1  -4   1 10583.3 226.619   1
  -1   4  -1 10179.2 187.549   7
  -1   5   0 2608.57 185.634   5
  -1   5   0 2798.41 129.236   1
   1  -5   0 2430.50 140.578   4
   1  -5   0 2237.87 111.319   7
  -1   6   1 249.800 45.4589   1
   1  -6  -1 303.807 53.7489   4
  -1   6   1 218.007 59.2417   5
   1  -6  -1 223.449 40.4884   7
   1  -7  -2 410.780 65.8975   7
  -1   7   2 608.661 104.187   5
   1  -7  -2 531.973 84.4199   4
  -1   7   2 598.824 75.3146   6
  -1   8   3 653.593 88.1802   6
   1  -8  -3 552.865 90.6887   4
   1  -8  -3 723.013 42.6727   2
   1  -8  -3 589.160 91.9560   7
  -1   8   3 689.828 128.277   5
  -1   9   4 1633.05 148.685   6
   1  -9  -4 1675.31 174.502   7
  -1   9   4 1414.36 197.926   5
   1  -9  -4 1267.52 159.096   4
  -1  10   5 1221.91 200.367   5
   1 -10  -5 1439.05 185.119   7
   1 -11  -6 450.277 111.167   7
  -1  11   6 338.506 105.896   5
   1   6  10 88.3948 51.1650   6
  -1  -6 -10 84.2734 48.0908   2
  -1  -6 -10 69.9400 45.9827   7
   1   5   9 225.207 67.8917   6
  -1  -5  -9 167.703 65.0674   7
  -1  -5  -9 224.987 66.3559   2
   1   4   8 2691.94 234.624   6
  -1  -4  -8 3288.97 238.170   2
  -1  -4  -8 2639.02 240.832   7
  -1  -3  -7 1830.89 179.192   7
   1   3   7 1879.47 174.072   6
  -1  -3  -7 1636.41 96.8253   3
  -1  -2  -6 2076.52 100.431   3
   1   2   6 2409.53 181.393   6
  -1  -2  -6 1909.01 162.281   7
   1   1   5 14203.3 421.050   6
  -1  -1  -5 14479.5 275.998   3
  -1   0  -4 43468.9 593.252   3
  -1   0  -4 43608.8 748.836   5
   1   0   4 41693.0 606.018   3
   1  -1   3 114820. 1487.89   6
  -1   1  -3 115325. 1350.25   3
  -1   1  -3 113610. 1421.85   7
   1  -1   3 110245. 1350.40   3
   1  -2   2 858871. 9986.34   3
  -1   2  -2 862795. 9995.41   3
   1  -2   2 848046. 10028.8   1
  -1   3  -1 217.232 22.9115   2
  -1   3  -1 230.527 26.1122   1
   1  -3   1 212.493 33.9619   4
  -1   3  -1 287.428 48.4449   5
   1  -3   1 259.081 23.6718   1
  -1   4   0 63232.6 1124.10   5
   1  -4   0 64852.3 1008.01   4
   1  -4   0 66671.3 1014.97   3
  -1   5   1 54.3605 29.0930   5
   1  -5  -1 78.0361 23.8470   7
   1  -5  -1 104.740 32.3736   4
   1  -6  -2 49.0693 21.6750   7
  -1   6   2 48.8025 17.6135   6
  -1   6   2 37.3073 29.9157   5
   1  -6  -2 61.7814 27.6526   4
   1  -6  -2 71.7949 13.2667   2
   1  -7  -3 9686.74 223.349   2
  -1   7   3 9254.74 450.695   5
   1  -7  -3 8922.91 342.681   7
   1  -7  -3 9011.18 375.597   4
  -1   7   3 10137.3 335.219   6
   1  -8  -4 664.168 100.038   7
  -1   8   4 554.128 78.6768   6
   1  -8  -4 594.657 99.6565   4
   1  -8  -4 496.026 52.4120   2
  -1   8   4 555.129 115.709   5
  -1   9   5 495.065 122.373   5
   1  -9  -5 506.199 104.799   7
  -1   9   5 567.998 87.8896   6
   1 -10  -6 1182.48 171.907   7
  -1  10   6 1310.46 208.525   5
  -1  11   7 425.888 125.518   5
   1 -11  -7 426.806 112.699   7
   1   7  10 693.819 134.800   6
  -1  -6  -9 2541.41 231.056   2
  -1  -6  -9 2167.50 242.874   7
   1   6   9 2248.91 235.495   6
   1   5   8 1778.05 190.032   6
  -1  -5  -8 1628.37 170.375   2
  -1  -5  -8 1325.47 171.348   7
   1   4   7 519.113 99.1476   6
  -1  -4  -7 438.243 51.2347   3
  -1  -4  -7 534.110 90.6538   2
  -1  -4  -7 380.933 81.4446   7
  -1  -3  -6 5696.27 302.286   7
   1   3   6 5455.78 285.467   6
  -1  -3  -6 4968.85 168.185   3
  -1  -2  -5 116.263 21.5066   3
   1   2   5 144.098 40.7266   6
  -1  -2  -5 118.914 39.0204   7
  -1  -1  -4 469.791 36.0823   3
   1   1   4 375.400 58.6284   6
  -1  -1  -4 364.124 53.3020   5
  -1  -1  -4 448.166 65.7748   6
   1   0   3 700.046 69.4088   6
  -1   0  -3 759.921 40.0188   3
  -1   0  -3 838.214 70.8273   7
   1   0   3 733.943 40.5872   3
  -1   0  -3 797.442 67.7346   5
  -1   1  -2 5130.18 123.799   3
   1  -1   2 5289.42 125.472   3
  -1   1  -2 5280.93 137.969   7
   1  -1   2 5862.78 174.514   6
  -1   2  -1 192862. 2130.51   6
   1  -2   1 181922. 2184.65   4
  -1   2  -1 197463. 2128.14   8
  -1   2  -1 182244. 2078.48   1
  -1   2  -1 174698. 2101.35   2
   1  -2   1 182081. 2072.31   1
  -1   3   0 65678.1 801.990   1
   1  -3   0 58728.2 882.737   4
   1  -3   0 59506.3 748.818   2
   1  -3   0 61717.2 792.037   7
  -1   3   0 67555.0 1006.16   5
  -1   3   0 65647.3 763.133   2
  -1   4   1 1195.46 112.689   5
   1  -4  -1 1351.10 85.2662   7
   1  -4  -1 1259.94 91.3169   4
   1  -5  -2 24321.4 511.936   7
  -1   5   2 23311.6 460.822   6
   1  -5  -2 23491.6 530.862   4
  -1   6   3 3915.30 186.447   6
   1  -6  -3 3863.59 221.593   4
   1  -6  -3 4234.71 222.554   7
  -1   6   3 4146.89 274.757   5
   1  -7  -4 1207.11 86.2603   2
  -1   7   4 1218.71 112.273   6
   1  -7  -4 1161.12 130.158   4
  -1   7   4 979.944 144.773   5
   1  -7  -4 1011.40 119.454   7
   1  -8  -5-18.2721 29.9507   7
  -1   8   5-17.9008 15.8428   6
  -1   8   5 9.60816 21.8201   5
   1  -8  -5 20.1793 9.33836   2
  -1   9   6 782.448 151.190   5
   1  -9  -6 724.611 127.282   7
   1 -10  -7-8.65829 25.7817   7
  -1  10   7-66.8045 66.1832   5
  -1  -7  -9 35.4447 21.7506   7
   1   7   9 116.498 59.7049   6
   1   6   8 2136.42 217.561   6
  -1  -6  -8 1972.73 219.457   7
  -1  -6  -8 2194.87 199.798   2
   1   5   7 248.771 68.7748   5
  -1  -5  -7 315.222 70.3334   2
  -1  -5  -7 237.005 66.2076   7
  -1  -5  -7 249.371 40.3262   3
   1   5   7 302.761 77.3236   6
   1   4   6 340.838 74.4331   5
  -1  -4  -6 493.800 80.8605   2
   1   4   6 285.752 70.1010   6
  -1  -4  -6 372.864 47.8336   3
  -1  -4  -6 235.323 51.9019   7
   1   3   5 6338.90 292.213   6
  -1  -3  -5 6435.55 269.397   2
  -1  -3  -5 5787.74 288.981   7
  -1  -3  -5 6173.32 180.343   3
   1   3   5 5995.95 281.981   5
   1   2   4 16968.0 410.354   6
  -1  -2  -4 16373.8 224.706   3
  -1  -2  -4 17502.6 417.410   5
  -1  -1  -3 91802.4 1211.59   5
   1   1   3 84289.3 1236.47   6
  -1  -1  -3 88376.2 1231.29   7
  -1  -1  -3 88455.7 1018.96   3
  -1  -1  -3 82795.3 1253.05   6
  -1   0  -2 4290.76 139.796   7
   1   0   2 4461.94 155.566   6
  -1   0  -2 3908.11 77.5918   3
   1   0   2 4007.09 80.5345   3
  -1   1  -1 38789.8 552.224   2
  -1   1  -1 40794.5 561.880   6
   1  -1   1 41792.0 527.174   3
   1  -1   1 38805.3 550.805   6
  -1   1  -1 38423.9 552.365   8
  -1   1  -1 38608.7 498.989   7
   1  -1   1 41481.4 558.608   8
   1  -1   1 41822.3 502.803   7
  -1   2   0 3859.57 92.8517   2
  -1   2   0 3922.54 151.751   5
   1  -2   0 3801.58 125.886   4
   1  -2   0 3789.99 92.1610   2
  -1   3   1 1306.60 103.512   5
   1  -3  -1 1432.85 77.0585   7
   1  -3  -1 1455.91 85.8381   4
  -1   4   2 4625.89 243.576   5
  -1   4   2 4830.27 158.174   6
   1  -4  -2 4287.40 183.016   4
  -1   5   3 15.7700 5.62924   6
  -1   5   3 17.8503 21.5862   5
   1  -5  -3 34.4728 23.8684   4
   1  -5  -3 18.1851 8.85392   7
   1  -6  -4 24054.6 613.746   7
   1  -6  -4 22030.4 593.344   4
  -1   6   4 21798.0 689.212   5
  -1   6   4 23253.7 519.659   6
   1  -7  -5 4982.21 211.111   2
   1  -7  -5 4634.05 282.585   7
  -1   7   5 4200.72 310.800   5
  -1   7   5 4991.83 245.930   6
   1  -8  -6 252.463 67.7158   7
   1  -8  -6 274.557 51.6008   2
  -1   8   6 209.954 71.4148   5
  -1   8   6 297.773 65.2224   6
  -1   9   7 830.095 161.622   5
   1  -9  -7 632.342 125.156   7
  -1  10   8 180.865 79.8219   5
   1 -10  -8 153.115 65.2853   7
   1   8   9 302.989 95.1405   6
  -1  -7  -8 13.4290 32.1442   7
   1   7   8 0.15217 37.2271   6
  -1  -7  -8 31.4216 12.5094   2
   1   6   7 166.764 57.7064   6
  -1  -6  -7 104.257 47.7363   7
   1   6   7 232.934 59.9396   5
  -1  -6  -7 194.091 53.6446   2
  -1  -5  -6 1443.12 100.555   3
   1   5   6 1398.21 159.154   5
   1   5   6 1622.88 166.556   6
  -1  -5  -6 1579.88 146.870   2
  -1  -4  -5 190.693 32.3859   3
   1   4   5 205.241 49.8575   5
  -1  -4  -5 214.479 47.6177   2
  -1  -4  -5 166.782 41.0757   7
   1   4   5 190.412 49.7249   6
   1   3   4 141.887 35.4577   5
  -1  -3  -4 84.6595 35.8095   7
  -1  -3  -4 114.142 32.5011   2
   1   3   4 109.316 38.3137   6
  -1  -2  -3 27825.7 552.068   5
  -1  -2  -3 25419.8 502.304   2
   1   2   3 28443.5 564.522   7
   1   2   3 23670.6 502.335   5
   1   2   3 26317.3 551.077   6
  -1  -2  -3 25470.2 547.319   6
  -1  -1  -2 9145.69 231.029   2
   1   1   2 7940.65 229.114   7
   1   1   2 8494.41 211.942   5
  -1  -1  -2 9443.54 227.194   5
   1   0   1 4231.81 133.412   6
   1   0   1 4573.74 124.693   7
  -1   0  -1 4052.22 125.942   2
   1  -1   0 40424.9 579.078   5
   1  -1   0 44258.9 521.243   7
   1  -1   0 43156.5 557.694   2
  -1   1   0 41662.4 518.762   6
   1  -1   0 40849.2 516.277   6
  -1   1   0 40193.4 549.420   2
   1  -1   0 44378.5 580.481   8
  -1   1   0 46520.2 525.343   7
  -1   1   0 40736.2 576.294   5
   1  -1   0 39251.6 570.225   4
   1  -2  -1 18264.1 321.570   4
  -1   2   1 18996.7 337.761   4
  -1   2   1 18611.9 390.718   5
  -1   3   2 26796.1 484.963   4
  -1   3   2 25684.4 572.723   5
   1  -3  -2 25597.2 477.921   4
   1  -4  -3 249.127 48.0261   7
  -1   4   3 289.876 61.4356   5
  -1   4   3 340.537 42.6680   6
   1  -4  -3 293.079 51.4138   4
   1  -5  -4 11038.6 381.978   7
   1  -5  -4 11695.7 388.358   4
  -1   5   4 11676.5 454.392   5
  -1   6   5 12432.0 382.784   6
  -1   6   5 11397.1 488.660   5
  -1   7   6 1935.28 221.005   5
  -1   7   6 2347.24 177.281   6
   1  -7  -6 1798.02 186.601   7
  -1   8   7 681.390 140.564   5
   1  -8  -7 754.307 132.763   7
   1  -9  -8 909.195 156.240   7
  -1   9   8 900.439 180.400   5
   1   8   8 66.9700 50.5415   5
   1   8   8 81.0818 60.1205   6
  -1  -8  -8 140.101 67.8068   7
  -1  -7  -7-9.48674 23.7246   2
  -1  -7  -7 64.2286 53.5964   7
   1   7   7-18.0490 19.9475   5
   1   7   7 32.7588 32.3642   6
  -1  -6  -6 136.256 51.8725   7
   1   6   6 73.2535 28.2684   5
  -1  -6  -6 136.711 33.6396   3
  -1  -6  -6 129.163 41.9873   2
  -1  -5  -5 3975.22 216.275   2
   1   5   5 3392.80 237.425   5
   1   5   5 3810.50 241.231   6
  -1  -5  -5 3549.59 155.288   3
  -1  -4  -4 18.1847 15.9055   2
   1   4   4-8.21994 18.8483   6
  -1  -4  -4 59.1051 26.0824   7
   1   4   4 33.0652 25.4402   5
  -1  -4  -4 27.9322 11.5818   3
  -1  -3  -3 21464.5 515.874   5
   1   3   3 23845.0 538.470   6
   1   3   3 18292.2 466.799   5
  -1  -3  -3 21675.0 455.214   2
  -1  -3  -3 19471.9 508.415   6
  -1  -3  -3 23127.5 360.229   3
   1   2   2 53395.3 798.709   7
  -1  -2  -2 54522.2 820.074   6
   1   2   2 52215.4 753.417   5
  -1  -2  -2 54857.2 786.255   5
  -1  -2  -2 55261.4 755.735   2
   1   1   1 27110.5 466.583   6
  -1  -1  -1 26946.5 399.159   5
   1   1   1 28537.2 431.133   2
   1   1   1 26773.1 385.987   5
  -1  -1  -1 28659.0 437.182   2
   1   0   0 9498.49 187.979   6
   1   0   0 9753.30 191.782   7
  -1   0   0 10041.9 186.153   1
   1   0   0 9430.60 182.521   1
  -1   1   1 9599.44 186.939   1
   1  -1  -1 8393.77 167.125   4
  -1   1   1 9311.87 177.389   4
  -1   1   1 9743.53 218.707   5
   1  -1  -1 9096.12 183.969   1
  -1   2   2 11379.0 243.393   4
   1  -2  -2 10585.5 236.389   4
   1  -2  -2 12163.9 210.351   6
  -1   2   2 11411.7 309.360   5
  -1   3   3 1085.77 81.7903   4
  -1   3   3 807.476 92.4151   5
   1  -3  -3 788.860 61.3036   6
   1  -3  -3 837.059 75.2547   4
  -1   3   3 872.843 63.3148   6
  -1   4   4 2777.86 140.889   6
  -1   4   4 2467.33 187.777   5
   1  -4  -4 2718.12 161.945   4
   1  -4  -4 2885.49 150.316   6
  -1   5   5 19567.8 612.680   5
  -1   5   5 16516.1 429.909   6
  -1   6   6 735.895 125.826   5
  -1   6   6 977.298 107.844   6
   1  -6  -6 823.082 119.585   7
   1  -7  -7 30.7558 28.6266   7
  -1   7   7 84.1251 39.2807   6
  -1   7   7 18.2395 32.4924   5
  -1   8   8 28.2862 25.8042   5
   1  -8  -8 47.5304 33.3712   7
  -1   9   9 133.690 77.9477   5
   1  -9  -9 29.4923 39.5048   7
   1   9   8 1562.56 225.263   5
   1   8   7 5049.24 378.694   5
  -1  -8  -7 4484.61 362.395   7
   1   8   7 5743.78 368.855   6
   1   7   6 6220.46 384.246   5
   1   7   6 7726.05 396.316   6
  -1  -7  -6 5377.64 356.658   7
  -1  -7  -6 7024.05 319.049   2
   1   6   5 51.0472 21.4818   6
  -1  -6  -5 53.7151 20.4518   2
   1   6   5 66.2052 36.0449   5
  -1  -6  -5 124.310 44.6356   7
  -1  -5  -4 15054.3 407.372   2
   1   5   4 15313.7 487.300   6
  -1  -5  -4 14016.4 321.612   3
   1   5   4 14926.0 486.387   5
  -1  -4  -3 56524.3 903.924   2
   1   4   3 48816.5 962.555   5
  -1  -4  -3 66588.0 1047.20   7
   1   4   3 59760.4 1030.75   6
  -1  -4  -3 57819.8 806.912   3
  -1  -3  -2 121230. 1549.97   2
   1   3   2 115993. 1618.32   5
  -1  -3  -2 116477. 1637.13   5
  -1  -3  -2 118645. 1440.63   3
   1   3   2 119207. 1661.85   6
  -1  -2  -1 140929. 1601.33   3
  -1  -2  -1 139954. 1694.81   2
  -1  -2  -1 147263. 1735.58   5
   1   2   1 141136. 1755.51   7
   1   2   1 143617. 1686.29   2
   1   2   1 143630. 1775.14   6
  -1  -1   0 70506.7 777.745   3
  -1  -1   0 70205.5 835.485   2
   1   1   0 66228.3 771.725   3
   1   1   0 66172.3 829.022   2
  -1   0   1 285699. 3011.88   5
   1   0  -1 289661. 3027.28   3
  -1   1   2 6624.27 200.897   5
   1  -1  -2 6498.43 145.058   4
  -1   1   2 6790.63 200.261   1
  -1   1   2 6323.14 143.000   4
   1  -1  -2 6932.23 142.375   6
   1  -2  -3 61155.3 860.876   4
   1  -2  -3 59994.9 824.959   6
  -1   2   3 61642.2 824.937   6
  -1   2   3 62375.6 858.724   4
  -1   3   4 2127.82 115.399   6
  -1   3   4 1868.32 151.898   5
   1  -3  -4 1959.22 124.151   4
   1  -3  -4 2013.35 117.837   6
   1  -4  -5 34636.4 737.597   7
   1  -4  -5 30476.4 623.524   6
  -1   4   5 30519.0 778.269   5
  -1   4   5 33629.2 636.909   6
   1  -5  -6 16001.2 532.876   7
  -1   5   6 16076.7 596.390   5
   1  -6  -7 8577.95 421.709   7
  -1   6   7 8797.43 473.917   5
  -1   7   8 2668.77 281.737   5
   1  -7  -8 2663.36 257.554   7
   1  -7  -8 2811.68 218.198   3
  -1   7   8 3247.30 230.038   6
   1  -8  -9 1271.25 183.468   7
  -1   8   9 1272.78 212.291   5
  -1   8   9 1441.31 242.884   1
  -1  -9  -7 1514.54 215.740   7
   1   9   7 1914.71 240.021   5
   1   9   7 1921.60 219.607   6
   1   8   6 1958.11 209.489   6
  -1  -8  -6 1728.58 212.507   7
   1   8   6 1817.27 217.786   5
   1   7   5 2700.91 221.552   6
   1   7   5 2811.79 242.751   5
  -1  -7  -5 2939.11 187.424   2
  -1  -6  -4 7818.99 284.594   2
   1   6   4 7978.64 359.260   6
   1   5   3 13661.6 440.363   6
  -1  -5  -3 13004.7 298.775   3
   1   5   3 12662.8 429.932   5
  -1  -4  -2 57015.1 763.398   3
   1   4   2 51277.9 926.149   6
   1   4   2 48010.2 909.887   5
  -1  -4  -2 50445.0 799.621   2
  -1  -4  -2 57421.6 945.148   7
  -1  -4  -2 53819.4 962.547   5
   1   3   1 18341.4 421.492   6
  -1  -3  -1 20675.2 326.502   3
   1   3   1 12753.1 360.308   7
  -1  -3  -1 21998.7 448.267   5
  -1  -3  -1 15088.1 390.298   7
  -1  -3  -1 19009.0 353.628   2
   1   3   1 18975.6 411.710   5
   1   3   1 20561.8 355.903   2
   1   2   0 229475. 2576.91   5
   1   2   0 209396. 2484.80   3
   1   2   0 228653. 2604.48   7
  -1  -2   0 219160. 2496.76   3
   1   2   0 233890. 2535.56   2
   1   2   0 198973. 2538.08   4
  -1  -1   1 70371.5 1018.60   1
   1   1  -1 80983.3 1005.67   8
   1   1  -1 73013.2 932.468   4
   1   1  -1 85433.7 1039.31   7
  -1  -1   1 92321.4 1015.63   8
  -1  -1   1 80118.7 994.727   3
   1   1  -1 76399.7 986.024   3
   1   0  -2 112986. 1352.79   3
  -1   0   2 104761. 1385.67   1
   1  -1  -3 60086.3 711.295   6
  -1   1   3 50391.8 670.883   4
  -1   1   3 55940.8 844.263   1
  -1   1   3 46677.9 788.351   5
  -1   1   3 38465.5 661.405   6
   1  -1  -3 48750.1 740.532   3
  -1   2   4 1111.82 80.9667   4
   1  -2  -4 1041.40 78.7965   6
  -1   2   4 1158.32 110.921   5
  -1   2   4 1176.04 81.0081   6
   1  -3  -5 27320.9 569.351   6
  -1   3   5 29220.9 567.914   6
  -1   4   6 6867.34 276.612   6
  -1   4   6 6096.47 336.107   5
   1  -4  -6 6218.00 308.305   7
   1  -5  -7 7056.48 315.512   3
  -1   5   7 6658.14 390.543   5
  -1   5   7 7215.25 311.246   6
  -1   6   8 1170.77 173.267   5
   1  -6  -8 935.529 118.495   3
  -1   6   8 1093.46 126.869   6
   1  -6  -8 980.401 148.902   7
   1  -7  -9 2031.29 238.115   7
   1  -7  -9 2330.35 204.042   2
  -1   7   9 2260.49 297.223   1
  -1   7   9 2347.58 274.282   5
  -1   8  10 1133.26 223.331   1
   1  -8 -10 1148.65 186.518   7
   1   9   6 31.6809 17.7623   6
  -1  -9  -6 59.5107 28.4558   7
   1   8   5 348.578 80.7039   5
  -1  -8  -5 490.361 74.8483   2
   1   8   5 474.904 92.4811   6
  -1  -8  -5 370.158 93.0505   7
  -1  -7  -4 2315.45 211.284   7
  -1  -7  -4 2634.18 161.939   2
   1   7   4 2044.84 200.156   5
   1   7   4 2099.92 192.451   6
   1   6   3 26.7065 14.6692   5
  -1  -6  -3-10.5269 16.8485   7
  -1  -6  -3-7.70793 11.6683   2
  -1  -5  -2 679.920 63.3402   3
   1   5   2 622.444 88.0900   5
  -1  -5  -2 670.375 89.9576   7
  -1  -5  -2 720.006 68.2041   2
   1   5   2 671.693 88.8426   6
   1   4   1 9323.48 298.322   7
   1   4   1 8045.37 267.281   4
   1   4   1 8307.70 293.016   5
   1   4   1 7921.87 293.150   6
  -1  -4  -1 9012.45 227.548   3
  -1  -4  -1 8504.04 308.186   5
   1   3   0 2491.78 136.178   1
  -1  -3   0 1766.20 113.933   7
   1   3   0 2574.39 133.259   5
  -1  -3   0 2490.08 118.069   4
   1   3   0 2474.70 99.2341   3
   1   3   0 2416.42 115.186   4
  -1  -3   0 2487.93 101.838   3
  -1  -3   0 1917.54 88.2584   2
   1   3   0 2645.30 99.8625   2
   1   3   0 2371.60 121.802   7
  -1  -2   1 326.021 41.8612   1
   1   2  -1 430.405 34.1792   4
   1   2  -1 477.401 49.4163   7
  -1  -2   1 456.363 40.3393   3
   1   2  -1 348.809 34.3648   3
   1   2  -1 473.348 39.5905   2
  -1  -2   1 436.810 35.7469   4
   1   1  -2 31231.7 461.304   7
  -1  -1   2 29946.2 480.389   1
   1   0  -3 2489.75 112.789   3
  -1   0   3 2420.05 137.913   1
   1   0  -3 2069.16 101.747   6
  -1   0   3 2445.39 74.2401   4
  -1   0   3 2369.29 114.464   3
  -1   1   4 9184.99 307.705   5
  -1   1   4 9093.96 227.802   4
  -1   1   4 10137.0 264.158   6
  -1   1   4 9656.72 335.292   1
   1  -1  -4 9093.33 263.229   3
   1  -2  -5 20682.4 411.554   3
   1  -2  -5 21205.2 399.661   6
  -1   2   5 19850.8 381.618   6
  -1   2   5 20776.9 507.667   5
  -1   2   5 20789.7 551.966   1
  -1   3   6 533.552 91.2215   5
  -1   3   6 664.356 77.8174   6
   1  -3  -6 685.169 82.2286   3
   1  -4  -7 4974.14 250.325   3
  -1   4   7 4191.51 294.286   5
  -1   4   7 4389.45 230.819   6
  -1   5   8 207.696 68.0671   5
  -1   5   8 300.298 62.8333   6
   1  -5  -8 274.986 60.5251   3
   1  -5  -8 256.763 74.6788   7
   1  -6  -9 3105.74 280.490   7
   1  -6  -9 3034.56 221.664   3
  -1   6   9 2917.79 228.800   6
  -1   6   9 2727.62 283.008   5
  -1   6   9 2738.29 316.535   1
  -1   7  10 390.269 131.446   1
   1  -7 -10 444.755 113.154   7
   1  10   6 573.177 131.051   5
   1  10   6 785.091 138.497   6
  -1 -10  -6 587.147 134.053   7
  -1  -9  -5 1299.08 182.661   7
   1   9   5 1159.16 171.729   5
   1   9   5 1260.34 162.228   6
   1   8   4 6226.40 351.525   6
  -1  -8  -4 6804.49 268.350   2
   1   8   4 6031.45 375.395   5
  -1  -7  -3 2272.84 196.767   7
   1   7   3 2835.87 220.148   6
  -1  -7  -3 2109.10 135.602   2
   1   7   3 2482.54 216.915   5
   1   6   2 17194.1 506.396   6
   1   6   2 18321.5 566.357   5
  -1  -5  -1 241.176 47.5013   4
   1   5   1 163.266 41.1951   6
  -1  -5  -1 210.296 32.2069   2
  -1  -5  -1 217.617 48.5524   7
   1   5   1 161.283 43.0318   5
  -1  -5  -1 262.213 38.9838   3
   1   4   0 1677.10 107.636   4
  -1  -4   0 1729.17 85.9626   2
   1   4   0 2060.75 105.557   3
  -1  -4   0 1625.75 108.193   4
   1   4   0 1765.57 112.361   7
  -1  -4   0 1321.96 106.445   7
  -1  -4   0 1946.61 101.754   3
   1   4   0 1578.01 122.176   5
   1   4   0 1777.11 84.7524   2
   1   4   0 1199.23 103.348   1
  -1  -3   1 965.894 79.9958   7
   1   3  -1 981.335 65.4256   3
   1   3  -1 1150.32 64.9311   2
   1   3  -1 1055.10 67.1286   4
  -1  -3   1 1233.78 75.0683   3
  -1  -3   1 1078.11 69.7478   4
  -1  -3   1 1179.33 88.0334   1
   1   3  -1 1019.34 83.0297   1
   1   3  -1 1486.49 94.4356   7
  -1  -2   2 39.0548 10.0670   4
   1   2  -2 43.0258 10.7138   4
  -1  -2   2 32.3953 16.1573   7
   1   2  -2 37.6532 14.7965   3
  -1  -2   2 49.0533 20.0656   1
   1   2  -2 47.4223 12.5226   8
   1   2  -2 55.2549 19.3022   7
  -1  -1   3 42598.9 743.480   1
   1   1  -3 46425.9 683.394   3
  -1   0   4 1625.99 128.804   1
   1   0  -4 1816.24 102.979   6
  -1   0   4 1709.16 105.695   3
  -1   0   4 1608.04 74.6599   4
   1   0  -4 1602.74 99.5808   3
  -1   1   5 1382.43 135.350   1
  -1   1   5 1173.37 99.1823   6
   1  -1  -5 1669.83 112.079   6
   1  -1  -5 1447.76 105.010   3
  -1   1   5 1418.54 91.1106   4
   1  -2  -6 519.039 67.7774   3
  -1   2   6 571.999 101.239   1
  -1   2   6 678.200 79.7055   6
  -1   2   6 623.611 95.5777   5
   1  -3  -7 13714.0 402.613   3
  -1   3   7 12922.8 552.021   1
  -1   3   7 12147.6 482.967   5
  -1   4   8 317.119 63.0653   6
  -1   4   8 169.696 69.5690   1
   1  -4  -8 145.472 53.9541   7
   1  -4  -8 117.640 36.4187   3
  -1   5   9 4263.32 381.600   1
   1  -5  -9 4363.19 319.521   7
  -1   5   9 4506.28 280.035   6
   1  -5  -9 4536.40 262.040   3
   1  -6 -10 13.2565 33.6630   7
  -1   6  10-1.30536 66.8572   1
  -1   6  10 31.7579 33.0944   6
  -1   7  11 247.576 102.524   1
   1  10   5 3056.31 267.354   6
   1  10   5 2895.30 292.817   5
   1   9   4 111.916 61.5618   5
   1   9   4 120.346 51.2951   6
  -1  -9  -4 78.2113 41.5592   7
  -1  -8  -3 739.726 78.1802   2
  -1  -8  -3 792.572 123.117   7
   1   8   3 876.957 135.595   5
   1   8   3 986.658 137.119   6
  -1  -7  -2 14806.9 348.395   2
   1   7   2 13656.9 527.081   5
  -1  -7  -2 14281.2 503.720   7
   1   6   1 1469.22 146.578   5
  -1  -6  -1 1444.88 87.5127   2
  -1  -6  -1 1899.79 158.519   7
   1   6   1 1525.29 142.627   6
  -1  -6  -1 1581.24 135.631   4
   1   5   0 119263. 1521.35   2
  -1  -5   0 120268. 1620.05   3
  -1  -5   0 125437. 1546.08   2
   1   5   0 112310. 1765.79   5
  -1  -5   0 121137. 1702.88   4
  -1  -5   0 131410. 1769.48   7
   1   5   0 125262. 1635.02   3
   1   4  -1 23533.6 472.602   7
   1   4  -1 20860.0 415.863   4
   1   4  -1 20597.7 496.087   5
   1   4  -1 19683.0 466.486   1
  -1  -4   1 20909.7 422.527   4
   1   4  -1 20951.0 365.606   2
  -1  -4   1 23338.9 493.931   1
  -1  -4   1 22086.7 424.341   3
  -1  -4   1 18371.9 456.432   7
   1   4  -1 22041.4 416.544   3
  -1  -3   2 102577. 1284.35   4
  -1  -3   2 107039. 1411.87   1
  -1  -3   2 96199.6 1383.11   7
   1   3  -2 95210.2 1331.28   3
  -1  -3   2 108390. 1358.07   3
   1   3  -2 104473. 1296.78   4
   1   3  -2 108995. 1448.44   1
   1   3  -2 112029. 1396.97   7
  -1  -2   3 1098.69 55.9647   8
   1   2  -3 753.858 64.6101   3
  -1  -2   3 893.909 85.2256   1
  -1  -2   3 857.570 43.1743   4
   1   2  -3 1079.26 81.5111   7
   1   1  -4 6084.45 204.872   3
  -1  -1   4 6423.25 256.689   1
  -1  -1   4 6185.53 208.543   3
  -1   0   5 9708.04 376.489   1
   1   0  -5 10837.4 307.246   6
   1   0  -5 10085.0 291.989   3
  -1   0   5 9794.59 296.743   3
  -1   1   6 1255.52 145.190   1
   1  -1  -6 1287.28 104.153   3
   1  -2  -7 12362.7 378.112   3
  -1   2   7 11864.9 513.178   1
   1  -3  -8 2049.66 194.099   7
   1  -3  -8 2430.79 174.402   3
  -1   3   8 2442.56 252.367   1
   1  -4  -9 4569.79 317.147   7
   1  -4  -9 4316.99 246.343   3
  -1   4   9 4372.15 372.166   1
  -1   4   9 4421.74 276.198   6
   1  -5 -10 431.425 102.819   7
  -1   5  10 457.092 94.2033   6
  -1   5  10 297.460 112.307   1
   1  -6 -11 1801.28 236.611   7
  -1   6  11 1475.05 253.962   1
   1  11   5 2148.62 265.711   5
  -1 -11  -5 3179.47 322.117   7
   1  10   4 170.559 74.6421   5
   1  10   4 169.908 61.7890   6
  -1 -10  -4 49.5103 37.1193   7
   1   9   3 3460.96 271.080   6
  -1  -9  -3 2763.41 255.777   7
   1   9   3 2951.22 272.919   5
   1   8   2 1053.73 133.470   6
   1   8   2 887.014 135.901   5
  -1  -8  -2 1087.93 144.451   7
  -1  -8  -2 1142.92 84.7370   2
  -1  -7  -1 5594.60 180.508   2
   1   7   1 5568.11 312.532   5
   1   7   1 6078.83 304.659   6
  -1  -7  -1 6284.55 297.071   4
  -1  -6   0 3476.94 194.760   4
  -1  -6   0 2819.75 186.299   7
   1   6   0 3468.48 221.980   5
   1   5  -1 1661.41 108.027   3
  -1  -5   1 2077.24 145.327   7
   1   5  -1 1711.61 123.909   7
   1   5  -1 1743.43 116.229   4
   1   5  -1 1813.69 89.4481   2
  -1  -5   1 1923.31 122.002   4
   1   5  -1 1749.94 145.216   5
  -1  -4   2 49037.6 818.828   1
  -1  -4   2 47591.5 757.024   3
   1   4  -2 56747.6 819.225   7
   1   4  -2 43496.1 805.930   1
   1   4  -2 43698.6 708.705   4
  -1  -4   2 42913.1 697.764   4
   1   4  -2 46193.3 732.434   3
  -1  -4   2 41049.0 761.599   7
   1   4  -2 56156.6 756.934   2
   1   3  -3 815.317 70.1047   3
  -1  -3   3 1040.58 85.7878   7
   1   3  -3 990.249 83.1851   7
   1   3  -3 1148.63 103.286   1
   1   3  -3 858.866 58.0884   4
  -1  -3   3 853.414 53.2494   4
   1   3  -3 944.972 53.6457   8
  -1  -3   3 955.901 89.0315   1
  -1  -2   4 54938.8 967.215   1
   1   2  -4 56185.2 866.530   3
  -1  -2   4 53929.7 758.111   8
  -1  -1   5 7015.62 311.463   1
   1   1  -5 6727.34 246.229   6
  -1  -1   5 7604.08 255.447   3
   1   1  -5 7586.34 247.339   3
  -1   0   6 9092.82 250.555   4
   1   0  -6 9544.86 303.883   3
  -1   0   6 9954.48 415.479   1
  -1   1   7 27124.4 801.418   1
   1  -1  -7 26523.1 589.087   3
  -1   2   8 15.6610 27.6774   1
  -1   2   8 31.9466 21.8915   6
   1  -2  -8-12.7588 24.5012   3
  -1   3   9 4710.15 376.963   1
   1  -3  -9 5191.14 265.826   3
   1  -3  -9 5054.46 323.192   7
  -1   3   9 4649.44 286.463   6
   1  -4 -10 131.019 60.3816   7
  -1   4  10 102.559 57.6724   1
   1  -4 -10 93.6224 34.9647   3
  -1   5  11 4170.87 429.666   1
   1  -5 -11 3723.50 330.656   7
  -1 -11  -4 882.330 164.498   7
   1  11   4 856.845 142.929   6
   1  11   4 918.777 168.416   5
   1  10   3 233.123 83.1788   5
   1  10   3 308.546 86.9202   6
  -1 -10  -3 327.909 91.3997   7
   1   9   2 2790.97 234.955   6
   1   9   2 2515.13 247.297   5
  -1  -9  -2 3058.77 251.587   7
   1   8   1 5441.55 305.225   6
   1   8   1 4898.00 315.384   5
  -1  -8  -1 5425.61 296.541   4
  -1  -8  -1 5465.16 307.142   7
  -1  -7   0 10961.6 388.698   4
   1   7   0 10710.0 430.418   5
   1   6  -1 8127.36 282.559   3
  -1  -6   1 9131.50 341.149   7
   1   6  -1 8782.58 211.204   2
  -1  -6   1 9891.97 320.944   4
   1   6  -1 9093.26 375.394   5
  -1  -5   2 568.320 62.5226   4
   1   5  -2 640.295 76.6779   7
  -1  -5   2 496.757 69.4422   1
   1   5  -2 558.777 63.7622   4
   1   5  -2 670.105 89.8057   5
   1   5  -2 641.356 69.8192   3
   1   5  -2 676.958 58.0863   2
  -1  -5   2 563.237 70.6476   7
  -1  -4   3 103779. 1287.03   4
   1   4  -3 100030. 1249.16   8
  -1  -4   3 104076. 1460.42   1
   1   4  -3 103282. 1400.66   7
   1   4  -3 109807. 1329.06   4
   1   4  -3 100656. 1368.75   3
  -1  -4   3 94875.3 1384.75   7
  -1  -3   4 361.915 64.0402   1
  -1  -3   4 341.376 35.8736   4
   1   3  -4 343.917 52.6133   7
   1   3  -4 281.752 45.4176   3
   1   3  -4 108.368 35.9052   1
  -1  -3   4 269.256 26.2810   8
  -1  -2   5 27838.8 657.753   1
   1   2  -5 29746.9 564.762   3
  -1  -2   5 28786.7 578.780   3
  -1  -1   6 2618.53 202.991   1
   1   1  -6 2541.49 149.882   3
  -1   0   7 2873.48 236.829   1
   1   0  -7 2585.38 156.545   3
   1  -1  -8 534.240 77.4390   3
  -1   1   8 574.046 114.065   1
   1  -2  -9 3710.40 222.913   3
  -1   2   9 3808.83 334.275   1
   1  -3 -10 1964.64 210.224   7
   1  -3 -10 2019.67 173.681   3
  -1   3  10 1775.23 248.581   1
   1  -4 -11 353.450 99.7782   7
  -1   4  11 349.665 133.919   1
  -1   5  12 148.433 77.2848   1
   1  -5 -12 148.962 69.5966   7
  -1 -12  -4-0.65237 39.8281   7
   1  12   4-74.0442 51.9179   5
   1  11   3 148.654 58.8230   6
  -1 -11  -3 165.156 64.0588   7
   1  11   3 225.913 83.5358   5
   1  10   2 1044.15 151.667   6
  -1 -10  -2 854.596 142.865   7
   1  10   2 1043.54 169.299   5
  -1  -9  -1 586.574 105.720   7
   1   9   1 577.780 99.8217   6
   1   9   1 570.152 116.552   5
  -1  -8   0 7678.29 364.285   7
   1   8   0 7345.94 386.721   5
  -1  -8   0 7754.30 349.646   4
   1   7  -1 1786.52 136.614   3
  -1  -7   1 1888.69 159.344   7
   1   7  -1 2075.17 91.3833   2
  -1  -7   1 2079.88 157.643   4
   1   7  -1 2060.43 188.849   5
  -1  -6   2 8583.78 327.088   1
   1   6  -2 8800.96 227.757   2
   1   6  -2 8825.93 294.036   3
   1   6  -2 8553.89 369.004   5
  -1  -6   2 9086.19 295.590   4
  -1  -5   3 130.870 28.5410   4
   1   5  -3 227.990 44.0132   7
   1   5  -3 127.055 29.8545   3
  -1  -5   3 73.9457 28.5214   1
   1   5  -3 155.732 32.9640   4
  -1  -5   3 110.361 32.7963   7
   1   4  -4 16500.4 355.114   4
  -1  -4   4 16097.2 323.945   4
   1   4  -4 15360.7 393.607   3
  -1  -4   4 14510.9 392.120   7
   1   4  -4 14911.5 399.661   7
  -1  -4   4 16006.3 445.324   1
   1   3  -5 6592.26 262.051   7
  -1  -3   5 8033.28 176.168   8
   1   3  -5 6559.89 242.949   3
  -1  -3   5 7333.66 198.142   4
  -1  -3   5 7525.32 318.276   1
  -1  -2   6 7514.52 338.120   1
   1   2  -6 8221.66 281.202   3
   1   1  -7 17936.6 465.135   3
  -1  -1   7 18249.2 613.570   1
   1   0  -8 7779.93 305.814   3
  -1   0   8 8073.34 435.679   1
   1  -1  -9 242.547 54.4338   3
  -1   1   9 257.990 82.2308   1
   1  -2 -10 1627.06 191.347   7
   1  -2 -10 1744.66 159.699   3
  -1   2  10 1523.41 226.035   1
   1  -3 -11 1305.66 144.622   3
  -1   3  11 1419.95 237.204   1
   1  -3 -11 1167.85 177.134   7
   1  -4 -12 19.0081 31.9944   7
  -1   4  12 78.6473 67.5519   1
  -1 -12  -3 499.255 122.803   7
   1  12   3 613.394 127.385   6
   1  12   3 362.455 100.445   5
  -1 -11  -2 1203.75 179.717   7
   1  11   2 1130.31 166.725   6
   1  11   2 985.409 172.136   5
  -1 -10  -1-2.05926 15.2184   7
   1  10   1 12.0976 28.1058   5
   1  10   1-1.85929 43.6494   6
  -1  -9   0 10723.0 443.484   4
   1   9   0 10234.2 493.539   5
  -1  -8   1 2727.51 206.432   7
   1   8  -1 2773.86 234.251   5
  -1  -8   1 2613.44 191.063   4
  -1  -7   2 6813.24 312.999   1
   1   7  -2 6326.69 343.778   5
   1   7  -2 7398.57 205.048   2
  -1  -7   2 8535.03 311.485   4
  -1  -7   2 7714.83 318.230   7
   1   7  -2 7458.75 299.016   3
  -1  -6   3 95.3274 25.8267   4
  -1  -6   3 39.0864 16.9695   7
   1   6  -3 119.455 35.6745   7
   1   6  -3 79.4828 23.3544   2
   1   6  -3 89.2088 26.2457   3
  -1  -6   3 61.3721 14.1996   1
  -1  -5   4 12075.5 388.757   1
   1   5  -4 10415.1 220.527   8
   1   5  -4 11235.0 335.047   3
   1   5  -4 11378.9 314.197   4
  -1  -5   4 11117.4 285.989   4
  -1  -4   5 36535.1 607.250   4
   1   4  -5 37105.2 721.488   7
   1   4  -5 39767.0 724.829   3
  -1  -4   5 40138.7 843.171   1
  -1  -3   6 4331.47 258.705   1
  -1  -3   6 4190.80 160.574   4
  -1  -3   6 3641.47 130.147   8
   1   3  -6 4381.45 206.448   3
  -1  -2   7 8142.86 389.577   1
   1   2  -7 8713.54 307.229   3
   1   1  -8 3335.64 195.237   3
  -1  -1   8 3455.44 275.529   1
   1   0  -9 4710.26 248.352   3
  -1   0   9 4825.70 359.141   1
  -1   1  10 107.606 42.8264   1
   1  -1 -10 77.3851 31.6484   3
   1  -2 -11 505.021 114.168   7
  -1   2  11 448.054 130.785   1
   1  -2 -11 375.147 76.0539   3
   1  -3 -12 62.9570 39.0429   7
  -1   3  12 108.709 72.9957   1
  -1 -13  -3 335.697 110.557   7
   1  12   2 2442.32 255.884   6
  -1 -12  -2 2096.85 253.889   7
   1  12   2 2364.97 284.420   5
  -1 -11  -1 110.184 45.7751   7
   1  11   1 125.808 55.6745   6
   1  11   1 85.8706 49.5060   5
  -1 -10   0 1624.52 187.689   7
   1  10   0 1337.89 184.657   5
  -1 -10   0 1240.08 155.546   4
   1  10   0 1543.38 181.756   6
   1   9  -1 132.928 48.3119   5
  -1  -9   1 199.668 55.3072   4
  -1  -9   1 133.615 47.7441   7
   1   8  -2 18633.9 342.408   2
   1   8  -2 18570.1 645.701   5
  -1  -8   2 17429.7 536.877   7
  -1  -7   3 7235.58 277.698   4
   1   7  -3 6827.81 280.939   3
  -1  -7   3 6166.68 287.548   7
   1   7  -3 7172.56 219.090   2
  -1  -7   3 5776.54 290.669   1
   1   7  -3 6173.81 344.923   5
   1   6  -4 5807.49 240.481   4
  -1  -6   4 6341.85 230.051   4
  -1  -6   4 6552.62 273.467   7
  -1  -6   4 5793.51 276.176   1
   1   6  -4 6144.02 183.758   8
  -1  -5   5 15061.8 474.994   1
  -1  -5   5 15857.7 357.319   4
   1   5  -5 16227.9 435.201   3
  -1  -4   6 825.518 113.660   1
  -1  -4   6 728.855 66.5486   4
   1   4  -6 850.739 93.9155   3
  -1  -3   7 54.3166 32.6736   1
   1   3  -7 48.7648 11.6391   3
  -1  -3   7 48.5373 17.8298   4
   1   2  -8 139.732 41.9025   3
  -1  -2   8 122.793 50.7207   1
  -1  -1   9 4140.74 328.052   1
   1   1  -9 4315.11 236.339   3
  -1   0  10 774.137 157.771   1
   1   0 -10 599.851 94.8180   3
  -1   1  11 941.158 181.154   1
   1  -1 -11 882.693 116.442   3
   1  -2 -12-5.60356 38.6774   7
  -1   2  12 80.8927 68.2332   1
   1  -3 -13 548.470 127.080   7
  -1   3  13 518.090 169.753   1
  -1 -13  -2-31.4090 30.6078   7
   1  13   2 1.71862 45.6994   5
   1  12   1-12.1458 58.4531   5
   1  12   1 36.6710 41.6586   6
  -1 -12  -1 47.2403 45.9517   7
  -1 -11   0 1931.23 205.541   4
   1  11   0 1849.82 235.667   5
  -1 -11   0 1900.17 206.909   7
   1  11   0 2005.81 217.072   6
  -1 -10   1 1030.52 133.722   4
   1  10  -1 676.868 130.994   5
  -1 -10   1 927.277 135.441   7
   1   9  -2 7902.44 438.480   5
  -1  -9   2 8748.57 367.586   4
   1   8  -3 2995.97 254.472   5
  -1  -8   3 2984.12 191.761   4
   1   8  -3 3144.26 137.475   2
   1   8  -3 3581.08 222.443   3
  -1  -8   3 3720.41 231.506   7
  -1  -8   3 3057.91 219.852   1
  -1  -7   4 10965.9 409.849   1
  -1  -7   4 11137.3 346.487   4
   1   7  -4 10722.8 372.794   3
  -1  -7   4 10889.5 379.426   7
   1   6  -5 55.2135 35.3205   3
  -1  -6   5 75.6340 29.0738   7
   1   6  -5 38.9406 22.5105   4
  -1  -6   5 62.6852 33.8992   1
  -1  -6   5 32.3740 17.6554   4
   1   5  -6 4544.86 227.697   3
  -1  -5   6 4242.70 176.725   4
  -1  -5   6 4539.10 268.428   1
  -1  -4   7 1022.41 133.989   1
  -1  -4   7 1089.28 86.4464   4
   1   4  -7 1183.24 115.998   3
  -1  -4   7 1231.88 60.6261   8
  -1  -3   8 739.153 125.391   1
   1   3  -8 764.552 95.7815   3
  -1  -2   9 2303.51 234.111   1
   1   2  -9 2432.57 176.757   3
   1   1 -10 139.139 45.6370   3
  -1  -1  10 135.428 64.5220   1
  -1   0  11 518.999 128.830   1
   1   0 -11 415.733 78.0365   3
  -1   1  12 31.1098 35.2274   1
   1  -1 -12 153.395 50.3830   3
   1  -1 -12 91.4377 44.9129   7
   1  -2 -13 563.877 131.945   7
  -1   2  13 583.681 159.528   1
   1  13   1 370.214 120.093   5
   1  13   1 385.751 100.117   6
  -1 -13  -1 411.396 110.782   7
   1  12   0 32.3862 15.6738   6
  -1 -12   0 21.2898 24.8505   7
   1  11  -1 1317.40 194.668   5
  -1 -11   1 1566.81 179.247   4
  -1 -11   1 1321.63 170.262   7
  -1 -10   2 7792.58 375.663   4
   1  10  -2 7092.67 435.590   5
   1   9  -3 991.183 121.453   3
   1   9  -3 1199.81 171.828   5
  -1  -9   3 1231.99 131.278   4
  -1  -9   3 1404.26 149.468   7
  -1  -8   4 12553.5 463.870   1
   1   8  -4 14037.3 353.624   2
   1   8  -4 14053.3 456.114   3
  -1  -8   4 13993.9 455.697   7
   1   8  -4 12494.6 552.147   5
  -1  -8   4 14162.0 431.695   4
  -1  -7   5 605.346 85.4238   7
   1   7  -5 682.165 47.2516   8
  -1  -7   5 563.217 89.4340   1
   1   7  -5 584.568 83.3267   3
  -1  -7   5 520.595 68.2463   4
  -1  -6   6 35476.9 843.554   1
  -1  -6   6 36583.3 657.362   4
   1   6  -6 34908.5 750.704   3
  -1  -5   7 301.482 76.5047   1
  -1  -5   7 311.520 47.9794   4
   1   5  -7 355.974 66.3411   3
  -1  -4   8 2744.16 238.303   1
  -1  -4   8 2607.92 110.254   8
   1   4  -8 2597.67 181.152   3
  -1  -4   8 2397.64 142.086   4
  -1  -3   9 5456.05 359.476   1
   1   3  -9 5101.64 264.391   3
  -1  -2  10 3647.59 320.683   1
   1   2 -10 3498.93 223.207   3
  -1  -1  11 5056.60 414.635   1
   1   1 -11 5447.30 288.969   3
  -1   0  12 2545.51 317.445   1
   1   0 -12 2771.42 212.004   3
  -1   1  13 616.362 169.100   1
   1  -1 -13 455.143 117.310   7
   1  13   0 269.095 107.193   5
  -1 -13   0 248.454 80.0697   7
   1  13   0 194.733 73.7062   6
  -1 -12   1 167.495 65.2891   4
   1  12  -1 190.883 79.9742   6
  -1 -12   1 223.493 74.5751   7
   1  12  -1 155.757 76.9532   5
  -1 -11   2 2539.83 233.873   7
  -1 -11   2 2721.39 235.686   4
   1  11  -2 2424.61 266.808   5
   1  10  -3 229.768 60.3715   3
  -1 -10   3 252.985 63.1301   7
  -1 -10   3 323.699 74.8078   4
   1  10  -3 179.958 60.4172   5
  -1  -9   4 3633.78 223.720   4
  -1  -9   4 3396.37 244.933   1
   1   9  -4 3906.65 251.378   3
  -1  -9   4 3864.95 241.447   7
   1   9  -4 3464.13 294.118   5
   1   8  -5 1572.27 87.5924   8
  -1  -8   5 1709.73 153.977   7
  -1  -8   5 1692.44 136.252   4
  -1  -8   5 1467.36 154.641   1
   1   8  -5 1512.81 144.609   3
   1   7  -6 2887.91 200.779   3
  -1  -7   6 3146.93 228.852   1
  -1  -7   6 3323.38 175.043   4
  -1  -6   7 5179.66 215.794   4
  -1  -6   7 4660.63 294.303   1
   1   6  -7 5325.05 268.961   3
  -1  -5   8 5989.49 356.319   1
  -1  -5   8 5620.02 223.073   4
   1   4  -9 94.4039 25.1753   3
  -1  -4   9 101.608 32.2661   4
  -1  -4   9 86.1359 19.9812   8
  -1  -4   9 74.4195 42.3062   1
   1   3 -10 665.054 98.1655   3
  -1  -3  10 327.688 94.6940   1
  -1  -2  11 2402.97 274.800   1
   1   2 -11 2390.15 193.909   3
  -1  -1  12 239.682 85.4657   1
   1   1 -12 143.586 43.8541   3
  -1   0  13 1091.86 216.412   1
   1   0 -13 1243.70 147.437   3
   1   0 -13 1070.18 174.470   7
   1  14   0 2128.09 297.716   5
  -1 -13   1 476.810 112.467   7
   1  13  -1 518.617 124.864   6
   1  13  -1 447.029 117.811   5
   1  12  -2 2369.77 277.664   5
  -1 -12   2 2340.64 236.368   7
  -1 -12   2 2831.05 256.416   4
  -1 -11   3 3.77973 16.3626   4
   1  11  -3 43.7054 42.1732   5
  -1 -11   3-11.6740 35.6624   7
  -1 -10   4 8094.75 373.830   7
   1  10  -4 5931.05 328.277   3
  -1 -10   4 6750.34 373.452   1
  -1 -10   4 7717.97 357.358   4
   1  10  -4 7188.77 453.031   5
   1   9  -5 2636.49 268.188   5
  -1  -9   5 3400.77 246.509   1
  -1  -9   5 2902.17 196.360   4
   1   9  -5 2367.61 193.100   3
  -1  -9   5 3079.80 217.240   7
  -1  -8   6 8864.88 318.454   4
  -1  -8   6 7835.89 379.555   1
   1   8  -6 7754.59 348.637   3
  -1  -7   7 1632.33 173.618   1
   1   7  -7 1675.35 156.276   3
  -1  -7   7 1810.94 129.323   4
  -1  -6   8 88.3196 48.8902   1
  -1  -6   8 69.1615 22.8816   4
   1   6  -8-4.43992 21.2961   3
  -1  -5   9 6482.89 399.520   1
  -1  -5   9 6760.52 261.306   4
  -1  -4  10 1590.19 208.054   1
  -1  -4  10 2056.75 151.060   4
   1   4 -10 1961.52 173.002   3
   1   3 -11 4665.33 279.464   3
  -1  -3  11 4627.72 380.379   1
  -1  -2  12 24.4642 35.6571   1
   1   2 -12 31.5284 26.4652   3
  -1  -1  13 622.335 161.385   1
   1   1 -13 589.597 104.178   3
   1   0 -14-13.6238 31.5114   7
  -1   0  14-84.5443 65.8137   1
   1  14  -1 31.8438 24.4986   5
  -1 -13   2 36.3480 25.4063   4
   1  13  -2 26.1169 42.7232   5
  -1 -12   3 2220.13 221.669   4
   1  12  -3 2271.17 280.387   5
  -1 -12   3 2223.55 216.723   7
  -1 -11   4 1476.80 163.108   4
  -1 -11   4 1433.55 162.542   7
   1  11  -4 1283.57 204.693   5
   1  11  -4 1358.52 162.121   3
  -1 -10   5 588.270 93.7238   4
  -1 -10   5 606.471 109.262   1
   1  10  -5 620.145 106.853   3
  -1 -10   5 689.779 107.686   7
   1  10  -5 478.722 118.585   5
  -1  -9   6 838.759 103.806   4
  -1  -9   6 966.675 133.623   1
   1   9  -6 844.029 116.768   3
   1   8  -7 241.381 58.1959   3
  -1  -8   7 304.909 55.6493   4
  -1  -8   7 261.765 76.9556   1
   1   7  -8 4801.62 276.909   3
  -1  -7   8 4900.69 222.578   4
  -1  -7   8 4136.27 297.380   1
  -1  -6   9 679.319 125.141   1
   1   6  -9 552.642 92.6580   3
  -1  -6   9 627.348 79.4661   4
  -1  -5  10 2227.46 243.599   1
  -1  -5  10 2411.25 158.595   4
   1   5 -10 2320.70 194.679   3
  -1  -4  11 979.972 109.167   4
  -1  -4  11 923.117 168.292   1
   1   4 -11 827.685 119.165   3
  -1  -3  12 1112.54 198.790   1
   1   3 -12 1089.26 141.823   3
   1   2 -13 33.5564 18.4635   3
  -1  -2  13 28.0693 62.1945   1
  -1  -1  14 170.149 91.5391   1
   1   1 -14 239.086 86.2560   7
   1  14  -2 443.110 115.881   6
   1  14  -2 428.420 138.858   5
  -1 -13   3 875.066 148.550   4
   1  13  -3 755.387 167.429   5
  -1 -12   4-57.0297 34.6345   7
  -1 -12   4 1.38357 30.1583   4
   1  12  -4-25.5878 54.6198   5
  -1 -11   5 1701.84 182.206   7
  -1 -11   5 2055.20 213.822   1
   1  11  -5 1569.83 226.400   5
   1  11  -5 1604.46 180.633   3
  -1 -11   5 1740.29 175.721   4
  -1 -10   6 515.951 100.327   1
   1  10  -6 501.731 101.238   3
  -1 -10   6 516.578 90.9988   7
  -1 -10   6 465.057 83.9286   4
   1  10  -6 486.713 117.879   5
  -1  -9   7 891.566 133.164   1
   1   9  -7 1067.23 136.094   3
  -1  -9   7 1057.17 114.970   4
  -1  -8   8 595.322 108.629   1
   1   8  -8 498.657 92.3379   3
  -1  -8   8 733.372 89.2551   4
  -1  -7   9 745.599 130.524   1
  -1  -7   9 805.902 92.0939   4
   1   7  -9 841.967 116.734   3
  -1  -6  10 676.691 84.7750   4
  -1  -6  10 697.152 138.602   1
   1   6 -10 633.241 103.351   3
   1   5 -11 741.261 114.548   3
  -1  -5  11 850.736 99.0457   4
  -1  -5  11 818.013 157.972   1
   1   4 -12 734.285 118.971   3
  -1  -4  12 677.856 154.833   1
  -1  -3  13 1632.82 251.255   1
   1   3 -13 1596.20 178.659   3
   1   2 -14 1385.05 169.244   3
  -1  -2  14 1365.83 242.933   1
  -1 -14   3 519.585 118.183   4
   1  14  -3 625.511 156.818   5
  -1 -13   4 1471.03 187.318   4
   1  13  -4 1498.81 240.535   5
  -1 -12   5 43.4192 29.6327   7
  -1 -12   5 127.690 44.6211   4
   1  12  -5 45.6690 30.5991   5
   1  11  -6 7036.57 497.558   5
  -1 -11   6 7764.27 380.666   7
  -1 -11   6 7417.45 363.406   4
   1  11  -6 7229.16 398.500   3
  -1 -10   7 2688.33 242.673   1
  -1 -10   7 3148.52 216.685   4
   1  10  -7 2961.88 240.525   3
  -1  -9   8 3432.04 206.180   4
  -1  -9   8 3315.03 271.919   1
   1   9  -8 2844.50 234.705   3
   1   8  -9 1305.43 154.793   3
  -1  -8   9 1193.17 115.206   4
  -1  -8   9 1238.80 171.048   1
  -1  -7  10 2760.34 177.757   4
   1   7 -10 2965.12 231.846   3
  -1  -7  10 2797.24 275.560   1
  -1  -6  11 3266.75 314.340   1
   1   6 -11 3356.66 249.521   3
  -1  -5  12 5396.39 433.133   1
   1   5 -12 5080.97 319.234   3
  -1  -4  13 1962.61 274.484   1
   1   4 -13 1761.13 189.385   3
  -1  -3  14 137.010 80.1075   1
   1   3 -14 75.2989 34.8341   3
  -1 -14   4 70.2240 49.6366   4
   1  14  -4 11.0378 26.1557   5
  -1 -13   5 3596.36 290.307   4
   1  13  -5 3275.69 361.896   5
   1  12  -6 62.8059 38.4000   3
  -1 -12   6 39.7012 40.1605   1
   1  12  -6-1.21215 44.2750   5
  -1 -12   6 32.8036 24.2636   4
   1  11  -7 138.266 58.4835   3
  -1 -11   7 184.434 66.8462   1
  -1 -11   7 227.837 61.5767   4
   1  11  -7 188.819 94.0761   5
   1  10  -8 7331.64 396.825   3
  -1 -10   8 8034.51 349.408   4
  -1  -9   9 60.5750 35.4458   1
   1   9  -9 67.6967 25.9056   3
  -1  -9   9 64.3010 28.6260   4
  -1  -8  10 2309.18 163.216   4
  -1  -8  10 1986.28 229.271   1
   1   8 -10 2269.13 213.439   3
   1   7 -11 219.249 62.8619   3
  -1  -7  11 175.906 73.0706   1
  -1  -6  12 1067.65 191.017   1
   1   6 -12 893.235 132.868   3
  -1  -5  13 3239.70 355.176   1
   1   5 -13 3547.56 275.291   3
  -1  -4  14 603.233 153.833   1
   1   4 -14 712.831 123.149   3
  -1 -14   5 916.854 155.013   4
   1  14  -5 879.683 199.385   5
  -1 -13   6 38.3900 30.1843   4
   1  13  -6-43.1520 54.4897   5
   1  12  -7 1659.14 202.718   3
  -1 -12   7 2030.85 226.284   1
  -1 -12   7 2280.88 208.982   4
   1  12  -7 1776.76 265.712   5
  -1 -11   8 1790.30 213.305   1
  -1 -11   8 1898.10 177.555   4
   1  11  -8 1695.69 255.755   5
   1  11  -8 1834.76 209.015   3
   1  10  -9-10.1808 11.1959   3
  -1 -10   9 37.7768 31.1936   1
  -1 -10   9 11.7513 16.8019   4
   1   9 -10-8.83649 37.8523   3
  -1  -9  10 50.3633 31.6320   1
   1   8 -11 39.8940 27.1972   3
  -1  -8  11 16.7944 19.4311   1
   1   7 -12 67.2317 33.7230   3
  -1  -7  12 75.6076 47.0159   1
   1   6 -13 187.227 61.1859   3
  -1  -6  13 264.640 97.5826   1
  -1  -5  14 59.5726 67.7048   1
   1   5 -14 93.0505 47.7531   3
  -1 -14   6-77.4316 60.8128   4
   1  14  -6 97.7565 64.7072   5
   1  13  -7 70.3779 38.8550   3
  -1 -13   7 37.0605 13.3114   4
   1  13  -7 93.2848 40.8032   5
   1  12  -8 213.543 74.2688   3
  -1 -12   8 183.742 58.7094   4
  -1 -12   8 85.9417 45.3643   1
   1  12  -8 139.653 85.9918   5
   1  11  -9 688.909 129.820   3
  -1 -11   9 811.039 147.760   1
   1  10 -10-28.4986 47.3600   3
  -1 -10  10-19.8055 42.1984   1
   1   9 -11 58.2902 20.5395   3
  -1  -9  11 194.650 72.8173   1
  -1  -8  12 178.643 81.4502   1
   1   8 -12 163.487 52.2127   3
  -1  -7  13 1065.55 205.572   1
   1   7 -13 1045.00 155.643   3
   1   6 -14 106.996 56.0227   3
  -1  -6  14 94.1102 69.9839   1
   1   5 -15 11.9621 35.9803   3
   1  13  -8 192.856 76.8014   3
  -1 -13   8 110.333 65.0715   1
   1  13  -8 101.967 50.7168   5
   1  12  -9 760.822 182.726   5
  -1 -12   9 735.511 135.991   1
   1  12  -9 985.358 165.038   3
   1  11 -10-36.5466 38.2760   3
  -1 -11  10 19.8901 60.5284   1
  -1 -10  11 71.9358 39.8584   1
   1  10 -11 61.6849 51.0659   3
   1   9 -12 46.2910 31.5517   3
  -1  -9  12-36.5493 59.4923   1
   1   8 -13 669.173 127.306   3
  -1  -8  13 608.407 145.587   1
  -1  -7  14 1891.12 285.839   1
   1   7 -14 1633.93 203.770   3
   1   6 -15 68.5473 43.0225   3
  -1 -13   9-32.3261 31.2707   1
  -1 -12  10 2349.70 263.199   1
   1  12 -10 2352.91 261.081   3
   1  11 -11-75.7275 47.3352   3
  -1 -11  11-23.6700 58.9342   1
  -1 -10  12 831.571 169.590   1
   1  10 -12 893.631 149.428   3
   1   9 -13 156.675 63.4294   3
  -1  -9  13 142.684 47.7361   1
   1   8 -14 46.9512 46.4156   3
  -1 -12  11 82.5571 33.9890   1
  -1 -11  12 648.967 144.029   1
  -1 -10  13 113.240 80.3696   1
   2 -13  10 301.544 83.9335   4
  -2   9 -13 246.763 71.8254   3
  -2   9 -13 152.156 64.9473   2
  -2  10 -12 636.766 126.224   3
  -2  10 -12 659.308 125.641   2
   2 -11  11 268.452 85.7028   4
   2 -12  10 476.133 112.459   4
  -2  12 -10 447.684 144.383   5
   2 -13   9 145.233 64.3399   4
   2 -14   8 324.585 90.2625   4
   2  -8  13-56.7855 46.1274   1
  -2   8 -13-0.59605 17.9241   3
  -2   9 -12-13.0175 25.2680   3
  -2   9 -12-31.3797 39.3806   2
   2  -9  12-2.03913 30.6397   4
  -2  10 -11-2.09737 25.5523   3
   2 -10  11 87.7500 57.8533   4
  -2  10 -11 116.290 61.9171   2
   2 -11  10-7.15722 16.4085   4
  -2  12  -9 264.591 119.308   5
   2 -12   9 271.489 82.6710   4
   2 -13   8 4.60470 33.9454   4
  -2  13  -8 43.2940 40.8052   5
   2 -14   7 172.874 69.3069   4
   2  -6  14 313.747 108.868   1
   2  -7  13 903.822 154.976   4
  -2   7 -13 943.849 169.899   2
   2  -7  13 957.114 189.814   1
   2  -8  12 847.720 160.392   1
   2  -8  12 698.247 134.145   4
  -2   8 -12 893.037 155.756   2
  -2   8 -12 945.882 144.650   3
  -2   9 -11-12.0176 35.5335   3
  -2   9 -11 79.6365 58.0073   2
   2  -9  11 48.0546 21.1425   1
   2  -9  11 13.6495 27.6949   4
   2 -10  10 916.392 147.500   4
  -2  10 -10 832.509 125.780   2
  -2  10 -10 833.523 138.420   3
   2 -11   9 96.2826 48.5054   4
  -2  11  -9 111.311 57.2990   5
   2 -12   8 889.988 143.193   4
  -2  12  -8 1016.86 211.632   5
   2 -13   7 197.903 65.3828   4
  -2  13  -7 487.588 146.430   5
  -2  14  -6-43.6527 52.4339   5
   2 -14   6-34.7346 31.1939   4
  -2   6 -13 1099.95 186.614   2
   2  -6  13 1053.08 169.068   4
   2  -6  13 1077.74 204.184   1
   2  -7  12 1311.76 206.263   1
   2  -7  12 1077.14 163.011   4
  -2   7 -12 1303.36 160.534   3
   2  -8  11 2587.93 247.927   4
   2  -8  11 2566.85 272.595   1
  -2   8 -11 2716.24 254.810   2
  -2   8 -11 3142.36 256.772   3
  -2   9 -10 4757.36 322.705   3
   2  -9  10 4662.46 320.663   4
   2  -9  10 4529.94 328.573   1
  -2   9 -10 4446.75 300.810   2
   2 -10   9 2036.14 211.970   4
  -2  10  -9 2008.66 183.045   2
   2 -10   9 2018.91 199.616   1
  -2  10  -9 2000.49 214.548   3
   2 -11   8 6982.71 398.633   4
  -2  11  -8 6666.41 518.279   5
  -2  12  -7 73.6890 25.3193   5
   2 -12   7 168.490 60.5909   4
   2 -13   6 2889.90 261.838   4
  -2  13  -6 3131.12 363.530   5
   2 -14   5-7.36313 26.7256   4
  -2  14  -5-34.0535 78.3179   5
  -2   4 -14-30.3104 30.7056   7
  -2   5 -13 178.289 85.3869   2
  -2   5 -13 120.795 50.7820   7
   2  -5  13-12.0875 52.2957   1
   2  -6  12 29.1355 33.0473   4
  -2   6 -12 69.5327 45.7376   3
   2  -7  11 1634.79 220.356   1
   2  -7  11 1636.78 195.390   4
  -2   7 -11 1875.07 190.479   3
   2  -8  10 121.542 48.5850   4
   2  -8  10 163.805 67.3814   1
  -2   8 -10 205.632 65.4758   3
  -2   9  -9 1789.01 191.628   3
   2  -9   9 1695.96 191.012   4
  -2   9  -9 1601.44 169.281   2
   2  -9   9 1569.32 178.206   1
   2 -10   8 256.754 66.8469   1
  -2  10  -8 336.044 69.3026   2
   2 -10   8 310.048 80.1712   4
   2 -11   7 1134.27 156.843   4
  -2  11  -7 1544.87 245.265   5
   2 -12   6 2174.61 216.950   4
  -2  12  -6 1988.38 278.757   5
   2 -13   5 246.337 71.4122   4
  -2  13  -5 230.540 90.3014   5
   2 -14   4 1798.42 220.447   4
  -2  14  -4 1301.04 238.461   5
  -2   3 -14-8.86419 22.2859   7
   2  -4  13 521.744 145.867   1
  -2   4 -13 196.619 63.9944   7
  -2   4 -13 364.233 111.057   2
  -2   5 -12 35.0143 26.5630   7
   2  -5  12 108.046 67.8294   1
  -2   6 -11 169.033 65.6405   3
  -2   6 -11 138.304 51.9556   7
   2  -6  11 107.917 74.6654   1
   2  -6  11 155.048 51.8788   4
   2  -7  10 2974.33 255.395   4
   2  -7  10 2825.26 270.539   1
  -2   7 -10 2994.55 193.859   7
  -2   7 -10 3108.13 236.063   3
   2  -8   9 541.986 102.499   4
  -2   8  -9 744.472 113.493   3
   2  -8   9 803.197 139.273   1
  -2   9  -8 1448.15 144.685   2
   2  -9   8 1244.88 157.540   4
  -2   9  -8 1541.26 171.702   3
   2  -9   8 1368.84 157.075   1
   2 -10   7 2602.66 197.638   1
   2 -10   7 2808.62 238.679   4
  -2  10  -7 2805.43 314.869   5
  -2  10  -7 2848.51 187.456   2
   2 -11   6 272.840 71.3103   4
  -2  11  -6 367.002 108.093   5
   2 -12   5 22.7310 12.7253   4
  -2  12  -5-15.5867 47.9942   5
   2 -13   4 180.731 59.9164   4
  -2  13  -4 265.767 100.235   5
   2 -14   3 113.483 64.4375   4
  -2  14  -3 17.1393 38.1707   5
  -2   2 -14 803.250 158.390   7
  -2   3 -13 220.732 74.5024   7
  -2   3 -13 410.621 124.485   2
   2  -3  13 446.514 138.048   1
   2  -4  12 3.62225 27.9388   1
  -2   4 -12 18.0259 10.8016   7
  -2   5 -11 4781.78 291.432   7
  -2   5 -11 4837.43 274.462   3
   2  -5  11 4276.25 366.297   1
  -2   6 -10 381.218 79.1107   3
  -2   6 -10 313.741 70.8126   7
   2  -6  10 348.081 89.6311   1
   2  -6  10 271.148 75.2407   4
  -2   7  -9 3363.43 190.039   7
   2  -7   9 3019.24 262.597   1
   2  -7   9 3125.76 251.553   4
  -2   7  -9 3627.33 250.393   3
   2  -8   8 4731.05 302.366   1
   2  -8   8 4626.06 297.853   4
  -2   8  -8 4691.84 288.522   3
  -2   9  -7 5281.88 317.661   3
  -2   9  -7 5093.56 257.477   2
   2  -9   7 5332.33 320.470   4
   2  -9   7 5502.47 291.046   1
   2 -10   6 9522.24 368.783   1
   2 -10   6 9566.57 446.029   4
  -2  10  -6 10174.8 329.866   2
   2 -11   5 1913.50 192.836   4
  -2  11  -5 1949.84 256.580   5
  -2  12  -4 1527.13 237.094   5
   2 -12   4 1717.19 190.133   4
  -2  13  -3 595.626 151.543   5
   2 -13   3 627.673 124.351   4
   2 -14   2 665.299 134.168   4
  -2  14  -2 734.290 178.315   5
   2  -2  13 1038.59 220.180   1
  -2   2 -13 1199.16 180.821   7
  -2   2 -13 1387.47 210.917   2
  -2   3 -12 340.132 86.7989   7
  -2   3 -12 329.884 95.8798   2
   2  -3  12 401.114 123.233   1
  -2   4 -11 37.8208 17.7984   3
  -2   4 -11 102.314 45.6864   7
   2  -4  11 74.5968 62.3958   1
  -2   5 -10 64.6002 33.2586   3
   2  -5  10 6.85253 34.1052   1
  -2   5 -10 43.9895 26.4153   7
   2  -6   9 1660.99 180.538   4
  -2   6  -9 1723.73 141.875   7
   2  -6   9 1774.95 199.101   1
  -2   6  -9 2138.82 182.295   3
   2  -7   8 1075.25 138.703   4
   2  -7   8 1057.59 143.054   1
  -2   7  -8 1117.37 129.833   3
   2  -8   7 2797.27 219.681   4
  -2   8  -7 2806.51 193.723   2
   2  -8   7 2865.21 208.075   1
  -2   8  -7 2787.50 217.047   3
   2  -9   6 4345.72 283.221   4
  -2   9  -6 4139.07 353.339   5
  -2   9  -6 4216.20 214.181   2
   2  -9   6 4060.47 227.372   1
   2 -10   5 913.682 132.135   4
   2 -10   5 1054.61 110.499   1
  -2  10  -5 1003.13 171.704   5
   2 -11   4 2068.09 199.514   4
  -2  11  -4 1942.27 252.210   5
   2 -12   3 1.67594 33.3146   4
  -2  12  -3-36.8927 47.1953   5
   2 -13   2 2385.12 245.015   4
  -2  13  -2 2243.43 294.350   5
   2 -14   1 442.891 111.155   4
  -2  14  -1 315.206 112.336   5
  -2   1 -13 275.975 90.7896   7
   2  -1  13 253.728 110.930   1
  -2   1 -13 287.211 95.1148   2
  -2   2 -12 117.113 68.7080   2
  -2   2 -12 33.3006 21.4699   7
   2  -2  12 109.155 84.0157   1
  -2   3 -11 174.836 40.6684   3
   2  -3  11 130.226 53.1880   1
  -2   3 -11 147.262 52.9148   7
  -2   4 -10 254.477 53.5999   3
   2  -4  10 191.155 75.5609   1
  -2   4 -10 219.542 54.3470   7
   2  -5   9 905.630 148.780   1
  -2   5  -9 1011.35 113.075   3
  -2   5  -9 953.470 111.128   7
   2  -6   8 3979.66 273.182   4
  -2   6  -8 4137.30 204.453   7
  -2   6  -8 4421.25 257.086   3
   2  -6   8 3729.66 270.164   1
   2  -7   7 636.592 100.085   1
  -2   7  -7 679.110 98.6333   3
   2  -7   7 539.957 91.4746   4
  -2   8  -6 1173.99 132.736   3
   2  -8   6 923.919 123.957   4
   2  -8   6 1102.82 117.248   1
  -2   8  -6 1055.18 108.551   2
  -2   9  -5 213.069 33.9819   8
   2  -9   5 138.885 36.7888   1
   2  -9   5 230.223 68.2894   4
  -2   9  -5 118.875 26.4429   2
  -2   9  -5 181.011 77.7954   5
   2 -10   4 3890.30 263.476   4
  -2  10  -4 4120.73 201.156   8
  -2  10  -4 3732.84 336.720   5
   2 -11   3 641.914 112.394   4
  -2  11  -3 658.315 143.468   5
   2 -12   2 1501.71 184.784   4
  -2  12  -2 1435.26 222.384   5
   2 -13   1 187.114 73.0411   4
  -2  13  -1 242.147 100.474   5
   2 -14   0 243.921 82.8144   4
  -2  14   0 217.151 100.722   5
  -2   0 -13 288.635 94.2578   7
  -2   1 -12 284.061 87.5990   7
   2  -1  12 126.462 73.4645   1
   2  -2  11 19.1973 34.7777   1
  -2   2 -11-10.2087 29.9441   7
  -2   3 -10 2711.76 216.545   7
   2  -3  10 2190.11 256.671   1
  -2   3 -10 2677.85 173.604   3
   2  -4   9 1818.22 214.433   1
  -2   4  -9 1646.19 152.362   7
  -2   4  -9 1787.05 143.558   3
  -2   5  -8 87.7084 29.3387   3
   2  -5   8 64.8189 36.3540   1
  -2   5  -8 46.8679 23.4649   7
   2  -6   7 512.305 93.0937   4
  -2   6  -7 604.070 73.1416   7
  -2   6  -7 578.817 86.2396   3
   2  -6   7 503.820 89.8240   1
   2  -7   6 637.857 98.9167   4
   2  -7   6 761.422 101.929   1
  -2   7  -6 689.163 58.2217   7
  -2   7  -6 719.458 93.4289   2
  -2   7  -6 749.969 101.470   3
   2  -8   5 9040.12 390.877   4
   2  -8   5 8515.18 308.642   1
  -2   8  -5 8791.66 294.253   2
  -2   8  -5 8986.26 486.512   5
   2  -9   4 45.9201 19.5640   1
  -2   9  -4 64.5703 22.6461   2
   2  -9   4 38.6031 32.9778   4
  -2   9  -4 1.02679 17.8348   5
  -2   9  -4 50.9551 23.8051   8
   2 -10   3 305.567 72.3561   4
  -2  10  -3 290.262 89.9373   5
   2 -11   2 710.576 117.247   4
  -2  11  -2 738.712 154.045   5
   2 -12   1 235.612 71.5376   4
  -2  12  -1 197.243 87.9002   5
   2 -13   0 1002.88 164.420   4
  -2  13   0 1204.85 216.385   5
  -2   0 -12 3048.29 297.016   2
  -2   0 -12 3108.19 292.421   7
   2   0  12 3073.42 375.371   1
   2  -1  11 2431.14 309.367   1
  -2   1 -11 2807.82 255.303   7
  -2   1 -11 2964.73 277.989   2
  -2   2 -10 26.4591 17.8035   3
  -2   2 -10 85.3824 36.2388   7
   2  -2  10 67.4352 58.2721   1
  -2   3  -9 87.5337 29.0561   3
   2  -3   9 9.46540 36.2282   1
  -2   3  -9 122.198 39.5010   7
  -2   4  -8-19.6342 25.2277   3
   2  -4   8-18.7437 24.9959   1
  -2   4  -8 23.5736 20.7731   7
   2  -4   8-2.20552 20.0805   8
   2  -5   7 2243.38 196.235   1
   2  -5   7 2447.75 129.214   8
  -2   5  -7 2529.41 172.060   3
   2  -6   6 3690.45 234.200   4
  -2   6  -6 3816.48 158.004   7
  -2   6  -6 3569.00 210.096   3
   2  -6   6 3651.90 225.770   1
   2  -7   5 981.897 119.601   4
  -2   7  -5 1066.31 98.5694   2
  -2   7  -5 1227.23 58.1822   7
   2  -7   5 1125.07 106.962   1
  -2   7  -5 1030.69 112.612   3
   2  -8   4 4835.87 202.349   1
   2  -8   4 4706.22 267.307   4
  -2   8  -4 4414.78 172.105   8
  -2   8  -4 4530.20 177.429   2
  -2   8  -4 4442.71 326.615   5
   2  -9   3 11.9701 10.9271   4
  -2   9  -3 18.6581 21.6861   5
   2 -10   2 1061.88 134.415   4
   2 -10   2 1160.53 87.8662   7
  -2  10  -2 1015.08 168.386   5
   2 -11   1-0.78668 14.4930   4
  -2  11  -1-29.1170 40.9944   5
   2 -12   0 1771.94 202.590   4
  -2  12   0 1990.29 264.265   5
  -2  13   1 67.4858 41.7863   5
   2 -13  -1 139.982 69.7451   4
  -2  -1 -12-0.18950 47.4298   7
   2   1  12 28.9013 26.0073   1
   2   1  12 36.8592 24.2838   6
  -2  -1 -12-8.07270 31.5748   2
  -2   0 -11 10265.0 522.247   2
   2   0  11 11350.4 582.241   6
  -2   0 -11 10126.1 510.981   7
   2   0  11 9343.00 617.691   1
   2  -1  10 513.517 114.075   6
  -2   1 -10 346.072 82.5077   7
   2  -1  10 289.386 99.2917   1
  -2   2  -9 1858.96 127.606   3
  -2   2  -9 1924.02 176.929   7
   2  -2   9 1999.49 210.159   6
   2  -2   9 2070.69 240.792   1
  -2   3  -8 1137.50 119.829   7
   2  -3   8 1155.03 162.714   1
  -2   3  -8 1129.20 102.460   3
  -2   4  -7 2020.14 139.567   3
  -2   4  -7 1826.91 133.616   7
   2  -4   7 1909.86 127.863   8
   2  -4   7 1975.57 190.968   1
   2  -5   6 7433.50 322.249   1
   2  -5   6 7699.98 351.751   4
  -2   5  -6 8309.82 250.064   7
  -2   5  -6 8637.84 317.480   3
   2  -5   6 8699.27 236.745   8
  -2   6  -5 8486.71 301.422   2
   2  -6   5 8391.36 348.609   4
   2  -6   5 9088.82 324.955   1
  -2   6  -5 8780.55 330.215   3
  -2   6  -5 9573.04 220.376   7
  -2   7  -4 2825.69 244.048   5
   2  -7   4 2579.17 186.780   4
  -2   7  -4 2680.24 129.950   8
   2  -7   4 2566.56 147.161   1
  -2   7  -4 2525.78 138.340   2
  -2   7  -4 2730.23 172.686   1
   2  -8   3 5.48425 26.3693   4
  -2   8  -3-17.3713 28.6265   5
  -2   8  -3 1.82134 12.1852   8
  -2   8  -3 9.63304 10.0206   1
   2  -8   3 8.08987 6.47816   1
  -2   8  -3 14.9420 10.1102   2
   2  -9   2 2804.41 205.867   4
   2  -9   2 2639.36 118.417   7
  -2   9  -2 2648.50 257.404   5
   2 -10   1 187.833 42.4057   7
   2 -10   1 229.002 62.7960   4
  -2  10  -1 176.471 71.3450   5
  -2  11   0 4124.38 365.953   5
   2 -11   0 4595.90 311.256   4
   2 -11   0 4585.11 251.543   7
  -2  12   1 2562.45 305.804   5
   2 -12  -1 2602.53 252.316   4
  -2  13   2 973.007 201.712   5
   2 -13  -2 1036.62 173.161   4
  -2  -2 -12 1988.36 240.078   7
   2   2  12 2244.53 326.944   1
   2   2  12 2085.52 262.999   6
  -2  -2 -12 2052.78 248.948   2
  -2  -1 -11 553.762 121.130   2
   2   1  11 490.004 135.474   1
  -2  -1 -11 707.813 138.910   7
   2   1  11 643.701 135.940   6
   2   0  10 112.753 59.4472   6
  -2   0 -10 204.559 79.4642   2
   2   0  10 117.701 46.4184   1
  -2   0 -10 142.579 57.7795   7
  -2   1  -9 4213.73 183.012   3
  -2   1  -9 4593.49 284.585   7
   2  -1   9 3919.65 339.569   1
  -2   2  -8 11.2033 18.7432   7
   2  -2   8-25.7443 51.2849   1
  -2   2  -8 81.7401 25.4332   3
   2  -2   8 8.54493 29.6593   6
  -2   3  -7 11564.7 332.361   3
   2  -3   7 11205.1 453.903   6
  -2   3  -7 11763.3 372.035   7
   2  -3   7 10972.7 478.671   1
   2  -4   6 13123.8 332.249   8
  -2   4  -6 12424.8 366.923   3
   2  -5   5 7696.39 300.749   1
   2  -5   5 7648.03 327.651   4
  -2   5  -5 8081.05 209.585   7
  -2   5  -5 7550.35 216.263   7
  -2   5  -5 8094.54 294.686   3
  -2   6  -4 422.711 57.4120   2
   2  -6   4 454.810 59.6122   1
  -2   6  -4 428.730 49.1735   8
   2  -6   4 453.968 73.4596   4
  -2   6  -4 481.096 68.0852   1
   2  -7   3-2.65085 6.65161   1
  -2   7  -3-9.44014 13.7541   2
  -2   7  -3 29.5979 19.4950   8
  -2   7  -3 0.66416 10.7892   1
  -2   7  -3 34.1333 33.8363   5
  -2   8  -2-1.46335 6.99759   1
   2  -8   2-1.08038 3.69590   7
   2  -8   2 0.17462 8.98526   4
  -2   8  -2 4.98208 22.1409   5
  -2   8  -2 4.08700 4.06335   2
  -2   9  -1 1986.21 218.813   5
   2  -9   1 2264.90 129.916   7
   2  -9   1 2192.23 182.099   4
   2 -10   0 3332.29 247.493   4
   2 -10   0 3247.89 195.271   7
  -2  10   0 2947.53 288.033   5
   2 -11  -1 1761.10 160.207   7
  -2  11   1 1641.39 144.613   6
   2 -11  -1 1443.69 173.841   4
  -2  11   1 1505.77 220.999   5
  -2  12   2 186.841 88.6260   5
   2 -12  -2 111.612 51.5852   4
   2 -13  -3 1515.29 212.567   4
  -2  13   3 1369.81 239.078   5
   2   3  12 264.548 103.353   6
  -2  -3 -12 98.4988 36.1254   2
  -2  -2 -11-16.6236 18.3591   7
   2   2  11 2.57682 52.6334   1
   2   2  11 30.3299 19.5584   6
  -2  -2 -11 80.9487 54.9612   2
   2   1  10 92.9735 78.2166   1
  -2  -1 -10 16.9224 30.6220   7
  -2  -1 -10 136.122 59.7444   2
   2   1  10 44.8268 35.5313   6
  -2   0  -9 58.7512 18.7575   3
   2   0   9-9.45053 32.0253   1
  -2   0  -9 48.9638 52.1737   2
  -2   0  -9 19.1183 19.3695   7
   2   0   9 19.3805 34.5969   6
  -2   1  -8 2232.77 183.280   7
  -2   1  -8 2242.96 121.022   3
   2  -1   8 1998.21 224.881   1
  -2   2  -7 1617.07 106.917   3
   2  -2   7 1620.65 114.028   3
  -2   2  -7 1665.20 139.664   7
   2  -2   7 1683.72 182.578   1
   2  -2   7 1852.35 171.133   6
   2  -3   6 2981.90 155.166   3
   2  -3   6 3222.21 168.478   8
  -2   3  -6 2787.86 145.860   3
   2  -3   6 2984.01 209.516   6
   2  -3   6 3142.23 227.054   1
   2  -4   5 13403.3 429.634   1
  -2   4  -5 14771.5 327.891   7
   2  -4   5 15056.5 338.754   8
  -2   4  -5 14427.9 386.393   3
   2  -5   4 8491.68 281.901   1
   2  -5   4 8383.61 327.592   4
  -2   5  -4 8076.60 269.795   2
  -2   5  -4 8760.51 176.001   7
  -2   5  -4 9363.23 188.510   7
  -2   5  -4 9055.16 309.465   3
   2  -6   3 5524.47 257.884   4
  -2   6  -3 5452.50 193.518   2
   2  -6   3 5438.93 187.808   1
  -2   6  -3 5855.92 205.492   8
  -2   6  -3 5569.37 317.922   5
  -2   6  -3 5816.61 219.055   1
  -2   7  -2 4776.93 191.574   1
   2  -7   2 4805.27 250.218   4
   2  -7   2 5021.61 118.995   7
  -2   7  -2 4535.45 301.194   5
  -2   7  -2 4246.01 136.669   2
   2  -8   1-3.11457 7.39816   7
   2  -8   1 45.6198 29.6685   4
  -2   8  -1 20.6035 8.36338   1
  -2   8  -1-20.5572 27.1337   5
  -2   9   0-9.85687 26.5516   5
   2  -9   0-18.0552 21.4244   4
   2  -9   0-1.61076 9.26149   7
   2 -10  -1 2839.74 231.750   4
   2 -10  -1 2600.17 187.422   7
  -2  10   1 3124.08 188.516   6
  -2  10   1 2675.29 279.193   5
   2 -11  -2 2926.77 226.261   7
   2 -11  -2 3109.69 265.069   4
  -2  11   2 3250.44 338.901   5
  -2  12   3 19.9137 51.9872   5
   2 -12  -3 49.0644 43.1653   4
   2   3  11 381.763 138.480   1
  -2  -3 -11 346.891 98.2707   2
  -2  -3 -11 351.740 103.900   7
   2   3  11 409.990 111.855   6
  -2  -2 -10 874.918 141.762   2
  -2  -2 -10 852.043 148.427   7
   2   2  10 1016.55 162.027   6
   2   2  10 796.191 177.339   1
   2   1   9 308.161 82.7186   6
  -2  -1  -9 299.636 78.2479   2
  -2  -1  -9 229.594 65.4034   7
  -2   0  -8 831.635 127.558   2
  -2   0  -8 707.968 107.190   7
  -2   0  -8 561.775 53.7332   3
   2   0   8 535.652 96.3256   6
   2  -1   7 8034.17 243.098   3
  -2   1  -7 8685.28 343.323   7
   2  -1   7 7907.53 361.917   6
  -2   1  -7 8392.65 235.695   3
  -2   2  -6 372.458 47.0197   3
  -2   2  -6 404.287 64.1128   7
   2  -2   6 393.729 51.4620   3
   2  -2   6 373.128 81.2421   1
   2  -2   6 462.807 78.6590   6
   2  -3   5 42559.1 728.986   8
  -2   3  -5 43317.7 704.492   7
   2  -3   5 40938.2 696.366   3
   2  -3   5 39530.6 820.551   6
  -2   3  -5 42800.5 725.228   3
   2  -3   5 39343.5 846.189   1
   2  -4   4 107200. 1581.28   1
  -2   4  -4 106789. 1554.03   2
  -2   4  -4 111735. 1544.76   3
   2  -4   4 114613. 1545.09   3
  -2   4  -4 111073. 1390.21   7
  -2   5  -3 184.433 33.8553   2
   2  -5   3 185.711 47.5290   4
   2  -5   3 206.309 34.1830   1
  -2   5  -3 316.635 45.4605   1
  -2   5  -3 177.977 30.5188   8
  -2   6  -2 2459.63 120.695   1
   2  -6   2 2354.01 165.443   4
   2  -6   2 2380.12 104.225   1
  -2   6  -2 2154.72 101.082   2
  -2   6  -2 2362.71 198.354   5
  -2   7  -1 1264.24 156.109   5
   2  -7   1 1261.13 123.664   4
   2  -7   1 1534.60 85.4565   7
  -2   7  -1 1503.13 102.332   1
  -2   8   0 643.504 74.8979   1
   2  -8   0 749.669 101.851   4
   2  -8   0 862.776 82.8162   7
  -2   8   0 704.773 123.654   5
   2  -9  -1 698.462 106.307   4
  -2   9   1 771.535 139.263   5
   2  -9  -1 757.919 88.7642   7
  -2   9   1 723.190 85.0809   6
  -2  10   2 1056.41 110.042   6
   2 -10  -2 869.776 112.745   7
   2 -10  -2 1019.82 140.351   4
  -2  10   2 899.611 166.379   5
  -2  11   3 326.246 107.354   5
   2 -11  -3 483.529 93.1146   7
   2 -11  -3 463.154 106.103   4
   2 -12  -4 1390.99 199.318   4
  -2  12   4 1448.05 238.709   5
   2   4  11-82.5658 65.2507   1
  -2  -4 -11 17.0774 21.0994   7
  -2  -4 -11-100.144 54.4567   2
   2   4  11 15.8219 21.9633   6
  -2  -3 -10 2341.51 239.102   2
  -2  -3 -10 1949.32 223.836   7
   2   3  10 2120.42 235.084   6
   2   2   9 7446.00 420.034   6
  -2  -2  -9 6699.03 382.917   2
  -2  -2  -9 7021.18 401.631   7
  -2  -1  -8 1299.83 156.514   2
   2   1   8 1496.47 167.945   6
  -2  -1  -8 1198.19 148.563   7
  -2  -1  -8 1310.92 67.1187   3
  -2   0  -7 12436.3 455.168   2
   2   0   7 13625.5 488.947   6
  -2   0  -7 12625.9 445.871   7
   2  -1   6 2365.90 182.848   6
  -2   1  -6 2493.00 111.239   3
  -2   1  -6 2127.38 152.616   7
   2  -1   6 2292.77 112.811   3
   2  -2   5 21321.2 547.338   6
   2  -2   5 21971.0 422.555   3
   2  -2   5 22598.5 608.928   1
  -2   2  -5 22810.4 427.432   3
   2  -3   4 47958.3 870.718   1
  -2   3  -4 49172.6 718.645   7
   2  -3   4 48450.7 768.160   8
   2  -3   4 49663.6 766.616   3
   2  -3   4 47708.9 864.086   6
  -2   3  -4 49287.2 768.144   3
  -2   4  -3 78295.0 1129.42   2
   2  -4   3 79650.5 1245.44   4
   2  -4   3 76375.7 1088.22   1
   2  -4   3 83885.1 1157.40   3
  -2   4  -3 83935.3 1107.33   8
  -2   4  -3 81020.2 932.380   7
   2  -5   2 2924.21 172.652   4
  -2   5  -2 3264.37 126.941   1
  -2   5  -2 3290.51 153.368   8
  -2   5  -2 3097.69 210.251   5
  -2   5  -2 3352.29 156.128   6
   2  -5   2 2981.66 105.901   1
  -2   5  -2 2980.56 127.314   2
  -2   6  -1 250.524 34.2387   1
   2  -6   1 224.856 49.0015   4
  -2   6  -1 224.111 27.1949   2
   2  -6   1 291.586 30.1066   7
  -2   6  -1 247.168 61.5797   5
   2  -7   0 81.4901 30.3311   4
  -2   7   0 77.1342 22.9362   1
   2  -7   0 88.5111 23.5898   7
  -2   7   0 128.542 57.1712   5
   2  -8  -1 111.258 45.1754   4
   2  -8  -1 85.9691 27.4034   7
  -2   8   1 127.958 57.8028   5
   2  -9  -2 4151.47 234.725   7
   2  -9  -2 4312.57 275.015   4
  -2   9   2 4671.37 215.671   6
  -2   9   2 4807.57 364.113   5
   2 -10  -3 4053.36 260.520   7
  -2  10   3 3439.58 328.959   5
   2 -10  -3 3696.74 281.931   4
   2 -11  -4 1045.13 145.611   7
  -2  11   4 1060.07 192.480   5
   2 -11  -4 1116.44 167.367   4
  -2  12   5 1178.13 218.262   5
  -2  -5 -11 147.166 56.3531   2
   2   5  11 185.282 75.1177   6
   2   4  10 4019.82 333.460   6
  -2  -4 -10 3619.70 319.819   7
  -2  -4 -10 4176.68 326.392   2
  -2  -3  -9 2856.75 250.166   2
   2   3   9 3072.48 271.303   6
  -2  -2  -8 2089.34 203.245   7
   2   2   8 2148.06 213.395   6
  -2  -2  -8 1839.45 184.741   2
  -2  -1  -7 16355.4 538.272   2
   2   1   7 15157.1 547.400   6
  -2  -1  -7 16617.9 275.842   3
  -2   0  -6 5376.17 272.293   2
  -2   0  -6 5224.37 262.045   7
  -2   0  -6 5061.53 141.340   3
  -2   1  -5 110612. 1687.58   2
   2  -1   5 116022. 1463.09   3
   2  -1   5 111604. 1728.51   6
   2  -2   4 4426.29 189.761   8
   2  -2   4 4182.43 202.584   6
  -2   2  -4 4237.82 201.072   2
  -2   2  -4 4132.41 150.896   3
  -2   2  -4 4925.77 179.990   7
   2  -2   4 4264.80 151.276   3
   2  -3   3 123840. 1650.71   6
   2  -3   3 127357. 1578.35   8
  -2   3  -3 124941. 1466.72   7
   2  -3   3 123417. 1568.78   3
   2  -4   2 35235.9 697.081   4
  -2   4  -2 38582.8 628.042   8
   2  -4   2 38235.2 658.224   3
   2  -4   2 37981.4 547.748   1
  -2   4  -2 39481.6 643.841   6
  -2   4  -2 38806.1 786.088   5
  -2   4  -2 35798.5 603.312   2
  -2   5  -1 16429.3 309.191   2
  -2   5  -1 16868.7 291.547   1
   2  -5   1 16232.2 430.542   4
  -2   5  -1 16449.5 506.033   5
   2  -6   0 37800.7 745.703   4
   2  -6   0 34764.0 572.481   7
  -2   6   0 41243.6 604.387   1
  -2   6   0 43853.9 925.358   5
  -2   7   1 460.216 99.5079   5
  -2   7   1 540.785 64.2943   1
   2  -7  -1 435.224 72.9431   4
   2  -7  -1 598.135 66.5645   7
  -2   8   2 48953.7 1206.38   5
   2  -8  -2 50837.5 901.515   7
  -2   9   3 99.0989 46.4546   5
   2  -9  -3 62.4833 32.6851   4
   2  -9  -3 79.4482 37.0456   7
  -2   9   3 117.617 32.6507   6
   2 -10  -4 3455.48 253.702   7
   2 -10  -4 3706.66 292.361   4
  -2  10   4 3550.94 340.542   5
   2 -11  -5 191.937 69.1490   7
  -2  11   5 255.677 107.511   5
  -2  -5 -10 285.434 84.3488   2
   2   5  10 216.559 75.1426   6
  -2  -5 -10 391.370 106.775   7
  -2  -4  -9 183.626 66.4962   7
  -2  -4  -9 195.384 53.8155   2
   2   4   9 161.616 53.2293   6
  -2  -3  -8 121.556 35.1210   2
  -2  -3  -8 131.272 54.3155   7
   2   3   8 124.320 45.8617   6
  -2  -2  -7 791.280 113.629   7
   2   2   7 909.195 127.305   6
  -2  -2  -7 1055.57 132.112   2
  -2  -1  -6 3609.00 222.558   2
  -2  -1  -6 3640.35 89.9632   3
   2   1   6 3607.39 237.577   6
  -2  -1  -6 3587.08 226.483   7
  -2   0  -5 34486.2 622.521   2
  -2   0  -5 33584.2 599.813   7
   2   0   5 33340.2 320.391   3
   2   0   5 35639.9 667.091   6
  -2   0  -5 36462.3 308.833   3
  -2   1  -4 20537.7 493.006   2
   2  -1   4 21401.3 360.090   3
   2  -1   4 22209.6 525.607   6
  -2   1  -4 22958.0 367.460   3
  -2   2  -3 38022.1 685.197   2
   2  -2   3 39746.9 598.915   3
  -2   2  -3 38485.6 604.924   7
   2  -2   3 43322.8 690.825   8
  -2   2  -3 42281.3 727.543   6
   2  -2   3 39138.9 699.870   6
   2  -3   2 55040.1 942.553   4
   2  -3   2 65152.6 885.350   8
  -2   3  -2 60151.2 714.796   7
  -2   3  -2 60827.3 883.159   6
   2  -3   2 56544.2 810.547   1
  -2   3  -2 57153.6 867.825   8
  -2   3  -2 54886.7 858.809   2
   2  -3   2 59558.1 880.923   6
   2  -3   2 61195.8 877.217   3
   2  -4   1 116043. 1633.33   4
  -2   4  -1 111823. 1497.54   2
  -2   4  -1 129019. 1605.86   8
  -2   4  -1 123882. 1508.57   6
  -2   4  -1 120802. 1742.97   5
   2  -4   1 121587. 1495.93   2
   2  -4   1 128092. 1632.26   3
   2  -5   0 9421.73 189.900   2
   2  -5   0 9121.79 300.809   4
  -2   5   0 8952.44 190.011   1
  -2   5   0 9888.15 375.699   5
   2  -6  -1 12065.5 200.377   2
   2  -6  -1 10737.9 352.055   4
  -2   6   1 11965.4 298.080   1
  -2   6   1 11607.2 454.804   5
   2  -6  -1 10785.8 291.585   7
   2  -7  -2 2235.07 172.019   4
   2  -7  -2 2346.95 71.7238   2
  -2   7   2 2287.97 215.255   5
  -2   7   2 2551.79 129.222   6
   2  -7  -2 1940.68 138.181   7
   2  -8  -3 4582.45 274.114   4
   2  -8  -3 4808.60 114.904   2
  -2   8   3 4411.79 330.247   5
  -2   8   3 4704.26 198.510   6
   2  -8  -3 5107.31 114.461   2
   2  -9  -4 7532.87 391.105   4
  -2   9   4 7225.39 461.585   5
  -2   9   4 7276.82 270.136   6
   2 -10  -5 54.9719 28.9803   7
   2 -10  -5 66.2631 33.3931   4
  -2  10   5 18.0094 22.0088   5
   2 -11  -6 2572.25 256.110   7
  -2  11   6 2452.34 305.709   5
  -2  -6 -10-39.0275 61.5970   2
   2   6  10-5.60839 26.8598   6
  -2  -5  -9 97.0751 54.6036   7
  -2  -5  -9 171.556 59.4417   2
   2   5   9 98.8369 46.6863   6
  -2  -4  -8 106.689 48.7315   7
   2   4   8 87.8221 26.7128   6
  -2  -4  -8 60.3136 37.1404   2
  -2  -3  -7 303.792 76.1809   7
  -2  -3  -7 218.499 61.3075   2
   2   3   7 260.592 75.1691   6
  -2  -2  -6 127.584 45.8936   2
  -2  -2  -6 77.7188 21.5804   7
   2   2   6 64.3557 26.7319   6
  -2  -1  -5 228.726 49.7428   2
  -2  -1  -5 186.262 46.3603   7
   2   1   5 223.709 53.4274   6
  -2   0  -4 11191.6 348.181   2
  -2   0  -4 11198.9 310.640   5
   2   0   4 10673.5 188.792   3
   2   0   4 11620.9 370.876   6
  -2   1  -3 944.968 72.1411   7
  -2   1  -3 1021.80 89.0787   2
   2  -1   3 983.771 90.3051   6
   2  -1   3 956.911 54.3801   3
   2  -2   2 40496.6 636.230   8
  -2   2  -2 36693.2 536.021   7
  -2   2  -2 35763.5 622.617   2
   2  -2   2 37820.9 629.979   6
   2  -2   2 38563.7 538.212   7
  -2   2  -2 37214.1 634.270   6
   2  -2   2 38586.1 580.702   3
  -2   3  -1 7270.82 201.945   2
  -2   3  -1 7920.73 201.601   6
   2  -3   1 8111.37 210.784   2
  -2   3  -1 7618.52 267.217   5
   2  -3   1 7275.40 245.892   4
  -2   3  -1 8346.91 245.936   8
  -2   4   0 9886.22 196.916   6
   2  -4   0 8289.21 269.248   4
  -2   4   0 8131.53 309.702   5
   2  -4   0 8915.47 175.824   7
   2  -4   0 8759.38 333.207   5
   2  -4   0 9273.33 205.099   2
  -2   4   0 8597.37 204.108   2
   2  -5  -1 1334.22 83.8170   7
   2  -5  -1 1332.56 107.352   4
   2  -5  -1 1432.48 69.4592   2
  -2   5   1 1671.50 149.551   5
   2  -6  -2 130.497 31.6683   7
   2  -6  -2 146.462 40.2535   4
  -2   6   2 162.440 28.5448   6
   2  -6  -2 177.811 24.9485   2
  -2   6   2 229.389 65.8612   5
  -2   7   3 17366.1 377.638   6
  -2   7   3 16020.5 616.140   5
   2  -7  -3 16010.3 500.805   4
   2  -7  -3 16812.6 334.971   2
   2  -8  -4 313.104 64.5806   7
  -2   8   4 358.117 100.119   5
  -2   8   4 384.624 54.4937   6
   2  -8  -4 404.482 81.7122   4
   2  -9  -5 4.33611 12.8445   7
   2  -9  -5 53.5833 27.3460   4
  -2  10   6 139.860 64.2820   5
   2 -10  -6 29.7386 32.3108   7
   2 -11  -7-11.1970 20.3388   7
  -2  11   7 95.4615 55.9226   5
   2   7  10 402.546 111.467   6
   2   6   9 1097.04 173.268   6
  -2  -6  -9 1092.34 183.801   7
  -2  -6  -9 993.507 150.369   2
  -2  -5  -8 950.615 137.664   2
   2   5   8 988.850 153.155   6
  -2  -5  -8 670.668 130.783   7
  -2  -4  -7 291.374 80.5683   7
   2   4   7 324.765 81.3110   6
  -2  -4  -7 270.286 64.0458   2
  -2  -3  -6 14.7435 23.4425   7
   2   3   6 67.5101 38.7304   6
  -2  -3  -6 12.2139 15.7409   2
  -2  -2  -5 25593.2 628.770   2
  -2  -2  -5 26085.9 639.933   7
  -2  -1  -4 12559.5 371.994   2
   2   1   4 12127.8 391.036   6
   2   0   3 44431.6 535.583   3
   2   0   3 41751.3 775.781   6
  -2   0  -3 42257.7 758.675   2
  -2   0  -3 44290.7 677.333   5
  -2   0  -3 42224.6 719.159   7
   2  -1   2 1445.26 99.8288   8
   2  -1   2 1448.96 81.6519   7
  -2   1  -2 1542.82 86.2344   7
   2  -1   2 1343.75 94.4934   6
  -2   1  -2 1450.53 100.274   6
  -2   1  -2 1406.55 97.1944   2
   2  -1   2 1360.69 63.2483   3
  -2   2  -1 62533.3 861.699   6
  -2   2  -1 59174.1 875.805   2
  -2   2  -1 61945.0 907.839   8
   2  -2   1 62063.8 778.426   7
  -2   2  -1 64256.5 794.197   7
   2  -2   1 61100.0 855.649   6
   2  -2   1 64252.6 891.573   2
  -2   2  -1 61400.8 918.517   5
  -2   3   0 7922.18 255.798   4
   2  -3   0 7653.16 236.172   4
   2  -3   0 7850.62 198.051   2
  -2   3   0 7415.37 194.669   2
  -2   3   0 7672.09 162.217   6
   2  -3   0 8166.19 282.661   5
  -2   3   0 7978.23 271.451   5
   2  -3   0 8262.94 163.978   7
   2  -4  -1 6914.60 231.336   4
   2  -4  -1 7340.25 184.465   2
   2  -4  -1 7713.32 310.287   5
  -2   4   1 7013.35 288.712   5
   2  -5  -2 364.026 54.4912   4
  -2   5   2 440.919 36.5674   6
   2  -5  -2 379.904 41.8673   2
  -2   5   2 404.568 78.7577   5
   2  -6  -3 6863.71 289.807   4
  -2   6   3 6820.03 193.245   6
  -2   6   3 6706.67 357.813   5
  -2   7   4 11650.3 526.253   5
  -2   7   4 11229.6 307.339   6
   2  -7  -4 12074.0 441.432   4
   2  -7  -4 12587.4 429.858   7
  -2   8   5 2960.56 163.407   6
   2  -8  -5 2409.76 211.542   4
   2  -8  -5 2269.74 198.250   7
  -2   8   5 2384.66 253.467   5
   2  -9  -6 1773.65 187.737   7
  -2   9   6 1633.55 226.974   5
  -2  10   7 584.896 147.517   5
   2 -10  -7 490.199 111.272   7
   2   7   9-4.24273 26.8346   6
  -2  -6  -8 2063.89 240.844   7
   2   6   8 1922.19 222.064   6
  -2  -6  -8 1557.26 179.280   2
  -2  -5  -7 650.631 116.944   7
  -2  -5  -7 536.909 97.8567   2
   2   5   7 587.466 114.624   6
  -2  -4  -6 540.238 91.9470   2
  -2  -4  -6 664.868 106.632   7
   2   4   6 857.344 124.650   6
  -2  -3  -5-0.37050 17.6804   7
  -2  -3  -5 45.1529 23.9985   2
   2   2   4 2235.81 167.062   6
  -2  -2  -4 2442.72 155.342   5
  -2  -2  -4 2376.71 159.645   2
  -2  -1  -3 45766.4 807.324   2
  -2  -1  -3 49589.0 739.041   5
  -2   0  -2 19686.1 428.155   2
   2   0   2 20182.1 267.643   3
  -2   0  -2 19699.7 412.120   7
   2   0   2 18901.7 400.736   7
  -2   0  -2 19980.5 333.818   5
   2   0   2 20362.4 440.363   6
  -2   1  -1 58365.1 871.165   2
   2  -1   1 68533.7 829.875   7
  -2   1  -1 68650.1 847.288   7
   2  -1   1 62498.4 899.754   8
   2  -1   1 58615.1 855.001   6
  -2   1  -1 61950.4 882.011   6
  -2   1  -1 49725.2 865.032   8
  -2   1  -1 59682.3 817.283   5
   2  -2   0 9939.39 261.505   4
  -2   2   0 10771.6 278.073   8
   2  -2   0 10569.2 242.452   2
   2  -2   0 10680.1 206.929   7
  -2   2   0 10302.4 202.458   7
  -2   2   0 10772.7 210.731   6
  -2   2   0 10246.4 244.099   2
   2  -2   0 10108.5 276.790   5
   2  -2   0 10750.3 202.112   6
  -2   2   0 10076.4 268.542   5
  -2   3   1 16258.1 374.619   4
   2  -3  -1 16514.8 366.288   4
   2  -3  -1 18207.8 453.016   5
  -2   3   1 16953.3 429.856   5
   2  -3  -1 17635.1 327.342   2
  -2   3   1 17427.8 296.939   1
   2  -4  -2 968.626 83.7905   4
  -2   4   2 1111.66 119.100   5
  -2   4   2 1195.71 41.5646   6
   2  -4  -2 1214.56 82.5035   2
   2  -5  -3 536.290 72.2230   4
  -2   5   3 551.559 44.7975   6
   2  -5  -3 659.143 77.2571   7
  -2   5   3 664.608 103.187   5
   2  -6  -4 9037.85 338.852   7
   2  -6  -4 7380.90 316.819   4
  -2   6   4 8437.03 237.015   6
  -2   6   4 7361.50 392.877   5
  -2   7   5 15.8824 33.2641   5
   2  -7  -5 8.64708 13.3616   4
   2  -7  -5-13.1582 18.9585   7
  -2   7   5 0.46557 15.5631   6
  -2   8   6 1016.92 101.297   6
   2  -8  -6 812.091 123.102   7
  -2   9   7 128.835 61.8637   5
   2  -9  -7 38.0056 20.0329   7
  -2  10   8 338.095 116.032   5
  -2  10   8 427.594 128.528   1
   2 -10  -8 263.748 89.7096   7
   2   8   9 223.580 87.7040   6
  -2  -7  -8 207.315 82.7720   7
   2   7   8 268.370 80.3256   6
  -2  -6  -7 364.009 90.9741   7
  -2  -6  -7 373.464 80.5616   2
   2   6   7 438.326 103.616   6
  -2  -5  -6 974.705 124.313   2
   2   5   6 942.393 124.427   5
   2   5   6 1176.81 149.366   6
  -2  -5  -6 662.089 117.813   7
  -2  -4  -5 4576.40 252.507   2
   2   4   5 4564.92 250.426   5
  -2  -3  -4 4849.26 258.441   7
   2   3   4 5616.65 282.290   6
   2   3   4 5224.92 231.900   5
  -2  -3  -4 6042.47 264.156   2
  -2  -2  -3 41937.3 761.542   2
   2   2   3 40291.4 803.460   6
  -2  -2  -3 39614.4 702.729   5
  -2  -1  -2 34725.0 533.490   5
   2   1   2 38174.7 644.282   2
   2   1   2 44344.9 689.589   7
   2   1   2 29681.4 639.504   6
  -2  -1  -2 38304.6 655.476   2
  -2  -1  -2 31068.2 624.455   7
   2   0   1 7584.82 220.896   7
   2   0   1 11490.6 284.157   6
   2   0   1 8624.36 260.185   8
  -2   0  -1 10279.0 259.162   7
  -2   0  -1 10941.8 272.380   2
  -2   0  -1 10581.7 275.485   6
   2  -1   0 476.209 38.0843   1
   2  -1   0 446.342 41.4186   6
   2  -1   0 573.066 59.0646   8
  -2   1   0 392.010 45.4012   2
   2  -1   0 429.768 41.8293   7
  -2   1   0 413.997 39.3322   6
   2  -1   0 431.667 45.1474   2
   2  -1   0 418.776 39.9705   5
  -2   1   0 420.311 38.3591   5
  -2   1   0 406.148 40.1901   7
  -2   2   1 1968.92 105.579   4
   2  -2  -1 1785.59 92.8766   4
   2  -2  -1 2242.38 97.1307   7
   2  -2  -1 1949.69 95.0152   2
  -2   2   1 2009.69 75.3865   1
   2  -2  -1 1843.06 114.125   5
  -2   2   1 2167.65 127.284   5
   2  -2  -1 1903.25 76.5124   1
   2  -3  -2 65191.7 965.275   4
   2  -3  -2 66102.0 1115.10   5
  -2   3   2 70480.2 1130.45   5
  -2   3   2 69667.6 984.243   1
   2  -4  -3 2291.58 135.761   4
  -2   4   3 2337.64 180.696   5
  -2   4   3 2016.15 75.0800   6
  -2   5   4 15068.8 529.823   5
  -2   5   4 14351.8 303.383   6
   2  -5  -4 14363.4 415.183   4
   2  -6  -5 144.628 45.3044   4
  -2   6   5 135.975 49.9431   5
   2  -6  -5 150.696 41.7131   7
  -2   6   5 162.633 34.4663   6
  -2   7   6 3335.19 178.452   6
   2  -7  -6 3433.86 247.066   7
  -2   7   6 3502.40 297.818   5
  -2   8   7 144.370 66.9037   5
   2  -8  -7 151.382 55.1345   7
  -2   9   8 739.348 164.066   5
  -2   9   8 685.442 154.437   1
   2  -9  -8 485.585 110.253   7
  -2  10   9 174.155 101.321   1
   2   8   8 1379.24 202.234   6
  -2  -8  -8 923.107 177.786   7
  -2  -7  -7 76.9809 34.5562   2
  -2  -7  -7 42.9168 39.0528   7
   2   7   7 12.7609 14.9677   6
  -2  -6  -6 5596.50 369.517   7
   2   6   6 6856.61 389.951   6
   2   6   6 6060.83 348.229   5
  -2  -6  -6 6229.26 322.556   2
   2   5   5 41.4559 23.2511   5
  -2  -5  -5 86.9207 38.6843   7
  -2  -5  -5 56.2697 18.4211   2
  -2  -5  -5 73.3040 15.6031   3
   2   5   5 14.1963 20.1519   6
  -2  -4  -4 7407.24 155.919   3
  -2  -4  -4 8366.93 318.817   2
  -2  -4  -4 7704.86 147.467   3
   2   4   4 7377.55 302.264   5
   2   3   3 5862.51 226.099   5
   2   3   3 7094.90 307.123   6
  -2  -3  -3 5586.45 240.876   2
  -2  -3  -3 4828.81 250.123   7
  -2  -3  -3 6628.54 254.704   5
   2   2   2 10965.3 354.926   6
  -2  -2  -2 11449.8 316.588   2
  -2  -2  -2 10620.5 267.258   5
   2   2   2 10539.4 253.177   5
   2   1   1 34382.8 581.423   2
  -2  -1  -1 32823.8 600.032   7
   2   1   1 29647.4 557.154   7
  -2  -1  -1 34027.5 437.451   5
  -2  -1  -1 34210.0 583.439   2
   2   1   1 33274.0 419.311   3
   2   1   1 30588.9 598.172   6
   2   0   0 13538.7 289.386   7
  -2   0   0 12142.2 283.310   7
   2   0   0 12619.4 281.521   6
  -2   0   0 12929.9 298.423   2
   2  -1  -1 107255. 1331.55   4
   2  -1  -1 96672.7 1315.58   1
   2  -1  -1 104965. 1283.79   6
  -2   1   1 104884. 1390.76   2
   2  -1  -1 127148. 1384.36   7
   2  -1  -1 107263. 1370.88   2
  -2   1   1 102957. 1300.89   1
  -2   1   1 127399. 1380.11   7
   2  -1  -1 100684. 1354.91   5
  -2   1   1 102411. 1351.97   5
  -2   2   2 4797.46 160.384   4
   2  -2  -2 4304.85 142.395   4
  -2   2   2 4571.83 163.324   1
   2  -2  -2 4359.99 194.065   5
  -2   2   2 4382.76 192.668   5
  -2   3   3 2692.02 136.349   4
   2  -3  -3 2470.33 125.951   4
   2  -3  -3 2482.49 79.3485   6
  -2   3   3 2744.12 176.964   5
  -2   3   3 2273.40 142.043   1
   2  -4  -4 14041.9 302.311   6
  -2   4   4 15250.4 295.345   6
   2  -4  -4 14216.2 382.163   4
  -2   4   4 15090.7 495.349   5
   2  -5  -5 8059.11 319.690   4
  -2   5   5 8758.69 249.207   6
  -2   5   5 7536.40 381.825   5
   2  -6  -6 9482.49 400.628   7
  -2   6   6 8458.57 284.520   6
  -2   6   6 9788.44 481.504   5
   2  -7  -7 1381.12 164.354   7
  -2   7   7 1573.33 130.635   6
  -2   7   7 1355.21 195.523   5
  -2   7   7 1764.45 222.165   1
  -2   8   8 729.920 152.649   5
   2  -8  -8 711.721 136.325   7
   2  -8  -8 793.492 128.068   3
  -2   8   8 587.828 142.882   1
  -2   9   9-17.7782 58.3444   1
   2  -9  -9 13.3529 31.2242   7
  -2   9   9 49.0166 36.5935   5
   2   9   8 70.7783 51.9375   6
  -2  -8  -7 390.323 117.494   7
   2   8   7 227.633 66.7718   6
   2   7   6 108.840 48.4506   5
  -2  -7  -6 83.2651 35.2922   2
  -2  -7  -6 97.2701 40.5886   7
   2   7   6 180.378 64.7688   6
  -2  -6  -5 1447.76 142.929   2
   2   6   5 1332.43 162.037   6
   2   6   5 1336.35 153.233   5
  -2  -6  -5 1217.21 161.778   7
   2   5   4 4677.99 289.038   6
  -2  -5  -4 4536.97 236.891   2
  -2  -5  -4 4616.98 137.628   3
  -2  -5  -4 4408.68 281.579   7
   2   5   4 4317.62 246.546   5
  -2  -4  -3 1889.40 135.416   2
  -2  -4  -3 1697.04 154.099   7
   2   4   3 1858.36 161.579   6
  -2  -4  -3 1753.12 70.8924   3
   2   4   3 1795.87 133.584   5
  -2  -3  -2 60557.1 366.306   3
   2   3   2 55750.6 809.859   6
  -2  -3  -2 63406.8 715.833   2
  -2  -3  -2 64717.8 713.144   5
   2   3   2 55912.8 607.983   5
   2   2   1 360.778 54.6025   6
  -2  -2  -1 392.473 40.1058   5
  -2  -2  -1 436.430 54.8337   2
   2   2   1 404.615 27.8264   3
  -2  -2  -1 370.495 28.4343   3
   2   2   1 347.666 35.5630   5
   2   2   1 317.738 48.7927   7
   2   2   1 442.238 52.0575   2
   2   1   0 52886.7 825.417   7
   2   1   0 58694.6 848.027   1
   2   1   0 58813.1 820.569   2
  -2  -1   0 52984.3 716.769   3
   2   1   0 54002.3 708.861   3
   2   1   0 50013.6 826.694   6
  -2  -1   0 48427.2 800.952   2
   2   0  -1 248.172 34.7653   1
   2   0  -1 346.969 42.9584   7
  -2   0   1 226.133 34.0892   7
  -2   0   1 265.135 38.0372   2
   2   0  -1 347.603 45.7504   8
   2   0  -1 254.127 34.8622   3
  -2   0   1 231.686 25.4628   5
   2   0  -1 356.276 32.9184   5
  -2   0   1 222.634 31.7053   1
   2  -1  -2 21290.2 403.272   1
  -2   1   2 15607.6 356.008   1
  -2   1   2 19694.9 333.672   4
   2  -1  -2 20544.7 322.801   4
   2  -1  -2 16464.4 367.421   7
   2  -1  -2 19677.8 409.861   5
  -2   1   2 20003.6 404.477   5
  -2   2   3 2119.22 132.222   1
  -2   2   3 2057.56 104.309   4
   2  -2  -3 2024.36 97.4243   4
   2  -2  -3 1869.67 70.8962   6
   2  -2  -3 2046.15 144.111   5
  -2   2   3 1926.24 133.560   5
  -2   3   4 379.137 67.2008   5
  -2   3   4 303.250 45.5067   4
  -2   3   4 337.192 61.5510   1
   2  -3  -4 343.147 49.2632   4
   2  -3  -4 306.781 36.8738   6
  -2   4   5 3417.89 234.069   1
  -2   4   5 2890.22 135.090   6
   2  -4  -5 3279.89 181.725   4
  -2   4   5 3398.39 239.974   5
   2  -4  -5 3061.97 142.192   6
  -2   5   6 8443.94 428.553   5
  -2   5   6 9450.25 449.125   1
   2  -5  -6 8555.72 295.769   6
  -2   5   6 9311.59 289.195   6
  -2   6   7 929.990 98.9451   6
   2  -6  -7 1037.81 139.319   7
  -2   6   7 877.348 151.074   5
  -2   6   7 1025.41 163.754   1
   2  -7  -8 1111.37 158.762   7
  -2   7   8 1570.84 218.168   5
   2  -7  -8 1768.37 184.946   3
  -2   7   8 1474.51 216.104   1
  -2   8   9 624.752 152.034   5
   2  -8  -9 621.067 132.844   7
  -2   8   9 662.226 160.881   1
  -2   9  10 542.246 152.267   1
  -2  -9  -7 253.483 98.4426   7
   2   9   7 351.213 97.5593   6
   2   8   6 1842.83 216.100   6
   2   8   6 1820.44 209.557   5
  -2  -8  -6 1811.30 230.076   7
  -2  -7  -5 112.567 56.1535   7
   2   7   5 76.3455 41.9555   6
   2   7   5 121.482 49.7468   5
  -2  -7  -5 104.036 37.9183   2
  -2  -6  -4 1615.31 139.973   2
  -2  -6  -4 1197.13 152.097   7
   2   6   4 1305.94 157.175   6
   2   6   4 1643.43 161.377   5
  -2  -5  -3 1916.06 141.395   2
   2   5   3 1881.21 151.007   5
  -2  -5  -3 1784.85 90.9056   3
  -2  -5  -3 2004.74 177.399   7
   2   5   3 1942.90 175.022   6
   2   4   2 103.398 33.2258   5
  -2  -4  -2 98.9999 28.3638   2
   2   4   2 167.978 47.6107   6
  -2  -4  -2 82.7034 31.0663   5
  -2  -4  -2 144.317 42.0642   7
  -2  -4  -2 135.184 21.5830   3
  -2  -3  -1 18533.9 319.169   3
  -2  -3  -1 16283.1 402.171   2
   2   3   1 21572.0 505.875   6
  -2  -3  -1 20423.8 420.007   5
   2   3   1 19110.8 402.328   5
   2   3   1 19391.8 421.847   2
   2   3   1 18058.7 313.911   3
   2   3   1 18575.4 431.436   4
   2   2   0 1863.77 119.504   7
   2   2   0 1757.64 74.7373   3
  -2  -2   0 1761.47 79.8987   3
   2   2   0 1714.12 101.442   2
  -2  -2   0 1743.85 106.827   2
   2   2   0 1677.20 77.2834   5
  -2  -1   1 10067.2 266.258   1
  -2  -1   1 8126.07 245.399   2
  -2  -1   1 12054.8 293.838   8
   2   1  -1 10404.9 278.843   1
  -2  -1   1 10554.3 237.858   3
   2   1  -1 10256.3 230.104   3
   2   1  -1 7048.89 232.855   8
   2   1  -1 13811.8 312.268   7
   2   0  -2 5359.93 194.095   1
   2   0  -2 5643.27 127.101   4
  -2   0   2 7455.16 219.535   7
  -2   0   2 6954.47 217.550   8
  -2   0   2 6216.75 199.731   1
   2   0  -2 6210.57 202.712   7
   2   0  -2 5543.55 185.193   3
   2   0  -2 5988.68 183.922   5
  -2   1   3 19922.5 322.480   4
   2  -1  -3 18689.9 305.884   4
   2  -1  -3 19197.5 442.549   1
   2  -1  -3 18604.1 435.879   5
  -2   1   3 17719.9 422.709   5
  -2   2   4 4505.83 159.931   4
   2  -2  -4 4439.05 158.122   4
   2  -2  -4 4091.93 138.836   6
  -2   2   4 4328.07 226.089   5
   2  -3  -5 12272.1 303.550   6
  -2   3   5 12157.1 437.195   1
   2  -3  -5 11245.3 321.951   4
  -2   3   5 11507.2 433.395   5
  -2   4   6 12692.7 507.198   1
   2  -4  -6 11465.6 338.486   6
  -2   4   6 12809.5 347.779   6
  -2   4   6 12279.7 498.109   5
  -2   5   7 99.5657 42.1599   5
  -2   5   7 113.707 38.0214   1
  -2   5   7 173.074 41.6737   6
   2  -5  -7 256.304 70.1315   7
   2  -5  -7 149.357 44.4508   3
   2  -6  -8 3504.19 253.050   3
  -2   6   8 3730.89 220.479   6
  -2   6   8 3016.23 292.116   5
  -2   6   8 3423.54 320.025   1
  -2   7   9 860.713 169.112   5
   2  -7  -9 855.207 143.498   7
   2  -7  -9 959.707 138.653   3
  -2   7   9 1046.04 191.778   1
  -2   8  10 509.987 137.978   1
  -2   8  10 507.420 138.989   5
   2  -8 -10 432.144 117.622   7
  -2  -9  -6 4903.11 411.155   7
   2   9   6 4115.49 336.618   6
   2   8   5 157.149 66.9180   5
   2   8   5 112.533 57.8657   6
  -2  -8  -5 95.2052 34.0721   2
  -2  -8  -5 71.0062 40.8754   7
  -2  -7  -4 10045.3 489.559   7
   2   7   4 10637.4 480.856   6
  -2  -7  -4 10287.0 382.854   2
  -2  -6  -3 151.502 40.9512   2
   2   6   3 70.2416 30.5500   6
  -2  -6  -3 80.1153 37.0328   7
   2   6   3 94.8854 30.5013   5
  -2  -6  -3 97.8328 22.2764   3
  -2  -5  -2 20727.8 406.418   3
  -2  -5  -2 21007.1 507.089   2
   2   5   2 21801.9 559.764   5
  -2  -4  -1 3284.25 159.830   2
   2   4   1 3080.81 191.013   6
  -2  -4  -1 3061.16 173.329   5
   2   4   1 3049.49 151.286   2
   2   4   1 3049.29 164.005   5
   2   4   1 3307.50 125.654   3
  -2  -4  -1 2866.85 117.095   3
   2   3   0 2982.74 139.165   2
  -2  -3   0 2829.15 139.870   2
   2   3   0 3150.83 168.156   7
  -2  -3   0 2953.65 117.286   3
   2   3   0 2845.99 141.275   4
   2   3   0 2754.68 106.421   3
   2   3   0 2750.46 130.380   5
   2   2  -1 37255.3 549.323   4
  -2  -2   1 31044.3 618.907   1
   2   2  -1 38847.4 622.158   2
   2   2  -1 37511.2 553.194   3
  -2  -2   1 39223.1 628.671   2
   2   2  -1 34989.2 624.195   8
  -2  -2   1 36775.4 566.257   3
   2   2  -1 28636.4 604.853   7
   2   1  -2 573.556 67.9299   1
  -2  -1   2 381.683 47.0594   8
   2   1  -2 419.563 54.3478   7
  -2  -1   2 383.382 45.3212   3
   2   1  -2 382.588 45.5887   3
  -2  -1   2 394.443 50.6752   1
   2   1  -2 367.147 48.4456   8
   2   0  -3 3059.94 161.340   1
  -2   0   3 3208.64 161.623   1
  -2   0   3 2716.65 136.740   8
   2   0  -3 2986.51 68.3584   4
   2   0  -3 2906.39 141.270   3
   2   0  -3 3354.26 159.088   7
   2   0  -3 3221.10 152.624   5
  -2   1   4 31587.1 662.345   1
  -2   1   4 32479.8 470.257   4
   2  -1  -4 29908.9 597.952   3
   2  -1  -4 30366.7 464.258   4
   2  -1  -4 30068.2 636.238   5
  -2   1   4 32648.4 650.666   5
   2  -1  -4 30794.4 664.857   1
  -2   2   5 11785.2 294.585   4
  -2   2   5 12233.0 424.645   5
   2  -2  -5 12725.8 382.747   3
   2  -2  -5 13069.0 310.451   6
  -2   2   5 13585.9 456.508   1
   2  -3  -6 6028.89 231.286   6
   2  -3  -6 6934.71 298.325   3
  -2   3   6 6464.67 335.350   5
  -2   3   6 6840.09 354.569   1
   2  -4  -7 5642.14 292.327   3
  -2   4   7 5295.36 337.073   5
  -2   4   7 6108.80 369.740   1
  -2   5   8 580.025 120.577   5
   2  -5  -8 600.569 97.4328   3
   2  -5  -8 494.108 94.0322   7
  -2   5   8 528.776 119.502   1
   2  -6  -9-0.91725 30.4519   7
   2  -6  -9 34.3121 18.5907   3
  -2   6   9 12.8536 17.6378   5
   2  -7 -10 1880.75 231.548   7
  -2   7  10 2197.17 295.577   1
   2  10   6 32.3337 32.0833   6
   2   9   5 80.2003 55.3040   5
  -2  -9  -5 29.4083 28.2785   7
   2   9   5 40.6770 21.0058   6
  -2  -8  -4 1715.11 147.228   2
   2   8   4 1936.37 209.154   6
  -2  -8  -4 1578.64 202.623   7
   2   8   4 1788.36 196.228   5
   2   7   3-45.4280 28.3733   5
  -2  -7  -3 4.85809 28.1466   7
   2   7   3-26.2374 25.9308   6
  -2  -7  -3 0.77939 11.3354   2
  -2  -6  -2 5989.94 324.624   7
   2   6   2 7612.72 353.502   6
  -2  -6  -2 6975.75 254.836   2
   2   6   2 6646.76 306.335   5
   2   5   1 10984.8 307.708   2
  -2  -5  -1 9378.40 380.466   7
   2   5   1 9064.77 368.706   6
  -2  -5  -1 10529.7 272.313   3
  -2  -5  -1 10961.3 321.087   2
   2   5   1 10591.7 356.625   5
  -2  -4   0 14648.2 315.374   3
   2   4   0 14139.1 339.087   2
   2   4   0 13907.3 299.549   3
   2   4   0 15091.4 380.710   5
   2   3  -1 607.839 61.4079   2
   2   3  -1 524.159 53.7476   4
   2   3  -1 705.884 77.1003   7
  -2  -3   1 627.346 73.5980   1
  -2  -3   1 800.765 75.0532   2
   2   3  -1 605.866 54.1571   3
  -2  -3   1 616.644 57.1736   3
   2   3  -1 531.775 59.7725   5
   2   2  -2 50115.8 684.311   3
   2   2  -2 27013.8 603.475   8
   2   2  -2 39908.9 712.276   7
  -2  -2   2 49995.0 696.154   3
   2   2  -2 53633.5 736.818   2
  -2  -2   2 28302.7 645.301   1
   2   2  -2 47133.0 577.625   4
  -2  -1   3 23422.9 449.520   8
   2   1  -3 21862.5 503.441   1
   2   1  -3 22609.7 480.207   7
  -2  -1   3 23580.3 504.556   1
  -2   0   4 17172.6 454.817   1
  -2   0   4 17410.8 260.091   4
   2   0  -4 17026.4 410.257   3
   2   0  -4 16614.7 431.217   5
   2   0  -4 18181.5 487.322   1
  -2   1   5 50959.4 714.848   4
   2  -1  -5 51141.3 878.620   3
   2  -2  -6 20819.3 480.691   3
   2  -2  -6 19255.4 390.646   6
  -2   2   6 19359.9 544.876   5
  -2   3   7-22.5305 26.8013   5
   2  -3  -7 17.1451 14.0939   3
  -2   3   7 37.5157 44.8835   1
   2  -4  -8 10156.8 406.691   3
  -2   4   8 9436.97 477.237   5
  -2   4   8 10066.9 525.678   1
   2  -5  -9 1071.18 153.492   7
   2  -5  -9 1376.02 155.986   3
  -2   5   9 1435.44 217.458   1
   2  -6 -10 732.717 138.579   7
   2  -6 -10 670.747 112.508   3
  -2   6  10 774.568 174.881   1
  -2   7  11 65.0721 60.5132   1
   2  -7 -11 136.548 67.4470   7
  -2 -10  -5 97.7019 71.0548   7
   2  10   5 13.4427 34.0795   6
  -2  -9  -4 1442.85 203.856   7
   2   9   4 2091.92 226.576   6
   2   9   4 1793.93 206.410   5
  -2  -8  -3 4799.64 232.187   2
   2   8   3 4317.18 314.768   6
   2   8   3 4112.91 292.346   5
   2   7   2 6434.66 336.530   5
  -2  -7  -2 7196.50 270.885   2
   2   7   2 6649.67 358.283   6
  -2  -7  -2 6903.42 374.939   7
  -2  -6  -1 1001.66 125.885   7
  -2  -6  -1 862.458 84.0743   2
   2   6   1 1104.32 127.382   6
   2   6   1 979.154 115.609   5
  -2  -5   0 330.762 50.4497   2
   2   5   0 418.436 52.9001   2
  -2  -5   0 412.439 75.6006   7
  -2  -5   0 421.598 52.5903   3
   2   5   0 434.869 54.2401   3
   2   5   0 313.137 57.1370   5
   2   4  -1 12984.3 321.236   2
   2   4  -1 12320.6 352.248   5
   2   4  -1 11511.8 306.812   4
  -2  -4   1 13399.3 395.847   7
  -2  -4   1 14631.8 361.409   2
  -2  -4   1 10908.2 291.149   3
   2   4  -1 11204.5 280.671   3
   2   3  -2 125.560 29.2987   8
   2   3  -2 79.4254 22.0445   3
   2   3  -2 96.7441 30.5037   7
  -2  -3   2 221.170 36.9828   3
  -2  -3   2 71.9474 25.6303   7
   2   3  -2 114.542 26.9370   2
   2   3  -2 111.593 22.1633   4
  -2  -3   2 71.1361 27.9771   1
   2   2  -3 107730. 1193.28   4
  -2  -2   3 107634. 1409.14   3
   2   2  -3 109812. 1401.30   3
  -2  -2   3 106006. 1368.75   8
   2   1  -4 2260.48 146.403   7
   2   1  -4 2422.67 165.735   1
  -2  -1   4 2860.94 174.490   1
  -2  -1   4 2744.47 136.836   8
   2   1  -4 2482.47 140.480   3
  -2   0   5 8341.36 330.187   1
   2   0  -5 8042.33 259.286   6
   2   0  -5 7478.38 268.607   3
  -2   1   6 1005.61 126.703   1
  -2   1   6 761.272 64.4305   4
   2  -1  -6 879.545 97.8157   3
   2  -1  -6 838.459 83.3755   6
   2  -2  -7 2692.11 186.368   3
  -2   2   7 3180.62 256.767   1
   2  -3  -8 4681.63 265.577   3
  -2   3   8 4407.08 336.824   1
  -2   4   9 9.42323 23.2570   1
   2  -4  -9-18.6546 25.7888   3
   2  -4  -9 40.4313 34.1307   7
  -2   5  10 736.503 163.743   1
   2  -5 -10 481.436 108.180   7
   2  -5 -10 600.352 106.232   3
  -2   6  11 238.095 94.3146   1
   2  -6 -11 346.804 101.609   7
   2  11   5-39.1021 54.2113   6
   2  10   4 5346.97 384.738   6
  -2 -10  -4 6107.66 431.158   7
   2  10   4 4957.65 369.052   5
  -2  -9  -3 1115.57 171.452   7
   2   9   3 1243.73 169.718   5
   2   9   3 1037.31 163.668   6
  -2  -8  -2 5180.71 230.096   2
  -2  -8  -2 5107.55 333.674   7
   2   8   2 4436.24 308.932   6
   2   8   2 4985.78 319.102   5
   2   7   1 10815.9 447.780   6
   2   7   1 11314.8 442.613   5
  -2  -6   0 42286.5 713.594   2
   2   6   0 39713.6 826.716   5
   2   6   0 41037.3 673.426   2
  -2  -5   1 2146.59 162.539   7
   2   5  -1 1910.20 114.251   2
   2   5  -1 1885.41 147.774   5
   2   5  -1 1747.66 110.791   3
   2   4  -2 9847.69 249.594   4
  -2  -4   2 9071.14 316.444   1
   2   4  -2 9362.22 316.789   7
  -2  -4   2 9926.64 334.408   7
   2   4  -2 10195.5 274.322   3
   2   3  -3 6945.61 166.347   4
   2   3  -3 7007.94 227.521   3
   2   3  -3 6997.65 261.782   7
  -2  -3   3 7117.51 276.011   1
   2   2  -4 12237.8 345.715   3
  -2  -2   4 13301.1 419.466   1
  -2  -1   5 575.858 85.9833   1
   2   1  -5 513.000 66.0567   3
  -2   0   6 10565.7 227.288   4
  -2   0   6 11698.4 435.320   1
   2   0  -6 11197.5 353.889   3
  -2   1   7 5986.05 209.147   4
   2  -1  -7 6777.87 289.671   3
  -2   2   8 14661.2 615.281   1
   2  -2  -8 13171.8 448.133   3
   2  -3  -9 633.963 100.753   3
  -2   3   9 776.394 151.276   1
   2  -4 -10 1142.21 143.787   3
  -2   4  10 1071.28 190.197   1
   2  -4 -10 1025.94 159.534   7
  -2   5  11 389.087 134.513   1
   2  -5 -11 268.327 71.6388   3
   2  -5 -11 333.755 98.3768   7
  -2   6  12 162.050 78.4332   1
  -2 -11  -4 655.946 148.753   7
   2  11   4 341.461 95.8281   6
   2  10   3 406.134 103.451   5
  -2 -10  -3 244.472 79.6315   7
   2  10   3 344.750 99.3957   6
  -2  -9  -2 4419.38 332.373   7
   2   9   2 4330.66 318.467   5
   2   9   2 4796.03 336.957   6
   2   8   1 54.3292 33.7166   5
  -2  -8  -1 20.2618 29.0159   7
  -2  -8  -1 63.4853 22.3180   2
   2   8   1 17.2384 12.4721   6
   2   7   0 20201.1 426.601   2
   2   7   0 19432.0 590.304   5
   2   6  -1 21208.7 447.871   2
  -2  -6   1 22340.9 607.955   7
   2   6  -1 22762.5 602.805   5
   2   5  -2 24301.3 499.652   4
   2   5  -2 25980.0 516.554   2
  -2  -5   2 23655.1 604.088   1
  -2  -5   2 24225.7 504.651   4
  -2  -5   2 23921.1 594.355   7
   2   5  -2 25176.5 615.593   5
   2   5  -2 25137.4 515.092   3
   2   4  -3 7623.98 263.709   2
   2   4  -3 7177.07 203.555   4
   2   4  -3 7246.03 239.444   8
  -2  -4   3 6988.48 280.152   7
   2   4  -3 6546.65 237.125   3
  -2  -4   3 6878.99 200.782   4
  -2  -4   3 7696.30 303.757   1
   2   3  -4 10720.8 212.790   4
  -2  -3   4 8314.13 247.214   8
  -2  -3   4 11713.0 362.708   7
  -2  -3   4 10353.1 362.502   1
  -2  -3   4 10791.2 201.706   4
   2   3  -4 10637.2 313.060   3
   2   3  -4 14590.0 310.351   8
   2   3  -4 13635.8 396.340   7
  -2  -2   5 10450.3 377.066   1
   2   2  -5 9154.58 302.023   3
  -2  -1   6 223.216 22.7575   4
   2   1  -6 224.932 45.7473   3
  -2  -1   6 226.663 59.1375   1
  -2   0   7 4048.62 273.352   1
  -2   0   7 3168.12 131.662   4
   2   0  -7 3647.08 208.952   3
  -2   1   8 2706.13 249.609   1
   2  -1  -8 2538.70 185.481   3
  -2   2   9 436.110 106.044   1
   2  -2  -9 383.888 75.7932   3
  -2   3  10 4202.95 377.156   1
   2  -3 -10 4012.41 264.289   3
  -2   4  11 216.147 107.055   1
   2  -4 -11 218.627 70.9791   7
   2  -4 -11 285.294 70.2379   3
  -2   5  12 2751.22 357.825   1
   2  -5 -12 2776.18 292.848   7
  -2 -11  -3 85.8262 53.3977   7
   2  11   3 118.767 56.6074   6
   2  10   2 417.874 107.027   5
   2  10   2 411.413 105.462   6
  -2 -10  -2 384.922 104.645   7
  -2  -9  -1 77.5710 41.1440   7
   2   9   1 30.4094 22.4616   6
   2   9   1 40.6838 29.1229   5
   2   8   0 11156.9 466.634   5
   2   8   0 11934.1 495.637   6
  -2  -7   1 54.5966 23.8974   7
   2   7  -1 38.4472 21.9108   3
   2   7  -1 48.9799 10.6766   2
   2   7  -1 12.5084 24.9345   5
   2   6  -2 29312.9 556.992   2
  -2  -6   2 26251.4 674.297   7
  -2  -6   2 29341.3 609.608   4
   2   6  -2 29545.2 727.628   5
   2   6  -2 30158.9 601.954   3
  -2  -6   2 24816.0 667.574   1
   2   5  -3 198.673 43.7759   3
  -2  -5   3 252.412 56.8734   1
  -2  -5   3 148.965 43.0731   7
   2   5  -3 125.678 30.1585   4
   2   5  -3 144.871 34.6864   8
  -2  -5   3 152.924 31.3254   4
   2   5  -3 196.487 40.0410   2
   2   4  -4 83790.7 1066.55   4
   2   4  -4 80452.5 1117.89   8
  -2  -4   4 82695.8 1040.81   4
  -2  -4   4 82494.1 1314.81   1
   2   4  -4 83680.4 1210.96   3
  -2  -3   5 4712.31 258.546   1
  -2  -3   5 4540.61 106.629   4
   2   3  -5 4109.75 199.778   3
  -2  -2   6 703.778 36.3985   4
   2   2  -6 780.851 92.4466   3
  -2  -2   6 742.910 106.877   1
  -2  -2   6 738.852 72.7490   8
  -2  -1   7 18775.7 597.418   1
  -2  -1   7 17046.5 312.514   4
   2   1  -7 18069.7 488.911   3
  -2   0   8 1887.64 205.817   1
  -2   0   8 1741.64 105.615   4
   2   0  -8 2057.79 164.652   3
  -2   1   9 13999.5 624.870   1
   2  -1  -9 13909.0 476.661   3
  -2   2  10 1169.49 191.135   1
   2  -2 -10 1221.80 141.521   3
  -2   3  11 716.609 161.798   1
   2  -3 -11 547.310 98.2644   3
  -2   4  12 8.17544 52.8436   1
   2  -4 -12 68.4064 50.4875   7
   2  12   3 784.065 153.621   6
  -2 -12  -3 705.415 165.175   7
   2  11   2 697.918 142.934   5
   2  11   2 703.442 140.144   6
  -2 -11  -2 456.358 118.893   7
  -2 -10  -1 123.776 59.7570   7
   2  10   1 233.917 73.5761   6
   2  10   1 236.048 77.8966   5
  -2  -9   0 2486.65 236.251   7
   2   9   0 2607.79 242.156   6
   2   9   0 2517.37 236.715   5
   2   8  -1 369.691 67.2670   3
  -2  -8   1 235.363 63.9898   7
   2   8  -1 267.739 71.0796   5
  -2  -7   2 4888.10 242.319   4
  -2  -7   2 5502.65 297.312   7
   2   7  -2 5219.93 200.880   2
   2   7  -2 5178.60 238.935   3
  -2  -6   3 2183.43 175.907   7
  -2  -6   3 2354.39 143.196   4
  -2  -6   3 2432.44 186.079   1
   2   6  -3 2497.31 158.285   3
   2   6  -3 2270.78 136.371   2
   2   5  -4 3787.63 163.420   4
   2   5  -4 3389.19 158.330   8
  -2  -5   4 4270.89 230.124   7
   2   5  -4 4181.19 204.761   3
  -2  -5   4 4074.92 160.452   4
  -2  -5   4 3253.31 210.555   1
  -2  -4   5 4975.97 145.780   4
  -2  -4   5 5379.14 277.345   1
   2   4  -5 5061.60 229.464   3
  -2  -3   6 7341.37 350.900   1
  -2  -3   6 7090.53 141.242   4
   2   3  -6 7356.82 283.963   3
  -2  -2   7 404.803 38.7929   4
   2   2  -7 459.412 71.9779   3
  -2  -2   7 333.358 75.6940   1
  -2  -1   8 81.8384 20.8492   4
  -2  -1   8-27.9664 30.4868   1
   2   1  -8 19.4611 29.5274   3
  -2   0   9 4087.24 323.330   1
   2   0  -9 3385.56 221.653   3
  -2   1  10 2324.51 268.944   1
   2  -1 -10 2274.29 188.992   3
   2  -2 -11 1446.11 162.436   3
  -2   2  11 1394.47 220.265   1
   2  -3 -12-27.5913 30.1862   7
   2  -3 -12 3.05331 12.5534   3
  -2   3  12-47.0518 59.6916   1
  -2   4  13 93.2920 61.0806   1
  -2 -12  -2 3040.41 326.558   7
   2  12   2 4537.65 375.081   6
   2  11   1 504.553 124.926   5
  -2 -11  -1 542.912 128.135   7
   2  11   1 510.515 120.022   6
   2  10   0 1753.95 206.734   6
   2  10   0 2013.34 225.573   5
  -2 -10   0 2097.28 224.325   7
   2   9  -1 4102.23 302.682   5
  -2  -9   1 4381.12 303.427   7
   2   8  -2 4446.65 184.270   2
   2   8  -2 3907.76 280.590   5
  -2  -8   2 4207.83 239.338   4
   2   8  -2 4195.33 232.830   3
   2   7  -3 19762.0 459.863   2
  -2  -7   3 14753.8 521.740   7
  -2  -7   3 21334.3 515.748   4
  -2  -7   3 20188.2 598.213   1
   2   7  -3 18745.0 622.437   5
   2   7  -3 16860.7 474.422   3
   2   6  -4 2739.79 156.672   4
  -2  -6   4 2356.35 180.795   7
   2   6  -4 2431.29 161.740   3
  -2  -6   4 2548.17 141.698   4
   2   6  -4 3108.07 159.140   8
  -2  -6   4 3220.99 217.304   1
  -2  -5   5 3608.76 218.861   7
   2   5  -5 3754.03 163.852   4
  -2  -5   5 4211.70 157.147   4
  -2  -5   5 3813.84 239.892   1
   2   5  -5 3932.83 210.577   3
  -2  -4   6 6519.78 163.078   4
  -2  -4   6 6283.20 196.956   8
   2   4  -6 6736.99 281.065   3
  -2  -3   7 7646.11 387.413   1
  -2  -3   7 7855.60 176.082   4
   2   3  -7 7877.05 314.050   3
  -2  -3   7 8461.50 265.069   8
  -2  -2   8 567.042 48.4525   4
  -2  -2   8 611.126 110.518   1
   2   2  -8 614.586 89.4748   3
  -2  -1   9 5103.10 349.776   1
   2   1  -9 5447.62 280.954   3
  -2   0  10 1899.39 231.576   1
   2   0 -10 1608.95 163.372   3
  -2   1  11 168.543 83.3525   1
   2  -1 -11 117.337 38.9415   3
   2  -2 -12 310.878 72.8906   3
  -2   2  12 291.967 107.560   1
   2  -3 -13 71.0068 56.5332   7
  -2   3  13-71.6161 57.0583   1
   2  12   1 2246.75 258.719   6
   2  12   1 2160.57 263.895   5
  -2 -12  -1 1889.44 241.158   7
   2  11   0 443.618 100.191   6
  -2 -11   0 579.932 124.144   7
   2  11   0 492.343 122.041   5
   2  10  -1 679.526 130.138   5
  -2 -10   1 550.600 110.900   7
  -2  -9   2 3063.42 220.945   4
  -2  -9   2 3003.21 242.562   7
   2   9  -2 2916.62 260.744   5
   2   9  -2 3320.75 220.732   3
  -2  -8   3 5203.26 306.849   7
   2   8  -3 4928.18 322.467   5
  -2  -8   3 4467.76 289.286   1
   2   8  -3 4942.04 254.061   3
  -2  -8   3 4885.21 255.112   4
   2   7  -4 36.3646 24.7150   3
   2   7  -4 37.4763 20.4162   8
  -2  -7   4 2.72442 16.8810   7
  -2  -7   4 18.5063 12.5175   1
  -2  -7   4 51.0986 18.5619   4
   2   6  -5 8983.97 292.008   4
  -2  -6   5 9246.14 274.394   4
  -2  -6   5 10104.7 392.444   7
   2   6  -5 8957.91 338.073   3
  -2  -6   5 9861.41 399.061   1
   2   6  -5 8708.24 261.850   8
  -2  -5   6 948.746 68.7084   4
  -2  -5   6 811.931 117.436   1
   2   5  -6 822.955 98.0866   3
  -2  -4   7 5921.04 155.291   4
   2   4  -7 6085.49 277.491   3
  -2  -4   7 6054.64 343.995   1
  -2  -3   8 179.471 69.6241   1
  -2  -3   8 220.152 30.6408   4
   2   3  -8 219.585 55.3224   3
  -2  -3   8 196.861 38.8639   8
  -2  -2   9 1207.46 172.372   1
   2   2  -9 1360.81 140.282   3
  -2  -2   9 1374.52 86.9668   4
  -2  -1  10 6.11952 27.1833   1
   2   1 -10 80.9133 42.7289   3
  -2   0  11 108.879 45.9343   1
   2   0 -11-0.22453 19.2151   3
   2  -1 -12 39.5039 15.5531   3
  -2   1  12 159.898 97.4379   1
   2  -2 -13 275.172 105.952   7
  -2   2  13 135.763 74.8929   1
   2  -2 -13 176.107 60.2407   3
  -2 -13  -1 336.637 105.652   7
   2  13   1 253.097 95.0297   6
  -2 -12   0 157.104 57.5583   7
   2  12   0 188.428 66.1929   6
   2  12   0 119.754 56.4303   5
   2  11  -1-15.4933 19.9363   6
  -2 -11   1 34.9729 43.1642   7
   2  11  -1 6.63612 22.2226   5
  -2 -10   2 1265.19 167.290   7
   2  10  -2 1295.38 183.769   5
   2   9  -3 33.1603 26.1391   3
  -2  -9   3 39.7396 27.5664   4
  -2  -9   3-38.2647 45.6750   7
   2   9  -3-30.0309 48.3190   5
  -2  -8   4 1216.60 140.283   7
  -2  -8   4 1516.59 165.479   1
  -2  -8   4 1266.80 122.164   4
   2   8  -4 1105.83 157.769   5
   2   8  -4 1000.68 116.103   3
   2   7  -5 365.630 70.4013   3
  -2  -7   5 400.454 59.0327   4
  -2  -7   5 329.445 72.0155   7
   2   7  -5 398.277 52.3776   8
  -2  -7   5 412.246 79.4198   1
  -2  -6   6 87.8082 25.0637   4
   2   6  -6 38.2268 21.8254   3
  -2  -5   7 8233.36 213.057   4
  -2  -5   7 8670.11 408.941   1
   2   5  -7 8285.43 341.738   3
  -2  -4   8 2034.28 115.539   8
  -2  -4   8 2125.56 96.6334   4
  -2  -4   8 2595.49 234.927   1
   2   4  -8 2115.80 171.477   3
  -2  -3   9 3941.22 310.864   1
  -2  -3   9 3743.06 147.861   4
   2   3  -9 4044.87 243.083   3
  -2  -2  10 998.715 165.634   1
   2   2 -10 1298.98 142.578   3
  -2  -1  11 3473.02 325.029   1
   2   1 -11 3642.06 250.470   3
  -2   0  12-31.9394 59.6696   1
   2   0 -12 40.7219 27.5555   3
  -2   1  13 118.715 73.7908   1
   2  -1 -13 25.0392 27.6713   3
  -2 -13   0 1172.47 189.691   7
   2  13   0 1019.59 176.095   6
   2  12  -1 12.8054 32.6712   6
  -2 -12   1 79.5626 41.7219   7
   2  12  -1 73.2191 62.4277   5
  -2 -11   2 6505.64 403.984   7
   2  11  -2 5988.99 417.920   5
  -2 -10   3 1821.01 200.069   7
   2  10  -3 1695.46 211.141   5
  -2 -10   3 2074.12 188.561   4
   2  10  -3 1552.32 163.552   3
  -2  -9   4 25907.4 757.362   1
  -2  -9   4 24083.5 620.917   4
   2   9  -4 21051.9 758.357   5
   2   9  -4 20485.8 598.545   3
  -2  -8   5 157.083 47.2105   1
   2   8  -5 245.433 60.3032   3
  -2  -8   5 177.887 42.3889   4
  -2  -8   5 163.471 48.1996   7
  -2  -7   6 4408.27 268.877   7
  -2  -7   6 4268.37 194.444   4
   2   7  -6 4127.40 241.887   3
  -2  -7   6 3923.41 270.449   1
  -2  -6   7 12023.3 306.629   4
   2   6  -7 11896.0 431.406   3
  -2  -5   8 144.727 27.0559   4
  -2  -5   8 146.278 62.1631   1
   2   5  -8 140.846 54.2034   3
  -2  -4   9 20521.1 391.769   4
  -2  -4   9 19701.6 728.397   1
   2   4  -9 19857.7 592.204   3
  -2  -3  10 2259.37 247.851   1
  -2  -3  10 2095.69 121.474   4
  -2  -3  10 2740.31 170.296   8
   2   3 -10 2152.36 184.918   3
  -2  -2  11 9289.49 543.824   1
   2   2 -11 9004.40 403.464   3
  -2  -1  12 1685.09 235.640   1
   2   1 -12 1406.31 163.293   3
  -2   0  13 3809.70 392.885   1
   2   0 -13 3324.56 259.334   3
   2  -1 -14 299.686 99.8393   7
  -2   1  14 226.335 88.7724   1
   2  13  -1 1791.58 235.812   6
  -2 -13   1 2317.77 269.920   7
   2  13  -1 2018.96 267.690   5
  -2 -12   2 377.828 97.2195   7
   2  12  -2 247.041 90.3342   5
  -2 -11   3 2083.57 203.039   4
  -2 -11   3 1939.91 217.542   7
   2  11  -3 1956.37 241.760   5
  -2 -10   4 748.494 109.104   4
  -2 -10   4 837.763 129.874   7
   2  10  -4 538.738 122.216   5
   2  10  -4 648.189 107.805   3
  -2  -9   5 6679.21 301.270   4
  -2  -9   5 6050.79 358.844   1
   2   9  -5 6366.29 416.230   5
   2   9  -5 6802.68 337.397   3
  -2  -8   6 17380.9 573.893   7
  -2  -8   6 17192.1 458.076   4
   2   8  -6 16302.6 530.578   3
  -2  -8   6 16350.7 599.270   1
  -2  -7   7 2179.64 133.429   4
  -2  -7   7 2176.35 210.463   1
   2   7  -7 2094.60 177.178   3
  -2  -6   8 2835.00 132.897   4
  -2  -6   8 2692.55 239.442   1
   2   6  -8 2922.31 215.060   3
  -2  -5   9 3817.73 144.325   4
  -2  -5   9 3467.84 300.388   1
   2   5  -9 3628.03 244.105   3
  -2  -4  10 250.058 80.5362   1
  -2  -4  10 151.699 31.2079   4
   2   4 -10 189.599 63.0885   3
  -2  -3  11 12490.6 638.423   1
   2   3 -11 12516.8 487.230   3
  -2  -2  12 227.776 89.4139   1
   2   2 -12 334.714 79.5171   3
  -2  -1  13 1228.79 216.918   1
   2   1 -13 1119.55 149.498   3
  -2   0  14 70.8087 25.4928   1
   2   0 -14 3.14015 18.2989   3
   2  13  -2 615.119 151.565   5
   2  13  -2 913.553 171.065   6
  -2 -13   2 624.323 133.192   7
  -2 -12   3 208.749 69.5945   7
   2  12  -3 190.775 80.7377   5
  -2 -11   4 1240.42 170.154   7
  -2 -11   4 1223.95 151.236   4
   2  11  -4 966.798 174.049   5
   2  11  -4 1025.73 142.699   3
  -2 -10   5 1026.98 125.846   4
  -2 -10   5 1056.31 146.245   7
  -2 -10   5 989.853 149.312   1
   2  10  -5 952.126 170.071   5
   2  10  -5 992.927 135.775   3
  -2  -9   6 4272.74 233.179   4
  -2  -9   6 3827.14 269.919   7
   2   9  -6 4177.20 271.370   3
  -2  -8   7 1373.09 115.976   4
   2   8  -7 1236.85 143.719   3
  -2  -8   7 1308.81 166.716   1
   2   7  -8 572.449 93.5503   3
  -2  -7   8 696.382 74.4713   4
  -2  -7   8 672.226 119.568   1
  -2  -6   9 2880.16 134.342   4
  -2  -6   9 3019.86 268.916   1
   2   6  -9 3260.82 239.238   3
  -2  -5  10 1126.90 80.9811   4
  -2  -5  10 1045.40 172.594   1
   2   5 -10 1190.06 143.577   3
  -2  -4  11 2461.42 275.796   1
   2   4 -11 2322.64 207.486   3
   2   3 -12 470.926 90.7605   3
  -2  -3  12 380.517 120.924   1
  -2  -2  13 472.882 127.259   1
   2   2 -13 330.473 78.2096   3
  -2  -1  14 135.426 99.0640   1
   2   1 -14-32.1996 28.4557   3
   2  14  -2 169.014 84.4110   6
  -2 -13   3 43.8628 34.0237   7
   2  13  -3 23.1267 20.4652   5
  -2 -12   4 1031.13 148.790   4
   2  12  -4 770.227 166.945   5
  -2 -12   4 810.981 140.602   7
   2  11  -5 365.060 87.7378   3
  -2 -11   5 233.100 57.6252   4
  -2 -11   5 271.744 77.6961   7
   2  11  -5 231.521 85.6201   5
   2  10  -6 12.6645 17.7682   3
  -2 -10   6 24.1076 16.1352   7
  -2 -10   6-21.3525 19.2426   4
   2  10  -6 3.06181 19.7899   5
  -2 -10   6 50.8440 35.3038   1
   2   9  -7 94.7702 39.2219   3
  -2  -9   7 57.6687 25.8653   4
  -2  -9   7 31.1273 25.9105   1
   2   8  -8 48.9686 20.1712   3
  -2  -8   8 62.2008 23.1604   4
  -2  -8   8 33.5876 24.2395   1
   2   7  -9 343.673 76.6218   3
  -2  -7   9 307.068 47.6043   4
  -2  -7   9 276.765 82.1891   1
  -2  -6  10 78.4744 53.7349   1
   2   6 -10-2.55055 25.3364   3
  -2  -5  11 570.105 131.960   1
   2   5 -11 712.158 115.243   3
  -2  -4  12 925.315 178.053   1
   2   4 -12 854.163 132.982   3
  -2  -3  13 528.010 152.632   1
   2   3 -13 483.601 101.461   3
  -2  -2  14-149.086 80.6687   1
   2   2 -14-55.6966 53.2625   3
   2  14  -3 900.301 186.527   5
   2  13  -4 460.950 132.604   5
   2  12  -5 371.716 91.8707   3
  -2 -12   5 480.463 121.525   7
  -2 -12   5 393.735 86.9846   4
   2  12  -5 386.664 117.085   5
  -2 -11   6 611.087 121.874   1
   2  11  -6 615.797 118.083   3
  -2 -11   6 592.883 118.677   7
  -2 -11   6 679.689 107.114   4
   2  11  -6 606.598 141.802   5
  -2 -10   7 708.289 127.995   1
  -2 -10   7 1169.56 127.537   4
   2  10  -7 1001.70 139.509   3
   2   9  -8 130.175 46.4506   3
  -2  -9   8 102.685 46.9639   1
  -2  -9   8 109.095 34.8698   4
  -2  -8   9 1177.82 104.385   4
  -2  -8   9 1058.23 163.754   1
   2   8  -9 1111.32 142.519   3
  -2  -7  10 638.818 136.175   1
   2   7 -10 608.272 107.114   3
  -2  -6  11 3870.08 347.199   1
   2   6 -11 3135.84 254.438   3
  -2  -5  12 3955.96 370.842   1
   2   5 -12 4033.43 295.223   3
  -2  -4  13-13.4271 57.2558   1
   2   4 -13-8.77800 35.6008   3
   2   3 -14 59.7959 30.5802   3
  -2  -3  14 201.329 92.8294   1
   2   2 -15-27.7661 16.9918   3
   2  14  -4 1022.02 199.099   5
   2  13  -5 579.163 156.030   5
  -2 -13   5 757.091 129.587   4
   2  12  -6 1053.46 202.756   5
  -2 -12   6 1076.57 160.658   7
  -2 -12   6 1370.88 162.926   4
   2  12  -6 1194.93 166.397   3
   2  11  -7 265.172 77.6094   3
  -2 -11   7 257.288 62.5515   4
   2  11  -7 242.919 96.2087   5
  -2 -11   7 238.035 76.4117   1
  -2 -10   8 3009.21 275.235   1
  -2 -10   8 3157.46 205.968   4
   2  10  -8 2905.32 248.654   3
  -2  -9   9 739.886 136.524   1
   2   9  -9 786.999 127.261   3
   2   8 -10 127.930 54.3488   3
  -2  -8  10 107.528 50.8782   1
  -2  -7  11 1161.30 186.106   1
   2   7 -11 1104.87 152.952   3
  -2  -6  12 585.924 142.260   1
   2   6 -12 582.711 108.922   3
  -2  -5  13 7017.48 521.940   1
   2   5 -13 6616.01 397.479   3
  -2  -4  14 6.41972 35.9976   1
   2   4 -14-10.2797 39.0369   3
   2   3 -15 658.474 127.389   3
   2  14  -5 79.8534 29.4138   5
  -2 -13   6 3463.74 277.012   4
   2  13  -6 2883.24 344.164   5
   2  13  -6 3164.38 288.729   3
   2  12  -7-15.7285 33.2005   3
  -2 -12   7 111.207 72.7747   1
   2  12  -7-24.2126 51.4519   5
  -2 -11   8 1019.91 168.729   1
   2  11  -8 903.133 186.248   5
   2  11  -8 1031.61 153.195   3
   2  10  -9 188.078 65.7720   3
  -2 -10   9 267.511 89.2940   1
  -2  -9  10 988.432 169.041   1
   2   9 -10 891.849 138.807   3
  -2  -8  11 1539.28 219.241   1
   2   8 -11 1802.30 198.432   3
   2   7 -12 292.109 81.1329   3
  -2  -7  12 108.965 59.4953   1
  -2  -6  13 869.616 186.545   1
   2   6 -13 865.978 145.194   3
   2   5 -14 240.926 73.3730   3
  -2  -5  14 307.170 114.522   1
   2   4 -15 154.591 72.7065   3
   2  13  -7 168.503 70.4038   3
   2  13  -7 138.236 84.0235   5
   2  12  -8 183.217 62.4367   3
  -2 -12   8 224.309 77.6730   1
   2  12  -8 124.491 64.0256   5
   2  11  -9-33.7418 20.3816   3
  -2 -11   9 48.8476 53.1136   1
   2  10 -10 144.285 50.4487   3
  -2 -10  10 337.915 100.760   1
   2   9 -11 328.934 93.2350   3
  -2  -9  11 426.155 120.278   1
   2   8 -12-43.3953 41.2741   3
  -2  -8  12-38.5490 59.8263   1
   2   7 -13 53.0833 47.9176   3
  -2  -7  13-3.70029 29.7577   1
   2   6 -14 312.750 91.8898   3
  -2  -6  14 330.007 116.441   1
   2   5 -15 171.419 64.6913   3
  -2 -13   8 402.859 110.904   1
   2  13  -8 267.111 105.500   5
   2  12  -9-33.7325 36.6621   3
   2  12  -9 6.95686 38.0481   5
  -2 -12   9 17.5113 51.4517   1
   2  11 -10 742.438 136.822   3
  -2 -11  10 654.314 145.282   1
   2  10 -11 39.3393 21.7607   3
  -2 -10  11 76.6697 46.8273   1
  -2  -9  12 72.2123 50.7556   1
   2   9 -12 98.4174 46.1211   3
   2   8 -13 97.0525 45.1649   3
  -2  -8  13 193.425 87.1720   1
   2   7 -14 862.981 148.693   3
  -2  -7  14 668.084 163.917   1
  -2 -13   9 105.835 67.1825   1
  -2 -12  10 433.895 116.471   1
   2  11 -11 32.0303 23.0211   3
  -2 -11  11 214.815 87.7878   1
  -2 -10  12 1084.50 196.665   1
   2  10 -12 1061.23 168.561   3
   2   9 -13 14.3715 15.9805   3
  -2  -9  13-68.4576 63.3168   1
  -2 -12  11 199.622 80.6413   1
  -2 -11  12 146.136 59.0373   1
   3 -10  12 483.144 115.520   4
   3 -11  11 2.23604 16.9498   4
   3 -12  10 215.068 84.6903   4
   3 -13   9 106.177 63.5534   4
   3  -8  13-17.1984 18.9910   4
   3  -9  12 620.088 135.799   4
  -3   9 -12 688.532 134.455   2
  -3  10 -11-49.1573 36.9088   2
   3 -10  11-24.9740 46.9577   4
  -3  11 -10 573.443 163.509   5
   3 -11  10 710.261 141.536   4
   3 -12   9 100.560 62.4500   4
  -3  12  -9 211.304 108.810   5
   3 -13   8 271.567 87.7880   4
  -3  13  -8 206.399 94.6674   5
   3  -7  13 449.388 116.220   4
  -3   8 -12 115.652 68.2315   2
   3  -8  12 69.0021 49.5191   4
  -3   9 -11 138.563 48.4951   2
   3  -9  11 243.142 86.8497   4
   3 -10  10 560.204 120.880   4
  -3  10 -10 557.734 105.092   2
   3 -11   9 364.643 95.2614   4
  -3  11  -9 345.869 129.457   5
   3 -12   8 1567.44 204.572   4
  -3  12  -8 1967.72 288.612   5
   3 -13   7 192.216 69.8066   4
  -3  13  -7 121.231 68.8822   5
   3 -14   6 280.226 85.0846   4
   3  -6  13 287.335 91.8166   4
   3  -6  13 426.147 121.631   1
  -3   7 -12 244.389 78.0637   2
   3  -7  12 93.2983 31.1971   4
   3  -8  11 202.816 75.7497   4
  -3   8 -11 176.120 62.0899   2
  -3   9 -10 253.149 76.4809   2
   3  -9  10 295.204 81.5978   4
  -3  10  -9 217.590 63.4257   2
   3 -10   9 226.243 77.4890   4
   3 -11   8 271.647 88.0696   4
  -3  11  -8 165.161 85.6009   5
   3 -12   7 102.902 47.5364   4
  -3  12  -7 155.317 76.6049   5
   3 -13   6-6.07993 24.8652   4
  -3  13  -6-14.8869 65.0399   5
  -3  14  -5 133.954 77.9046   5
   3 -14   5 85.2797 45.5812   4
   3  -5  13 166.246 81.7606   1
   3  -6  12 2139.37 268.409   1
   3  -6  12 2369.66 267.831   4
  -3   6 -12 1909.54 235.342   2
  -3   7 -11 531.591 115.592   2
   3  -7  11 663.926 132.463   4
   3  -7  11 600.621 129.284   1
   3  -8  10 5064.98 359.979   4
   3  -8  10 5954.48 384.844   1
  -3   8 -10 5034.38 337.937   2
   3  -9   9 2219.68 231.282   4
  -3   9  -9 2223.66 206.396   2
   3 -10   8 1185.22 170.175   4
  -3  10  -8 1300.39 145.422   2
  -3  10  -8 1240.85 217.663   5
   3 -11   7 3617.95 294.667   4
  -3  11  -7 3550.69 370.728   5
   3 -12   6 802.778 137.101   4
  -3  12  -6 838.031 173.007   5
   3 -13   5 1381.31 185.523   4
  -3  13  -5 1351.22 240.016   5
   3 -14   4-3.38003 36.8533   4
  -3  14  -4 80.2985 63.2608   5
   3  -4  13 341.469 120.177   1
  -3   5 -12 192.590 75.1810   2
   3  -5  12 170.569 84.3841   1
   3  -6  11 501.039 110.302   4
  -3   6 -11 513.024 119.942   2
   3  -6  11 632.184 134.823   1
   3  -7  10 2132.88 231.722   1
   3  -7  10 1760.13 210.481   4
  -3   7 -10 1935.02 207.477   2
   3  -8   9 381.438 89.4518   1
   3  -8   9 254.635 73.8670   4
  -3   8  -9 317.546 81.9749   2
   3  -9   8 4984.55 336.297   4
  -3   9  -8 5044.24 296.169   2
  -3  10  -7 119.449 35.4153   2
   3 -10   7 19.6297 16.9032   4
  -3  10  -7 69.6089 66.0208   5
   3 -11   6 1773.43 205.099   4
  -3  11  -6 1811.38 255.429   5
   3 -12   5 1120.44 162.569   4
  -3  12  -5 1326.59 224.630   5
   3 -13   4 252.954 75.6258   4
  -3  13  -4 394.535 131.780   5
   3 -14   3 751.782 143.353   4
  -3  14  -3 710.822 177.994   5
  -3   3 -13 88.6033 51.6014   7
   3  -3  13 141.721 59.4287   1
  -3   4 -12 78.2569 41.7760   2
  -3   4 -12 75.2730 33.5774   7
   3  -4  12 154.201 76.2477   1
  -3   5 -11 150.399 57.6508   2
   3  -5  11 171.522 73.7886   1
  -3   5 -11 109.147 46.1633   7
   3  -6  10 573.938 114.133   4
  -3   6 -10 521.893 83.1764   7
   3  -6  10 666.953 129.058   1
  -3   6 -10 581.999 111.689   2
   3  -7   9 1172.08 164.882   1
   3  -7   9 1236.94 169.169   4
  -3   7  -9 972.845 135.937   2
   3  -8   8 3.71278 27.4290   4
  -3   8  -8 19.0029 32.2605   2
   3  -8   8 21.1596 23.4761   1
   3  -9   7-44.2586 45.2275   4
  -3   9  -7-5.42928 23.3082   2
  -3   9  -7 15.5269 35.8088   5
   3  -9   7 1.88234 19.7718   1
   3 -10   6 4908.96 327.745   4
  -3  10  -6 4864.31 240.743   2
  -3  10  -6 4333.45 380.648   5
   3 -11   5 301.903 80.5012   4
  -3  11  -5 247.386 87.3712   5
   3 -12   4 1125.78 157.553   4
  -3  12  -4 1147.92 208.248   5
   3 -13   3 461.719 108.058   4
  -3  13  -3 494.530 140.231   5
   3 -14   2 638.294 139.169   4
  -3  14  -2 448.814 143.821   5
  -3   2 -13 2942.10 279.337   7
  -3   3 -12 67.2863 42.5550   2
   3  -3  12 138.171 96.4407   1
  -3   3 -12 28.9221 14.5953   7
  -3   4 -11 401.353 104.990   2
  -3   4 -11 377.040 82.0732   7
   3  -4  11 473.307 125.946   1
   3  -5  10 1138.14 184.100   1
  -3   5 -10 1010.86 149.535   2
  -3   5 -10 1027.64 124.244   7
  -3   5 -10 1167.00 127.012   3
   3  -6   9 341.175 89.1355   4
  -3   6  -9 451.305 89.9784   2
  -3   6  -9 459.911 70.4834   7
   3  -6   9 347.283 87.6596   1
   3  -7   8 6659.23 358.865   1
   3  -7   8 6191.28 368.272   4
  -3   7  -8 6208.43 335.067   2
   3  -8   7 939.958 137.806   4
  -3   8  -7 976.075 119.566   2
   3  -8   7 1065.49 125.489   1
   3  -9   6 3695.87 273.767   4
   3  -9   6 3310.69 189.214   1
  -3   9  -6 3830.86 340.356   5
  -3   9  -6 3564.26 212.577   2
  -3  10  -5 229.900 87.2098   5
   3 -10   5 321.466 82.3994   4
   3 -11   4 2635.74 236.689   4
  -3  11  -4 2795.60 310.499   5
   3 -12   3 670.381 122.884   4
  -3  12  -3 556.231 141.579   5
   3 -13   2 1786.78 214.103   4
  -3  13  -2 1685.85 260.202   5
   3 -14   1 2729.96 282.558   4
  -3  14  -1 2170.33 310.527   5
  -3   1 -13 208.624 78.0616   7
  -3   2 -12 414.482 110.893   2
  -3   2 -12 396.116 98.1570   7
   3  -2  12 456.785 141.813   1
  -3   3 -11 930.888 155.936   2
  -3   3 -11 855.865 129.801   7
   3  -3  11 750.911 165.209   1
  -3   4 -10 193.360 53.4234   7
   3  -4  10 123.382 55.6357   1
  -3   4 -10 67.5073 44.7594   2
   3  -5   9 1004.69 157.672   1
  -3   5  -9 920.171 107.981   7
  -3   5  -9 869.014 130.910   2
  -3   5  -9 1009.23 113.436   3
   3  -6   8 6088.71 341.165   1
   3  -6   8 6824.61 394.078   4
  -3   6  -8 6077.53 332.878   2
   3  -7   7 719.446 103.817   1
  -3   7  -7 648.392 100.039   2
  -3   7  -7 677.708 54.2296   7
   3  -7   7 575.048 110.345   4
   3  -8   6 1118.67 143.583   4
   3  -8   6 1063.97 108.354   1
  -3   8  -6 1095.96 173.333   5
  -3   8  -6 1090.47 118.825   2
   3  -9   5 49.9762 40.1528   4
  -3   9  -5 18.5840 13.5155   8
  -3   9  -5 65.2970 30.0859   2
   3  -9   5 44.2275 21.6623   1
  -3   9  -5-1.09605 28.5185   5
   3 -10   4 40.4236 18.8584   4
  -3  10  -4 101.476 35.0529   8
  -3  10  -4 94.5423 60.3899   5
   3 -11   3 1585.89 180.301   4
  -3  11  -3 1578.20 151.594   8
  -3  11  -3 1476.00 219.657   5
   3 -12   2 705.166 123.586   4
  -3  12  -2 842.360 171.963   5
   3 -13   1 810.177 145.614   4
  -3  13  -1 802.498 176.267   5
   3 -14   0-57.6108 45.4340   4
  -3  14   0-23.9417 45.3848   5
  -3   1 -12 294.560 97.3226   2
  -3   1 -12 212.549 75.2601   7
   3  -1  12 384.749 133.191   1
   3  -2  11 38.5638 53.2007   1
  -3   2 -11-5.96174 28.2849   2
  -3   2 -11 6.83137 33.0222   7
   3  -3  10 36.4170 26.2975   1
  -3   3 -10 92.9364 50.7603   2
  -3   3 -10 37.5344 18.7816   7
  -3   4  -9-12.3936 17.3911   3
  -3   4  -9-4.17270 19.9647   7
  -3   4  -9 10.2420 12.4882   2
   3  -5   8 41.6612 32.2481   1
  -3   5  -8 7.93712 13.2698   7
  -3   5  -8 44.1388 36.4432   2
   3  -6   7 9043.26 384.455   1
   3  -6   7 9317.23 431.607   4
  -3   6  -7 9022.06 378.057   2
   3  -7   6 3965.41 266.691   4
   3  -7   6 4240.67 230.466   1
  -3   7  -6 3759.29 227.810   2
   3  -8   5 48.2299 22.5038   1
   3  -8   5-0.44864 31.0941   4
  -3   8  -5 15.6910 12.4440   2
  -3   8  -5 24.6393 42.4727   5
   3  -9   4 1026.71 141.669   4
  -3   9  -4 909.707 88.2999   2
   3  -9   4 1028.11 81.2698   1
  -3   9  -4 985.632 104.784   8
  -3   9  -4 1017.35 165.915   5
   3 -10   3 1293.73 152.151   4
  -3  10  -3 1241.94 128.450   8
  -3  10  -3 1246.11 189.498   5
   3 -11   2 1011.31 142.799   4
  -3  11  -2 1144.55 189.805   5
   3 -12   1 3692.77 295.387   4
  -3  12  -1 3760.39 366.851   5
   3 -13   0 24.4827 33.2221   4
  -3  13   0 251.216 114.345   5
   3   0  12 57.1767 35.0953   1
  -3   0 -12 113.671 64.5764   2
  -3   0 -12 27.1436 14.7357   7
   3   0  12 6.85643 39.7076   6
  -3   1 -11 244.869 74.1581   7
  -3   1 -11 200.828 74.8825   2
   3  -1  11 272.439 101.016   1
   3  -1  11 213.974 85.7359   6
  -3   2 -10 1442.35 186.335   2
  -3   2 -10 1438.88 168.992   7
   3  -2  10 1380.78 194.307   6
   3  -2  10 1352.59 216.224   1
   3  -3   9 1365.85 186.536   6
  -3   3  -9 1194.31 136.762   7
  -3   3  -9 1142.07 154.091   2
   3  -3   9 1150.82 180.550   1
   3  -4   8 3869.36 300.088   1
  -3   4  -8 3634.82 259.351   2
  -3   4  -8 3854.44 219.457   7
   3  -5   7 6961.12 361.229   1
  -3   5  -7 6450.90 327.268   2
   3  -6   6 6963.35 309.005   1
   3  -6   6 6624.00 349.130   4
  -3   6  -6 6276.96 301.357   2
  -3   6  -6 6958.63 200.288   7
  -3   6  -6 6444.40 180.956   7
  -3   7  -5 174.113 47.8471   2
   3  -7   5 193.529 61.0898   4
   3  -7   5 118.967 33.7885   1
  -3   7  -5 186.647 76.7715   5
   3  -8   4 494.256 55.5418   1
   3  -8   4 531.432 94.7479   4
  -3   8  -4 455.411 66.5977   8
  -3   8  -4 507.016 67.0067   2
  -3   8  -4 513.226 108.826   5
   3  -9   3 2157.26 194.874   4
  -3   9  -3 2243.23 168.737   8
  -3   9  -3 2054.91 234.012   5
  -3   9  -3 2051.82 115.194   2
  -3  10  -2 476.510 110.130   5
  -3  10  -2 445.301 81.6189   8
   3 -10   2 415.276 86.6843   4
   3 -11   1 283.866 73.3972   4
  -3  11  -1 360.779 113.407   5
   3 -12   0 21.6334 20.4619   4
  -3  12   0 116.788 70.3217   5
   3 -13  -1 1930.36 232.563   4
  -3  13   1 2094.04 306.008   5
  -3  -1 -12 302.510 99.1356   7
  -3   0 -11 2402.49 258.577   2
  -3   0 -11 2339.87 240.517   7
   3   0  11 2393.26 272.845   6
   3   0  11 2412.75 313.586   1
   3  -1  10 45.7449 58.6788   1
  -3   1 -10 135.866 52.2576   7
   3  -1  10 50.3792 30.6497   6
  -3   1 -10 32.9367 43.7429   2
  -3   2  -9 2406.77 228.265   2
   3  -2   9 2425.09 238.721   6
  -3   2  -9 2307.67 200.956   7
   3  -2   9 2234.55 254.224   1
  -3   3  -8 935.139 130.227   2
  -3   3  -8 1002.26 118.253   7
   3  -3   8 1061.13 147.998   6
   3  -3   8 952.803 156.622   1
  -3   4  -7 3069.37 177.556   7
  -3   4  -7 2800.00 213.802   2
   3  -4   7 3043.60 247.670   1
   3  -5   6 13882.4 475.727   1
   3  -5   6 14292.6 395.515   8
  -3   5  -6 13233.6 320.997   7
  -3   5  -6 13090.8 447.088   2
   3  -6   5 11603.9 365.355   1
   3  -6   5 11144.5 445.812   4
  -3   6  -5 11382.2 386.791   2
  -3   6  -5 11458.9 197.210   7
  -3   6  -5 12293.7 201.005   7
   3  -7   4 965.772 121.620   4
  -3   7  -4 1058.54 100.695   8
   3  -7   4 1017.41 79.1303   1
  -3   7  -4 1020.59 98.4988   2
  -3   7  -4 1133.62 153.450   5
  -3   8  -3 27.8620 24.3068   8
  -3   8  -3 9.08764 12.3183   2
   3  -8   3 11.8447 28.1599   4
  -3   8  -3-9.21083 31.2639   5
  -3   9  -2 61.6378 26.7190   8
   3  -9   2 133.178 47.3704   4
  -3   9  -2 75.5334 19.4944   1
  -3   9  -2 29.3531 24.4427   5
   3 -10   1 436.143 87.2901   4
  -3  10  -1 403.386 104.832   5
   3 -11   0 709.305 124.897   4
  -3  11   0 711.213 154.147   5
   3 -12  -1 3578.96 296.171   4
  -3  12   1 3726.71 380.272   5
  -3  13   2 125.239 74.1893   5
   3 -13  -2 75.1694 32.5414   4
   3   1  11 1153.52 221.652   1
  -3  -1 -11 1278.66 183.450   7
   3   1  11 1381.81 207.790   6
  -3  -1 -11 1275.94 190.529   2
   3   0  10 439.617 127.606   1
  -3   0 -10 477.038 108.130   2
  -3   0 -10 536.581 108.565   7
   3   0  10 430.745 105.913   6
  -3   1  -9 2345.60 204.717   7
   3  -1   9 2856.19 259.992   6
  -3   1  -9 2610.69 240.561   2
   3  -1   9 2735.04 291.696   1
  -3   2  -8 1002.45 138.645   2
  -3   2  -8 967.563 119.388   7
   3  -2   8 1011.04 143.712   6
   3  -2   8 991.984 164.530   1
   3  -3   7 13293.7 503.349   6
   3  -3   7 12511.5 518.552   1
  -3   3  -7 12595.8 403.707   7
  -3   3  -7 11944.7 461.171   2
  -3   4  -6 11030.4 414.889   2
   3  -4   6 12120.7 464.623   6
   3  -4   6 12219.2 464.154   1
   3  -5   5 4405.90 228.550   1
   3  -5   5 4830.33 282.993   4
  -3   5  -5 4703.02 152.729   7
   3  -5   5 4819.70 210.235   8
  -3   5  -5 4430.89 234.140   2
   3  -6   4 14237.0 353.308   1
   3  -6   4 13824.9 473.659   4
  -3   6  -4 13917.1 402.865   2
  -3   6  -4 14064.5 536.860   5
  -3   6  -4 13507.6 378.317   8
  -3   7  -3 124.736 35.5327   8
   3  -7   3 147.948 23.9250   1
  -3   7  -3 130.177 30.5482   2
   3  -7   3 64.3803 25.9975   4
  -3   7  -3 153.408 58.3498   5
   3  -8   2 7452.22 348.700   4
  -3   8  -2 7631.35 311.819   8
  -3   8  -2 7113.16 213.160   2
  -3   8  -2 7588.66 425.336   5
  -3   8  -2 7289.75 180.007   1
  -3   9  -1 8143.33 226.855   1
   3  -9   1 7677.36 363.021   4
   3  -9   1 9027.91 186.239   7
  -3   9  -1 8204.84 463.009   5
   3 -10   0 10569.6 448.032   4
  -3  10   0 10917.2 574.599   5
   3 -11  -1 1166.96 160.493   4
  -3  11   1 1021.73 189.323   5
  -3  12   2 361.082 116.082   5
   3 -12  -2 184.337 65.4699   4
  -3  13   3 357.562 113.787   5
   3 -13  -3 533.518 120.995   4
  -3  -2 -11 1479.35 208.765   7
   3   2  11 1601.93 220.730   6
  -3  -2 -11 1392.37 202.615   2
   3   2  11 1528.29 267.997   1
   3   1  10 563.685 144.495   1
  -3  -1 -10 877.664 147.779   2
  -3  -1 -10 868.184 143.354   7
   3   1  10 881.306 156.004   6
  -3   0  -9 1955.84 210.129   2
   3   0   9 1581.35 192.989   6
  -3   0  -9 2018.43 196.561   7
  -3   1  -8 2086.48 203.688   2
   3  -1   8 1995.75 202.978   6
  -3   1  -8 1756.77 164.950   7
   3  -2   7 11709.9 309.836   3
  -3   2  -7 10915.5 445.007   2
  -3   2  -7 11223.1 400.208   7
   3  -2   7 12019.5 474.638   6
   3  -2   7 11788.0 524.777   1
  -3   3  -6 2774.78 201.956   2
  -3   3  -6 2519.49 153.119   7
   3  -3   6 2681.02 143.666   3
   3  -3   6 2767.50 205.697   6
   3  -3   6 2488.24 209.044   1
   3  -4   5 6025.43 243.740   8
  -3   4  -5 5188.97 258.964   2
  -3   4  -5 5212.40 185.825   7
   3  -4   5 5586.35 282.105   6
   3  -4   5 5540.61 274.351   1
   3  -5   4 175.797 49.5280   4
  -3   5  -4 209.599 22.6359   7
  -3   5  -4 226.913 49.0734   2
   3  -5   4 181.346 40.0870   1
   3  -6   3 12292.2 428.652   4
  -3   6  -3 12812.5 369.455   8
  -3   6  -3 11902.8 341.589   2
   3  -6   3 12223.0 256.743   1
  -3   6  -3 12874.1 497.379   5
   3  -7   2 690.410 97.6072   4
  -3   7  -2 764.658 92.2026   8
  -3   7  -2 739.985 70.2267   2
  -3   7  -2 774.560 125.283   5
  -3   8  -1 41.6598 10.5004   1
   3  -8   1 32.0342 25.5230   4
  -3   8  -1 9.13561 5.19957   6
  -3   8  -1 60.3143 41.4933   5
   3  -9   0 1678.09 164.272   4
   3  -9   0 1549.98 100.013   7
  -3   9   0 1744.50 110.578   1
  -3   9   0 1911.79 219.856   5
   3 -10  -1 12534.9 503.027   4
  -3  10   1 12158.0 608.811   5
   3 -11  -2 1046.55 153.528   4
  -3  11   2 1179.41 203.269   5
  -3  12   3 962.988 199.893   5
   3 -12  -3 947.042 157.040   4
  -3  -3 -11 120.347 50.8805   7
  -3  -3 -11 52.7217 30.4168   2
   3   3  11 156.732 67.3037   6
  -3  -2 -10 42.0300 50.1082   7
  -3  -2 -10-55.8498 59.0082   2
   3   2  10-12.4043 36.5639   6
  -3  -1  -9 887.157 142.453   2
  -3  -1  -9 972.215 142.817   7
   3   1   9 1049.03 162.783   6
  -3   0  -8 150.757 52.8148   7
  -3   0  -8 169.132 52.7769   2
   3   0   8 56.6943 38.3017   6
  -3   1  -7 179.519 53.1743   2
  -3   1  -7 161.352 44.9131   7
   3  -1   7 243.036 62.9737   6
   3  -2   6 9298.29 255.282   3
  -3   2  -6 8754.36 371.193   2
  -3   2  -6 8802.20 316.545   7
   3  -2   6 8850.26 380.890   6
   3  -3   5 1906.19 158.554   6
   3  -3   5 1848.39 115.938   3
  -3   3  -5 1857.81 154.298   2
   3  -3   5 1933.39 169.802   1
  -3   4  -4 165.291 27.7670   7
   3  -4   4 202.370 43.3700   8
   3  -4   4 170.156 40.9440   1
  -3   4  -4 93.4955 26.8961   2
   3  -4   4 231.222 53.7621   6
   3  -5   3 4055.51 150.584   1
   3  -5   3 3983.43 234.386   4
  -3   5  -3 3999.92 195.217   8
  -3   5  -3 3844.55 190.007   2
  -3   5  -3 4213.94 257.742   5
   3  -6   2 5.72325 13.0731   4
  -3   6  -2 4.29189 12.5355   8
  -3   6  -2 2.12483 6.39353   6
  -3   6  -2 0.33710 4.96430   2
  -3   6  -2-29.7657 27.2238   5
   3  -7   1 175.450 47.5238   4
  -3   7  -1 226.815 36.9272   2
  -3   7  -1 247.934 40.6314   6
  -3   7  -1 253.576 70.9648   5
  -3   8   0 189.041 32.0240   1
   3  -8   0 164.960 48.3543   4
   3  -8   0 217.968 34.7117   7
  -3   8   0 206.614 37.0776   6
  -3   8   0 164.604 59.7000   5
   3  -9  -1 1014.71 130.984   4
  -3   9   1 873.509 73.2547   6
   3  -9  -1 919.342 88.6818   7
  -3   9   1 970.922 156.206   5
   3 -10  -2 145.274 51.3715   4
   3 -10  -2 93.6667 34.0512   7
  -3  10   2 63.7304 48.6250   5
   3 -11  -3 2364.45 236.866   4
  -3  11   3 2553.02 299.856   5
  -3  12   4 73.8533 69.4132   5
   3 -12  -4 112.943 61.2141   4
  -3  -4 -11 58.5931 32.8101   2
  -3  -3 -10 197.492 76.7314   7
  -3  -3 -10 42.0838 37.9372   2
   3   3  10 157.354 64.7246   6
  -3  -2  -9 358.059 88.7323   2
  -3  -2  -9 311.569 84.9521   7
   3   2   9 506.857 109.769   6
  -3  -1  -8 1551.79 179.782   2
   3   1   8 1747.15 201.444   6
  -3  -1  -8 1560.76 171.077   7
  -3   0  -7 6590.42 346.438   2
  -3   0  -7 6134.76 311.378   7
   3   0   7 5614.33 335.651   6
  -3   1  -6 36.7564 25.1256   2
   3  -1   6 45.3645 14.3618   3
   3  -1   6 41.7848 30.9745   6
  -3   2  -5 6708.56 306.888   2
   3  -2   5 6879.34 202.827   3
   3  -2   5 7417.81 327.253   6
  -3   3  -4 3277.71 147.979   7
   3  -3   4 2970.78 182.018   6
   3  -3   4 3156.89 144.984   3
   3  -3   4 3443.54 186.362   8
  -3   3  -4 2877.02 179.589   2
  -3   4  -3 8928.35 302.309   8
   3  -4   3 10743.4 323.357   8
  -3   4  -3 10438.1 212.192   7
   3  -4   3 9154.75 312.286   6
  -3   4  -3 8549.12 299.660   2
   3  -4   3 9391.40 273.558   1
   3  -5   2 5824.32 269.030   4
  -3   5  -2 6075.56 242.804   8
  -3   5  -2 6028.27 225.751   2
   3  -5   2 6267.83 121.155   1
  -3   5  -2 6766.12 316.345   5
  -3   5  -2 6773.28 237.275   6
   3  -6   1 416.859 72.0417   4
  -3   6  -1 456.738 68.6483   8
  -3   6  -1 333.817 44.2497   2
  -3   6  -1 437.103 52.3573   6
  -3   6  -1 396.369 80.2659   5
  -3   7   0 569.734 103.677   5
  -3   7   0 508.177 35.7715   1
   3  -7   0 481.967 80.8259   4
  -3   7   0 532.286 51.6332   6
   3  -7   0 474.609 44.3689   7
   3  -8  -1 134.144 45.2559   4
  -3   8   1 86.4520 22.7122   1
   3  -8  -1 88.6100 26.9417   7
  -3   8   1 81.0161 20.6306   6
  -3   8   1 57.0378 14.0021   6
  -3   8   1 98.7885 55.9922   5
   3  -9  -2 7428.18 370.131   4
   3  -9  -2 8126.20 297.606   7
  -3   9   2 7481.93 465.049   5
  -3   9   2 6967.07 196.421   6
  -3  10   3 25.3777 18.4208   5
   3 -10  -3 47.7928 28.4803   4
   3 -10  -3 40.6976 28.6863   7
   3 -11  -4 1325.01 181.039   4
   3 -11  -4 1040.95 140.379   7
  -3  11   4 1254.34 217.273   5
  -3  12   5 151.363 84.0711   5
   3 -12  -5-10.3276 40.0501   4
  -3  -4 -10 251.384 100.752   7
  -3  -4 -10 111.230 46.3788   2
   3   4  10 118.017 57.4029   6
  -3  -3  -9 1547.54 193.859   2
  -3  -3  -9 1372.08 189.967   7
  -3  -2  -8 1238.63 159.862   2
  -3  -2  -8 1181.98 158.644   7
   3   2   8 1436.98 184.035   6
  -3  -1  -7 258.020 65.1329   2
  -3  -1  -7 254.891 61.5933   7
   3   1   7 306.886 78.3154   6
  -3   0  -6 3210.31 226.611   2
  -3   0  -6 2825.48 198.146   7
   3   0   6 3302.02 239.236   6
  -3   1  -5 15711.5 463.371   2
   3  -1   5 16255.8 239.258   3
   3  -1   5 16269.3 478.270   6
  -3   2  -4 1976.31 151.870   2
   3  -2   4 2077.81 156.632   6
   3  -2   4 1971.94 101.592   3
  -3   3  -3 8886.43 308.347   2
  -3   3  -3 9352.51 243.273   7
   3  -3   3 8479.50 293.794   6
   3  -3   3 9119.00 302.509   8
   3  -4   2 470.137 40.5037   1
  -3   4  -2 460.925 61.1945   2
   3  -4   2 495.585 74.5987   4
  -3   4  -2 497.881 28.2453   7
  -3   4  -2 506.052 62.4366   6
   3  -4   2 537.221 64.0956   6
  -3   4  -2 434.896 72.1408   5
  -3   4  -2 457.139 65.7550   8
   3  -4   2 467.906 59.4056   3
  -3   5  -1 1698.19 108.925   2
   3  -5   1 1573.99 132.636   4
   3  -5   1 1710.20 105.018   2
  -3   5  -1 1843.39 137.254   8
  -3   5  -1 1728.61 101.412   6
  -3   5  -1 1713.77 155.062   5
   3  -6   0 979.270 105.172   4
   3  -6   0 1112.36 75.6820   2
   3  -6   0 1055.94 58.1302   7
  -3   6   0 1194.29 71.5584   6
  -3   6   0 1089.86 134.092   5
   3  -7  -1 2289.30 171.942   4
   3  -7  -1 2479.82 103.226   2
   3  -7  -1 2150.65 119.848   7
  -3   7   1 2540.43 227.349   5
  -3   7   1 2473.41 109.886   1
  -3   7   1 2402.67 90.2152   6
   3  -8  -2 2549.55 195.757   4
   3  -8  -2 2538.61 84.5258   2
   3  -8  -2 2276.13 146.368   7
  -3   8   2 2730.16 261.488   5
  -3   8   2 2495.94 91.5179   6
   3  -9  -3 2591.90 215.795   4
   3  -9  -3 2630.73 179.640   7
  -3   9   3 2631.11 275.030   5
  -3  10   4 222.443 78.9276   5
   3 -10  -4 191.686 65.8852   4
   3 -10  -4 198.675 57.4039   7
  -3  11   5 118.138 57.9539   5
   3 -11  -5 116.528 51.0269   4
   3 -11  -5 75.6978 37.9589   7
  -3  -5 -10 5.89022 41.5257   2
   3   5  10 109.475 63.0490   6
  -3  -4  -9 1550.68 196.261   2
  -3  -4  -9 1491.24 206.321   7
   3   4   9 1423.68 205.399   6
  -3  -3  -8 2515.42 244.379   7
   3   3   8 2462.79 251.104   6
  -3  -3  -8 2602.21 240.648   2
  -3  -2  -7 3825.54 273.325   7
   3   2   7 4940.60 325.414   6
  -3  -2  -7 4450.99 295.282   2
   3   1   6 14364.8 527.089   6
  -3  -1  -6 15252.4 517.767   2
  -3   0  -5 17066.7 499.867   2
   3   0   5 17845.1 525.417   6
   3  -1   4 50167.8 678.669   3
  -3   1  -4 49703.5 943.416   2
  -3   2  -3 2194.07 124.061   7
   3  -2   3 2448.53 124.947   7
  -3   2  -3 1995.95 140.757   2
   3  -2   3 2288.26 149.708   6
   3  -2   3 2383.86 153.270   8
   3  -2   3 2229.41 106.570   3
  -3   3  -2 11456.6 346.558   8
  -3   3  -2 11810.3 251.943   7
   3  -3   2 11591.8 234.971   7
  -3   3  -2 10823.3 325.145   2
  -3   3  -2 11769.5 328.015   6
   3  -3   2 11251.5 313.238   6
  -3   3  -2 10916.3 346.857   5
   3  -3   2 11710.5 306.174   3
   3  -4   1 1063.67 104.434   4
  -3   4  -1 891.460 89.5469   8
  -3   4  -1 920.575 81.9515   2
  -3   4  -1 1039.37 77.4501   6
   3  -4   1 1092.92 87.1809   2
   3  -4   1 1041.04 42.2544   7
  -3   4  -1 991.105 105.890   5
   3  -5   0 47492.7 880.466   4
  -3   5   0 47811.3 761.599   2
  -3   5   0 50471.6 683.070   6
  -3   5   0 49001.6 895.966   8
   3  -5   0 49390.6 755.697   2
   3  -5   0 48556.3 664.091   7
  -3   5   0 49975.6 984.715   5
   3  -6  -1 2610.42 173.148   4
   3  -6  -1 2824.76 122.441   2
   3  -6  -1 3225.53 133.362   7
  -3   6   1 2655.24 77.7355   6
  -3   6   1 3080.91 233.018   5
  -3   6   1 3108.07 115.429   1
  -3   6   1 2936.74 99.0707   1
   3  -7  -2 7585.21 321.454   4
   3  -7  -2 7531.46 262.843   7
  -3   7   2 8488.04 260.075   1
  -3   7   2 8677.56 443.907   5
   3  -7  -2 8273.73 216.660   2
   3  -8  -3 5382.27 298.318   4
   3  -8  -3 6228.66 275.638   7
  -3   8   3 5856.05 125.348   6
   3  -8  -3 6056.37 175.988   2
  -3   8   3 5894.87 392.015   5
   3  -9  -4 1264.53 137.291   7
   3  -9  -4 1242.28 153.861   4
  -3   9   4 1194.71 190.972   5
   3 -10  -5 2264.77 203.998   7
   3 -10  -5 2475.25 240.017   4
  -3  10   5 2749.99 308.507   5
  -3  10   5 2959.85 265.603   1
  -3  11   6 174.066 73.9752   5
   3 -11  -6 89.0849 45.8144   7
  -3  -5  -9 426.980 114.217   7
  -3  -5  -9 363.475 90.3935   2
   3   5   9 443.428 110.876   6
  -3  -4  -8 1769.85 199.048   2
  -3  -4  -8 1688.50 212.596   7
   3   4   8 1806.36 218.235   6
   3   3   7 1727.43 196.141   6
  -3  -3  -7 1560.86 187.016   7
  -3  -3  -7 1890.01 193.869   2
  -3  -2  -6 15.6073 11.9136   2
  -3  -2  -6-5.04662 13.3138   7
   3   2   6 25.3696 22.5659   6
  -3  -1  -5 8187.54 345.165   2
   3   1   5 9305.99 386.997   6
   3   0   4 26618.2 654.674   6
  -3   0  -4 25770.2 505.901   5
  -3   0  -4 27046.8 642.360   2
  -3   1  -3 18979.8 489.387   2
   3  -1   3 19371.7 438.005   7
   3  -1   3 19819.9 499.337   6
   3  -1   3 19686.3 329.662   3
   3  -2   2 35180.2 665.785   8
  -3   2  -2 32839.9 571.543   7
   3  -2   2 33681.6 549.448   7
  -3   2  -2 32514.8 640.006   6
   3  -2   2 32062.4 619.757   6
  -3   2  -2 30933.2 631.851   2
  -3   2  -2 32695.8 605.471   5
   3  -2   2 34068.7 553.631   3
   3  -3   1 34986.7 703.712   4
   3  -3   1 36768.9 493.986   1
  -3   3  -1 38300.7 705.134   8
   3  -3   1 38162.8 699.301   8
   3  -3   1 35318.3 516.125   7
  -3   3  -1 36592.8 528.602   7
  -3   3  -1 36505.7 615.688   6
   3  -3   1 35808.5 598.379   6
  -3   3  -1 35785.0 687.639   5
   3  -3   1 36078.5 645.586   2
  -3   3  -1 34098.6 645.472   2
   3  -4   0 10650.1 336.519   4
   3  -4   0 11577.6 237.156   7
  -3   4   0 12121.7 370.015   8
  -3   4   0 10987.6 300.222   2
   3  -4   0 11769.2 299.505   2
   3  -4   0 11460.1 396.894   5
  -3   4   0 11238.7 373.903   5
  -3   4   0 11288.9 240.602   6
  -3   5   1 9285.77 173.642   1
   3  -5  -1 9353.64 320.176   4
   3  -5  -1 9495.13 259.808   2
  -3   5   1 9333.27 163.940   1
  -3   5   1 9829.45 390.317   5
   3  -6  -2 13629.0 417.950   4
   3  -6  -2 15208.8 333.859   2
   3  -6  -2 14355.7 364.205   7
  -3   6   2 14686.0 360.655   1
  -3   7   3 167.593 56.7483   5
  -3   7   3 50.7989 27.0839   1
   3  -7  -3 77.0062 28.6068   7
   3  -7  -3 117.150 36.2753   4
   3  -7  -3 65.7672 18.0369   2
   3  -8  -4 9585.83 412.277   4
   3  -8  -4 10119.2 386.918   7
  -3   8   4 9433.15 511.115   5
  -3   9   5 80.2375 34.8824   5
  -3   9   5 94.5103 46.2599   1
   3  -9  -5 65.4943 38.7138   4
   3  -9  -5 25.9540 32.1706   7
  -3  10   6 419.435 117.081   5
   3 -10  -6 381.567 91.6521   4
   3 -10  -6 302.177 76.7438   7
  -3  11   7 472.135 139.557   5
   3 -11  -7 367.375 94.8972   7
   3   6   9 84.2210 53.9905   6
  -3  -6  -9 95.1839 65.6424   2
  -3  -5  -8 76.7265 43.0517   7
  -3  -5  -8 223.033 70.9779   2
   3   5   8 180.666 75.8443   6
   3   4   7 4095.94 315.697   6
  -3  -4  -7 3646.99 298.512   7
  -3  -4  -7 3598.42 270.453   2
   3   3   6 760.951 123.552   6
  -3  -3  -6 714.067 110.792   2
  -3  -3  -6 660.126 108.479   7
  -3  -2  -5 3341.07 223.655   2
  -3  -2  -5 3032.83 220.687   7
   3   2   5 3765.60 251.512   6
  -3  -1  -4 9029.76 352.537   7
   3   1   4 8993.82 367.869   6
  -3  -1  -4 9885.52 370.213   2
  -3  -1  -4 9700.25 287.631   5
  -3   0  -3 2327.44 157.541   2
   3   0   3 1882.89 145.838   6
   3   0   3 2164.74 57.1019   3
  -3   0  -3 2170.25 103.108   5
  -3   1  -2 2438.39 150.821   2
  -3   1  -2 2562.16 138.289   7
   3  -1   2 2594.02 132.706   7
   3  -1   2 2432.27 147.553   6
   3  -1   2 2481.41 159.644   8
   3  -2   1 415.968 51.5469   6
  -3   2  -1 385.521 44.5410   7
   3  -2   1 238.928 43.1529   2
  -3   2  -1 372.062 55.0084   2
   3  -2   1 511.707 49.1984   7
   3  -2   1 386.529 41.2975   1
  -3   2  -1 451.504 55.9211   6
   3  -2   1 543.679 70.7932   8
  -3   2  -1 316.265 53.8861   8
  -3   2  -1 420.439 51.9951   5
  -3   3   0 16331.8 317.982   6
   3  -3   0 14620.4 388.230   4
  -3   3   0 15266.1 419.452   8
   3  -3   0 16248.5 304.819   6
  -3   3   0 15078.2 364.636   2
   3  -3   0 15602.9 425.226   5
   3  -3   0 16178.1 370.907   2
   3  -3   0 15415.6 305.512   7
  -3   3   0 15373.3 404.231   5
   3  -4  -1 705.914 79.5536   4
   3  -4  -1 754.586 63.4112   7
   3  -4  -1 800.345 72.8913   2
   3  -4  -1 817.665 100.756   5
  -3   4   1 735.246 91.0480   5
  -3   4   1 817.385 36.5176   1
   3  -5  -2 570.558 72.7815   4
   3  -5  -2 640.657 63.2197   2
  -3   5   2 706.179 107.052   5
  -3   5   2 608.515 59.9300   1
   3  -6  -3 789.616 98.7923   4
   3  -6  -3 841.167 89.3539   7
   3  -6  -3 879.096 78.4000   2
  -3   6   3 834.115 126.629   5
  -3   6   3 754.317 88.0014   1
   3  -7  -4 7748.87 309.088   7
   3  -7  -4 7082.31 319.636   4
  -3   7   4 7929.47 430.618   5
  -3   8   5 387.881 102.540   5
  -3   8   5 316.254 82.5106   1
   3  -8  -5 417.589 83.3448   4
   3  -8  -5 331.058 71.6224   7
   3  -9  -6 1054.28 150.415   4
   3  -9  -6 957.777 137.883   7
  -3   9   6 1024.11 176.556   5
  -3   9   6 1078.78 162.291   1
  -3  10   7-23.0609 32.6716   5
   3 -10  -7-47.8705 45.0102   7
   3 -11  -8 397.951 101.899   7
  -3  -6  -8 513.187 127.823   7
  -3  -6  -8 507.056 107.833   2
   3   6   8 604.245 130.952   6
  -3  -5  -7 127.530 54.5700   7
  -3  -5  -7 79.6913 40.5277   2
   3   5   7 111.251 47.2978   6
  -3  -4  -6 3720.17 287.809   7
   3   4   6 3829.54 291.033   6
  -3  -4  -6 3542.48 254.349   2
  -3  -3  -5 1222.59 150.405   7
  -3  -3  -5 1683.87 161.240   2
   3   3   5 1492.33 164.952   6
  -3  -2  -4 3548.03 216.880   2
  -3  -2  -4 3313.36 221.226   7
   3   2   4 3523.33 230.408   6
  -3  -2  -4 3536.17 177.415   5
  -3  -1  -3 14602.7 426.834   2
  -3  -1  -3 14651.7 309.598   5
  -3   0  -2 7813.89 284.184   2
   3   0   2 6941.11 248.526   7
   3   0   2 6879.95 273.441   6
  -3   0  -2 7558.78 158.090   5
   3  -1   1 6050.50 244.295   8
  -3   1  -1 5886.79 234.259   2
  -3   1  -1 5777.17 210.237   7
  -3   1  -1 5816.92 219.906   6
   3  -1   1 6319.36 205.474   7
   3  -1   1 5726.56 214.449   6
   3  -1   1 5934.79 201.589   1
  -3   1  -1 5960.75 159.652   5
  -3   2   0 2442.66 113.225   7
   3  -2   0 2842.97 159.112   8
  -3   2   0 2467.60 115.322   6
  -3   2   0 2417.96 135.088   2
   3  -2   0 2533.46 121.754   7
   3  -2   0 2277.91 93.0465   1
   3  -2   0 2140.14 103.700   6
  -3   2   0 2771.64 156.594   8
   3  -2   0 2398.53 131.568   5
  -3   2   0 2377.19 125.953   5
   3  -2   0 2626.12 139.760   2
  -3   3   1 5519.05 217.161   2
   3  -3  -1 4351.69 187.932   4
  -3   3   1 4816.29 222.235   8
   3  -3  -1 5123.57 173.956   7
  -3   3   1 4928.00 117.291   1
   3  -3  -1 4110.37 104.084   6
   3  -3  -1 4841.15 187.932   2
   3  -3  -1 4842.08 229.265   5
   3  -3  -1 4798.47 129.696   1
  -3   3   1 4992.84 226.643   5
  -3   4   2 13872.4 305.195   1
   3  -4  -2 14275.9 372.060   4
   3  -4  -2 15325.2 355.507   2
  -3   4   2 15054.7 474.684   5
  -3   5   3 34.2555 13.8118   5
   3  -5  -3 21.4112 14.3418   4
  -3   5   3 58.9570 19.9093   1
   3  -5  -3 86.0323 25.8375   2
   3  -6  -4 15759.1 443.541   4
  -3   6   4 16313.4 584.959   5
  -3   6   4 15828.6 462.166   1
   3  -7  -5 2331.83 184.958   7
   3  -7  -5 2064.93 179.804   4
  -3   7   5 2043.53 224.365   5
  -3   7   5 2202.80 202.438   1
   3  -8  -6 3931.86 275.583   4
   3  -8  -6 3718.58 260.740   7
  -3   8   6 3740.90 331.698   5
  -3   8   6 3919.55 303.378   1
  -3   9   7 9.11837 20.1361   5
   3  -9  -7 39.7785 39.2302   7
  -3   9   7 20.7092 35.2464   1
  -3  10   8 389.255 117.833   5
   3 -10  -8 388.149 104.072   7
   3   7   8 819.089 160.537   6
  -3  -6  -7 428.555 115.339   7
  -3  -6  -7 500.499 100.104   2
   3   6   7 349.822 94.3254   6
   3   5   6 751.505 130.654   6
  -3  -5  -6 889.383 145.275   7
  -3  -5  -6 982.838 133.877   2
   3   4   5 156.750 48.8095   6
  -3  -4  -5 158.285 55.2163   7
  -3  -4  -5 242.315 61.7642   2
   3   3   4 2410.68 200.847   6
  -3  -3  -4 1871.70 175.582   7
  -3  -3  -4 1884.69 138.882   5
  -3  -3  -4 2398.80 181.728   2
  -3  -2  -3 3171.04 207.242   7
   3   2   3 3262.84 215.667   6
  -3  -2  -3 3701.97 210.147   2
  -3  -2  -3 3252.00 145.735   5
  -3  -1  -2 406.350 66.4952   7
   3   1   2 436.630 71.3102   6
  -3  -1  -2 443.232 66.9973   2
  -3  -1  -2 426.595 32.7914   5
  -3   0  -1 16912.2 424.714   2
  -3   0  -1 18477.5 425.412   7
   3   0   1 16494.2 412.275   6
   3   0   1 14271.6 365.655   7
  -3   0  -1 12732.7 380.926   6
   3   0   1 17082.9 400.719   1
   3   0   1 12180.2 388.055   8
  -3   1   0 53.4088 14.0390   5
   3  -1   0 72.0731 19.7381   7
  -3   1   0 49.1709 15.8226   7
   3  -1   0 22.5415 11.2085   2
   3  -1   0 63.8458 17.0949   6
   3  -1   0 48.5734 20.2362   1
   3  -1   0 80.2108 30.0144   8
   3  -1   0 59.4112 16.7801   5
  -3   1   0 28.6790 8.01150   2
   3  -2  -1 1349.38 77.1916   1
   3  -2  -1 1209.04 90.4412   4
   3  -2  -1 1335.63 91.9063   7
  -3   2   1 1296.47 99.2544   2
   3  -2  -1 1243.58 66.8348   6
   3  -2  -1 1128.86 93.5256   5
  -3   2   1 1199.34 95.8398   5
   3  -2  -1 1305.44 96.8947   2
  -3   2   1 1351.57 70.9112   1
  -3   3   2 28392.5 480.860   1
  -3   3   2 27596.4 558.819   4
   3  -3  -2 26184.8 516.074   4
   3  -3  -2 26210.4 521.977   7
   3  -3  -2 28394.4 543.380   2
   3  -3  -2 26912.5 619.535   5
  -3   3   2 27270.8 614.602   5
  -3   4   3 3049.58 162.247   1
   3  -4  -3 2615.39 144.492   4
  -3   4   3 3138.41 214.121   5
   3  -5  -4 7066.16 277.583   4
  -3   5   4 7578.45 376.472   5
  -3   5   4 6565.65 299.485   1
   3  -6  -5 1756.50 151.869   4
  -3   6   5 1734.26 191.716   5
  -3   6   5 2006.69 181.437   1
  -3   7   6 734.575 136.079   5
   3  -7  -6 839.799 118.700   4
   3  -7  -6 926.411 124.081   7
  -3   7   6 924.695 142.967   1
  -3   8   7 153.635 66.6212   5
   3  -8  -7 181.347 56.1947   7
  -3   8   7 312.772 93.3198   1
   3  -9  -8 1053.27 164.438   7
  -3   9   8 1389.73 230.525   5
  -3   9   8 1536.62 227.443   1
   3 -10  -9 108.613 65.6650   7
  -3  -7  -7 437.921 116.591   7
  -3  -7  -7 525.099 107.812   2
   3   7   7 301.137 96.4891   6
  -3  -6  -6-7.40083 21.5200   7
  -3  -6  -6 4.18693 19.9827   2
   3   6   6 0.98971 20.6812   6
  -3  -5  -5 565.059 110.843   7
  -3  -5  -5 561.730 98.4028   2
   3   5   5 513.766 100.642   6
  -3  -4  -4 735.013 102.199   2
   3   4   4 736.935 114.959   6
  -3  -4  -4 723.838 112.500   7
   3   4   4 560.677 74.4656   5
  -3  -3  -3 7838.13 318.555   2
  -3  -3  -3 7559.28 348.623   7
   3   3   3 7539.93 352.967   6
  -3  -3  -3 7835.82 267.335   5
  -3  -2  -2 9.72553 7.26969   7
  -3  -2  -2 10.9569 9.65970   2
   3   2   2 1.18141 12.0555   6
  -3  -2  -2 6.31221 7.06768   5
   3   1   1 510.410 64.3098   7
   3   1   1 423.899 63.8717   1
   3   1   1 390.922 33.7468   3
   3   1   1 404.157 63.8149   6
  -3  -1  -1 365.725 59.0517   2
   3   0   0 18376.6 438.853   1
   3   0   0 23082.4 526.449   8
  -3   0   0 23560.4 510.387   2
   3   0   0 23835.1 492.540   6
   3   0   0 22022.0 475.266   7
   3   0   0 24997.7 429.938   3
  -3   0   0 28929.6 531.946   7
  -3   1   1 73066.0 948.673   1
   3  -1  -1 74494.6 1042.54   2
   3  -1  -1 66583.3 952.321   1
  -3   1   1 68139.7 998.354   7
  -3   1   1 60897.4 1010.03   2
   3  -1  -1 65391.5 942.718   5
  -3   1   1 65168.2 924.108   5
   3  -1  -1 59486.0 1032.20   8
   3  -1  -1 63026.6 927.144   6
   3  -2  -2 8032.56 236.871   1
   3  -2  -2 7893.50 225.660   4
  -3   2   2 8101.65 224.740   1
   3  -2  -2 8637.88 271.839   2
   3  -2  -2 8232.76 171.633   6
   3  -2  -2 7077.68 245.759   7
   3  -2  -2 8227.07 284.038   5
  -3   2   2 7990.72 271.320   5
  -3   3   3 129471. 1549.83   4
  -3   3   3 127973. 1713.81   5
  -3   4   4 7708.07 307.204   1
   3  -4  -4 7412.94 262.461   4
  -3   4   4 8133.59 360.182   5
   3  -5  -5 6767.49 283.007   4
  -3   5   5 6613.69 365.432   5
  -3   5   5 7177.29 345.210   1
   3  -6  -6 4392.84 255.960   4
   3  -6  -6 4099.76 260.023   7
  -3   6   6 4660.86 338.189   5
  -3   6   6 4970.56 322.461   1
  -3   7   7-18.5662 49.2966   5
  -3   7   7 100.441 56.2179   1
   3  -7  -7 56.3580 32.5951   7
  -3   8   8-57.4140 50.3780   5
   3  -8  -8 16.3994 30.6103   7
  -3   8   8-38.3235 56.1635   1
  -3   9   9 376.241 126.683   5
  -3   9   9 335.170 112.133   1
   3  -9  -9 333.089 98.8322   7
   3  -9  -9 306.458 88.5216   3
  -3  -8  -7 457.889 138.245   7
   3   8   7 418.405 112.996   6
  -3  -7  -6 234.866 83.2706   7
  -3  -7  -6 388.941 91.9549   2
   3   7   6 311.820 81.7902   6
   3   6   5 11516.8 530.207   6
   3   6   5 11269.1 437.526   5
  -3  -6  -5 11280.1 462.167   2
   3   5   4-5.20396 25.8289   5
  -3  -5  -4 3.91233 26.6653   2
  -3  -5  -4-0.27344 31.6337   7
   3   5   4 28.3454 33.4933   6
  -3  -4  -3 4628.90 288.396   7
  -3  -4  -3 5590.13 274.857   2
   3   4   3 5694.87 319.885   6
   3   4   3 4902.45 213.499   5
  -3  -4  -3 5453.57 245.932   5
  -3  -3  -2 16844.4 468.842   2
   3   3   2 15113.4 501.491   6
  -3  -3  -2 15816.6 357.835   5
   3   3   2 14152.8 317.724   5
   3   2   1 18032.8 285.504   3
  -3  -2  -1 19391.8 470.885   2
   3   1   0 46774.3 800.166   1
   3   1   0 50277.9 809.679   2
   3   1   0 43054.7 656.977   3
   3   1   0 43227.3 789.906   6
  -3  -1   0 47442.1 808.291   2
   3   0  -1 61498.3 1001.30   8
  -3   0   1 64439.9 978.510   7
   3   0  -1 65377.1 980.565   7
   3   0  -1 61026.3 908.635   3
   3   0  -1 63141.7 943.603   6
   3   0  -1 63292.3 945.475   1
   3   0  -1 64881.8 838.399   5
   3  -1  -2 37928.6 655.042   1
  -3   1   2 38947.6 635.920   1
   3  -1  -2 39275.5 673.278   5
  -3   1   2 39304.1 654.970   5
  -3   2   3 3503.37 169.766   1
  -3   2   3 4036.98 163.398   4
   3  -2  -3 3723.91 140.891   4
   3  -2  -3 4350.53 198.520   7
   3  -2  -3 4576.74 231.506   5
  -3   2   3 3954.43 200.548   5
   3  -2  -3 4007.66 186.604   1
  -3   3   4 15230.7 433.609   1
  -3   3   4 12489.9 340.226   4
   3  -3  -4 13588.2 337.830   4
   3  -3  -4 14643.1 240.672   6
  -3   3   4 16095.1 487.827   5
  -3   4   5 6201.09 304.162   1
   3  -4  -5 4817.03 142.885   6
   3  -4  -5 5244.24 225.221   4
  -3   4   5 5726.26 319.952   5
   3  -5  -6 9098.70 349.368   4
  -3   5   6 9372.58 456.676   5
  -3   5   6 9681.21 442.891   1
   3  -6  -7 4947.50 304.402   7
  -3   6   7 4851.38 360.193   5
  -3   6   7 5905.41 380.953   1
  -3   7   8 175.150 68.0790   5
   3  -7  -8 89.7877 52.4480   7
   3  -7  -8 171.320 52.7197   3
  -3   7   8 233.770 89.8795   1
  -3   8   9 348.011 118.562   5
  -3   8   9 383.857 112.696   1
   3  -8  -9 409.922 103.142   7
   3  -8  -9 436.771 97.8290   3
   3   8   6 3696.80 331.253   6
  -3  -8  -6 4251.06 383.931   7
  -3  -7  -5 4427.93 283.758   2
  -3  -7  -5 3715.44 330.411   7
   3   7   5 4319.23 333.361   6
   3   6   4 432.848 95.0449   6
  -3  -6  -4 343.691 86.4820   7
  -3  -6  -4 490.214 86.0183   2
   3   6   4 468.566 84.5606   5
  -3  -5  -3 18935.3 657.382   7
  -3  -5  -3 25558.0 640.710   2
  -3  -5  -3 22149.9 325.538   3
   3   5   3 23726.6 719.849   6
   3   5   3 21238.0 537.206   5
   3   4   2 17265.8 557.283   6
  -3  -4  -2 16421.5 467.604   2
  -3  -4  -2 12910.1 478.507   7
  -3  -4  -2 14432.0 264.129   3
  -3  -4  -2 15215.0 406.528   5
   3   4   2 13664.3 357.125   5
  -3  -3  -1 14796.4 418.960   2
  -3  -3  -1 14715.5 284.459   3
   3   3   1 14991.5 467.953   6
   3   3   1 15223.2 268.998   3
   3   3   1 14226.3 297.591   5
  -3  -3  -1 14047.9 460.588   7
   3   2   0 164.562 38.0331   2
  -3  -2   0 129.572 25.4319   3
   3   2   0 99.8839 31.0657   6
  -3  -2   0 96.9571 29.8238   2
   3   2   0 139.650 15.9236   5
   3   2   0 136.930 24.1857   3
   3   1  -1 3355.47 180.760   7
  -3  -1   1 4024.81 186.560   1
  -3  -1   1 4025.02 191.699   2
   3   1  -1 3840.95 149.268   3
   3   1  -1 4438.92 199.365   1
   3   1  -1 4031.34 110.673   5
   3   0  -2 30453.8 639.709   8
   3   0  -2 37876.0 682.919   1
   3   0  -2 33181.9 612.943   3
  -3   0   2 38801.2 692.231   7
  -3   0   2 35295.0 622.007   1
   3   0  -2 35949.4 667.577   7
   3   0  -2 32937.2 566.668   5
   3  -1  -3 413.863 61.3438   1
   3  -1  -3 397.956 38.7560   4
  -3   1   3 378.197 55.9777   1
   3  -1  -3 631.636 76.9064   7
   3  -1  -3 448.265 62.5892   3
   3  -1  -3 437.668 62.1487   5
  -3   1   3 401.194 56.0687   5
  -3   2   4 37952.6 752.080   1
  -3   2   4 42235.9 652.783   4
   3  -2  -4 36159.7 598.436   4
   3  -2  -4 40353.9 574.975   6
  -3   2   4 38560.1 797.664   5
   3  -2  -4 37769.1 770.316   1
  -3   3   5 241.467 55.2884   5
   3  -3  -5 247.384 42.0048   4
  -3   3   5 304.726 61.9873   1
   3  -3  -5 228.480 30.9704   6
  -3   4   6 31619.1 818.235   1
   3  -4  -6 30413.1 639.453   4
  -3   4   6 30884.9 843.703   5
  -3   5   7 317.327 84.5356   5
  -3   5   7 391.701 98.5061   1
   3  -6  -8 3323.69 261.070   7
   3  -6  -8 2998.26 249.493   3
  -3   6   8 2884.86 287.561   5
  -3   6   8 2876.30 283.626   1
  -3   7   9 176.472 90.8048   5
   3  -7  -9 74.5767 37.7502   7
   3  -7  -9 45.4598 41.2574   3
  -3   7   9 62.3050 55.5716   1
  -3   8  10 67.0677 36.3848   5
  -3   8  10 153.009 77.2165   1
   3  -8 -10 107.147 52.0250   7
   3  -8 -10 75.5333 44.2660   3
   3   9   6 57.6631 50.4800   6
   3   8   5 3092.13 290.520   6
  -3  -8  -5 3177.65 316.020   7
   3   7   4 192.201 55.2019   5
  -3  -7  -4 267.091 79.0095   7
  -3  -7  -4 246.074 62.9262   2
   3   7   4 360.863 93.4056   6
  -3  -6  -3 2048.74 169.408   2
  -3  -6  -3 2592.21 235.019   7
   3   6   3 2049.43 207.132   6
   3   6   3 2034.47 165.392   5
  -3  -5  -2 2200.85 102.876   3
  -3  -5  -2 2288.90 202.072   7
   3   5   2 1979.96 191.367   6
  -3  -5  -2 2268.92 166.957   2
   3   5   2 2175.30 147.634   5
  -3  -4  -1 29598.3 660.209   2
  -3  -4  -1 29922.2 500.363   3
   3   4   1 30647.7 741.996   6
   3   4   1 30139.1 565.518   5
   3   4   1 31057.9 490.632   3
  -3  -3   0 1362.21 135.248   7
  -3  -3   0 1674.57 95.4110   3
   3   3   0 1695.65 147.541   6
  -3  -3   0 1881.40 133.356   2
   3   3   0 1572.83 86.5983   3
   3   3   0 1494.04 84.7556   5
   3   2  -1 2935.50 174.577   8
  -3  -2   1 2422.02 150.074   2
   3   2  -1 2048.52 145.144   7
   3   2  -1 2627.57 152.872   2
  -3  -2   1 2459.98 124.468   3
  -3  -2   1 2292.79 151.413   1
   3   2  -1 2512.78 118.978   3
   3   2  -1 2457.53 158.086   1
   3   1  -2 1159.18 102.917   8
   3   1  -2 1140.85 102.616   1
   3   1  -2 1014.59 82.0895   3
   3   1  -2 1081.37 72.2994   5
  -3  -1   2 1344.64 107.379   1
   3   0  -3 45.5706 16.1576   5
   3   0  -3 17.4841 10.4768   3
   3   0  -3 28.4913 13.6348   7
  -3   0   3 17.6729 12.4105   1
   3   0  -3 24.3400 17.1050   1
   3   0  -3 11.2922 6.87115   4
  -3   1   4 4277.51 216.589   1
  -3   1   4 3879.10 138.606   4
   3  -1  -4 3807.97 119.783   4
   3  -1  -4 3871.93 202.309   3
   3  -1  -4 3751.32 204.597   5
  -3   1   4 3629.89 196.230   5
   3  -1  -4 3881.63 216.066   1
  -3   2   5 5709.98 276.939   1
  -3   2   5 5351.78 187.975   4
   3  -2  -5 5145.69 177.601   4
   3  -2  -5 5749.56 269.893   3
   3  -2  -5 5599.31 179.328   6
  -3   2   5 5119.82 271.701   5
   3  -3  -6 6574.44 315.204   3
   3  -3  -6 6308.43 207.062   6
   3  -3  -6 6027.60 230.119   4
  -3   3   6 6317.06 339.150   5
  -3   4   7 2378.47 225.669   1
   3  -4  -7 2211.69 193.019   3
   3  -4  -7 2425.37 143.708   6
  -3   4   7 2102.38 214.652   5
   3  -5  -8 6259.31 355.901   3
  -3   5   8 6717.64 421.983   5
  -3   5   8 6471.06 419.646   1
  -3   6   9 125.443 51.3537   5
  -3   6   9 184.091 73.8860   1
   3  -6  -9 189.884 65.7176   7
   3  -6  -9 236.023 67.4093   3
  -3   7  10 2387.28 304.528   1
   3  -7 -10 1944.26 234.037   7
   3  -7 -10 2345.94 238.105   3
  -3   7  10 2577.97 308.834   5
  -3   8  11 100.369 22.8722   1
  -3  -9  -5 1173.31 198.428   7
   3   9   5 1052.35 174.326   6
  -3  -8  -4 45.3220 44.8541   7
   3   8   4 66.6568 38.8712   6
  -3  -8  -4 3.36609 11.8412   2
  -3  -7  -3 4007.66 314.322   7
  -3  -7  -3 4777.01 268.781   2
   3   7   3 4265.91 321.903   6
   3   7   3 4141.68 257.165   5
  -3  -6  -2 1354.15 164.818   7
  -3  -6  -2 1903.95 156.902   2
  -3  -6  -2 1769.55 105.729   3
   3   6   2 1834.54 192.238   6
   3   6   2 1898.36 156.620   5
  -3  -5  -1 10359.8 276.657   3
  -3  -5  -1 9820.50 349.033   2
   3   5   1 10296.0 339.413   5
   3   5   1 10917.4 437.306   6
  -3  -4   0 2955.62 214.549   7
  -3  -4   0 2609.15 164.008   2
  -3  -4   0 2813.78 133.327   3
   3   4   0 2777.43 201.265   6
   3   4   0 2384.39 116.298   3
   3   4   0 3022.45 150.715   5
   3   3  -1 10416.3 273.103   4
  -3  -3   1 11326.7 332.762   2
  -3  -3   1 10669.9 268.034   3
   3   3  -1 10454.9 243.593   3
   3   3  -1 11037.6 256.587   5
  -3  -2   2 27704.6 608.991   1
   3   2  -2 24618.3 576.323   8
   3   2  -2 34567.8 629.431   2
   3   2  -2 31457.9 658.328   1
  -3  -2   2 29019.5 556.981   3
   3   2  -2 28909.5 539.648   3
   3   1  -3 5976.26 259.304   1
   3   1  -3 4843.13 215.324   8
   3   1  -3 4565.84 197.322   3
   3   1  -3 6197.24 258.226   7
  -3  -1   3 5398.35 233.045   1
   3   1  -3 4916.63 192.940   5
   3   0  -4 20903.7 297.578   4
   3   0  -4 21606.2 511.817   3
   3   0  -4 21019.1 507.636   5
  -3   1   5 4802.18 251.160   1
  -3   1   5 4739.64 147.418   4
   3  -1  -5 4282.48 134.696   4
   3  -1  -5 4616.77 230.736   3
  -3   2   6 1735.04 166.781   1
  -3   2   6 1718.87 107.501   4
   3  -2  -6 1736.64 151.421   3
   3  -2  -6 1713.85 109.267   6
  -3   2   6 1681.86 162.904   5
  -3   3   7 3442.06 265.714   1
   3  -3  -7 2686.02 149.185   6
   3  -3  -7 3087.21 220.319   3
  -3   3   7 2965.00 241.706   5
  -3   4   8 1.88100 27.0123   5
  -3   4   8 38.7438 39.5041   1
   3  -4  -8 15.1198 12.5070   3
  -3   5   9 624.871 133.593   5
  -3   5   9 588.106 132.123   1
   3  -5  -9 693.699 116.522   3
  -3   6  10-42.1129 53.5785   1
   3  -6 -10 0.29974 36.0629   3
   3  -6 -10 7.07053 15.6408   7
  -3   7  11 841.351 190.133   1
   3  -7 -11 563.884 130.436   7
   3  10   5 39.0974 21.5462   6
  -3  -9  -4 1780.25 237.147   7
   3   9   4 1734.32 224.805   6
  -3  -8  -3 4439.04 255.057   2
  -3  -8  -3 4848.67 363.941   7
   3   8   3 4078.54 275.219   5
   3   7   2 2478.05 237.842   6
  -3  -7  -2 2174.97 222.910   7
   3   7   2 2391.05 191.214   5
  -3  -7  -2 2420.93 177.037   2
  -3  -6  -1 10107.5 343.043   2
  -3  -6  -1 10532.7 453.944   7
   3   6   1 10153.8 431.192   6
   3   6   1 9531.99 348.001   5
  -3  -5   0 4267.43 216.796   2
   3   5   0 4690.40 213.613   5
   3   5   0 5115.18 180.695   3
  -3  -4   1 1385.25 122.905   2
  -3  -4   1 1462.34 141.175   7
   3   4  -1 1607.90 101.193   3
   3   4  -1 1541.91 112.432   5
   3   3  -2 1444.10 89.8249   4
  -3  -3   2 250.542 45.1036   3
   3   3  -2 1794.50 134.967   8
   3   3  -2 1277.05 92.5252   3
  -3  -3   2 202.021 55.1274   7
  -3  -3   2 1648.91 139.351   1
   3   2  -3 21130.1 341.054   4
   3   2  -3 21049.5 468.292   3
   3   2  -3 21843.9 505.530   8
  -3  -2   3 22161.3 528.559   1
  -3  -1   4 605.835 80.7708   1
   3   1  -4 515.981 67.7507   3
   3   1  -4 461.792 66.8500   5
  -3   0   5 938.011 110.747   1
   3   0  -5 898.611 97.3286   3
  -3   1   6 10501.5 414.133   1
  -3   1   6 10608.9 250.094   4
   3  -1  -6 10690.7 385.743   3
  -3   2   7 1130.09 146.095   1
   3  -2  -7 999.628 119.059   3
   3  -2  -7 828.138 83.3215   6
  -3   3   8 15656.0 635.182   1
   3  -3  -8 15095.8 526.175   3
  -3   4   9 20.2483 19.4440   1
   3  -4  -9 0.87859 33.7254   3
  -3   5  10 187.329 88.1740   1
   3  -5 -10 308.086 93.0523   7
   3  -5 -10 259.725 75.1042   3
  -3   6  11 327.348 126.211   1
   3  -6 -11 181.937 67.8147   7
   3  -6 -11 377.375 91.0329   3
  -3 -10  -4 3478.41 360.042   7
   3  10   4 4433.35 375.186   6
  -3  -9  -3 1470.12 208.937   7
   3   9   3 2274.42 252.082   6
  -3  -8  -2 1002.34 115.954   2
  -3  -8  -2 1142.90 173.567   7
   3   8   2 1298.13 178.675   6
   3   8   2 878.348 128.271   5
  -3  -7  -1 9704.66 358.563   2
   3   7   1 9835.18 455.542   6
   3   7   1 9826.92 402.806   5
  -3  -6   0 1898.58 190.081   7
  -3  -6   0 1667.30 138.799   2
   3   6   0 1981.98 190.746   6
   3   6   0 1506.51 136.009   5
   3   6   0 1735.38 117.389   3
  -3  -5   1 45724.9 857.902   2
   3   5  -1 45306.4 819.699   5
   3   4  -2 848.781 77.2719   4
   3   4  -2 853.303 80.1680   3
  -3  -4   2 900.960 108.240   1
  -3  -4   2 855.779 105.565   7
   3   3  -3 5529.89 164.446   4
   3   3  -3 6072.77 240.208   8
   3   3  -3 5505.84 217.901   3
  -3  -2   4 19118.8 473.249   1
   3   2  -4 17823.3 403.597   3
   3   1  -5 5806.71 254.941   3
  -3  -1   5 6541.82 309.092   1
  -3   0   6 8728.78 168.718   4
   3   0  -6 9140.27 342.871   3
  -3   1   7 3715.55 256.179   1
  -3   1   7 3792.28 146.403   4
   3  -1  -7 3581.30 226.701   3
  -3   2   8 10395.4 498.602   1
   3  -2  -8 9613.61 404.404   3
  -3   3   9 34.4651 37.6819   1
   3  -3  -9 9.88934 25.9037   3
  -3   4  10 2196.42 267.818   1
   3  -4 -10 2412.55 222.012   3
  -3   5  11 83.1725 33.2397   1
   3  -5 -11 157.162 61.6599   7
   3  -5 -11 200.635 72.4474   3
  -3   6  12 1386.55 255.806   1
   3  11   4 269.776 96.9744   6
  -3 -10  -3 3849.86 367.964   7
   3  10   3 4838.02 387.251   6
   3   9   2 4.37413 14.2715   5
  -3  -9  -2 30.2068 34.5689   7
   3   9   2 26.3316 33.9187   6
  -3  -8  -1 3457.33 300.092   7
  -3  -8  -1 3888.02 228.946   2
   3   8   1 4019.25 305.163   6
   3   8   1 4001.35 271.844   5
  -3  -7   0 858.252 136.812   7
   3   7   0 943.752 138.014   6
  -3  -7   0 1034.55 118.194   2
   3   7   0 985.696 122.349   5
   3   7   0 916.508 92.2899   3
   3   6  -1 16081.8 481.720   5
   3   6  -1 15251.1 391.020   3
  -3  -5   2 881.798 115.634   1
  -3  -5   2 864.229 113.552   7
   3   5  -2 855.630 84.9032   3
   3   5  -2 725.896 92.3067   5
  -3  -4   3 17184.0 511.698   1
   3   4  -3 17685.3 363.582   4
   3   4  -3 17365.4 426.170   3
  -3  -3   4 97.0754 35.2285   1
   3   3  -4 85.3015 26.0063   8
  -3  -3   4 67.4761 35.3364   7
   3   3  -4 79.6518 27.3106   3
   3   3  -4 56.6143 12.3328   4
  -3  -2   5 8973.49 361.566   1
   3   2  -5 8342.61 309.830   3
  -3  -1   6 3937.09 251.255   1
   3   1  -6 3558.78 210.368   3
  -3   0   7 851.136 120.565   1
  -3   0   7 796.835 49.4142   4
   3   0  -7 831.879 107.010   3
  -3   1   8 233.818 65.6537   1
  -3   1   8 414.179 50.1514   4
   3  -1  -8 401.905 76.9343   3
  -3   2   9-10.2122 40.8301   1
   3  -2  -9 27.2793 35.2829   3
  -3   3  10 197.891 83.2630   1
   3  -3 -10 271.039 70.9856   3
  -3   4  11 349.239 120.254   1
   3  -4 -11 417.255 98.7017   3
   3  -5 -12 73.1786 48.3683   7
   3  -5 -12 93.7013 55.6191   3
  -3   5  12-4.21640 32.3308   1
  -3 -11  -3 6.26540 36.7410   7
   3  11   3 49.6011 46.1969   6
  -3 -10  -2-25.8775 24.4199   7
   3  10   2-20.6904 34.5915   6
  -3  -9  -1 688.413 140.421   7
   3   9   1 657.507 125.585   6
   3   9   1 687.055 122.083   5
  -3  -8   0 31.9250 24.7285   7
   3   8   0 36.7633 35.7741   6
   3   8   0 32.9268 21.9922   5
   3   7  -1 18.8742 12.0033   3
  -3  -7   1 5.45548 23.7286   7
   3   7  -1-4.48160 16.8215   5
  -3  -6   2 6081.61 332.508   7
   3   6  -2 7340.72 274.030   3
  -3  -5   3 62.4868 31.8084   7
   3   5  -3 68.0131 24.2916   4
  -3  -5   3 107.989 44.8924   1
   3   5  -3 68.3727 27.5591   3
   3   4  -4 1292.83 79.5074   4
   3   4  -4 1251.63 109.871   3
   3   4  -4 1290.11 111.410   8
  -3  -4   4 1293.59 133.303   1
  -3  -3   5 3269.35 217.955   1
   3   3  -5 3231.80 187.051   3
  -3  -3   5 2963.15 205.069   7
  -3  -2   6 7129.73 356.451   1
   3   2  -6 6994.08 299.775   3
  -3  -1   7 43.5097 15.6737   1
  -3  -1   7 19.8998 10.9130   8
   3   1  -7 78.4389 29.9213   3
  -3   0   8 2703.25 239.169   1
  -3   0   8 2570.97 104.248   4
   3   0  -8 2554.70 196.806   3
  -3   1   9 1973.26 221.041   1
   3  -1  -9 1725.95 169.689   3
  -3   2  10 6.37568 27.5875   1
   3  -2 -10 29.4768 15.9464   3
  -3   3  11 477.528 132.018   1
   3  -3 -11 472.598 96.4424   3
   3  -4 -12 9.47202 35.8221   7
   3  -4 -12-43.2997 40.9341   3
  -3 -11  -2 298.770 100.758   7
   3  11   2 563.164 134.030   6
   3  10   1 2175.70 228.022   5
  -3 -10  -1 2423.11 272.142   7
   3  10   1 2091.42 244.110   6
   3   9   0 1340.12 181.849   6
   3   9   0 1549.55 181.515   5
  -3  -9   0 1467.11 190.566   7
   3   8  -1 10286.2 442.957   5
   3   8  -1 9754.43 355.391   3
  -3  -7   2 12029.0 494.869   7
   3   7  -2 12429.4 474.095   5
  -3  -6   3 420.409 86.1360   7
  -3  -6   3 531.482 95.9598   1
   3   6  -3 403.893 64.0097   3
   3   6  -3 341.596 71.6757   5
   3   5  -4 241.461 48.2648   8
   3   5  -4 234.106 38.6999   4
  -3  -5   4 224.085 58.3907   7
   3   5  -4 322.696 60.6663   3
  -3  -5   4 222.173 59.6476   1
   3   4  -5 4688.90 139.008   4
   3   4  -5 4558.47 225.641   3
  -3  -4   5 4953.94 280.736   1
  -3  -4   5 4338.77 254.618   7
   3   4  -5 4209.97 197.616   8
  -3  -3   6 8035.31 371.939   1
   3   3  -6 7437.14 307.053   3
   3   2  -7 10592.8 394.942   3
  -3  -2   7 11803.3 486.494   1
   3   1  -8 83.6664 38.5716   3
  -3  -1   8 168.616 56.0950   1
  -3   0   9 3495.39 291.760   1
  -3   0   9 3082.89 126.138   4
   3   0  -9 3165.61 228.860   3
  -3   1  10 4178.04 344.900   1
   3  -1 -10 4278.82 283.418   3
   3  -2 -11 924.718 138.209   3
  -3   2  11 727.052 150.577   1
  -3   3  12 222.066 80.2896   1
   3  -3 -12 194.528 66.6200   3
  -3   4  13-70.3721 74.2590   1
   3  12   2 1629.07 239.771   6
  -3 -11  -1 203.483 88.4251   7
   3  11   1 6.14735 27.9719   6
   3  10   0-16.3737 36.0647   6
  -3 -10   0 69.4098 48.6887   7
   3  10   0 42.4289 15.8497   5
  -3  -9   1 4.26449 19.4179   7
   3   9  -1 48.6710 38.9272   6
   3   9  -1 53.5546 42.7585   5
  -3  -8   2 343.491 85.7145   7
   3   8  -2 571.094 86.3233   3
   3   8  -2 373.643 85.2874   5
  -3  -7   3 33066.2 861.343   7
   3   7  -3 33019.6 838.998   5
   3   7  -3 34095.7 712.703   3
   3   6  -4 4207.82 222.435   3
  -3  -6   4 4150.78 266.234   7
   3   5  -5 7951.19 231.930   4
  -3  -5   5 8361.45 376.370   7
   3   5  -5 8209.52 321.812   3
  -3  -5   5 7143.67 349.611   1
  -3  -4   6 1208.05 141.780   1
   3   4  -6 820.492 98.9400   3
  -3  -3   7 2311.47 213.409   1
   3   3  -7 2070.46 167.651   3
  -3  -2   8 6542.12 384.886   1
   3   2  -8 5619.06 295.177   3
  -3  -2   8 6405.65 283.206   8
  -3  -1   9 9364.86 488.038   1
  -3  -1   9 8535.06 169.879   4
   3   1  -9 8537.14 383.632   3
   3   0 -10 318.570 73.4128   3
  -3   0  10 408.202 112.749   1
   3  -1 -11 14.3605 22.6846   3
  -3   1  11-7.18440 24.7146   1
  -3   2  12 55.0082 29.2277   1
   3  -2 -12 74.1960 34.5941   3
  -3   3  13-278.389 109.328   1
   3  -3 -13-15.4207 31.0721   3
   3  12   1 1346.06 216.666   6
  -3 -12  -1 1836.93 256.833   7
  -3 -11   0 654.369 145.067   7
   3  11   0 754.042 148.000   6
  -3 -10   1 314.683 92.1455   7
   3  10  -1 471.090 112.508   6
   3  10  -1 366.544 93.4835   5
  -3  -9   2 1130.48 163.302   7
   3   9  -2 1161.45 158.560   5
   3   9  -2 1187.57 129.072   3
   3   8  -3 2.21748 13.3519   3
  -3  -8   3-19.4090 29.6420   7
   3   8  -3 44.2826 36.4354   5
  -3  -7   4 15209.3 565.593   1
   3   7  -4 16020.1 477.031   3
  -3  -7   4 15346.0 554.350   7
   3   6  -5 3944.28 179.920   4
  -3  -6   5 3572.51 255.066   7
   3   6  -5 4035.62 228.986   3
  -3  -6   5 4154.58 276.859   1
  -3  -5   6 17023.9 577.025   1
   3   5  -6 16039.0 485.458   3
  -3  -4   7 8649.90 415.123   1
   3   4  -7 7718.51 330.766   3
   3   3  -8 27832.5 708.917   3
  -3  -3   8 29801.7 872.193   1
  -3  -2   9 3568.66 298.688   1
   3   2  -9 3312.03 233.339   3
  -3  -1  10 7797.99 473.725   1
   3   1 -10 8062.78 385.638   3
   3   0 -11-10.3725 29.5338   3
  -3   0  11 71.1282 45.9982   1
  -3   1  12 640.928 149.247   1
   3  -1 -12 608.946 114.682   3
  -3   2  13 129.356 64.6915   1
   3  -2 -13 185.938 68.1609   3
  -3 -12   0-28.6281 51.6580   7
   3  12   0-37.4739 37.4742   6
  -3 -11   1 1092.67 183.171   7
   3  11  -1 1041.73 181.213   6
   3  11  -1 1061.04 168.419   5
  -3 -10   2 89.4680 50.5687   7
   3  10  -2-4.92637 36.8750   5
  -3  -9   3 3081.57 274.036   7
   3   9  -3 2869.09 258.220   5
   3   9  -3 3133.48 221.322   3
  -3  -8   4 990.837 146.133   1
  -3  -8   4 940.757 137.807   7
   3   8  -4 837.667 136.462   5
   3   8  -4 858.952 109.706   3
   3   7  -5 151.077 46.4133   3
  -3  -7   5 54.7440 30.4463   1
  -3  -7   5 133.860 50.5196   7
   3   6  -6 205.215 38.6724   8
  -3  -6   6 97.1118 41.6317   7
   3   6  -6 123.832 30.2452   4
  -3  -6   6 87.2194 38.2950   1
   3   6  -6 203.817 54.7038   3
  -3  -5   7 1245.04 157.504   1
   3   5  -7 1068.93 123.184   3
   3   4  -8 1040.49 120.859   3
  -3  -4   8 1010.36 151.723   1
  -3  -3   9 1594.23 136.143   8
  -3  -3   9 2103.09 233.010   1
   3   3  -9 2310.49 191.507   3
  -3  -2  10 5774.57 410.060   1
  -3  -2  10 5024.50 272.897   8
  -3  -1  11 974.615 174.837   1
   3   1 -11 1048.22 142.130   3
  -3   0  12 647.467 158.299   1
   3   0 -12 543.805 107.388   3
  -3   1  13 79.0056 59.8207   1
   3  -1 -13 35.3835 23.9900   3
  -3 -12   1 42.9300 26.5050   7
   3  12  -1-58.6745 70.0340   6
  -3 -11   2-18.5012 52.4744   7
   3  11  -2-2.33587 26.7588   5
   3  10  -3 152.151 48.4087   3
  -3 -10   3 98.1642 42.7068   7
   3  10  -3 160.768 61.4029   5
  -3  -9   4 115.640 45.1831   7
   3   9  -4 146.479 46.9251   3
  -3  -9   4 183.365 72.0480   1
   3   9  -4 187.098 72.0256   5
  -3  -8   5 753.749 128.003   1
   3   8  -5 850.334 111.353   3
  -3  -8   5 685.280 116.271   7
  -3  -7   6 5260.91 325.058   7
   3   7  -6 5963.88 301.731   3
  -3  -7   6 6093.90 362.628   1
  -3  -6   7 1113.16 154.619   1
   3   6  -7 1064.19 125.706   3
  -3  -5   8 8937.87 450.080   1
   3   5  -8 8716.24 381.243   3
  -3  -4   9 2582.54 262.852   1
   3   4  -9 2525.94 204.116   3
  -3  -3  10 4224.73 346.141   1
  -3  -3  10 3894.93 226.733   8
   3   3 -10 4022.58 267.386   3
  -3  -2  11 1549.62 223.762   1
  -3  -2  11 1844.28 170.010   8
   3   2 -11 1343.50 163.189   3
   3   1 -12 420.594 92.4766   3
  -3  -1  12 355.470 107.863   1
  -3   0  13 672.041 168.958   1
   3   0 -13 479.289 104.114   3
  -3   1  14 194.776 98.4936   1
   3  -1 -14 219.018 70.9026   3
  -3 -13   1 489.221 133.522   7
   3  13  -1 455.394 123.788   6
  -3 -12   2 1991.83 255.618   7
   3  12  -2 2147.12 269.246   6
   3  11  -3 279.054 71.0219   3
  -3 -11   3 173.976 65.7986   7
   3  11  -3 354.934 101.438   5
  -3 -10   4 914.093 149.147   7
   3  10  -4 917.336 155.700   5
   3  10  -4 968.660 137.352   3
  -3  -9   5 4732.16 329.431   7
  -3  -9   5 4888.47 343.900   1
   3   9  -5 4522.69 348.357   5
   3   9  -5 4803.67 290.255   3
   3   8  -6 21.4465 19.4860   3
  -3  -8   6 39.2724 30.8776   1
  -3  -8   6-8.43059 21.0256   7
  -3  -7   7 4199.60 175.619   4
   3   7  -7 4292.07 268.528   3
  -3  -7   7 3551.76 278.678   1
  -3  -6   8 6080.03 380.388   1
   3   6  -8 6193.32 325.276   3
  -3  -5   9 2347.75 241.675   1
   3   5  -9 2455.74 206.674   3
  -3  -4  10 17309.3 725.973   1
   3   4 -10 15265.2 550.139   3
  -3  -3  11 9505.29 558.101   1
   3   3 -11 9222.90 429.867   3
  -3  -3  11 8179.16 346.838   8
  -3  -2  12 3053.32 332.358   1
  -3  -2  12 3539.54 248.979   8
   3   2 -12 2894.67 245.962   3
   3   1 -13 56.0677 38.0137   3
  -3  -1  13 5.17442 38.4265   1
   3   0 -14 472.997 108.348   3
  -3   0  14 495.608 154.345   1
  -3 -13   2 2147.00 272.978   7
   3  13  -2 2411.22 289.527   6
  -3 -12   3 491.704 122.139   7
   3  12  -3 492.780 128.664   5
  -3 -11   4 6114.95 410.736   7
   3  11  -4 6569.32 366.819   3
  -3 -10   5 2345.46 240.783   7
  -3 -10   5 2421.69 257.173   1
   3  10  -5 2441.30 263.781   5
   3  10  -5 2461.28 213.151   3
  -3  -9   6 1832.08 203.146   7
  -3  -9   6 1424.29 185.713   1
   3   9  -6 1679.54 172.522   3
  -3  -8   7 4342.06 201.774   4
   3   8  -7 4300.56 272.943   3
  -3  -8   7 3715.73 281.140   7
  -3  -8   7 3595.34 296.589   1
  -3  -7   8 145.259 30.7750   4
  -3  -7   8 56.3712 24.4670   1
   3   7  -8 64.3994 29.7683   3
  -3  -6   9 10133.0 514.826   1
   3   6  -9 10043.8 439.747   3
  -3  -5  10 981.656 165.436   1
   3   5 -10 646.821 113.295   3
   3   4 -11 4661.39 306.344   3
  -3  -4  11 4598.75 391.955   1
  -3  -3  12 3394.06 347.717   1
   3   3 -12 3213.99 260.554   3
  -3  -2  13 395.644 121.680   1
   3   2 -13 454.789 100.867   3
  -3  -1  14 1847.20 287.620   1
   3   1 -14 1694.03 200.576   3
  -3 -13   3 22.0585 36.5203   7
   3  13  -3-45.9310 49.8841   6
  -3 -12   4 615.282 137.435   7
   3  12  -4 810.269 165.229   5
   3  11  -5 703.037 122.017   3
  -3 -11   5 789.010 143.798   7
   3  11  -5 648.852 145.386   5
   3  10  -6-15.2412 11.7886   3
  -3 -10   6 32.4397 32.1139   7
  -3 -10   6 32.5564 30.8505   1
   3  10  -6 15.7601 33.7864   5
   3   9  -7 297.703 75.7376   3
  -3  -9   7 314.556 90.2949   1
  -3  -9   7 222.865 70.1376   7
   3   8  -8 7.92028 19.7741   3
  -3  -8   8 33.3596 15.4937   1
  -3  -7   9 1168.95 175.427   1
   3   7  -9 1107.44 144.696   3
   3   6 -10 596.534 108.667   3
  -3  -6  10 539.342 124.496   1
  -3  -5  11 2.08468 23.0790   1
   3   5 -11 34.1497 22.7951   3
   3   4 -12 1115.27 155.172   3
  -3  -4  12 1336.73 220.214   1
  -3  -3  13 617.158 156.968   1
   3   3 -13 554.092 108.862   3
  -3  -2  14 312.891 115.388   1
   3   2 -14 278.613 78.4499   3
   3   1 -15 51.3978 38.3944   3
  -3 -13   4 530.148 127.995   7
   3  12  -5 408.491 96.4739   3
  -3 -12   5 207.349 80.9521   7
   3  12  -5 346.755 104.190   5
   3  11  -6 111.494 45.7693   3
  -3 -11   6 42.7949 35.5159   7
  -3 -11   6 128.079 54.3856   1
   3  11  -6 9.65728 19.5269   5
   3  10  -7 551.420 107.078   3
  -3 -10   7 461.374 107.387   7
  -3 -10   7 706.609 138.828   1
   3  10  -7 469.808 125.083   5
   3   9  -8-19.2227 26.2700   3
  -3  -9   8 40.4609 38.6387   1
  -3  -8   9 1139.38 172.244   1
   3   8  -9 941.041 135.592   3
  -3  -7  10 1062.63 177.470   1
   3   7 -10 1351.50 167.917   3
  -3  -6  11 333.860 99.1210   1
   3   6 -11 422.645 93.9631   3
  -3  -5  12 11.9188 48.7582   1
   3   5 -12-18.9711 28.7221   3
  -3  -4  13-21.1086 54.0781   1
   3   4 -13-9.59891 25.4950   3
  -3  -3  14 198.993 94.7017   1
   3   3 -14 189.561 66.5990   3
   3   2 -15 85.8722 48.8938   3
  -3 -13   5 56.0016 36.9943   7
   3  13  -5 18.3905 29.5621   5
  -3 -12   6 2156.99 252.164   7
   3  12  -6 2235.55 286.539   5
   3  12  -6 2290.23 236.378   3
   3  11  -7 277.962 79.0266   3
  -3 -11   7 291.812 94.1599   1
   3  11  -7 276.698 98.3584   5
  -3 -11   7 167.166 69.3613   7
   3  10  -8 583.233 113.574   3
  -3 -10   8 671.561 133.226   1
   3   9  -9 2557.58 237.701   3
  -3  -9   9 2237.58 255.503   1
  -3  -8  10 823.540 156.786   1
   3   8 -10 694.800 122.575   3
   3   7 -11 643.209 120.169   3
  -3  -7  11 644.973 141.378   1
  -3  -6  12 72.2244 37.9331   1
   3   6 -12 88.1756 54.5599   3
  -3  -5  13 1354.09 234.941   1
   3   5 -13 1107.61 164.069   3
  -3  -4  14 504.091 146.342   1
   3   4 -14 547.159 115.684   3
   3   3 -15 80.0689 49.5168   3
   3  13  -6 2172.63 292.836   5
   3  13  -6 1827.19 219.159   3
   3  12  -7 451.914 105.560   3
  -3 -12   7 535.386 126.218   7
  -3 -12   7 870.073 171.563   1
   3  12  -7 590.024 153.991   5
  -3 -11   8 1579.64 220.818   1
   3  11  -8 1660.95 255.148   5
   3  11  -8 1675.79 201.242   3
   3  10  -9 459.503 104.614   3
  -3 -10   9 542.569 128.882   1
  -3  -9  10 513.997 120.997   1
   3   9 -10 733.472 131.113   3
  -3  -8  11 3360.97 327.321   1
   3   8 -11 3393.57 282.850   3
  -3  -7  12 455.569 118.236   1
   3   7 -12 577.740 120.233   3
  -3  -6  13 1859.05 268.776   1
   3   6 -13 2291.25 241.960   3
  -3  -5  14-30.0850 53.7159   1
   3   5 -14-31.2801 37.3283   3
   3  13  -7 14.8324 18.4191   5
   3  12  -8-84.4596 46.4056   3
   3  12  -8-33.6178 39.7327   5
   3  11  -9 48.6572 47.0523   3
  -3 -11   9-20.4201 55.1457   1
   3  10 -10 429.540 103.346   3
  -3 -10  10 555.917 134.099   1
   3   9 -11 747.118 134.808   3
  -3  -9  11 688.220 151.885   1
   3   8 -12 171.700 67.3829   3
  -3  -8  12 184.065 80.7869   1
   3   7 -13 230.274 72.7463   3
  -3  -7  13 201.918 84.9141   1
  -3  -6  14 456.904 135.499   1
   3   6 -14 437.949 111.751   3
   3  13  -8-22.5078 42.4974   5
  -3 -12   9 23.2342 23.9230   1
   3  12  -9-111.228 70.2584   5
   3  11 -10 6.87135 29.5128   3
  -3 -11  10 82.0528 52.8555   1
   3  10 -11 15.7357 14.5922   3
  -3 -10  11-28.2019 50.7738   1
   3   9 -12 349.191 95.7721   3
  -3  -9  12 565.033 136.834   1
   3   8 -13 129.900 51.2917   3
  -3  -8  13 49.3966 25.9741   1
  -3 -11  11 1439.15 227.411   1
  -3 -10  12-60.6001 65.6196   1
   4 -10  11 957.172 172.341   4
  -4  10 -11 953.915 207.793   5
   4 -11  10 306.608 89.6510   4
  -4  11 -10 323.685 122.955   5
   4 -12   9-6.26686 18.9409   4
  -4  12  -9-43.5859 45.7343   5
   4  -8  12 58.8184 29.1228   4
  -4   8 -12 67.7515 22.2096   2
   4  -9  11 71.2544 60.5097   4
  -4   9 -11 30.2147 30.7358   2
   4 -10  10 54.5743 42.1743   4
  -4  10 -10 159.357 95.5871   5
   4 -11   9 661.021 139.504   4
  -4  11  -9 648.252 167.712   5
   4 -12   8 205.995 83.5401   4
  -4  12  -8 165.870 91.9560   5
   4 -13   7 394.928 106.840   4
  -4  13  -7 212.706 101.270   5
  -4   7 -12 548.280 130.486   2
   4  -7  12 437.212 119.336   4
  -4   8 -11 162.035 67.7125   2
   4  -8  11 125.514 63.9978   4
   4  -9  10 1831.62 231.214   4
  -4   9 -10 1801.43 209.358   2
   4 -10   9 184.336 57.1591   4
  -4  10  -9 126.934 76.7297   5
   4 -11   8 448.683 111.847   4
  -4  11  -8 460.942 133.926   5
   4 -12   7 906.891 158.946   4
  -4  12  -7 1256.01 233.093   5
   4 -13   6 217.728 85.7616   4
  -4  13  -6 229.889 91.2571   5
   4  -6  12-39.8058 63.1089   4
  -4   6 -12 90.0168 54.6929   2
  -4   7 -11-17.9918 45.3473   2
   4  -7  11-34.1356 64.3505   4
   4  -8  10 2079.57 243.235   4
  -4   8 -10 1888.01 215.948   2
   4  -9   9 167.820 66.9572   4
  -4   9  -9 143.755 58.0222   2
  -4   9  -9 144.838 77.1043   5
   4 -10   8 183.430 64.9737   4
  -4  10  -8 312.677 80.5124   2
  -4  10  -8 124.645 78.7599   5
   4 -11   7 542.480 121.407   4
  -4  11  -7 600.338 154.081   5
   4 -12   6-49.6357 33.5840   4
  -4  12  -6-55.1588 69.2986   5
   4 -13   5 1017.99 165.010   4
  -4  13  -5 1165.55 222.402   5
  -4   5 -12 151.396 59.7831   2
   4  -5  12 122.033 71.9826   1
   4  -6  11 438.369 115.659   4
   4  -6  11 532.226 128.604   1
  -4   6 -11 497.789 117.568   2
   4  -7  10 7.13340 46.0653   4
  -4   7 -10-9.79715 39.3104   2
   4  -8   9 6108.65 409.915   4
  -4   8  -9 5726.61 361.503   2
   4  -9   8 334.613 95.0588   4
  -4   9  -8 202.931 52.8367   2
  -4   9  -8 338.420 101.684   5
   4 -10   7 961.482 153.785   4
  -4  10  -7 1022.44 128.178   2
  -4  10  -7 896.675 180.950   5
   4 -11   6 26.4308 35.6789   4
  -4  11  -6 7.91936 28.0440   5
   4 -12   5 1239.91 176.490   4
  -4  12  -5 910.015 193.478   5
   4 -13   4 2034.77 234.612   4
  -4  13  -4 2275.12 303.020   5
  -4  14  -3 1522.61 261.472   5
   4  -4  12 924.494 193.457   1
  -4   4 -12 853.325 163.580   2
  -4   5 -11 138.320 57.4830   2
   4  -5  11 255.551 96.0407   1
   4  -6  10 1732.14 216.864   1
   4  -6  10 1677.81 219.300   4
  -4   6 -10 1799.58 215.257   2
   4  -7   9 76.5440 44.2057   4
  -4   7  -9 11.1697 42.4611   2
   4  -7   9 37.1845 16.2105   1
  -4   8  -8 504.198 98.2808   2
   4  -8   8 568.616 114.725   4
   4  -9   7 1417.05 183.885   4
  -4   9  -7 1532.61 162.293   2
  -4   9  -7 1539.37 224.603   5
   4 -10   6 179.449 71.5273   4
  -4  10  -6 107.248 57.4779   5
   4 -11   5 2155.70 229.115   4
  -4  11  -5 1565.53 236.362   5
   4 -12   4 15.4074 17.3751   4
  -4  12  -4 30.2179 50.7733   5
   4 -13   3 306.192 86.8387   4
  -4  13  -3 281.979 106.953   5
  -4  14  -2 194.683 89.8902   5
   4  -3  12 273.578 102.770   1
   4  -4  11-44.2153 48.3728   1
  -4   4 -11 7.24358 41.1427   2
  -4   5 -10 452.227 105.231   2
   4  -5  10 603.181 135.868   1
   4  -6   9 9.41435 24.8318   4
  -4   6  -9-15.8787 16.1021   2
   4  -6   9 9.36127 27.6442   1
   4  -7   8 3624.90 260.084   1
   4  -7   8 3961.32 313.848   4
  -4   7  -8 3320.65 261.312   2
   4  -8   7 297.280 80.8799   4
  -4   8  -7 221.777 55.4199   2
  -4   8  -7 310.379 101.157   5
   4  -9   6 64.4659 30.6691   4
  -4   9  -6 92.4199 43.2080   2
  -4   9  -6 81.6345 53.3756   5
   4 -10   5 456.876 103.548   4
  -4  10  -5 536.279 135.723   5
   4 -11   4 57.0637 38.2578   4
  -4  11  -4 53.3043 48.5966   5
   4 -12   3 315.066 87.4704   4
  -4  12  -3 265.199 97.2178   5
   4 -13   2 66.5410 43.2341   4
  -4  13  -2 114.354 71.8514   5
  -4   2 -12 947.930 156.792   7
   4  -2  12 1069.76 224.281   1
   4  -3  11 198.616 102.484   1
  -4   3 -11 195.861 68.9435   2
  -4   3 -11 112.279 46.6555   7
   4  -4  10 1476.77 216.954   1
  -4   4 -10 1437.72 190.618   2
  -4   4 -10 1268.24 148.850   7
  -4   5  -9 202.609 58.2567   2
  -4   5  -9 389.488 70.4030   7
   4  -5   9 236.271 75.5107   1
   4  -6   8 5772.35 343.961   1
   4  -6   8 6451.14 408.434   4
  -4   6  -8 5275.78 336.668   2
   4  -7   7 545.027 89.3828   1
  -4   7  -7 453.197 83.5915   2
   4  -7   7 452.636 101.715   4
   4  -8   6 3332.61 267.762   4
  -4   8  -6 3404.42 308.853   5
  -4   8  -6 3295.12 225.416   2
   4  -9   5 2163.33 211.333   4
  -4   9  -5 2062.68 163.176   2
  -4   9  -5 2051.62 241.766   5
  -4  10  -4 283.264 62.0105   8
   4 -10   4 362.227 92.1920   4
  -4  10  -4 371.253 103.464   5
   4 -11   3 7903.95 424.316   4
  -4  11  -3 7992.12 368.079   8
  -4  11  -3 7853.86 518.448   5
   4 -12   2 597.539 117.663   4
  -4  12  -2 505.938 133.594   5
   4 -13   1 1325.19 188.395   4
  -4  13  -1 1543.96 250.930   5
  -4   1 -12 583.197 129.150   7
   4  -2  11 279.500 105.275   1
  -4   2 -11 218.577 79.0030   2
  -4   2 -11 294.737 85.3134   7
   4  -2  11 407.510 111.421   6
  -4   3 -10 1667.18 179.919   7
   4  -3  10 1870.32 239.547   6
  -4   3 -10 2105.81 236.102   2
   4  -3  10 2155.19 275.822   1
  -4   4  -9 1286.30 173.211   2
  -4   4  -9 1629.29 156.502   7
   4  -4   9 1702.02 222.053   1
   4  -5   8 3572.38 287.337   1
  -4   5  -8 3484.75 203.876   7
  -4   5  -8 3126.63 256.560   2
   4  -6   7 36.0484 33.1817   4
  -4   6  -7 2.61769 10.1181   7
  -4   6  -7-33.1272 31.6520   2
   4  -6   7 47.4189 37.1750   1
   4  -7   6 1780.97 144.647   1
   4  -7   6 1968.69 205.105   4
  -4   7  -6 1709.39 165.993   2
  -4   7  -6 1849.38 218.018   5
  -4   8  -5 181.414 46.7051   2
   4  -8   5 211.939 61.1321   4
  -4   8  -5 216.503 73.4345   5
   4  -9   4 1483.32 173.715   4
  -4   9  -4 1474.34 140.234   8
  -4   9  -4 1457.90 126.983   2
  -4   9  -4 1302.93 192.582   5
   4 -10   3 818.103 129.361   4
  -4  10  -3 745.334 105.564   8
  -4  10  -3 720.913 147.657   5
   4 -11   2 1366.82 171.192   4
  -4  11  -2 1531.30 169.112   8
  -4  11  -2 1432.59 214.027   5
   4 -12   1 6720.02 400.069   4
  -4  12  -1 6928.81 390.550   8
  -4  12  -1 7018.02 513.240   5
   4 -13   0 4.43230 34.5529   4
  -4  13   0 39.3699 35.6313   5
  -4   0 -12 70.7780 54.6726   7
   4  -1  11-38.9391 54.3711   1
  -4   1 -11-40.0366 26.2495   2
  -4   1 -11 9.92015 19.7460   7
   4  -1  11-34.8244 33.3323   6
  -4   2 -10-15.9075 56.1034   2
  -4   2 -10 23.7819 16.6016   7
   4  -2  10 66.8492 27.3375   1
   4  -2  10 38.1690 39.9736   6
  -4   3  -9 428.434 100.278   2
  -4   3  -9 453.398 88.1182   7
   4  -3   9 499.594 124.709   1
   4  -3   9 484.281 111.754   6
   4  -4   8 2216.56 229.960   6
  -4   4  -8 1892.53 160.372   7
  -4   4  -8 1943.51 203.022   2
   4  -4   8 2145.19 232.606   1
  -4   5  -7-2.79111 27.9658   2
   4  -5   7-11.3239 30.4600   1
   4  -6   6 58.0445 30.8861   4
  -4   6  -6 58.7058 18.1226   7
  -4   6  -6 31.5351 25.5181   2
   4  -6   6 41.3866 26.1609   1
   4  -7   5 298.090 51.2851   1
   4  -7   5 274.826 74.4697   4
  -4   7  -5 267.740 64.4232   2
  -4   7  -5 307.514 92.5684   5
  -4   8  -4 348.458 67.4189   8
  -4   8  -4 358.588 68.7977   2
   4  -8   4 237.837 69.4913   4
  -4   8  -4 265.065 78.0579   5
  -4   9  -3 396.050 60.9079   2
  -4   9  -3 393.915 75.0109   8
   4  -9   3 426.158 91.5419   4
  -4   9  -3 340.853 102.486   5
   4 -10   2 91.1464 36.9526   4
  -4  10  -2 193.066 54.6590   8
  -4  10  -2 129.331 67.1142   5
   4 -11   1 374.378 91.8714   4
  -4  11  -1 349.807 84.6848   8
  -4  11  -1 371.021 113.271   5
   4 -12   0 530.242 109.582   4
  -4  12   0 623.975 152.071   5
   4 -13  -1 754.042 145.032   4
  -4  13   1 990.384 204.604   5
   4   0  11 2.93858 20.3934   1
  -4   0 -11 0.18769 25.3905   7
  -4   0 -11 44.2361 23.9779   2
   4   0  11-42.1051 48.6581   6
  -4   1 -10 1915.54 211.500   7
   4  -1  10 2040.17 242.932   6
  -4   1 -10 1759.42 222.658   2
   4  -1  10 1939.10 270.950   1
   4  -2   9-11.2138 24.1555   1
  -4   2  -9-27.4607 26.1450   2
  -4   2  -9 72.1656 42.0619   7
   4  -2   9 4.48271 33.6833   6
   4  -3   8 180.931 68.2825   1
  -4   3  -8 157.323 64.8255   2
  -4   3  -8 219.849 52.1347   7
   4  -3   8 164.363 68.6909   6
  -4   4  -7 118.342 51.2475   2
  -4   4  -7 172.479 41.3388   7
   4  -4   7 216.249 73.1815   6
   4  -4   7 177.999 65.4785   1
   4  -5   6 2163.61 182.591   1
  -4   5  -6 2055.73 184.274   2
  -4   6  -5 52.2126 37.5685   2
   4  -6   5 118.806 48.8529   4
   4  -6   5 84.6038 28.0937   1
  -4   6  -5 109.187 48.6642   5
   4  -7   4 598.863 105.378   4
  -4   7  -4 560.155 82.3057   8
   4  -7   4 621.829 51.0939   1
  -4   7  -4 649.079 123.492   5
  -4   7  -4 613.022 86.6270   2
   4  -8   3 607.773 103.930   4
  -4   8  -3 529.167 73.3337   2
  -4   8  -3 440.753 79.1149   8
  -4   8  -3 538.602 114.063   5
   4  -9   2 827.151 126.922   4
  -4   9  -2 925.389 124.678   8
  -4   9  -2 856.396 82.3421   2
  -4   9  -2 961.882 160.808   5
  -4  10  -1 243.722 64.4005   8
   4 -10   1 164.745 52.3737   4
  -4  10  -1 264.918 82.5952   5
   4 -11   0 107.249 46.9646   4
  -4  11   0 122.682 67.5385   5
   4 -12  -1 66.4959 38.1458   4
  -4  12   1 82.7588 60.2446   5
  -4  13   2-108.346 69.7130   5
   4 -13  -2 44.6069 48.3339   4
   4   1  11 505.532 152.941   1
  -4  -1 -11 452.951 112.189   7
  -4  -1 -11 435.422 124.408   2
  -4   0 -10 1871.89 217.287   7
   4   0  10 2074.31 247.937   6
  -4   0 -10 1818.07 226.136   2
   4   0  10 1536.11 253.094   1
   4  -1   9 20.5131 47.9123   1
  -4   1  -9 11.2337 21.4719   2
  -4   1  -9-24.7911 18.6909   7
   4  -1   9-15.8273 30.1033   6
  -4   2  -8 4440.41 273.052   7
   4  -2   8 3566.69 284.606   6
  -4   2  -8 3532.38 282.646   2
   4  -2   8 3842.82 329.846   1
  -4   3  -7 1835.23 189.414   2
  -4   3  -7 1869.68 157.969   7
   4  -3   7 1928.44 197.507   6
   4  -3   7 1982.11 212.113   1
   4  -4   6 4150.65 271.334   6
  -4   4  -6 4318.69 273.204   2
   4  -4   6 4333.04 273.413   1
   4  -5   5 20.6331 23.7397   1
  -4   5  -5 47.5759 18.8902   7
  -4   5  -5 51.1627 29.3193   2
  -4   6  -4 1802.35 186.226   5
   4  -6   4 1588.11 105.247   1
   4  -6   4 1604.63 168.796   4
  -4   6  -4 1644.53 143.783   2
   4  -7   3 1.97936 19.8487   4
  -4   7  -3 40.9390 29.0439   8
  -4   7  -3 18.9408 20.3998   2
  -4   7  -3 22.4048 26.7358   5
  -4   8  -2 59.8069 34.4190   8
   4  -8   2 53.0400 39.2919   4
  -4   8  -2 81.2667 27.1808   2
  -4   8  -2 33.8646 13.7603   5
   4  -9   1 3804.08 261.429   4
  -4   9  -1 4309.94 273.676   8
  -4   9  -1 4204.69 331.365   5
   4 -10   0 36.3010 17.6292   4
  -4  10   0 72.3650 38.2358   5
   4 -11  -1 3120.22 263.820   4
  -4  11   1 3168.82 332.789   5
  -4  12   2 237.402 88.4965   5
   4 -12  -2 326.807 94.7093   4
   4 -13  -3 92.2168 37.7097   4
  -4  -1 -10 1517.23 210.275   2
   4   1  10 1451.06 209.723   6
  -4  -1 -10 1283.75 188.243   7
  -4   0  -9-9.45071 29.2728   7
  -4   0  -9-50.2743 64.8172   2
   4   0   9 16.6747 25.8421   6
  -4   1  -8 5794.98 368.205   2
  -4   1  -8 5678.43 334.609   7
   4  -1   8 6221.08 384.954   6
  -4   2  -7 328.697 74.6121   2
  -4   2  -7 337.746 70.8930   7
   4  -2   7 372.803 89.5836   6
  -4   3  -6 13731.5 419.618   7
   4  -3   6 14452.0 515.462   6
  -4   3  -6 14323.7 520.185   2
   4  -4   5 384.856 72.3814   1
  -4   4  -5 388.329 72.3020   2
   4  -4   5 553.511 91.2636   6
   4  -5   4 1498.71 118.941   1
   4  -5   4 1517.19 166.204   4
  -4   5  -4 1622.23 143.196   2
  -4   5  -4 1806.31 85.2603   7
   4  -5   4 1698.56 151.352   6
  -4   5  -4 1839.70 176.643   5
   4  -6   3 2034.78 181.496   4
  -4   6  -3 2109.28 165.141   8
  -4   6  -3 2302.71 164.199   2
   4  -6   3 2289.35 76.5248   1
  -4   6  -3 2555.48 216.952   5
   4  -7   2 7244.70 343.272   4
  -4   7  -2 7893.84 288.367   2
  -4   7  -2 7796.13 330.559   8
   4  -8   1 3088.40 229.122   4
  -4   8  -1 3061.63 221.777   8
  -4   8  -1 3482.30 180.953   2
  -4   8  -1 3028.17 153.290   6
  -4   8  -1 3107.91 269.417   5
   4  -9   0 178.956 51.2211   4
  -4   9   0 184.267 68.9946   5
   4 -10  -1 3850.71 274.565   4
  -4  10   1 4592.22 378.637   5
  -4  11   2 85.1951 69.1295   5
   4 -11  -2 27.9525 22.2023   4
   4 -12  -3 2154.38 238.698   4
  -4  12   3 2207.18 295.825   5
  -4  -2 -10-12.3004 46.3231   7
  -4  -2 -10 92.0604 36.0517   2
   4   2  10 84.9622 48.4624   6
  -4  -1  -9 97.5414 53.0476   7
  -4  -1  -9 27.4189 37.7159   2
   4   1   9-35.7809 42.8834   6
  -4   0  -8 2008.88 206.781   7
  -4   0  -8 2354.63 234.413   2
   4   0   8 2310.23 242.178   6
  -4   1  -7 436.864 84.0802   7
  -4   1  -7 349.596 84.2454   2
   4  -1   7 340.070 83.6819   6
  -4   2  -6 14316.7 456.159   7
   4  -2   6 14698.4 539.822   6
  -4   2  -6 13817.8 520.500   2
  -4   3  -5 171.200 39.9656   7
  -4   3  -5 164.318 43.8228   2
   4  -3   5 163.381 50.0002   6
   4  -3   5 169.788 36.0670   3
   4  -4   4 9152.61 357.143   6
  -4   4  -4 8966.43 359.030   2
  -4   4  -4 9484.41 385.388   5
   4  -4   4 8951.74 328.519   1
   4  -5   3 228.205 37.1336   1
  -4   5  -3 199.166 51.7277   8
   4  -5   3 194.740 54.0398   4
  -4   5  -3 273.920 23.2388   7
  -4   5  -3 197.703 45.8181   2
  -4   5  -3 228.170 59.5103   5
   4  -6   2 148.753 40.9737   4
  -4   6  -2 170.386 49.4705   8
  -4   6  -2 206.723 44.7796   2
  -4   6  -2 175.412 47.7687   5
   4  -7   1 10166.5 411.007   4
  -4   7  -1 10945.7 419.384   8
  -4   7  -1 10657.2 324.191   2
  -4   7  -1 10316.5 291.161   6
  -4   7  -1 11144.6 483.055   5
  -4   8   0 71.5273 22.2008   8
   4  -8   0 107.055 36.7496   4
   4  -8   0 134.507 18.7186   7
  -4   8   0 150.985 25.2365   6
  -4   8   0 109.398 56.2087   5
   4  -9  -1 142.906 47.2202   4
   4  -9  -1 198.806 37.4688   7
  -4   9   1 260.596 79.4923   5
  -4  10   2 570.548 132.326   5
   4 -10  -2 603.251 111.735   4
  -4  11   3 66.8334 40.5581   5
   4 -11  -3 32.2345 42.0313   4
  -4  12   4 45.5623 36.8808   5
   4 -12  -4-44.3437 48.7834   4
  -4  -3 -10 1220.36 195.075   7
  -4  -3 -10 708.961 139.996   2
   4   3  10 894.512 171.668   6
  -4  -2  -9 1488.92 202.056   7
  -4  -2  -9 1509.01 202.607   2
   4   2   9 1393.78 203.993   6
  -4  -1  -8 2236.00 230.443   2
   4   1   8 2762.01 268.644   6
  -4  -1  -8 2397.11 235.172   7
  -4   0  -7 57.1262 43.8959   7
  -4   0  -7 41.2349 33.1745   2
   4   0   7-16.7814 40.8211   6
   4  -1   6 872.190 125.340   6
  -4   1  -6 758.049 105.648   7
  -4   1  -6 852.308 122.287   2
  -4   2  -5 1170.79 135.104   2
  -4   2  -5 1089.21 113.543   7
   4  -2   5 1284.08 140.025   6
   4  -2   5 1147.79 77.5286   3
  -4   3  -4 2112.62 171.552   2
   4  -3   4 2132.51 170.177   6
   4  -3   4 2360.87 132.641   3
  -4   4  -3 4521.54 237.119   2
  -4   4  -3 5133.41 173.195   7
   4  -4   3 4869.12 231.081   6
  -4   4  -3 4753.69 253.790   5
   4  -4   3 4629.27 201.837   1
   4  -5   2 2510.27 191.895   4
  -4   5  -2 2500.22 179.401   8
  -4   5  -2 2669.03 170.559   2
  -4   5  -2 2721.42 202.246   5
   4  -6   1 9099.58 367.300   4
  -4   6  -1 10353.8 392.606   8
  -4   6  -1 9179.88 305.601   2
  -4   6  -1 9972.90 283.518   6
  -4   6  -1 9827.71 419.980   5
   4  -7   0 2546.86 194.896   4
  -4   7   0 2911.40 210.445   8
   4  -7   0 2905.36 92.9576   7
   4  -7   0 2647.07 78.7330   7
  -4   7   0 2810.72 109.858   6
  -4   7   0 2698.70 232.576   5
   4  -8  -1 7402.20 344.778   4
   4  -8  -1 7932.06 236.373   2
   4  -8  -1 7842.46 227.936   7
  -4   8   1 7793.93 439.134   5
   4  -9  -2 136.083 47.9397   4
   4  -9  -2 197.614 37.4750   7
  -4   9   2 133.596 28.9500   5
   4 -10  -3 1446.57 175.875   4
  -4  10   3 1416.17 216.893   5
  -4  11   4 593.584 153.127   5
   4 -11  -4 803.673 140.623   4
  -4  12   5 10.0998 33.8871   5
   4 -12  -5 151.592 67.1865   4
  -4  -4 -10 55.1793 33.1053   2
  -4  -3  -9 608.198 129.307   7
  -4  -3  -9 476.900 109.763   2
   4   3   9 646.500 142.949   6
  -4  -2  -8 7680.22 443.792   7
   4   2   8 8168.49 475.942   6
  -4  -2  -8 7933.46 448.557   2
  -4  -1  -7 598.723 110.770   7
  -4  -1  -7 682.409 115.463   2
   4   1   7 586.181 119.547   6
  -4   0  -6 12694.9 505.770   2
  -4   0  -6 13911.3 496.470   7
   4   0   6 12668.1 516.709   6
  -4   1  -5 969.410 127.384   2
  -4   1  -5 945.950 114.468   7
   4  -1   5 956.140 50.6422   3
   4  -1   5 870.082 119.720   6
  -4   1  -5 570.133 71.5038   5
  -4   2  -4 24108.1 648.828   2
  -4   2  -4 25825.0 592.441   7
   4  -2   4 26273.4 661.555   6
   4  -2   4 25998.9 460.326   3
  -4   3  -3 2136.39 130.086   7
   4  -3   3 2023.82 116.710   7
   4  -3   3 1950.36 149.922   6
  -4   3  -3 1719.78 147.844   2
  -4   3  -3 1801.07 140.429   5
   4  -3   3 1912.28 120.518   3
   4  -4   2 11075.0 414.940   4
  -4   4  -2 11030.2 397.039   8
  -4   4  -2 12113.3 261.816   7
   4  -4   2 12155.6 255.085   1
   4  -4   2 11779.9 246.452   7
   4  -4   2 11341.2 336.766   6
  -4   4  -2 12105.1 405.127   5
  -4   4  -2 12093.7 394.201   2
   4  -4   2 11428.2 275.195   1
   4  -5   1 4801.46 251.208   4
  -4   5  -1 4837.55 220.436   2
   4  -5   1 4660.71 109.162   7
  -4   5  -1 5077.38 200.413   6
  -4   5  -1 4848.29 247.964   8
  -4   5  -1 4820.05 267.913   5
   4  -6   0 7600.86 332.745   4
  -4   6   0 8193.18 295.526   2
   4  -6   0 8255.43 190.324   7
  -4   6   0 8070.55 209.203   6
  -4   6   0 8113.93 353.482   8
  -4   6   0 7725.81 377.394   5
   4  -7  -1 12710.5 423.627   4
   4  -7  -1 13658.3 303.715   7
   4  -7  -1 13571.1 275.360   7
  -4   7   1 13720.6 539.240   5
  -4   8   2 2213.51 102.679   1
   4  -8  -2 2166.95 182.341   4
   4  -8  -2 2314.73 141.573   7
  -4   8   2 2596.33 262.524   5
   4  -9  -3 13041.1 512.311   4
   4  -9  -3 12171.3 403.120   7
  -4  10   4 73.0028 50.5445   5
   4 -10  -4 26.1899 36.7590   4
   4 -10  -4 62.2210 25.3365   7
  -4  11   5 733.680 169.172   5
   4 -11  -5 757.070 139.465   4
  -4  -4  -9 1068.53 190.347   7
  -4  -4  -9 858.749 155.720   2
   4   4   9 973.247 176.682   6
  -4  -3  -8 23.8697 28.4770   7
  -4  -3  -8 120.013 51.2028   2
   4   3   8 192.013 88.0881   6
  -4  -2  -7 704.020 129.518   7
   4   2   7 781.296 139.446   6
  -4  -2  -7 657.240 120.408   2
  -4  -1  -6 1045.56 136.093   7
  -4  -1  -6 929.911 134.828   2
   4   1   6 984.836 145.685   6
  -4   0  -5 3715.97 249.965   2
  -4   0  -5 3398.23 232.509   7
   4   0   5 4060.55 271.062   6
  -4   0  -5 3639.73 178.030   5
  -4   1  -4 10694.6 386.530   7
  -4   1  -4 11347.5 423.707   2
   4  -1   4 12233.8 442.320   6
   4  -1   4 11675.4 231.819   3
  -4   1  -4 11563.1 303.649   5
   4  -2   3 3112.05 161.908   7
  -4   2  -3 2916.05 194.850   2
   4  -2   3 2849.19 187.527   6
  -4   2  -3 2874.90 157.921   5
   4  -2   3 3197.62 137.006   3
  -4   3  -2 12502.9 424.271   8
  -4   3  -2 14128.5 434.926   2
  -4   3  -2 14965.9 344.605   7
   4  -3   2 13649.9 319.644   7
   4  -3   2 13628.0 385.625   6
   4  -3   2 13896.6 329.480   1
  -4   3  -2 13224.2 387.528   5
   4  -4   1 1479.04 138.526   4
   4  -4   1 1690.65 59.8760   1
  -4   4  -1 1631.21 134.079   2
   4  -4   1 1690.65 85.0298   7
  -4   4  -1 1891.84 125.043   6
   4  -4   1 1612.80 105.797   6
  -4   4  -1 1535.89 138.511   8
  -4   4  -1 1559.02 135.313   5
   4  -4   1 1662.20 62.5598   1
   4  -5   0 28178.5 667.488   4
  -4   5   0 30334.3 731.979   8
   4  -5   0 29860.6 481.024   7
  -4   5   0 29380.2 612.681   2
  -4   5   0 29484.1 501.743   6
  -4   5   0 30606.4 737.573   5
   4  -6  -1 2124.99 117.444   7
   4  -6  -1 1956.05 158.352   4
  -4   6   1 2116.27 178.584   8
  -4   6   1 2343.47 205.870   5
  -4   7   2 7873.79 151.392   1
  -4   7   2 8520.41 176.229   1
   4  -7  -2 7351.62 315.269   4
   4  -7  -2 7105.01 233.505   7
  -4   7   2 8877.79 449.288   5
  -4   8   3 1157.03 104.709   1
   4  -8  -3 1165.25 136.101   4
   4  -8  -3 1330.88 117.978   7
  -4   8   3 1130.39 173.434   5
   4  -9  -4 996.465 138.842   4
   4  -9  -4 959.875 115.444   7
  -4   9   4 1133.72 184.372   5
   4 -10  -5 2725.58 252.819   4
   4 -10  -5 2704.00 219.969   7
  -4  10   5 2682.65 306.605   5
  -4  11   6 318.474 101.776   5
   4 -11  -6 333.560 89.5820   4
  -4  -5  -9 181.267 71.1009   2
  -4  -4  -8 65.7015 69.2008   7
  -4  -4  -8 90.5552 52.6030   2
   4   4   8 117.903 65.6228   6
  -4  -3  -7 133.739 58.1484   7
  -4  -3  -7 187.481 72.2271   2
   4   3   7 183.018 76.1005   6
  -4  -2  -6 1470.66 170.828   2
  -4  -2  -6 1333.48 164.546   7
   4   2   6 1529.00 187.373   6
  -4  -1  -5 3355.11 245.213   7
   4   1   5 3584.79 264.170   6
  -4  -1  -5 3735.45 257.050   2
  -4  -1  -5 3971.34 193.885   5
  -4   0  -4 531.020 92.0167   2
  -4   0  -4 417.701 77.1667   7
   4   0   4 501.728 89.4698   6
  -4   0  -4 487.709 52.3708   5
   4  -1   3 1626.87 144.171   6
  -4   1  -3 1652.26 148.411   2
  -4   1  -3 1495.66 129.326   7
   4  -1   3 1648.17 82.3070   3
  -4   2  -2 5751.06 228.114   7
  -4   2  -2 6161.42 283.909   2
   4  -2   2 6156.89 221.975   7
   4  -2   2 6358.08 263.410   6
   4  -2   2 6913.02 246.263   1
  -4   2  -2 6489.13 221.364   5
  -4   3  -1 9979.28 313.767   6
  -4   3  -1 10980.4 364.278   2
   4  -3   1 10866.7 273.284   7
  -4   3  -1 10971.0 284.706   7
   4  -3   1 10918.5 309.650   6
  -4   3  -1 10017.0 371.774   8
  -4   3  -1 10853.1 333.167   5
   4  -3   1 10747.0 254.281   1
   4  -4   0 3713.39 207.225   4
  -4   4   0 3970.84 224.348   8
   4  -4   0 4180.58 160.660   7
  -4   4   0 3919.46 200.955   2
  -4   4   0 3683.63 149.292   6
   4  -4   0 4081.86 148.025   6
   4  -4   0 4094.19 238.753   5
  -4   4   0 3876.85 219.426   5
   4  -5  -1 52232.6 974.568   4
   4  -5  -1 53995.4 830.379   7
  -4   5   1 55051.5 1099.95   5
   4  -6  -2 2783.32 185.067   4
  -4   6   2 3448.42 112.674   1
   4  -6  -2 3173.14 170.215   7
  -4   6   2 3468.11 261.971   5
  -4   7   3 8034.05 271.510   1
   4  -7  -3 6802.00 313.542   4
   4  -7  -3 7135.66 278.299   7
  -4   7   3 8580.74 451.787   5
  -4   8   4 2956.49 198.724   1
   4  -8  -4 2705.08 215.370   4
   4  -8  -4 2763.40 190.457   7
  -4   8   4 3085.49 292.007   5
   4  -9  -5 683.363 116.006   4
   4  -9  -5 764.986 110.907   7
  -4   9   5 905.839 166.749   5
  -4  10   6-33.1068 64.8299   5
   4 -10  -6-18.4336 47.7645   4
   4 -10  -6-25.0864 32.0880   7
  -4  -5  -8 11.1443 41.6320   7
  -4  -5  -8 30.7880 16.7312   2
   4   5   8 32.9044 19.0947   6
  -4  -4  -7 4771.77 336.673   2
  -4  -4  -7 4370.94 352.936   7
   4   4   7 4373.54 351.285   6
  -4  -3  -6 702.964 128.450   7
   4   3   6 595.952 119.797   6
  -4  -3  -6 687.553 116.026   2
  -4  -2  -5 65.6147 40.4018   7
  -4  -2  -5 28.9355 21.5081   2
   4   2   5 34.6093 16.5497   6
  -4  -1  -4 9101.91 387.059   2
  -4  -1  -4 8773.30 387.754   7
   4   1   4 8206.04 385.797   6
  -4  -1  -4 8616.77 242.280   5
  -4   0  -3 2783.12 187.792   7
   4   0   3 2494.02 78.1299   3
   4   0   3 2515.36 187.136   6
  -4   0  -3 2366.68 182.159   2
   4   0   3 2625.23 74.4484   3
  -4   0  -3 2429.03 93.1616   5
   4  -1   2 15446.2 426.551   1
  -4   1  -2 15038.6 471.842   2
   4  -1   2 16060.1 456.788   6
   4  -2   1 19138.7 407.005   1
  -4   2  -1 17828.7 515.747   8
  -4   2  -1 18845.6 497.077   2
  -4   2  -1 21591.9 463.454   7
   4  -2   1 20554.0 434.597   7
   4  -2   1 18590.9 449.880   6
  -4   2  -1 19023.5 404.546   5
   4  -3   0 5478.35 247.513   4
  -4   3   0 6012.09 277.632   8
   4  -3   0 5544.44 166.736   1
  -4   3   0 5802.81 200.867   7
   4  -3   0 6257.19 212.012   7
  -4   3   0 5581.43 207.170   6
   4  -3   0 5484.08 191.320   6
  -4   3   0 5175.38 235.530   2
   4  -3   0 5136.75 240.544   5
  -4   3   0 5204.73 228.637   5
   4  -4  -1 2650.27 167.172   4
   4  -4  -1 3275.01 154.316   7
  -4   4   1 2844.90 181.383   2
   4  -4  -1 3334.19 105.502   6
  -4   4   1 3168.67 210.872   8
  -4   4   1 3513.56 220.990   5
   4  -5  -2 3421.37 198.619   4
  -4   5   2 3603.60 115.262   1
  -4   5   2 3502.27 231.021   8
   4  -5  -2 3061.95 167.261   7
  -4   5   2 3404.75 239.881   5
  -4   6   3 5485.84 208.417   1
   4  -6  -3 5245.38 253.586   4
  -4   6   3 5963.61 352.937   5
  -4   7   4 4237.09 229.202   1
   4  -7  -4 3939.60 241.851   4
   4  -7  -4 3426.17 208.655   7
  -4   7   4 4037.74 316.636   5
  -4   8   5 5256.82 302.789   1
   4  -8  -5 5106.86 302.605   4
   4  -8  -5 5156.35 283.862   7
  -4   8   5 5136.75 383.275   5
  -4   9   6 65.6104 48.3433   5
   4  -9  -6-34.0106 39.2189   4
   4  -9  -6 32.5328 20.3399   7
  -4  10   7 301.545 106.372   5
   4 -10  -7 279.155 80.3961   4
   4 -10  -7 199.621 64.7496   7
  -4  -6  -8 707.948 137.664   2
   4   6   8 892.813 173.958   6
  -4  -5  -7 2750.53 257.250   2
  -4  -5  -7 2866.15 306.056   7
   4   5   7 2704.74 285.761   6
  -4  -4  -6 1259.62 162.853   2
   4   4   6 1210.14 173.478   6
  -4  -4  -6 954.892 162.433   7
  -4  -3  -5 7577.59 381.536   2
   4   3   5 7659.12 413.917   6
  -4  -2  -4 704.461 111.962   7
   4   2   4 677.572 111.271   6
  -4  -2  -4 857.798 118.233   2
  -4  -2  -4 771.600 70.6270   5
  -4  -1  -3 2075.39 172.932   2
   4   1   3 1761.16 163.711   6
  -4  -1  -3 1857.58 164.726   7
  -4  -1  -3 1854.72 71.0029   5
  -4   0  -2 348.346 63.6157   7
   4   0   2 365.792 37.6418   3
  -4   0  -2 371.773 69.9879   2
   4   0   2 360.104 65.2556   6
   4  -1   1 12491.1 359.244   7
   4  -1   1 12457.2 377.384   6
  -4   1  -1 12515.8 400.928   2
  -4   1  -1 13688.4 252.269   5
  -4   2   0 2863.44 191.191   8
  -4   2   0 2946.18 152.287   7
  -4   2   0 2850.00 173.384   2
   4  -2   0 2849.90 148.590   7
   4  -2   0 2774.46 143.456   6
   4  -2   0 2872.92 134.646   1
  -4   2   0 3040.86 146.760   5
   4  -3  -1 6278.96 184.267   1
   4  -3  -1 5867.02 243.669   4
  -4   3   1 5975.26 283.856   8
   4  -3  -1 6607.24 230.849   7
  -4   3   1 6426.46 269.184   2
  -4   3   1 7188.47 181.140   1
   4  -3  -1 6803.74 187.906   6
   4  -3  -1 6774.04 283.944   5
  -4   3   1 6517.73 269.239   5
   4  -4  -2 5824.89 229.074   7
   4  -4  -2 5392.95 234.189   4
  -4   4   2 4706.56 263.384   8
  -4   4   2 5482.03 160.136   1
  -4   4   2 5169.67 273.634   5
  -4   5   3 1706.68 111.871   1
   4  -5  -3 1516.36 124.863   4
  -4   5   3 1829.67 178.868   5
  -4   6   4 9205.76 332.791   1
   4  -6  -4 9059.77 348.377   4
  -4   6   4 9315.76 457.755   5
  -4   7   5 1139.77 132.887   1
   4  -7  -5 1000.87 119.419   7
   4  -7  -5 1090.78 129.414   4
  -4   7   5 1014.96 160.815   5
  -4   8   6 385.214 106.729   5
  -4   8   6 475.530 97.4721   1
   4  -8  -6 455.188 91.3864   4
   4  -8  -6 590.698 99.9784   7
  -4   9   7 20.4637 41.2643   5
   4  -9  -7-7.09196 28.7748   4
   4  -9  -7 29.1630 22.7209   7
   4 -10  -8 43.8183 33.1813   7
  -4  -6  -7 1904.36 254.964   7
   4   6   7 2377.66 274.502   6
  -4  -6  -7 2219.43 241.309   2
  -4  -5  -6 401.134 112.552   7
  -4  -5  -6 365.417 93.5792   2
   4   5   6 396.587 104.041   6
  -4  -4  -5 898.683 134.032   2
  -4  -4  -5 793.426 138.371   7
   4   4   5 920.539 147.155   6
  -4  -3  -4 920.336 136.801   7
   4   3   4 1201.78 154.125   6
  -4  -3  -4 1031.60 131.658   2
  -4  -3  -4 1151.28 97.3430   5
  -4  -2  -3 10957.7 425.195   2
  -4  -2  -3 10112.2 419.474   7
   4   2   3 9830.96 425.697   6
  -4  -2  -3 10632.4 220.173   5
  -4  -1  -2 2691.26 193.304   2
  -4  -1  -2 2405.08 181.146   7
   4   1   2 2503.60 77.8414   3
   4   1   2 2359.45 184.430   6
  -4   0  -1 1810.87 146.847   2
   4   0   1 1874.89 100.351   3
   4   0   1 1695.34 140.988   6
  -4   0  -1 1842.32 142.071   7
  -4   1   0 16.1903 6.42679   5
   4  -1   0 2.47476 8.34537   1
   4  -1   0 25.3952 11.0133   6
  -4   1   0-4.97794 12.4199   2
   4  -2  -1 12320.2 364.943   4
  -4   2   1 13901.0 432.164   8
  -4   2   1 14874.7 376.813   7
   4  -2  -1 13222.5 359.667   7
  -4   2   1 12784.5 396.738   2
  -4   2   1 13961.6 314.859   1
   4  -2  -1 12741.6 360.526   5
  -4   2   1 12540.1 343.528   5
   4  -2  -1 12734.4 312.968   6
   4  -2  -1 13140.3 331.392   1
  -4   3   2 129.159 42.2612   5
   4  -3  -2 91.2497 28.3807   4
   4  -3  -2 122.257 28.9090   1
   4  -3  -2 124.553 32.8294   7
  -4   3   2 157.318 47.9064   8
  -4   3   2 102.095 22.1761   1
   4  -3  -2 112.064 18.8761   6
   4  -3  -2 124.862 39.3732   5
   4  -4  -3 34276.7 670.290   4
  -4   4   3 35293.3 820.423   5
  -4   5   4 72.8692 24.4918   5
   4  -5  -4 122.047 34.7312   4
  -4   5   4 136.147 36.3939   1
  -4   6   5 12712.2 453.582   1
   4  -6  -5 11266.9 402.334   4
  -4   6   5 11810.9 530.291   5
  -4   7   6 1917.40 195.017   1
   4  -7  -6 1677.96 165.567   4
   4  -7  -6 1586.58 163.516   7
  -4   7   6 1824.74 224.753   5
  -4   8   7 1210.99 173.849   1
   4  -8  -7 1028.30 142.143   4
   4  -8  -7 1075.49 145.016   7
  -4   8   7 1048.32 181.950   5
  -4   9   8 664.699 162.038   5
   4  -9  -8 447.019 98.7365   7
   4 -10  -9 185.399 75.7758   7
   4 -10  -9 154.325 80.3454   3
   4   7   7 310.498 98.1236   6
  -4  -6  -6 276.374 95.0625   7
  -4  -6  -6 317.281 87.1676   2
   4   6   6 172.921 62.7435   6
  -4  -5  -5 1792.52 195.436   2
  -4  -5  -5 1795.03 220.618   7
   4   5   5 1931.96 219.834   6
  -4  -4  -4 0.83744 19.9712   2
  -4  -4  -4 72.3511 46.5905   7
   4   4   4 23.1438 31.0924   6
  -4  -3  -3 3979.66 257.730   2
  -4  -3  -3 4513.63 287.107   7
   4   3   3 4469.74 290.272   6
  -4  -2  -2 191.079 53.3722   7
  -4  -2  -2 201.631 57.3940   2
   4   2   2 178.092 51.5788   6
  -4  -1  -1 7991.74 327.763   2
   4   1   1 7692.45 199.737   3
   4   1   1 7309.50 322.506   6
   4   0   0 8960.05 260.449   3
   4   0   0 9497.51 331.990   6
   4  -1  -1 1447.57 107.802   1
  -4   1   1 1458.03 126.475   2
   4  -1  -1 1487.33 120.236   7
  -4   1   1 1603.60 108.845   1
   4  -1  -1 1500.77 109.203   6
   4  -1  -1 1388.59 93.6815   5
  -4   1   1 1563.54 90.9100   5
   4  -2  -2 18176.0 426.265   1
   4  -2  -2 20496.8 447.034   4
  -4   2   2 18447.6 527.680   8
   4  -2  -2 23007.9 515.763   7
   4  -2  -2 20313.8 391.795   6
   4  -2  -2 20492.7 496.287   5
  -4   2   2 21056.8 426.665   1
  -4   2   2 19833.4 474.327   5
  -4   3   3 39.3855 19.4624   5
   4  -3  -3 24.4992 21.4185   1
  -4   3   3 33.6690 24.4627   8
  -4   3   3 13.4994 12.8450   1
   4  -3  -3 51.8563 22.3255   4
   4  -3  -3 68.7774 26.6207   7
   4  -3  -3 27.2645 8.02245   6
  -4   4   4 2398.40 157.968   1
   4  -4  -4 2084.92 135.297   4
  -4   4   4 2194.85 188.796   5
  -4   5   5 99.0718 48.5544   5
   4  -5  -5 45.2042 11.8872   4
  -4   5   5 47.1978 28.9799   1
  -4   6   6 80.3713 45.1219   5
   4  -6  -6 39.7570 20.9129   4
  -4   6   6 76.5801 47.4576   1
  -4   7   7 2059.76 217.631   1
   4  -7  -7 1858.16 180.305   4
   4  -7  -7 2573.00 219.764   7
  -4   7   7 1909.23 238.363   5
  -4   8   8 103.527 70.7648   5
  -4   8   8 80.4378 34.4172   1
   4  -8  -8 32.8464 23.9409   7
  -4   9   9 460.936 140.015   5
   4  -9  -9 347.843 92.4675   7
   4  -9  -9 711.322 147.448   3
  -4  -7  -6 107.101 74.3071   7
  -4  -7  -6 94.7355 49.2655   2
   4   7   6 5.31152 45.2042   6
  -4  -6  -5 1098.45 151.212   2
  -4  -6  -5 1151.86 182.311   7
   4   6   5 1289.78 179.936   6
  -4  -5  -4 61.0137 41.7301   7
  -4  -5  -4 51.8022 39.5479   2
   4   5   4-12.1637 30.5736   6
  -4  -4  -3 1711.20 166.505   2
  -4  -4  -3 1666.79 182.133   7
   4   4   3 1769.77 192.419   6
  -4  -3  -2 3818.68 234.406   2
   4   3   2 3554.22 250.810   6
  -4  -2  -1 1095.71 121.366   2
  -4  -2  -1 1144.26 133.611   7
   4   2   1 977.099 120.081   6
   4   2   1 1029.38 60.6492   3
  -4  -1   0 5694.23 272.918   7
   4   1   0 6372.19 203.033   3
   4   1   0 6269.48 276.718   6
  -4   0   1 2647.31 174.314   2
   4   0  -1 2596.98 144.610   3
   4   0  -1 2385.76 149.622   6
  -4   0   1 1917.40 155.060   8
   4   0  -1 3120.60 174.074   1
  -4   0   1 2996.82 166.897   1
   4   0  -1 2723.69 104.673   5
   4  -1  -2 15746.5 376.354   4
   4  -1  -2 16742.5 420.023   1
   4  -1  -2 15398.6 419.712   7
   4  -1  -2 15403.4 363.261   6
   4  -1  -2 15406.9 379.754   5
  -4   1   2 16441.3 375.743   5
   4  -2  -3 4493.30 214.175   1
   4  -2  -3 4613.27 180.971   4
  -4   2   3 4569.13 198.976   1
   4  -2  -3 4638.96 158.102   6
   4  -2  -3 4554.12 234.339   5
  -4   2   3 4675.56 227.880   5
  -4   3   4 254.157 56.0700   5
  -4   3   4 198.273 45.8608   1
   4  -3  -4 184.232 35.8094   4
   4  -3  -4 208.802 20.9920   6
  -4   4   5 33.7905 13.3862   5
   4  -4  -5 25.7950 14.3960   4
  -4   4   5 63.5458 37.2771   1
  -4   5   6 6813.50 346.484   1
   4  -5  -6 6104.70 275.356   4
  -4   5   6 6567.96 387.123   5
  -4   6   7-37.4623 34.0385   5
   4  -6  -7 5.51162 16.1180   4
  -4   6   7-4.10841 27.8930   1
  -4   7   8 13.9600 19.9497   5
  -4   7   8 62.7156 45.8787   1
   4  -7  -8 45.7348 37.4615   7
   4  -7  -8 10.1045 35.5571   3
  -4   8   9-2.96702 38.0405   5
  -4   8   9 40.3486 40.1925   1
   4  -8  -9 83.0255 62.1633   7
   4  -8  -9-10.7992 23.1266   3
   4  -9 -10 173.519 70.1344   3
   4   8   6 231.525 78.7242   6
  -4  -7  -5 1761.15 238.441   7
   4   7   5 2428.90 262.726   6
  -4  -7  -5 2013.67 209.991   2
  -4  -6  -4 3210.33 246.554   2
  -4  -6  -4 2668.04 268.676   7
   4   6   4 3527.90 305.961   6
  -4  -5  -3 2753.35 216.805   2
  -4  -5  -3 2575.59 245.851   7
   4   5   3 2816.90 253.091   6
  -4  -4  -2 5877.39 305.166   2
  -4  -4  -2 5969.36 342.098   7
   4   4   2 5211.91 324.792   6
  -4  -3  -1 11823.2 420.063   2
  -4  -3  -1 11538.9 466.790   7
   4   3   1 12337.6 245.492   3
  -4  -2   0 2054.95 172.610   7
   4   2   0 2175.25 169.695   6
   4   2   0 2309.77 112.713   3
  -4  -2   0 2079.26 161.665   2
  -4  -1   1 14324.8 433.535   2
   4   1  -1 13425.0 336.328   3
   4   1  -1 13542.5 407.485   6
   4   1  -1 13368.2 218.110   5
  -4   0   2 7387.37 273.257   1
  -4   0   2 9145.40 348.863   8
  -4   0   2 7423.69 298.616   7
   4   0  -2 9913.11 337.310   1
  -4   0   2 9017.21 353.138   2
   4   0  -2 8201.51 282.831   3
   4   0  -2 8497.75 248.263   5
   4  -1  -3 21457.4 510.774   1
   4  -1  -3 20499.9 516.404   3
  -4   1   3 21148.7 482.905   1
   4  -1  -3 21033.4 502.702   5
  -4   1   3 20969.0 481.148   5
   4  -2  -4 467.372 51.3782   4
  -4   2   4 524.248 87.2101   8
  -4   2   4 520.431 75.3183   1
  -4   2   4 536.806 83.4616   5
   4  -2  -4 479.059 76.1001   1
  -4   3   5 7438.37 318.793   1
   4  -3  -5 6433.96 226.532   4
   4  -3  -5 6068.68 158.348   6
  -4   3   5 7077.42 346.267   5
  -4   4   6 722.555 104.472   1
   4  -4  -6 660.053 79.7500   4
   4  -4  -6 577.555 42.7183   6
  -4   4   6 698.732 116.249   5
  -4   5   7 2808.68 241.963   1
   4  -5  -7 2622.11 183.124   4
  -4   5   7 2581.02 255.305   5
  -4   6   8 25.3258 15.4873   5
  -4   6   8 37.2626 42.9015   1
   4  -6  -8-25.4005 49.4293   3
  -4   7   9 470.374 131.134   5
   4  -7  -9 393.582 99.7635   7
  -4   7   9 505.031 125.446   1
   4  -7  -9 458.374 110.283   3
  -4   8  10-1.06523 37.9004   5
   4  -8 -10 30.3781 26.5675   7
   4  -8 -10 12.8459 24.9388   3
  -4  -8  -5 6204.37 474.118   7
   4   8   5 7419.03 482.760   6
  -4  -7  -4 2142.04 206.224   2
  -4  -7  -4 2111.63 249.684   7
   4   7   4 2326.07 259.215   6
   4   6   3 7715.58 440.939   6
  -4  -6  -3 6944.85 359.369   2
  -4  -5  -2 3829.92 250.784   2
   4   5   2 4416.07 314.746   6
   4   5   2 3830.39 175.315   5
  -4  -4  -1 16292.4 503.468   2
   4   4   1 16334.5 566.897   6
   4   4   1 15181.9 307.483   5
   4   4   1 15850.5 306.603   3
  -4  -3   0 24351.9 619.090   2
   4   3   0 24132.6 651.708   6
   4   3   0 23136.3 437.895   3
  -4  -2   1 7293.66 321.962   7
   4   2  -1 7400.59 319.416   6
   4   2  -1 7256.76 233.912   3
   4   2  -1 6547.08 147.263   5
   4   2  -1 6901.68 141.273   5
  -4  -1   2 10611.4 353.144   1
  -4  -1   2 8881.73 348.140   8
  -4  -1   2 12861.6 405.243   7
  -4  -1   2 12711.1 428.459   2
   4   1  -2 10596.4 315.181   3
   4   1  -2 10028.5 253.747   5
   4   0  -3 423.069 70.3792   1
   4   0  -3 398.625 46.5020   4
  -4   0   3 299.893 62.4076   8
  -4   0   3 304.148 58.7457   7
   4   0  -3 422.886 64.6487   3
  -4   0   3 420.380 62.9565   1
   4   0  -3 414.026 58.4247   5
   4  -1  -4 20392.8 545.897   1
   4  -1  -4 19518.5 355.150   4
  -4   1   4 19470.2 496.934   1
   4  -1  -4 18691.9 510.633   3
  -4   2   5 12546.8 426.759   1
   4  -2  -5 11027.4 273.079   4
   4  -2  -5 10962.7 408.105   3
  -4   2   5 12205.3 436.068   5
  -4   3   6 796.027 113.979   1
   4  -3  -6 761.507 76.4358   4
   4  -3  -6 850.420 117.426   3
   4  -3  -6 706.890 59.3289   6
  -4   3   6 796.831 121.119   5
  -4   4   7 6043.21 348.195   1
   4  -4  -7 5911.21 341.023   3
  -4   4   7 5990.53 373.214   5
   4  -4  -7 5860.32 254.559   4
  -4   5   8 52.8420 38.4115   5
  -4   5   8 8.17491 29.5808   1
   4  -5  -8-20.8565 38.5487   3
  -4   6   9 248.547 91.1710   5
  -4   6   9 314.960 98.2109   1
   4  -6  -9 282.497 87.8103   3
  -4   7  10 781.079 171.655   5
   4  -7 -10 912.989 153.617   7
  -4   7  10 656.968 153.447   1
   4  -7 -10 810.736 147.122   3
   4   9   5-66.3382 51.1790   6
  -4  -8  -4 742.346 161.619   7
   4   8   4 780.039 156.794   6
  -4  -7  -3 718.740 113.321   2
  -4  -7  -3 744.707 145.388   7
   4   7   3 739.165 143.061   6
  -4  -6  -2 1087.63 132.592   2
  -4  -6  -2 1433.05 188.962   7
   4   6   2 1342.09 179.082   6
   4   6   2 1108.14 105.741   5
   4   5   1 137.969 30.3825   5
   4   5   1 162.998 29.2059   3
  -4  -5  -1 164.468 67.7551   7
  -4  -5  -1 132.049 26.8962   3
   4   5   1 171.061 57.5185   6
  -4  -5  -1 164.784 44.8763   2
  -4  -4   0 12577.1 438.334   2
  -4  -4   0 12826.9 332.337   3
   4   4   0 12957.6 486.277   6
  -4  -4   0 11749.1 470.749   7
   4   4   0 14069.4 315.307   3
   4   4   0 13784.3 301.389   5
  -4  -3   1 1329.82 131.141   2
   4   3  -1 1026.59 122.230   6
   4   3  -1 1080.05 82.7727   3
   4   3  -1 1099.88 68.9127   5
  -4  -2   2 1180.61 126.044   7
  -4  -2   2 1441.91 134.532   1
  -4  -2   2 1565.76 148.724   2
   4   2  -2 1451.35 108.651   3
   4   2  -2 1407.90 84.9477   5
   4   1  -3 121.985 28.8239   5
  -4  -1   3 106.923 36.3934   8
  -4  -1   3 121.481 32.1487   7
  -4  -1   3 92.6318 27.8427   1
   4   1  -3 135.614 36.9604   3
   4   0  -4 7558.67 179.677   4
  -4   0   4 7802.80 320.910   8
   4   0  -4 7911.36 310.927   3
   4   0  -4 6886.63 278.512   5
   4  -1  -5 4976.52 146.218   4
  -4   1   5 6018.43 295.496   8
   4  -1  -5 4475.66 248.221   3
  -4   1   5 5800.85 289.950   1
  -4   2   6 4764.40 193.987   4
   4  -2  -6 4762.40 175.484   4
   4  -2  -6 5151.57 284.450   3
   4  -2  -6 5254.71 188.449   6
  -4   2   6 5186.27 298.230   5
  -4   3   7 46.5302 23.9194   5
   4  -3  -7-2.85182 36.3363   3
   4  -3  -7 16.0792 12.6894   6
  -4   3   7 9.61557 27.8261   1
  -4   4   8-25.4220 35.1895   5
   4  -4  -8-40.1270 44.9553   3
  -4   4   8-54.6515 36.4193   1
  -4   5   9 1991.81 235.701   1
   4  -5  -9 2012.72 212.687   3
  -4   5   9 2028.32 247.831   5
   4  -6 -10 222.411 83.3220   7
  -4   6  10 234.991 91.0831   1
   4  -6 -10 267.192 93.2187   3
   4  -7 -11 581.347 131.728   7
  -4   7  11 556.956 150.309   1
   4  -7 -11 479.303 116.572   3
  -4  -9  -4 896.145 184.556   7
   4   9   4 1211.67 199.793   6
  -4  -8  -3 3226.20 245.634   2
   4   8   3 3215.36 306.620   6
  -4  -7  -2 2034.07 186.596   2
  -4  -7  -2 2031.32 241.311   7
   4   7   2 2410.00 250.752   6
  -4  -6  -1 6762.06 328.925   2
   4   6   1 6565.44 385.708   6
   4   6   1 6084.88 256.082   5
  -4  -6  -1 6279.96 392.015   7
  -4  -5   0 1752.31 182.793   7
  -4  -5   0 2035.19 168.775   2
   4   5   0 1725.68 180.071   6
   4   5   0 1954.76 128.203   5
   4   5   0 1672.00 106.539   3
  -4  -4   1 9231.09 369.994   2
  -4  -4   1 10068.1 425.834   7
   4   4  -1 9576.56 413.139   6
   4   4  -1 9397.23 279.989   3
   4   4  -1 9526.20 269.111   5
  -4  -3   2 4748.60 273.071   7
   4   3  -2 4255.17 189.093   3
   4   3  -2 4350.56 186.191   4
   4   2  -3 5264.11 225.622   3
  -4  -2   3 5106.56 271.496   7
   4   2  -3 4748.20 191.890   5
   4   1  -4 9901.56 206.430   4
  -4  -1   4 9929.08 377.529   7
   4   1  -4 10342.5 349.700   3
  -4  -1   4 10577.3 376.568   1
  -4  -1   4 10444.8 373.304   8
   4   1  -4 9956.05 328.730   5
  -4   0   5 162.748 43.9296   8
   4   0  -5 101.121 12.3641   4
  -4   0   5 107.751 43.2306   1
   4   0  -5 156.482 47.9416   3
  -4   1   6 1750.49 167.741   1
  -4   1   6 1616.67 152.727   8
   4  -1  -6 1397.06 142.133   3
   4  -2  -7 38.4913 23.5440   3
  -4   2   7 12.6408 7.99334   4
   4  -2  -7 34.3048 14.9605   6
  -4   2   7 34.0072 33.9620   1
  -4   3   8 2293.16 220.384   1
   4  -3  -8 2369.01 211.057   3
   4  -4  -9 4.75135 18.9880   3
  -4   4   9-8.75822 43.5879   1
  -4   5  10-20.0192 40.8566   1
   4  -5 -10 19.5285 15.4415   3
   4  -6 -11 30.3821 41.0661   7
  -4   6  11 85.9177 56.1908   1
   4  -6 -11-25.6437 44.8943   3
  -4  -9  -3 1557.17 241.317   7
   4   9   3 1877.75 246.066   6
  -4  -8  -2 3438.74 247.102   2
  -4  -8  -2 3385.02 330.200   7
  -4  -7  -1 1749.69 215.078   7
  -4  -7  -1 2282.35 192.536   2
   4   7   1 1949.58 219.968   6
   4   7   1 1929.13 159.727   5
  -4  -6   0 16219.3 619.999   7
   4   6   0 17914.1 638.001   6
  -4  -6   0 19855.8 578.185   2
   4   6   0 18615.3 498.171   5
   4   6   0 17237.4 427.248   3
   4   5  -1 39705.7 979.052   6
   4   5  -1 41470.2 722.461   3
   4   5  -1 41783.0 755.866   5
  -4  -4   2 4251.19 273.903   7
   4   4  -2 4465.38 198.638   3
   4   4  -2 4223.36 198.924   5
  -4  -3   3 918.855 112.541   1
   4   3  -3 1037.77 77.5990   4
  -4  -3   3 869.853 113.285   7
   4   3  -3 1011.36 96.8079   3
   4   2  -4 15516.7 269.145   4
   4   2  -4 15517.6 436.735   3
  -4  -2   4 16458.8 493.424   1
   4   2  -4 15581.8 418.124   5
  -4  -1   5 7870.88 338.889   1
   4   1  -5 6969.86 299.434   3
  -4   0   6 16483.7 525.744   8
   4   0  -6 15811.5 503.430   3
  -4   1   7 401.041 92.9508   1
   4  -1  -7 318.217 73.7788   3
  -4   2   8-11.6020 9.39231   4
   4  -2  -8 47.0042 19.5645   3
  -4   2   8 7.23253 29.7347   1
  -4   3   9 3770.30 305.042   1
   4  -3  -9 3586.25 275.067   3
   4  -4 -10 623.332 119.163   3
  -4   4  10 582.830 131.505   1
   4  -5 -11 924.447 153.774   3
  -4   5  11 692.280 161.807   1
  -4   6  12-42.2295 44.9036   1
   4  -6 -12 173.939 65.7055   3
  -4 -10  -3 6485.08 509.562   7
   4  10   3 6101.23 463.974   6
  -4  -9  -2 158.561 74.3831   7
   4   9   2 178.568 73.8479   6
  -4  -8  -1 7151.76 457.601   7
  -4  -8  -1 7570.48 374.108   2
   4   8   1 7156.14 447.047   6
   4   7   0 51.0096 21.2211   3
  -4  -7   0 8.08199 12.3063   7
   4   7   0 0.74554 18.5771   6
   4   7   0 25.3169 28.7558   5
  -4  -6   1 4069.71 292.200   7
   4   6  -1 4136.78 300.841   6
   4   6  -1 3746.21 209.120   5
   4   6  -1 4574.23 204.205   3
   4   5  -2 53094.3 890.729   3
   4   5  -2 54182.0 945.531   5
   4   4  -3 4568.71 186.263   4
   4   4  -3 4310.39 207.055   3
  -4  -4   3 4977.16 287.922   1
   4   3  -4 70788.2 910.168   4
  -4  -3   4 58211.4 1217.91   7
   4   3  -4 70677.1 1141.88   3
  -4  -3   4 62743.8 1218.03   1
  -4  -2   5 2930.61 195.303   8
  -4  -2   5 3227.69 221.570   1
   4   2  -5 2803.69 186.616   3
  -4  -1   6 100784. 1712.02   1
   4   1  -6 101626. 1639.94   3
  -4   0   7 382.344 70.1951   8
  -4   0   7 459.283 103.255   1
   4   0  -7 356.408 77.3057   3
  -4   1   8 28970.3 490.883   4
   4  -1  -8 29814.0 783.246   3
  -4   2   9 5217.32 365.232   1
   4  -2  -9 4865.22 309.123   3
  -4   3  10 1511.77 205.299   1
   4  -3 -10 1574.08 185.165   3
  -4   4  11 4631.28 400.617   1
   4  -4 -11 5135.32 352.539   3
   4  -5 -12 59.0776 45.0480   7
  -4   5  12 113.966 56.1335   1
   4  -5 -12 107.718 58.3168   3
  -4 -10  -2 74.7695 50.8713   7
   4  10   2 175.731 85.6373   6
   4   9   1 4331.69 361.579   6
  -4  -9  -1 3259.94 318.192   7
  -4  -8   0 92.0877 43.6512   7
   4   8   0 41.8035 34.1750   6
   4   8   0 33.4988 23.5324   5
   4   7  -1 12979.7 572.334   6
   4   7  -1 13423.4 450.697   5
   4   7  -1 12622.3 381.246   3
  -4  -6   2 2042.67 206.043   7
   4   6  -2 1796.60 134.533   3
   4   6  -2 1606.19 143.782   5
  -4  -5   3 5562.90 320.578   1
   4   5  -3 5471.15 243.567   3
  -4  -4   4 1304.65 146.433   1
   4   4  -4 1547.64 91.4102   4
   4   4  -4 1327.44 120.500   3
   4   3  -5 6848.54 130.271   4
  -4  -3   5 4704.97 248.894   8
  -4  -3   5 5642.84 306.276   7
   4   3  -5 6492.32 288.198   3
  -4  -3   5 7652.59 356.317   1
   4   2  -6 11483.4 406.717   3
  -4  -2   6 12839.8 477.336   1
  -4  -1   7 3018.47 213.916   8
  -4  -1   7 3398.49 260.194   1
   4   1  -7 2632.48 207.317   3
  -4   0   8 37686.0 960.621   1
   4   0  -8 34223.3 824.665   3
  -4   1   9 1919.27 217.847   1
   4  -1  -9 1897.24 191.346   3
  -4   2  10 8873.01 511.694   1
   4  -2 -10 8728.68 437.014   3
   4  -3 -11 76.1337 47.2292   3
  -4   3  11 28.9945 26.9004   1
   4  -4 -12 8.18727 19.7522   3
  -4   4  12-1.46772 35.5130   1
  -4 -10  -1-46.4146 55.8845   7
   4  10   1 16.0262 15.6346   6
   4   9   0-26.6619 48.7143   6
  -4  -9   0 32.9534 29.6457   7
   4   8  -1 31.5926 22.7014   3
  -4  -8   1 39.1092 23.4318   7
   4   8  -1 70.1039 38.8082   6
   4   8  -1 52.2692 32.6022   5
   4   7  -2 137.084 35.8687   3
  -4  -7   2 143.344 57.9750   7
   4   7  -2 163.868 50.0788   5
  -4  -6   3 2044.96 203.237   1
   4   6  -3 1766.52 140.392   3
   4   6  -3 1684.14 158.363   5
  -4  -5   4 1897.01 182.983   1
   4   5  -4 1700.33 110.056   4
   4   5  -4 2022.17 152.295   3
   4   4  -5 1785.48 86.5119   4
  -4  -4   5 1736.74 178.130   7
   4   4  -5 1645.12 140.521   3
  -4  -4   5 1898.98 181.572   1
  -4  -3   6 6206.36 286.235   8
  -4  -3   6 5649.75 321.922   1
   4   3  -6 5130.24 269.161   3
  -4  -2   7 7426.81 317.401   8
  -4  -2   7 8502.00 413.807   1
   4   2  -7 7888.84 351.264   3
  -4  -1   8 12053.1 453.343   8
  -4  -1   8 12647.2 546.792   1
   4   1  -8 12531.9 474.863   3
  -4   0   9 4.99175 13.8595   8
  -4   0   9 23.5216 34.6044   1
   4   0  -9 88.5847 54.0452   3
   4  -1 -10 249.549 74.4450   3
  -4   1  10 204.319 74.2714   1
   4  -2 -11 47.0543 39.6486   3
  -4   2  11 39.7478 41.6113   1
   4  -3 -12 357.646 98.1639   3
  -4   3  12 307.710 112.779   1
   4  -4 -13 416.319 105.014   3
  -4   4  13 354.747 119.796   1
  -4 -11  -1 644.557 156.231   7
   4  11   1 732.956 158.246   6
  -4 -10   0 101.889 44.6440   7
   4  10   0 227.982 82.6265   6
  -4  -9   1 211.311 73.3301   7
   4   9  -1 287.731 88.8050   6
   4   8  -2 70.8722 35.8984   3
  -4  -8   2 76.8919 48.5502   7
   4   8  -2 65.0179 37.1762   5
   4   7  -3 2.42020 21.2337   3
  -4  -7   3-44.4344 31.9117   7
   4   7  -3 51.3052 35.7963   5
  -4  -6   4 24.2572 38.2385   1
  -4  -6   4 21.4712 22.7345   7
   4   6  -4 17.8670 11.2127   3
  -4  -5   5 791.913 119.461   1
   4   5  -5 652.323 63.4880   4
  -4  -5   5 743.633 120.783   7
   4   5  -5 583.040 88.6940   3
  -4  -4   6 5869.12 333.354   7
   4   4  -6 5356.36 273.960   3
  -4  -4   6 6225.89 350.752   1
  -4  -3   7 531.194 81.2534   8
   4   3  -7 425.585 79.3826   3
  -4  -3   7 664.156 112.764   1
  -4  -2   8 15746.7 614.201   1
   4   2  -8 15328.2 527.816   3
  -4  -1   9 7684.52 445.037   1
  -4  -1   9 8189.59 380.339   8
   4   1  -9 7399.80 370.736   3
  -4   0  10 849.609 153.707   1
  -4   0  10 954.897 136.945   8
   4   0 -10 947.572 134.314   3
   4  -1 -11 98.2470 40.0787   3
  -4   1  11 190.640 78.6483   1
   4  -2 -12-18.6449 30.3612   3
  -4   2  12 66.1374 59.3581   1
   4  -3 -13 40.8470 28.8998   3
  -4   3  13 84.1768 62.5877   1
  -4 -11   0 116.097 68.5516   7
   4  11   0 162.961 70.7981   6
   4  10  -1 1601.16 215.298   6
  -4 -10   1 1473.02 216.851   7
  -4  -9   2 1846.64 228.932   7
   4   9  -2 1980.45 200.099   5
   4   9  -2 1795.81 162.224   3
  -4  -8   3 1356.73 186.149   7
   4   8  -3 1623.79 177.624   5
   4   8  -3 1371.02 137.773   3
   4   7  -4 190.057 48.2359   3
  -4  -7   4 222.531 67.5596   7
  -4  -7   4 230.417 75.4435   1
   4   7  -4 248.341 70.8209   5
  -4  -6   5 76.7026 40.1154   7
  -4  -6   5 38.4804 26.3307   1
   4   6  -5 37.1252 30.2425   3
   4   5  -6 618.046 51.2040   4
  -4  -5   6 678.118 113.259   7
  -4  -5   6 520.426 95.5900   1
   4   5  -6 669.523 96.7044   3
  -4  -4   7 872.019 101.473   8
  -4  -4   7 784.430 123.264   1
   4   4  -7 846.407 111.138   3
  -4  -3   8 2422.81 179.200   8
  -4  -3   8 2222.73 221.070   1
   4   3  -8 2146.28 188.772   3
  -4  -2   9 10.0119 19.8124   8
  -4  -2   9 37.3336 41.5795   1
   4   2  -9 69.6773 23.6891   3
  -4  -1  10 2478.10 267.273   1
  -4  -1  10 2335.64 208.061   8
   4   1 -10 2331.74 216.393   3
   4   0 -11 210.403 63.4192   3
  -4   0  11 414.805 106.130   1
   4  -1 -12 794.498 137.308   3
  -4   1  12 741.513 163.629   1
   4  -2 -13 711.653 134.503   3
  -4   2  13 663.867 166.378   1
  -4 -11   1 344.686 106.659   7
   4  11  -1 312.111 94.5687   6
   4  10  -2 10.2125 13.6906   3
  -4 -10   2-5.85193 29.5203   7
  -4  -9   3 2111.04 241.913   7
   4   9  -3 1641.94 190.115   5
   4   9  -3 1854.82 170.491   3
  -4  -8   4 2205.54 228.963   7
  -4  -8   4 2796.04 265.630   1
   4   8  -4 2648.46 236.925   5
   4   8  -4 2959.73 207.997   3
   4   7  -5 8.70925 25.5917   3
  -4  -7   5 57.6315 44.5890   7
  -4  -7   5-42.8850 35.4394   1
  -4  -6   6 3065.86 259.060   7
   4   6  -6 3033.03 215.555   3
  -4  -6   6 3484.54 279.888   1
  -4  -5   7 81.6510 27.3827   1
   4   5  -7 198.726 51.6166   3
  -4  -4   8 5086.45 259.785   8
   4   4  -8 6133.22 321.397   3
  -4  -3   9 3063.46 209.405   8
  -4  -3   9 3095.24 282.879   1
   4   3  -9 3078.67 238.117   3
  -4  -2  10 2816.34 220.747   8
   4   2 -10 2757.96 233.927   3
  -4  -2  10 2831.30 284.755   1
  -4  -1  11 43.6015 39.2661   1
  -4  -1  11 52.5478 31.4934   8
   4   1 -11 32.8611 16.7847   3
   4   0 -12 197.231 67.0841   3
  -4   0  12 211.687 85.1775   1
   4  -1 -13 278.015 82.7642   3
  -4   1  13 229.146 86.7102   1
   4  -2 -14 295.692 85.9468   3
  -4 -12   1 314.466 117.123   7
  -4 -11   2 41.8667 16.2987   7
   4  11  -2-49.7609 54.2287   6
   4  10  -3 362.614 77.4029   3
  -4 -10   3 419.112 115.213   7
   4  10  -3 383.993 95.3721   5
   4   9  -4 449.801 83.4290   3
  -4  -9   4 486.086 110.607   7
   4   9  -4 531.274 111.542   5
   4   8  -5 216.076 56.0942   3
  -4  -8   5 202.070 70.8055   7
  -4  -8   5 185.072 62.3008   1
   4   8  -5 253.352 80.6602   5
  -4  -7   6 1137.70 163.566   1
  -4  -7   6 1111.29 163.673   7
   4   7  -6 944.998 123.670   3
  -4  -6   7-3.99687 25.7105   1
   4   6  -7 48.9371 31.8804   3
  -4  -5   8 7784.70 438.163   1
   4   5  -8 8056.93 378.248   3
  -4  -4   9 172.131 45.7455   8
  -4  -4   9 192.868 69.3744   1
   4   4  -9 189.727 60.2844   3
  -4  -3  10 602.447 128.711   1
  -4  -3  10 431.777 73.0539   8
   4   3 -10 596.183 106.513   3
  -4  -2  11 391.297 82.3913   8
  -4  -2  11 189.003 70.9072   1
   4   2 -11 407.548 93.6281   3
  -4  -1  12 356.373 116.547   1
  -4  -1  12 380.708 94.2526   8
   4   1 -12 272.949 78.5589   3
  -4   0  13 865.106 191.426   1
  -4   0  13 831.390 143.492   8
   4   0 -13 747.655 136.089   3
   4  -1 -14 101.095 44.3318   3
  -4   1  14 63.9681 52.6294   1
  -4 -12   2 231.746 85.9233   7
   4  12  -2 255.355 88.7362   6
   4  11  -3-10.4633 32.0707   3
  -4 -11   3 55.5301 45.9583   7
   4  10  -4 187.549 47.6355   3
  -4 -10   4 108.662 53.3852   7
   4  10  -4 195.811 67.8685   5
  -4  -9   5 134.906 55.6352   1
   4   9  -5 116.789 45.7989   3
  -4  -9   5 111.364 59.4660   7
   4   9  -5 139.593 61.3131   5
   4   8  -6 287.595 67.7956   3
  -4  -8   6 186.919 70.8867   7
  -4  -8   6 364.661 104.787   1
  -4  -7   7 25.7674 29.1936   7
  -4  -7   7 51.2562 34.6201   1
  -4  -6   8 147.711 55.2308   1
   4   6  -8 135.197 46.7846   3
   4   5  -9 489.078 94.3176   3
  -4  -5   9 463.752 106.191   1
  -4  -4  10-17.7959 19.2858   8
  -4  -4  10-7.85871 37.5089   1
   4   4 -10 17.3484 30.9060   3
  -4  -3  11-6.95703 31.6661   8
  -4  -3  11 52.5570 47.4870   1
   4   3 -11 105.649 48.6737   3
  -4  -2  12 306.387 100.738   1
  -4  -2  12 294.028 73.6326   8
   4   2 -12 260.390 72.8894   3
  -4  -1  13 169.283 93.9801   1
  -4  -1  13 61.6055 34.8719   8
   4   1 -13 74.5439 47.6882   3
  -4   0  14 89.9022 68.0734   1
   4   0 -14 157.728 60.8258   3
  -4 -12   3 1418.06 219.697   7
   4  12  -3 1963.93 270.008   6
   4  11  -4 1.32515 26.2336   3
  -4 -11   4-25.1959 24.7278   7
  -4 -10   5 2291.81 255.947   7
   4  10  -5 2282.02 251.916   5
   4  10  -5 2040.15 199.012   3
  -4  -9   6 1061.22 172.944   7
  -4  -9   6 1038.21 169.743   1
   4   9  -6 1053.63 171.697   5
   4   9  -6 775.278 119.676   3
   4   8  -7 41.4736 42.6186   3
  -4  -8   7 56.3422 41.7877   1
  -4  -8   7 30.0223 29.2962   7
   4   7  -8 2034.36 199.879   3
  -4  -7   8 2082.78 235.300   1
  -4  -6   9 222.146 78.5501   1
   4   6  -9 176.718 58.5833   3
  -4  -5  10 661.150 136.404   1
   4   5 -10 491.079 99.2845   3
  -4  -4  11 54.0117 49.6865   1
   4   4 -11 72.0653 39.2549   3
  -4  -3  12 230.394 91.9193   1
   4   3 -12 159.599 61.1073   3
  -4  -2  13 790.730 174.424   1
   4   2 -13 734.424 129.523   3
  -4  -1  14 62.1290 36.3042   1
   4   1 -14 227.797 77.8877   3
  -4 -12   4 36.3950 53.6095   7
  -4 -11   5 2780.45 292.501   7
   4  11  -5 2453.02 273.203   5
   4  11  -5 2817.86 254.195   3
  -4 -10   6 1037.08 178.333   7
  -4 -10   6 1341.47 203.790   1
   4  10  -6 1531.82 215.837   5
   4  10  -6 1236.76 159.275   3
  -4  -9   7 1861.85 223.023   7
   4   9  -7 2134.08 210.402   3
   4   8  -8 2071.28 202.985   3
  -4  -8   8 1881.67 231.363   1
   4   7  -9 3172.97 261.268   3
  -4  -7   9 3086.37 291.820   1
  -4  -6  10 3335.13 317.235   1
   4   6 -10 3774.10 284.595   3
  -4  -5  11 128.406 49.0147   1
   4   5 -11 111.688 45.4910   3
  -4  -4  12 744.790 155.448   1
   4   4 -12 559.389 112.672   3
  -4  -3  13 317.245 118.129   1
   4   3 -13 261.813 83.4345   3
  -4  -2  14 466.710 138.035   1
   4   2 -14 577.759 123.667   3
  -4 -12   5 1364.66 217.303   7
   4  12  -5 1689.89 200.371   3
   4  11  -6 232.132 76.9758   3
  -4 -11   6 165.414 68.8161   7
   4  11  -6 233.961 83.6625   5
   4  10  -7 100.321 45.4248   3
  -4 -10   7 120.322 60.8208   7
  -4 -10   7 124.944 60.4066   1
   4  10  -7 114.274 59.8645   5
   4   9  -8 36.6518 23.9734   3
  -4  -9   8 29.3690 50.6116   1
   4   8  -9 43.5061 39.0329   3
  -4  -8   9 114.864 66.2060   1
  -4  -7  10 2806.20 294.083   1
   4   7 -10 2161.74 223.747   3
  -4  -6  11-22.3445 28.8197   1
   4   6 -11-30.4950 51.1195   3
  -4  -5  12 702.186 147.817   1
   4   5 -12 519.826 110.583   3
  -4  -4  13 3.38452 45.6215   1
   4   4 -13 29.1160 27.1310   3
  -4  -3  14 4.36668 21.7903   1
   4   3 -14-19.2850 29.4419   3
  -4 -12   6 1467.08 222.956   7
   4  12  -6 1470.06 191.081   3
  -4 -11   7 4498.19 371.039   7
  -4 -11   7 4221.16 374.688   1
   4  11  -7 3422.35 349.043   5
   4  11  -7 4084.30 312.119   3
  -4 -10   8 809.605 159.195   1
   4  10  -8 910.830 147.441   3
   4   9  -9 1269.21 168.321   3
  -4  -9   9 993.136 175.307   1
   4   8 -10 509.142 110.063   3
  -4  -8  10 372.717 102.472   1
  -4  -7  11 79.8583 48.8011   1
   4   7 -11 136.300 56.6778   3
  -4  -6  12 256.725 90.3581   1
   4   6 -12 117.616 43.6343   3
  -4  -5  13 240.774 94.2278   1
   4   5 -13 29.7464 18.8701   3
  -4  -4  14 779.562 185.446   1
   4   4 -14 576.575 121.407   3
  -4 -12   7 2185.06 268.686   7
   4  12  -7 2775.73 270.517   3
  -4 -11   8 3610.76 351.356   1
   4  11  -8 3965.96 389.206   5
   4  11  -8 3803.35 307.991   3
  -4 -10   9 3440.17 331.864   1
   4  10  -9 4249.18 324.745   3
   4   9 -10 2556.54 250.603   3
  -4  -9  10 2963.59 319.062   1
  -4  -8  11 1244.71 203.752   1
   4   8 -11 1580.32 200.369   3
  -4  -7  12 2211.46 281.266   1
   4   7 -12 2691.92 265.639   3
  -4  -6  13 92.7587 71.3529   1
   4   6 -13 56.9681 48.6416   3
   4   5 -14 1067.01 172.830   3
   4  12  -8 25.5689 36.5896   5
  -4 -11   9 2556.74 301.186   1
   4  11  -9 2055.89 297.512   5
   4  11  -9 2205.27 241.173   3
   4  10 -10 348.224 99.1825   3
  -4 -10  10 346.889 117.058   1
   4   9 -11 5492.74 381.174   3
  -4  -9  11 5905.92 461.191   1
  -4  -8  12 1293.17 223.153   1
   4   8 -12 1384.95 193.195   3
   4   7 -13 891.591 161.249   3
  -4  -7  13 738.870 167.887   1
  -5  10 -10 320.246 135.264   5
  -5  11  -9 149.409 74.8446   5
  -5  12  -8 114.264 65.0117   5
  -5   8 -11 42.8795 46.5089   2
  -5   9 -10 161.362 81.4243   2
   5  -9  10 67.2994 62.5928   4
  -5   9 -10-46.3665 44.7371   5
   5 -10   9 639.111 144.744   4
  -5  10  -9 393.839 138.101   5
   5 -11   8 356.662 98.0937   4
  -5  11  -8 284.335 111.013   5
   5 -12   7 377.859 109.505   4
  -5  12  -7 393.425 131.123   5
  -5  13  -6 52.5266 41.8425   5
   5  -7  11 327.537 107.297   4
  -5   7 -11 437.252 115.388   2
  -5   8 -10 36.3728 39.4774   2
  -5   8 -10-72.2828 52.2940   5
   5  -8  10 124.569 71.7508   4
   5  -9   9 979.706 171.538   4
  -5   9  -9 1072.67 162.784   2
  -5   9  -9 942.190 190.350   5
   5 -10   8 486.604 116.578   4
  -5  10  -8 537.048 143.775   5
   5 -11   7 181.446 71.4068   4
  -5  11  -7 210.537 102.631   5
   5 -12   6 1742.37 225.749   4
  -5  12  -6 1716.95 265.305   5
   5 -13   5 528.939 132.240   4
  -5  13  -5 508.546 147.858   5
   5  -6  11 472.765 128.776   4
  -5   6 -11 337.660 102.647   2
  -5   7 -10 295.702 88.0084   2
   5  -7  10 304.040 99.2493   4
   5  -8   9 2282.00 264.875   4
  -5   8  -9 1954.83 222.547   2
  -5   8  -9 2191.21 278.724   5
   5  -9   8 57.4900 18.8944   4
  -5   9  -8 22.1506 26.7971   2
  -5   9  -8 48.0474 39.1650   5
   5 -10   7 665.716 130.497   4
  -5  10  -7 809.729 167.385   5
   5 -11   6 394.104 101.653   4
  -5  11  -6 302.005 95.6862   5
   5 -12   5 371.734 102.698   4
  -5  12  -5 219.677 100.472   5
   5 -13   4 3958.88 337.185   4
  -5  13  -4 3967.60 407.226   5
  -5   5 -11 1048.03 177.801   2
  -5   6 -10 404.054 98.7715   2
   5  -6  10 326.539 91.2565   4
   5  -7   9 810.735 156.111   4
  -5   7  -9 918.191 154.587   2
   5  -8   8 101.615 50.4180   4
  -5   8  -8 232.150 71.4726   2
  -5   8  -8 144.880 71.4267   5
   5  -9   7 478.490 113.261   4
  -5   9  -7 400.677 88.0894   2
  -5   9  -7 383.065 103.484   5
   5 -10   6 1119.40 169.576   4
  -5  10  -6 1306.18 212.219   5
   5 -11   5 727.393 143.450   4
  -5  11  -5 605.103 148.349   5
   5 -12   4 1364.13 189.596   4
  -5  12  -4 1609.99 247.431   5
   5 -13   3 118.214 68.1952   4
  -5  13  -3 163.186 86.2434   5
   5  -4  11 363.264 123.784   1
  -5   4 -11 124.137 66.3054   2
  -5   5 -10-55.5742 42.7712   2
   5  -6   9 1122.55 191.538   4
  -5   6  -9 1019.31 162.097   2
  -5   7  -8 427.319 103.577   2
   5  -7   8 546.683 124.381   4
  -5   7  -8 610.265 135.659   5
   5  -8   7 831.149 148.352   4
  -5   8  -7 897.907 134.566   2
  -5   8  -7 1010.59 178.637   5
   5  -9   6-5.96625 35.8330   4
  -5   9  -6-9.79631 32.3152   2
  -5   9  -6 45.8476 47.9343   5
   5 -10   5 779.808 138.729   4
  -5  10  -5 736.147 160.454   5
   5 -11   4 1574.08 201.645   4
  -5  11  -4 1295.94 213.211   5
   5 -12   3 197.574 72.0311   4
  -5  12  -3 387.214 122.685   5
   5 -13   2 282.315 83.7767   4
  -5  13  -2 465.740 137.578   5
   5  -3  11 450.238 135.907   1
  -5   4 -10 888.018 166.383   2
   5  -4  10 1140.12 198.642   1
   5  -5   9-21.9582 33.2887   1
  -5   5  -9 42.9330 38.2283   2
   5  -6   8 939.969 167.608   4
  -5   6  -8 828.092 139.524   2
   5  -7   7 599.557 126.535   4
  -5   7  -7 426.432 95.4164   2
  -5   7  -7 558.632 123.543   5
   5  -8   6 235.476 74.3039   4
  -5   8  -6 166.217 51.2968   2
  -5   8  -6 105.419 51.5256   5
   5  -9   5-23.8146 27.7300   4
  -5   9  -5 54.8915 26.2226   2
  -5   9  -5 67.4527 47.8796   5
  -5  10  -4 216.718 62.2201   8
   5 -10   4 226.246 71.6886   4
  -5  10  -4 187.597 76.2059   5
   5 -11   3 1105.06 165.601   4
  -5  11  -3 961.533 185.955   5
   5 -12   2 683.242 132.151   4
  -5  12  -2 663.117 151.376   5
   5 -13   1 630.637 134.695   4
  -5  13  -1 598.984 159.850   5
   5  -2  11 320.921 121.107   1
  -5   2 -11 435.909 108.289   7
  -5   3 -10 1858.88 237.644   2
  -5   3 -10 1927.03 210.195   7
   5  -3  10 2238.43 272.190   6
   5  -3  10 2083.88 277.264   1
   5  -4   9 645.636 143.045   1
  -5   4  -9 566.899 123.063   2
   5  -4   9 779.520 151.180   6
   5  -5   8 2613.92 249.857   1
  -5   5  -8 2429.01 244.960   2
   5  -6   7 2248.68 200.581   1
   5  -6   7 2356.17 253.171   4
  -5   6  -7 2376.40 225.038   2
  -5   6  -7 2287.28 238.613   5
   5  -7   6 11.8705 24.4268   4
  -5   7  -6 8.31586 24.2344   2
  -5   7  -6 10.7464 22.4403   5
   5  -8   5 2195.28 224.606   4
  -5   8  -5 2446.95 205.355   2
  -5   8  -5 2344.55 252.758   5
  -5   9  -4 113.684 44.9115   8
  -5   9  -4 64.3308 31.7406   2
   5  -9   4 101.146 45.7437   4
  -5   9  -4 19.3337 37.7694   5
   5 -10   3 1279.33 173.287   4
  -5  10  -3 1204.71 149.552   8
  -5  10  -3 1036.11 181.459   5
   5 -11   2 1260.39 169.937   4
  -5  11  -2 1310.05 167.555   8
  -5  11  -2 1178.10 201.990   5
   5 -12   1 851.808 144.064   4
  -5  12  -1 813.413 140.216   8
  -5  12  -1 865.960 178.809   5
   5 -13   0 884.597 155.711   4
  -5  13   0 971.998 166.696   8
  -5  13   0 1004.08 207.356   5
   5  -1  11-62.8785 59.1028   1
  -5   1 -11 213.329 83.8078   7
  -5   2 -10 1701.61 229.530   2
  -5   2 -10 1560.98 196.447   7
   5  -2  10 1547.48 224.764   6
   5  -2  10 1769.88 259.855   1
  -5   3  -9 1146.72 177.458   2
  -5   3  -9 1038.73 143.717   7
   5  -3   9 1239.42 188.030   6
   5  -3   9 1244.27 196.465   1
  -5   4  -8 4932.85 352.311   2
  -5   4  -8 5841.35 311.180   7
   5  -4   8 5487.16 377.734   6
   5  -4   8 5464.83 386.699   1
   5  -5   7 2098.55 225.244   6
  -5   5  -7 1939.15 205.544   2
  -5   5  -7 1945.23 149.208   7
   5  -5   7 2037.10 205.316   1
   5  -6   6 2609.99 191.691   1
   5  -6   6 2708.30 261.684   4
  -5   6  -6 2405.88 215.126   2
  -5   6  -6 2549.48 241.958   5
   5  -7   5 1065.71 154.567   4
  -5   7  -5 1140.59 139.121   2
  -5   7  -5 1244.19 170.616   5
   5  -8   4 79.7547 49.9080   4
  -5   8  -4 34.7878 22.1368   2
  -5   8  -4 37.0094 11.5387   8
  -5   8  -4 18.4692 29.1637   5
   5  -9   3 6769.43 388.320   4
  -5   9  -3 7027.95 360.131   8
  -5   9  -3 6641.68 295.182   2
  -5   9  -3 6797.81 438.925   5
  -5  10  -2 532.493 101.780   8
   5 -10   2 510.596 104.997   4
  -5  10  -2 583.479 137.756   5
   5 -11   1 354.885 90.7241   4
  -5  11  -1 430.648 97.3061   8
  -5  11  -1 544.569 133.259   5
  -5  12   0 76.8300 17.8206   8
   5 -12   0 113.209 54.7557   4
  -5  12   0 108.108 71.3674   5
  -5  13   1 95.4627 78.5557   5
  -5  13   1-23.4548 38.7791   8
   5 -13  -1 111.568 64.7167   4
  -5   0 -11 366.626 108.603   7
   5  -1  10 194.466 95.8523   1
  -5   1 -10 288.441 96.7152   7
  -5   1 -10 322.411 97.6402   2
   5  -1  10 373.050 105.247   6
  -5   2  -9 56.9251 17.4538   7
  -5   2  -9 65.4779 54.3449   2
   5  -2   9 22.3021 16.2001   6
   5  -3   8 200.225 59.9687   1
  -5   3  -8 249.859 67.9735   7
  -5   3  -8 247.164 86.0273   2
   5  -3   8 224.588 69.5198   6
   5  -4   7 156.082 45.8760   1
  -5   4  -7 187.559 52.4605   7
  -5   4  -7 227.622 73.0075   2
   5  -4   7 237.449 75.8803   6
  -5   5  -6 1014.40 139.720   2
   5  -5   6 1304.66 163.354   6
  -5   5  -6 1182.91 155.581   5
   5  -5   6 1275.94 148.023   1
   5  -6   5 459.908 67.1771   1
   5  -6   5 510.296 105.911   4
  -5   6  -5 401.354 81.6495   2
  -5   6  -5 478.911 94.7584   5
  -5   7  -4 524.881 90.4593   2
   5  -7   4 433.504 89.7282   4
  -5   7  -4 422.220 96.9693   5
   5  -8   3 1246.64 157.929   4
  -5   8  -3 1319.71 150.088   8
  -5   8  -3 1396.90 137.794   2
  -5   8  -3 1382.27 183.985   5
   5  -9   2 1188.98 158.494   4
  -5   9  -2 1121.40 140.893   8
  -5   9  -2 1304.20 122.893   2
  -5   9  -2 1164.03 177.175   5
   5 -10   1 2117.69 211.666   4
  -5  10  -1 2424.62 232.863   8
  -5  10  -1 2195.67 259.971   5
   5 -11   0 282.133 82.5462   4
  -5  11   0 176.380 58.5727   8
  -5  11   0 361.723 108.867   5
  -5  12   1 361.068 93.3457   8
   5 -12  -1 549.853 118.319   4
  -5  12   1 497.954 140.954   5
   5 -13  -2 542.153 134.215   4
  -5  13   2 275.683 84.1379   8
  -5   0 -10 1706.71 231.795   2
  -5   0 -10 1649.06 218.172   7
   5   0  10 1770.19 240.344   6
   5   0  10 1672.27 275.440   1
  -5   1  -9 510.694 113.589   7
  -5   1  -9 382.022 104.227   2
   5  -1   9 449.104 116.204   6
  -5   2  -8 1008.45 146.251   7
   5  -2   8 928.226 156.988   6
  -5   2  -8 899.460 154.312   2
   5  -3   7 342.394 89.5418   1
  -5   3  -7 417.696 79.5196   7
  -5   3  -7 301.428 84.7153   2
   5  -3   7 359.548 87.3478   6
  -5   4  -6 1892.04 151.032   7
   5  -4   6 1736.68 184.517   6
  -5   4  -6 1929.41 196.309   2
   5  -4   6 2013.31 196.649   1
   5  -5   5 1438.90 157.106   6
  -5   5  -5 1452.44 158.692   2
  -5   5  -5 1718.67 178.030   5
   5  -5   5 1583.56 149.235   1
   5  -6   4 22.7485 33.2533   4
  -5   6  -4 67.1283 37.0137   2
   5  -6   4 46.0659 16.0507   1
  -5   6  -4 87.1041 53.3134   5
  -5   7  -3 349.189 76.7385   8
   5  -7   3 286.893 73.7878   4
  -5   7  -3 284.555 63.5249   2
  -5   7  -3 311.012 81.1983   5
   5  -8   2 56.9358 43.6237   4
  -5   8  -2-2.32060 18.4428   8
  -5   8  -2-3.24950 9.68020   2
  -5   8  -2 13.1209 40.6821   5
   5  -9   1 1431.98 167.679   4
  -5   9  -1 1478.59 170.354   8
  -5   9  -1 1632.66 213.206   5
   5 -10   0 32.6372 20.1216   4
  -5  10   0 18.3101 20.7810   8
  -5  10   0-4.61980 24.7282   5
   5 -11  -1 2789.05 248.932   4
  -5  11   1 2642.06 259.733   8
  -5  11   1 2787.48 327.850   5
  -5  12   2 27.6963 37.1661   5
   5 -12  -2-117.528 56.0758   4
  -5  -1 -10 556.774 134.357   7
  -5   0  -9 414.914 108.635   7
  -5   0  -9 277.962 93.6234   2
   5   0   9 300.399 100.104   6
  -5   1  -8 1303.11 184.167   2
  -5   1  -8 1268.27 165.889   7
   5  -1   8 1236.09 185.442   6
  -5   2  -7 366.179 81.3058   7
  -5   2  -7 305.286 81.6871   2
   5  -2   7 424.630 101.893   6
  -5   3  -6 2913.94 243.873   2
  -5   3  -6 2916.61 204.537   7
   5  -3   6 2564.28 227.740   6
  -5   4  -5 7462.21 376.136   2
   5  -4   5 7783.99 370.214   6
  -5   4  -5 8248.45 372.363   5
   5  -4   5 8129.25 369.949   1
   5  -5   4 496.134 98.7498   4
  -5   5  -4 651.915 63.6386   7
  -5   5  -4 518.886 91.4920   2
   5  -5   4 675.150 101.594   6
  -5   5  -4 589.726 96.8869   5
   5  -5   4 658.257 83.0774   1
   5  -6   3 3602.83 261.954   4
  -5   6  -3 3515.69 239.935   8
  -5   6  -3 3546.03 228.187   2
  -5   6  -3 4022.42 278.417   5
  -5   7  -2 702.125 109.125   8
   5  -7   2 622.405 105.255   4
  -5   7  -2 636.384 88.9965   2
  -5   7  -2 609.248 110.982   5
   5  -8   1 1812.55 188.029   4
  -5   8  -1 2008.69 194.996   8
  -5   8  -1 2111.36 161.142   2
  -5   8  -1 2031.95 218.894   5
  -5   9   0 71.3239 32.8507   8
   5  -9   0 121.126 50.5700   4
  -5   9   0 100.991 44.6605   5
   5 -10  -1 118.854 46.6299   4
  -5  10   1 79.4456 37.3648   8
  -5  10   1 115.939 61.0787   5
  -5  11   2 171.409 69.5021   5
   5 -11  -2 153.772 64.5168   4
  -5  12   3 307.363 105.564   5
   5 -12  -3 349.212 93.6095   4
  -5  -1  -9 118.051 69.0130   7
  -5  -1  -9 95.7084 59.1601   2
   5   1   9 2.52432 25.3711   6
  -5   0  -8 1020.31 160.673   2
  -5   0  -8 748.997 140.105   7
   5   0   8 901.401 159.742   6
  -5   1  -7 138.628 54.1434   7
  -5   1  -7 154.410 56.4534   2
   5  -1   7 77.2782 47.5141   6
  -5   2  -6 775.401 128.246   2
  -5   2  -6 816.044 116.921   7
   5  -2   6 732.485 125.615   6
  -5   3  -5 9.23743 17.6732   7
   5  -3   5-18.3970 31.6238   6
  -5   3  -5-2.32769 13.4151   5
  -5   4  -4 938.503 125.293   2
   5  -4   4 927.455 117.072   6
  -5   4  -4 1049.10 122.656   5
   5  -5   3 5475.10 326.926   4
   5  -5   3 6518.91 200.831   1
  -5   5  -3 6534.82 191.416   7
   5  -5   3 5994.48 281.550   6
  -5   5  -3 6160.10 312.430   2
  -5   5  -3 6488.40 327.695   5
   5  -5   3 6185.68 217.446   1
   5  -6   2 56.1171 23.5283   4
  -5   6  -2 82.9164 30.4856   2
  -5   6  -2 94.0464 36.8527   8
  -5   6  -2 74.9955 39.7126   5
   5  -7   1 20000.3 602.366   4
  -5   7  -1 20496.4 607.274   8
  -5   7  -1 20782.1 525.333   2
  -5   7  -1 21737.5 688.297   5
  -5   8   0 273.914 75.1530   8
   5  -8   0 371.061 83.5668   4
  -5   8   0 379.383 99.3120   5
   5  -9  -1 4202.44 281.859   4
  -5   9   1 4631.05 321.804   8
  -5   9   1 5221.77 393.079   5
  -5  10   2 54.3942 56.3212   5
   5 -10  -2 15.7017 19.1377   4
  -5  11   3 394.107 113.697   5
   5 -11  -3 530.164 114.667   4
  -5  12   4 473.087 143.911   5
   5 -12  -4 513.364 117.030   4
  -5  -2  -9 58.2253 42.5501   7
   5   2   9 70.2944 45.7697   6
  -5  -1  -8 97.1636 49.1605   7
  -5  -1  -8 119.384 62.2991   2
   5   1   8 24.3892 15.1645   6
  -5   0  -7 1068.13 159.605   2
  -5   0  -7 1221.66 164.403   7
   5   0   7 1035.04 161.400   6
  -5   1  -6 167.891 54.7932   7
  -5   1  -6 113.674 45.5077   2
   5  -1   6 110.089 41.0138   6
  -5   2  -5 71.5446 33.7584   7
  -5   2  -5 75.9640 26.4632   2
   5  -2   5 72.4110 31.1741   6
  -5   3  -4 1176.29 141.157   2
  -5   3  -4 1311.02 126.873   7
   5  -3   4 1229.89 139.812   6
  -5   3  -4 1270.34 120.431   5
  -5   4  -3 5920.34 312.781   2
   5  -4   3 6453.18 234.189   1
   5  -4   3 6387.02 218.135   7
   5  -4   3 6285.84 288.901   6
  -5   4  -3 5572.46 276.845   5
  -5   5  -2 14.8588 25.7458   8
   5  -5   2 25.7681 26.4854   4
   5  -5   2 13.5625 8.43133   1
   5  -5   2 3.59633 6.12317   7
   5  -5   2 2.79329 4.39988   1
  -5   5  -2 18.0616 25.3367   2
   5  -5   2-22.3007 21.7909   6
  -5   5  -2 15.6686 10.6275   5
  -5   6  -1 189.352 54.5429   8
   5  -6   1 107.413 42.4410   4
   5  -6   1 139.188 15.1856   7
  -5   6  -1 114.141 32.4494   2
  -5   6  -1 126.046 50.0960   5
   5  -7   0 152.680 52.8340   4
   5  -7   0 150.282 18.1328   7
  -5   7   0 170.201 28.3668   6
  -5   7   0 141.343 53.5324   8
  -5   7   0 164.228 57.5268   5
   5  -8  -1 1313.15 147.870   4
  -5   8   1 1579.26 179.145   8
  -5   8   1 1559.47 198.231   5
   5  -9  -2 932.452 131.467   4
  -5   9   2 1104.88 162.133   8
  -5   9   2 935.833 164.745   5
   5 -10  -3 1680.47 189.148   4
  -5  10   3 2038.58 263.287   5
  -5  11   4-21.7217 23.0936   5
   5 -11  -4 3.35668 15.0117   4
   5 -12  -5-40.2110 61.2173   4
  -5  -3  -9 283.545 105.374   7
  -5  -3  -9 205.243 75.6435   2
  -5  -2  -8 1061.48 180.123   7
  -5  -2  -8 1235.44 188.667   2
   5   2   8 1190.77 189.074   6
  -5  -1  -7 413.769 103.546   7
  -5  -1  -7 663.418 128.529   2
   5   1   7 604.761 128.775   6
  -5   0  -6 1397.80 168.750   7
  -5   0  -6 1436.67 178.300   2
   5   0   6 1452.30 181.138   6
  -5   1  -5 2103.20 204.193   2
  -5   1  -5 2486.81 203.125   7
   5  -1   5 2213.62 207.363   6
  -5   2  -4 3509.20 248.721   2
  -5   2  -4 3573.65 223.392   7
   5  -2   4 3497.89 241.853   6
   5  -2   4 3674.11 150.267   3
  -5   2  -4 3568.22 180.061   5
  -5   3  -3 9411.48 408.785   2
   5  -3   3 10012.8 315.834   7
   5  -3   3 11011.5 350.913   1
   5  -3   3 10309.7 389.228   6
  -5   3  -3 10381.7 341.761   5
   5  -4   2 10710.8 440.374   4
  -5   4  -2 10101.3 414.911   8
  -5   4  -2 9866.61 390.938   2
   5  -4   2 11061.1 290.068   7
   5  -4   2 10836.4 360.082   6
  -5   4  -2 10591.8 375.383   5
  -5   4  -2 11037.3 299.663   7
   5  -4   2 9763.06 266.452   1
   5  -5   1 644.916 100.930   4
  -5   5  -1 641.016 100.813   8
  -5   5  -1 629.837 87.0307   2
   5  -5   1 704.145 54.7219   7
   5  -5   1 697.314 76.4172   6
  -5   5  -1 857.823 114.688   5
   5  -6   0 5028.44 278.143   4
  -5   6   0 5173.27 302.089   8
   5  -6   0 5663.16 170.622   7
  -5   6   0 5643.05 271.749   2
  -5   6   0 5489.34 189.652   6
  -5   6   0 5776.94 327.462   5
  -5   7   1 91.0574 39.3984   8
   5  -7  -1 184.286 62.2935   4
  -5   7   1 131.435 50.8983   5
  -5   8   2-5.30423 37.1238   5
   5  -8  -2-37.6588 29.2952   4
   5  -8  -2 18.7018 13.4980   7
  -5   8   2-30.9465 42.4391   8
  -5   9   3 721.130 147.471   5
   5  -9  -3 442.469 90.4570   4
  -5  10   4-154.841 74.1858   5
   5 -10  -4-18.4575 33.1651   4
  -5  11   5 1036.97 198.804   5
   5 -11  -5 781.787 141.072   4
  -5  -3  -8 4214.81 349.614   2
  -5  -3  -8 3841.67 360.052   7
   5   3   8 4280.37 371.544   6
  -5  -2  -7 2230.75 249.966   7
   5   2   7 2445.18 265.931   6
  -5  -2  -7 2499.65 254.865   2
  -5  -1  -6 5283.49 348.391   2
  -5  -1  -6 5395.86 352.733   7
   5   1   6 5166.58 357.940   6
  -5   0  -5 3838.16 278.844   2
  -5   0  -5 4334.50 282.806   7
   5   0   5 4523.93 310.187   6
  -5   1  -4 1263.12 138.476   7
   5  -1   4 1219.89 70.5951   3
   5  -1   4 1021.37 133.041   6
  -5   1  -4 1266.21 84.9453   5
  -5   1  -4 1170.38 145.126   2
  -5   1  -4 1211.29 76.1876   5
  -5   2  -3 35487.4 765.608   7
   5  -2   3 36340.7 823.901   6
  -5   2  -3 36314.4 640.879   5
   5  -2   3 37205.1 640.345   3
  -5   3  -2 7142.79 328.421   2
   5  -3   2 7523.75 258.909   7
   5  -3   2 7046.66 294.885   6
  -5   3  -2 6980.38 262.201   5
   5  -4   1 37268.5 844.909   4
  -5   4  -1 38704.6 885.064   8
  -5   4  -1 35665.4 643.715   7
  -5   4  -1 36362.3 801.289   2
   5  -4   1 36303.6 563.268   1
   5  -4   1 36557.7 627.979   7
   5  -4   1 37549.8 708.939   6
  -5   4  -1 36789.5 777.348   5
   5  -5   0 23593.0 631.529   4
  -5   5   0 20624.3 626.177   8
  -5   5   0 22506.2 590.352   2
   5  -5   0 24158.7 465.908   7
   5  -5   0 26094.9 485.635   6
  -5   5   0 25026.1 673.341   5
  -5   6   1 38775.3 945.682   8
   5  -6  -1 37408.2 657.857   7
   5  -7  -2 21513.5 611.648   4
  -5   7   2 21580.2 701.561   8
   5  -8  -3 6145.02 323.594   4
   5  -8  -3 7408.45 283.749   7
  -5   8   3 6560.20 427.652   5
   5  -9  -4 2626.34 230.580   4
   5  -9  -4 2922.71 194.257   7
  -5   9   4 2778.73 300.591   5
  -5  10   5 130.585 87.9277   5
   5 -10  -5 22.9286 36.5982   4
  -5  11   6 446.296 130.111   5
   5 -11  -6 429.832 107.228   4
  -5  -4  -8 3042.42 306.213   2
  -5  -4  -8 2967.08 322.893   7
   5   4   8 2729.09 304.884   6
  -5  -3  -7 171.913 75.2908   7
  -5  -3  -7 203.270 73.8422   2
   5   3   7 193.093 83.6613   6
  -5  -2  -6 7925.52 448.446   7
   5   2   6 7002.47 431.793   6
  -5  -1  -5 550.441 105.002   7
  -5  -1  -5 504.797 103.535   2
   5   1   5 640.855 114.277   6
  -5   0  -4 13825.5 506.682   7
  -5   0  -4 13750.2 525.255   2
   5   0   4 12212.4 499.899   6
  -5   1  -3 3253.00 222.219   7
  -5   1  -3 3130.63 233.961   2
   5  -1   3 3029.24 219.426   6
  -5   1  -3 3099.44 93.1964   5
  -5   1  -3 2882.29 86.3480   5
   5  -1   3 2872.37 121.042   3
  -5   2  -2 245.820 51.5617   7
  -5   2  -2 211.038 53.7531   2
   5  -2   2 288.767 60.1098   6
  -5   2  -2 275.491 38.2985   5
  -5   3  -1 18502.1 590.335   8
  -5   3  -1 21323.6 589.414   2
   5  -3   1 20600.4 470.023   7
   5  -3   1 20962.9 511.427   6
   5  -3   1 23459.8 460.214   1
  -5   3  -1 20407.9 488.639   5
   5  -4   0 6265.32 164.708   1
   5  -4   0 6522.52 305.354   4
  -5   4   0 6140.80 319.889   8
  -5   4   0 6626.75 301.028   2
   5  -4   0 6239.22 225.784   7
   5  -4   0 6892.88 232.405   6
  -5   4   0 6933.01 306.538   5
   5  -5  -1 26521.0 661.849   4
  -5   5   1 32877.1 817.955   8
   5  -5  -1 28451.7 568.901   7
  -5   5   1 30414.6 775.535   5
   5  -6  -2 1287.53 134.577   4
  -5   6   2 1233.73 157.360   8
   5  -6  -2 1199.86 107.377   7
  -5   6   2 1213.09 157.943   5
   5  -7  -3 7427.09 337.885   4
  -5   7   3 7736.59 414.924   8
  -5   7   3 7870.83 174.452   1
  -5   7   3 8171.37 450.900   5
   5  -8  -4 5523.22 316.486   4
   5  -8  -4 5879.87 279.442   7
  -5   8   4 6164.46 423.247   5
   5  -9  -5 3900.42 282.660   4
   5  -9  -5 4001.83 252.390   7
   5 -10  -6 3388.55 288.417   4
  -5  10   6 3258.08 353.056   5
   5 -11  -7 153.873 66.1376   4
  -5  -5  -8 372.795 108.522   2
  -5  -4  -7 1204.90 185.905   2
  -5  -4  -7 1116.17 192.891   7
   5   4   7 1174.44 193.773   6
  -5  -3  -6 1811.29 214.261   2
  -5  -3  -6 2082.01 238.047   7
   5   3   6 2071.17 239.349   6
  -5  -2  -5 1176.80 162.028   2
  -5  -2  -5 1068.65 159.633   7
   5   2   5 1217.61 165.822   6
  -5  -1  -4-0.91796 18.0567   2
   5   1   4 39.2007 14.4193   6
  -5   0  -3 518.799 92.3158   7
   5   0   3 483.248 35.9719   3
  -5   0  -3 436.259 88.2904   2
   5   0   3 513.111 91.7201   6
   5   0   3 470.741 33.1617   3
  -5   1  -2 943.317 117.730   2
  -5   1  -2 982.346 111.477   7
   5  -1   2 999.710 117.111   6
  -5   2  -1 5.43287 7.34368   5
   5  -2   1 16.2959 11.5045   1
   5  -2   1 8.02047 15.4089   6
  -5   2  -1 34.1604 31.1571   2
   5  -3   0 675.156 94.4268   4
  -5   3   0 600.067 100.414   8
   5  -3   0 719.149 69.8840   1
  -5   3   0 763.156 99.9814   2
   5  -3   0 823.277 85.6197   7
   5  -3   0 696.021 76.6436   6
  -5   3   0 719.828 83.0712   5
   5  -4  -1 9352.23 354.667   4
  -5   4   1 9706.70 406.298   8
   5  -4  -1 11526.1 335.770   7
  -5   4   1 10811.2 402.811   2
   5  -4  -1 10241.1 256.915   6
  -5   4   1 10898.4 399.275   5
   5  -4  -1 10632.4 244.043   1
  -5   5   2 429.609 78.1991   5
   5  -5  -2 419.009 78.0625   4
  -5   5   2 445.381 90.2878   8
   5  -5  -2 492.693 70.0408   7
   5  -6  -3 4173.70 237.628   4
  -5   6   3 4483.10 300.992   8
  -5   6   3 4606.29 148.575   1
  -5   6   3 4409.21 307.035   5
  -5   7   4 2872.79 156.818   1
   5  -7  -4 2848.16 205.621   4
  -5   7   4 2952.59 272.909   5
   5  -8  -5 1488.29 162.686   4
   5  -8  -5 1698.43 160.402   7
  -5   8   5 1682.29 223.272   5
  -5   9   6 396.622 114.304   5
   5  -9  -6 546.655 106.116   4
   5  -9  -6 488.129 92.3098   7
  -5  10   7 27.8405 44.1297   5
   5 -10  -7 6.50217 22.3084   4
  -5  -5  -7 532.248 142.203   7
  -5  -5  -7 386.878 106.400   2
   5   5   7 443.420 120.257   6
  -5  -4  -6 3173.07 308.923   7
   5   4   6 3354.63 317.145   6
  -5  -4  -6 3606.94 308.669   2
  -5  -3  -5 374.100 93.9561   7
  -5  -3  -5 282.298 73.3409   2
   5   3   5 285.125 74.2838   6
  -5  -2  -4 4236.45 302.148   7
  -5  -2  -4 5059.93 326.142   2
   5   2   4 4581.66 316.342   6
  -5  -1  -3 6555.72 354.335   2
   5   1   3 6126.63 337.763   6
  -5   0  -2 1339.09 147.681   2
  -5   0  -2 1580.94 153.645   7
   5   0   2 1354.21 83.3060   3
   5   0   2 1253.94 138.143   6
  -5   1  -1 7563.68 344.579   2
  -5   1  -1 6607.31 293.893   7
   5  -1   1 7293.88 308.890   6
  -5   2   0 1677.94 163.736   8
  -5   2   0 1175.99 128.327   2
   5  -2   0 1279.00 105.360   1
   5  -2   0 1398.37 114.943   6
  -5   2   0 1448.03 98.4289   5
   5  -3  -1 15153.7 365.487   1
   5  -3  -1 15104.6 451.267   4
  -5   3   1 13657.9 496.358   8
  -5   3   1 15744.9 489.679   2
   5  -3  -1 14073.2 350.701   6
   5  -3  -1 15660.1 428.756   7
   5  -3  -1 14659.3 451.182   5
  -5   3   1 14811.8 428.563   5
  -5   4   2-11.0673 27.8793   5
  -5   4   2 12.8000 11.5865   8
   5  -4  -2 8.11936 9.87354   1
   5  -4  -2 24.7570 20.3369   4
   5  -4  -2-22.1276 13.1626   7
   5  -4  -2 0.73450 4.38652   6
  -5   4   2 19.6488 11.7743   1
   5  -5  -3 9125.93 342.563   4
  -5   5   3 10289.8 454.337   8
  -5   5   3 9750.17 252.903   1
  -5   5   3 9344.59 422.895   5
  -5   6   4 4.13360 14.7250   5
   5  -6  -4 17.8416 19.2854   4
  -5   6   4 31.3923 12.0095   1
  -5   7   5 3497.90 209.132   1
   5  -7  -5 3222.84 227.319   4
  -5   7   5 3350.09 299.790   5
  -5   8   6 165.069 61.2537   5
   5  -8  -6 110.026 45.6219   4
   5  -8  -6 267.172 72.9049   7
  -5   9   7 304.577 99.0566   5
   5  -9  -7 371.411 91.7121   4
   5  -9  -7 418.429 94.6925   7
  -5  -6  -7 2958.43 290.037   2
  -5  -5  -6 3147.81 322.201   7
  -5  -5  -6 3792.83 316.607   2
   5   5   6 3688.76 342.802   6
  -5  -4  -5 1317.69 188.845   7
   5   4   5 1340.14 191.040   6
  -5  -4  -5 1187.31 167.770   2
  -5  -3  -4 6184.81 386.401   7
   5   3   4 5016.56 344.681   6
  -5  -3  -4 5628.71 349.153   2
  -5  -2  -3 3344.50 263.879   7
  -5  -2  -3 3721.67 263.980   2
   5   2   3 3289.80 257.580   6
  -5  -1  -2 18666.0 603.841   7
   5   1   2 17545.7 300.200   3
  -5  -1  -2 17814.5 577.050   2
  -5   0  -1 694.965 101.745   2
  -5   0  -1 607.210 93.3228   7
   5   0   1 590.909 61.6670   3
   5   0   1 600.664 93.3240   6
  -5   1   0 3667.12 217.633   7
   5  -1   0 3448.75 202.342   6
   5  -2  -1 2507.98 172.092   4
  -5   2   1 2189.57 189.568   8
   5  -2  -1 2642.75 159.968   1
  -5   2   1 2506.06 166.610   7
  -5   2   1 2367.55 183.623   2
   5  -2  -1 2277.19 142.162   6
   5  -2  -1 2354.82 149.992   5
  -5   2   1 2291.12 135.575   5
   5  -3  -2 5948.03 235.286   1
   5  -3  -2 6690.56 269.287   4
  -5   3   2 5242.68 295.644   8
  -5   3   2 6340.34 214.525   1
   5  -3  -2 6025.80 191.484   6
  -5   3   2 5897.44 266.899   5
   5  -4  -3 13606.6 405.068   4
  -5   4   3 13686.2 522.821   8
  -5   4   3 14220.4 343.110   1
  -5   4   3 13449.7 475.994   5
  -5   5   4 167.159 63.4434   5
   5  -5  -4 202.502 47.8445   4
  -5   5   4 166.559 35.6189   1
  -5   5   4 111.063 44.0812   8
  -5   6   5 6531.72 292.534   1
   5  -6  -5 5854.18 286.100   4
  -5   6   5 6260.48 394.157   5
  -5   7   6 530.868 119.697   5
   5  -7  -6 454.196 85.1217   4
  -5   7   6 463.860 89.4456   1
  -5   8   7 120.463 54.1425   5
   5  -8  -7 103.346 45.6947   4
   5  -8  -7 141.690 51.1174   7
   5  -9  -8 1210.33 168.978   7
  -5   9   8 1256.70 223.969   5
  -5  -6  -6 1695.39 215.345   2
  -5  -6  -6 1428.67 227.317   7
   5   6   6 1963.94 255.127   6
  -5  -5  -5 211.779 73.0294   7
  -5  -5  -5 205.791 71.4957   2
   5   5   5 166.029 72.8049   6
  -5  -4  -4 2728.51 241.486   2
  -5  -4  -4 2183.12 240.641   7
   5   4   4 2641.55 257.146   6
  -5  -3  -3 1694.54 179.446   2
  -5  -3  -3 1645.92 195.156   7
   5   3   3 1520.74 181.610   6
  -5  -2  -2 12091.3 480.623   2
  -5  -2  -2 11931.3 500.523   7
   5   2   2 10845.3 470.560   6
  -5  -1  -1 3744.96 245.633   2
   5   1   1 3302.19 137.360   3
   5   1   1 3082.15 224.422   6
  -5  -1  -1 3344.04 232.194   7
  -5   0   0 70.1189 31.5997   7
   5   0   0 55.7070 21.7425   3
   5   0   0-9.57160 24.3501   6
  -5   0   0 40.3051 26.2773   2
  -5   1   1 995.186 125.802   8
  -5   1   1 1156.73 118.645   7
  -5   1   1 1039.24 123.341   2
   5  -1  -1 1138.84 109.633   1
   5  -1  -1 1047.17 103.352   3
   5  -1  -1 1159.08 112.369   6
   5  -1  -1 995.384 79.5219   5
  -5   2   2 195.078 44.0635   5
   5  -2  -2 137.389 35.9417   4
  -5   2   2 184.211 55.5118   8
   5  -2  -2 163.995 37.5619   6
  -5   2   2 210.529 42.4738   1
   5  -2  -2 142.107 37.3770   5
   5  -2  -2 165.090 39.8003   1
   5  -3  -3 13765.8 389.141   4
  -5   3   3 12336.3 489.885   8
   5  -3  -3 13747.2 288.946   6
  -5   3   3 13199.1 352.975   1
  -5   3   3 14771.6 465.954   5
   5  -3  -3 13839.2 407.225   1
   5  -4  -4 751.986 86.6319   4
  -5   4   4 747.642 115.806   8
  -5   4   4 778.121 86.7734   1
  -5   4   4 773.067 117.502   5
  -5   5   5 528.315 107.528   5
  -5   5   5 496.126 76.5979   1
   5  -5  -5 474.036 72.5660   4
  -5   6   6 348.467 98.2790   5
   5  -6  -6 488.203 85.0105   4
  -5   6   6 452.017 82.8325   1
  -5   7   7 1588.82 177.805   1
   5  -7  -7 1671.34 170.291   4
  -5   7   7 1824.38 239.827   5
   5  -8  -8 1218.47 165.800   7
  -5   8   8 1473.91 229.627   5
   5  -9  -9 219.788 83.8152   7
   5  -9  -9 106.741 59.5598   3
  -5  -6  -5 1330.94 183.400   2
  -5  -6  -5 1038.08 188.857   7
   5   6   5 1201.37 192.381   6
  -5  -5  -4 3009.13 266.464   2
  -5  -5  -4 2970.11 299.849   7
   5   5   4 3294.44 301.658   6
  -5  -4  -3 3520.53 270.289   2
  -5  -4  -3 3449.30 297.004   7
   5   4   3 3460.01 292.205   6
  -5  -3  -2 919.517 130.576   2
  -5  -3  -2 1300.25 172.736   7
   5   3   2 1036.85 150.299   6
   5   2   1 7945.98 386.175   6
   5   2   1 7245.72 195.321   3
  -5  -1   0 2786.17 208.562   7
  -5  -1   0 3134.07 221.693   2
   5   1   0 3218.90 156.351   3
   5   1   0 3163.68 221.478   6
  -5   0   1 6997.76 317.002   7
   5   0  -1 7600.40 278.977   3
   5   0  -1 7642.94 314.943   6
   5  -1  -2 4922.09 248.631   1
  -5   1   2 5595.60 303.435   8
  -5   1   2 4432.90 243.089   7
  -5   1   2 4919.70 225.269   1
  -5   1   2 5173.48 292.245   2
   5  -1  -2 4488.90 233.087   3
   5  -1  -2 4256.35 206.202   6
   5  -1  -2 4560.06 201.557   5
   5  -2  -3 1596.29 133.012   1
   5  -2  -3 1505.70 113.532   4
  -5   2   3 1660.10 162.876   8
   5  -2  -3 1530.22 103.315   6
  -5   2   3 1661.13 136.873   5
  -5   2   3 1818.18 130.501   1
   5  -3  -4 2771.14 154.846   4
  -5   3   4 2600.87 220.442   8
  -5   3   4 2528.11 161.293   1
   5  -3  -4 2665.41 107.075   6
  -5   3   4 2705.65 203.008   5
   5  -3  -4 2520.55 175.096   1
   5  -4  -5 1530.52 119.504   4
  -5   4   5 1678.74 181.249   5
  -5   4   5 1901.10 158.097   1
  -5   5   6 2239.77 189.758   1
   5  -5  -6 1910.20 150.599   4
  -5   5   6 1887.39 211.130   5
  -5   6   7 124.053 51.5183   5
   5  -6  -7 197.461 56.2323   4
  -5   6   7 309.085 81.3323   1
  -5   7   8-30.1140 48.2655   5
   5  -7  -8-10.3316 18.4577   4
   5  -7  -8 2.13255 24.5084   3
  -5   8   9 7.39904 39.9340   5
   5  -8  -9 79.4426 50.3922   7
   5  -8  -9-11.3256 31.2704   3
  -5  -7  -5 60.3003 68.8137   7
  -5  -7  -5 98.8088 47.6006   2
  -5  -6  -4 1852.79 206.923   2
   5   6   4 1550.75 213.530   6
  -5  -5  -3 25.8863 34.5934   7
   5   5   3-24.3034 34.2054   6
  -5  -5  -3-27.5106 17.0034   2
  -5  -4  -2 6573.10 357.607   2
   5   4   2 6227.66 384.187   6
  -5  -3  -1 25980.1 719.219   2
   5   3   1 25525.6 767.483   6
   5   3   1 27107.1 434.029   3
  -5  -2   0-5.74280 28.7106   7
   5   2   0-11.7638 29.8992   6
  -5  -2   0 38.6690 25.8513   2
   5   2   0 15.8835 12.9985   3
  -5  -1   1 1663.98 160.122   7
   5   1  -1 1415.28 111.357   3
   5   1  -1 1770.99 156.022   6
  -5  -1   1 1566.93 155.096   2
  -5   0   2 1330.62 144.990   8
  -5   0   2 1929.22 162.904   7
  -5   0   2 1713.31 172.034   2
  -5   0   2 1922.33 149.924   1
   5   0  -2 1760.68 138.532   3
   5   0  -2 1532.01 131.119   6
   5   0  -2 1405.25 95.9505   5
   5  -1  -3 1575.99 113.050   4
  -5   1   3 2166.50 186.477   8
  -5   1   3 1771.37 152.888   7
   5  -1  -3 1763.77 149.062   3
   5  -1  -3 1601.63 121.979   6
   5  -1  -3 1720.32 136.137   5
  -5   1   3 1832.19 140.424   1
   5  -2  -4 6159.67 220.677   4
  -5   2   4 7003.74 356.923   8
   5  -2  -4 5870.91 301.086   3
   5  -2  -4 5886.58 214.171   6
  -5   2   4 6457.99 271.984   1
  -5   2   4 6124.40 290.986   5
  -5   3   5 209.963 57.4561   5
  -5   3   5 162.415 39.5198   8
   5  -3  -5 160.325 33.5685   4
  -5   3   5 187.701 41.8982   1
   5  -3  -5 248.879 31.2792   6
   5  -3  -5 111.044 17.0310   3
   5  -3  -5 252.314 30.5131   6
  -5   4   6-15.7980 28.1066   5
  -5   4   6 20.2075 17.3639   1
   5  -4  -6-6.62437 13.2595   4
   5  -4  -6-19.1737 40.9719   3
  -5   5   7 334.948 90.5169   5
   5  -5  -7 445.620 73.0826   4
   5  -5  -7 411.060 96.4860   3
  -5   5   7 434.588 91.1327   1
  -5   6   8 313.704 91.2804   5
   5  -6  -8 381.280 75.2290   4
   5  -6  -8 407.895 100.144   3
  -5   6   8 475.809 109.490   1
  -5   7   9 81.6613 50.8126   5
   5  -7  -9-86.6143 51.7378   3
   5  -8 -10 24.0043 26.8747   7
   5  -8 -10-4.73255 26.6744   3
  -5  -7  -4 264.958 106.882   7
   5   7   4 256.959 85.4543   6
  -5  -7  -4 375.622 96.4889   2
  -5  -6  -3 33.2852 39.1607   7
   5   6   3 38.6777 29.3818   6
  -5  -6  -3 8.05132 22.4234   2
  -5  -5  -2 92.7608 62.2618   7
   5   5   2 32.7622 24.8915   6
  -5  -5  -2 32.9202 26.1037   2
  -5  -4  -1 2239.57 221.433   7
  -5  -4  -1 1784.69 176.317   2
   5   4   1 2122.68 217.522   6
   5   4   1 1868.31 89.9950   3
   5   3   0 15103.6 548.591   6
   5   3   0 14941.7 345.128   3
  -5  -3   0 14468.0 548.443   7
  -5  -2   1 3187.08 236.698   7
  -5  -2   1 3314.34 228.962   2
   5   2  -1 2980.02 159.274   3
   5   2  -1 2963.77 213.015   6
  -5  -1   2 9307.14 366.493   1
   5   1  -2 9618.76 328.893   3
   5   1  -2 9885.05 376.945   6
   5   1  -2 9751.93 242.355   5
  -5   0   3 824.984 99.1872   1
  -5   0   3 646.453 99.5550   8
  -5   0   3 687.976 101.467   7
   5   0  -3 880.907 100.242   3
   5   0  -3 831.618 88.3483   5
   5  -1  -4 28471.2 699.818   3
  -5   1   4 28544.7 656.791   1
   5  -2  -5 796.835 69.1244   4
  -5   2   5 1009.09 130.578   8
  -5   2   5 804.660 99.9276   1
   5  -2  -5 699.783 94.7872   3
  -5   2   5 820.315 111.618   5
   5  -3  -6 3811.15 174.984   4
   5  -3  -6 3662.26 263.364   3
   5  -3  -6 3915.26 138.872   6
  -5   3   6 3901.37 277.632   5
  -5   3   6 4301.24 264.449   1
  -5   4   7 711.801 129.280   5
  -5   4   7 837.022 127.960   1
   5  -4  -7 766.540 88.9357   4
   5  -4  -7 721.562 121.569   3
  -5   5   8 198.014 76.8979   5
   5  -5  -8 115.639 58.4563   3
  -5   5   8 199.003 70.7767   1
  -5   6   9 794.168 145.067   1
  -5   6   9 682.876 146.939   5
   5  -6  -9 618.885 126.390   3
  -5   7  10 52.8571 50.0924   5
   5  -7 -10 3.89407 47.1576   3
  -5  -8  -4 1939.93 277.798   7
   5   8   4 2089.45 271.050   6
  -5  -7  -3 887.896 141.919   2
  -5  -7  -3 824.272 165.409   7
   5   7   3 717.782 153.926   6
  -5  -6  -2 4305.96 359.359   7
  -5  -6  -2 5171.45 328.826   2
   5   6   2 5225.96 383.548   6
  -5  -5  -1 699.044 115.644   2
  -5  -5  -1 628.690 121.816   7
   5   5   1 772.545 137.192   6
  -5  -4   0 9953.60 468.458   7
  -5  -4   0 9041.07 406.684   2
   5   4   0 8631.12 425.989   6
   5   4   0 9057.56 256.647   3
  -5  -3   1 4257.22 285.519   7
  -5  -3   1 4299.98 267.706   2
   5   3  -1 3542.67 250.022   6
   5   3  -1 3795.10 174.655   3
  -5  -2   2 699.748 113.150   2
   5   2  -2 802.968 88.5405   3
   5   2  -2 798.802 110.003   6
  -5  -2   2 757.811 105.462   1
   5   2  -2 712.757 53.8212   5
  -5  -2   2 574.738 98.8577   7
  -5  -1   3 6161.54 293.237   1
  -5  -1   3 7478.53 351.165   8
  -5  -1   3 6599.51 332.680   7
   5   1  -3 7137.55 293.008   3
   5   1  -3 6976.13 244.825   5
   5   0  -4 740.222 63.3034   4
  -5   0   4 931.915 122.384   8
   5   0  -4 940.454 109.087   3
  -5   0   4 986.573 110.936   1
   5   0  -4 992.569 106.551   5
   5  -1  -5 34986.7 542.773   4
  -5   1   5 35893.4 795.050   1
   5  -1  -5 34335.3 807.937   3
   5  -2  -6 8677.30 244.267   4
  -5   2   6 11676.3 484.752   8
  -5   2   6 10357.1 423.540   1
   5  -2  -6 8224.18 392.656   3
  -5   3   7 6.95084 18.8375   1
  -5   3   7 9.18447 28.5634   8
   5  -3  -7 28.7950 16.7329   4
   5  -3  -7 17.3468 30.8593   3
  -5   4   8 841.187 136.264   1
   5  -4  -8 655.549 116.051   3
  -5   4   8 823.730 146.599   5
   5  -5  -9-17.8036 19.9284   3
  -5   5   9-16.9743 14.9915   1
  -5   6  10 1796.49 237.151   1
   5  -6 -10 1928.72 233.882   3
   5  -7 -11 367.047 102.567   7
   5  -7 -11 473.513 125.689   3
  -5  -8  -3 37.6994 36.4096   7
   5   8   3-36.0531 46.9195   6
  -5  -7  -2 1613.19 225.494   7
  -5  -7  -2 1585.80 182.568   2
   5   7   2 1517.73 214.324   6
  -5  -6  -1 206.333 70.5805   7
   5   6   1 399.013 105.455   6
  -5  -6  -1 315.078 76.5134   2
  -5  -5   0 865.937 123.344   2
  -5  -5   0 473.486 106.564   7
   5   5   0 733.168 127.485   6
   5   5   0 730.542 69.9363   3
  -5  -4   1 3592.22 271.371   7
  -5  -4   1 4088.36 272.610   2
   5   4  -1 3041.16 243.065   6
   5   4  -1 3666.60 174.883   3
   5   4  -1 3443.63 97.2340   5
   5   4  -1 3224.39 91.0424   5
   5   3  -2 6157.02 333.465   6
   5   3  -2 6030.42 244.569   3
   5   3  -2 6481.32 193.593   5
   5   3  -2 5822.47 169.858   5
  -5  -2   3 794.043 110.660   1
  -5  -2   3 740.781 111.780   7
   5   2  -3 648.357 83.9297   3
   5   2  -3 618.315 65.9976   5
  -5  -1   4 7451.61 358.784   8
   5   1  -4 8006.69 329.301   3
   5   1  -4 7992.62 297.221   5
  -5  -1   4 7815.99 347.729   1
  -5   0   5 114.885 40.7419   1
  -5   0   5 66.1414 32.4874   8
   5   0  -5 83.7273 10.5981   4
   5   0  -5 99.9162 25.4191   3
   5  -1  -6 14171.4 270.792   4
   5  -1  -6 14437.4 514.684   3
   5  -2  -7 3029.17 132.831   4
  -5   2   7 3821.86 278.044   8
  -5   2   7 3838.45 272.323   1
   5  -2  -7 3155.24 245.036   3
  -5   3   8 386.618 92.2808   1
   5  -3  -8 247.988 65.7745   3
  -5   4   9 1006.61 159.428   1
   5  -4  -9 1199.67 168.983   3
   5  -5 -10 216.138 74.5141   3
  -5   5  10 256.130 85.1714   1
   5  -6 -11 244.582 71.8646   3
  -5   6  11 452.824 125.456   1
  -5  -8  -2-17.3642 29.3473   7
   5   8   2-4.31477 45.0163   6
  -5  -8  -2-37.2923 29.0729   2
  -5  -7  -1 4300.19 297.713   2
   5   7   1 4378.42 359.937   6
  -5  -6   0 381.696 96.5927   7
   5   6   0 396.455 103.428   6
  -5  -6   0 470.120 95.2144   2
  -5  -5   1 2172.61 222.460   7
  -5  -5   1 2692.67 233.086   2
   5   5  -1 2420.73 230.493   6
   5   5  -1 2751.22 153.815   3
   5   5  -1 2737.52 129.282   5
  -5  -4   2 345.048 82.6414   7
   5   4  -2 460.931 64.5666   3
   5   4  -2 505.703 57.4077   5
   5   3  -3 6916.94 243.981   4
  -5  -3   3 7067.26 353.070   1
   5   3  -3 6908.00 282.048   3
   5   3  -3 6744.60 232.638   5
  -5  -2   4 1114.85 132.974   1
  -5  -2   4 806.935 112.515   8
   5   2  -4 922.406 69.2949   4
   5   2  -4 889.739 104.392   3
  -5  -2   4 967.868 129.530   7
   5   2  -4 1014.74 100.198   5
   5   1  -5 4357.03 114.057   4
  -5  -1   5 4658.62 276.682   8
   5   1  -5 3936.68 239.228   3
  -5  -1   5 4518.78 268.151   1
  -5   0   6 8602.33 399.533   8
   5   0  -6 10901.1 429.843   3
  -5   1   7 5113.56 316.206   8
  -5   1   7 4933.11 314.015   1
  -5   2   8 482.717 103.334   1
  -5   2   8 571.447 116.198   8
   5  -2  -8 465.265 96.8537   3
  -5   3   9 383.489 106.895   1
   5  -3  -9 344.810 86.7488   3
   5  -4 -10 462.070 105.063   3
  -5   4  10 483.977 125.487   1
   5  -5 -11 75.3595 43.8633   3
  -5   5  11 238.076 99.6134   1
   5  -6 -12 42.7189 53.1821   3
  -5  -9  -2 1866.47 260.705   7
   5   9   2 2070.70 270.943   6
  -5  -8  -1 13.0809 38.6770   7
   5   8   1 88.2529 51.0051   6
  -5  -8  -1-41.0174 45.3630   2
  -5  -7   0 69.9623 45.9181   7
   5   7   0 89.0863 50.1131   6
  -5  -7   0 105.488 49.0298   2
  -5  -6   1 1970.50 221.759   7
   5   6  -1 2522.48 245.086   6
   5   6  -1 2277.66 146.204   3
  -5  -5   2 643.289 114.725   7
   5   5  -2 536.278 112.307   6
   5   5  -2 717.555 85.3754   3
   5   5  -2 697.334 77.9185   5
  -5  -4   3 18102.5 621.809   1
   5   4  -3 19342.8 500.112   3
  -5  -3   4 879.331 115.873   1
   5   3  -4 710.492 64.4182   4
  -5  -3   4 887.007 129.071   7
   5   3  -4 805.977 100.889   3
   5   3  -4 767.306 87.4610   5
   5   2  -5 6180.81 146.278   4
   5   2  -5 6312.73 138.096   4
   5   2  -5 6592.53 308.051   3
  -5  -2   5 5418.67 301.944   8
  -5  -2   5 6355.55 330.699   1
  -5  -1   6 443.251 90.3066   8
   5   1  -6 458.276 85.5954   3
  -5  -1   6 443.510 86.5241   1
  -5   0   7 2320.74 210.159   1
   5   0  -7 2049.71 190.579   3
  -5   1   8 340.427 90.3365   8
  -5   1   8 391.691 93.1287   1
   5  -1  -8 446.327 93.2544   3
  -5   2   9 577.132 118.765   1
  -5   2   9 526.422 115.060   8
   5  -2  -9 540.836 107.516   3
   5  -3 -10 204.451 73.0046   3
  -5   3  10 228.151 81.7892   1
   5  -4 -11 368.397 106.847   3
  -5   4  11 183.188 75.3016   1
   5  -5 -12 45.0887 51.7053   3
  -5   5  12 138.657 77.4891   1
  -5  -9  -1 714.706 161.074   7
   5   9   1 635.537 152.120   6
  -5  -8   0 6411.84 452.898   7
   5   8   0 7366.28 475.278   6
   5   7  -1 117.559 34.7917   3
  -5  -7   1 72.3035 33.7510   7
   5   7  -1 101.163 52.4306   6
   5   6  -2 21610.1 527.302   3
   5   6  -2 21494.7 522.748   5
  -5  -5   3 11971.5 524.678   1
   5   5  -3 12881.9 403.367   3
   5   5  -3 12747.6 402.776   5
   5   4  -4 14611.0 353.079   4
   5   4  -4 15533.5 460.799   3
   5   3  -5 25933.6 408.842   4
  -5  -3   5 25179.4 741.637   1
   5   2  -6 9096.77 387.536   3
  -5  -2   6 10636.5 459.414   1
  -5  -1   7 40688.1 960.332   1
   5   1  -7 38892.5 892.357   3
  -5   0   8-0.52350 27.2314   8
  -5   0   8 56.2339 59.1154   1
   5   0  -8 67.0597 57.8347   3
  -5   1   9 7310.60 436.756   1
  -5   1   9 6979.19 398.106   8
   5  -1  -9 7138.64 392.890   3
  -5   2  10 2549.77 272.253   1
  -5   2  10 2195.64 237.190   8
   5  -2 -10 2345.92 235.356   3
  -5   3  11 1856.25 249.911   1
   5  -3 -11 2117.43 234.888   3
  -5   4  12 5053.73 437.696   1
   5  -4 -12 5611.29 406.501   3
  -5  -9   0 2252.42 276.988   7
   5   9   0 2054.72 260.524   6
  -5  -8   1 1851.27 234.089   7
   5   8  -1 1666.78 218.887   6
   5   7  -2 8348.43 481.063   6
   5   7  -2 8309.75 322.201   3
   5   6  -3 392.396 71.1695   3
  -5  -6   3 398.924 92.3244   7
   5   6  -3 287.882 64.8367   5
  -5  -5   4 15271.7 599.853   7
  -5  -5   4 15478.3 596.059   1
   5   5  -4 16365.7 487.078   3
  -5  -4   5 2392.00 219.653   1
  -5  -4   5 2686.79 239.321   7
   5   4  -5 2541.10 188.701   3
   5   3  -6 41073.3 894.935   3
  -5  -3   6 44931.0 1013.92   1
  -5  -2   7 13358.5 495.071   8
   5   2  -7 13044.6 490.980   3
  -5  -1   8 8060.16 387.923   8
   5   1  -8 8433.83 407.419   3
  -5   0   9 8988.92 443.923   8
  -5   0   9 10589.0 536.616   1
   5   0  -9 9942.83 468.577   3
  -5   1  10 900.827 158.244   1
  -5   1  10 775.951 135.602   8
   5  -1 -10 871.777 144.948   3
  -5   2  11 8408.76 532.750   1
   5  -2 -11 8173.79 462.391   3
   5  -3 -12 131.041 71.8825   3
  -5   3  12 134.868 57.0705   1
   5  -4 -13 91.8649 49.4207   3
  -5   4  13 208.117 93.1628   1
  -5 -10   0 246.486 96.4123   7
   5  10   0 198.511 89.4504   6
  -5  -9   1 85.7039 28.6029   7
   5   9  -1 126.257 71.0467   6
   5   8  -2 238.663 60.4229   3
  -5  -8   2 255.361 82.7787   7
   5   8  -2 125.189 62.3261   6
  -5  -7   3-0.17134 26.4903   7
   5   7  -3 44.1558 23.1489   5
  -5  -6   4 1044.10 158.884   7
  -5  -6   4 1220.24 167.168   1
   5   6  -4 1195.31 129.515   3
   5   6  -4 1182.37 139.535   5
  -5  -5   5 853.598 133.495   1
  -5  -5   5 799.229 138.135   7
   5   5  -5 897.054 113.317   3
  -5  -4   6 285.791 75.0429   7
  -5  -4   6 401.302 84.2097   1
   5   4  -6 309.725 68.2574   3
  -5  -3   7 158.811 55.3987   1
  -5  -3   7 72.7980 37.9276   8
   5   3  -7 98.9048 42.0341   3
  -5  -2   8 1686.13 171.561   8
  -5  -2   8 2296.21 229.172   1
   5   2  -8 2104.03 198.198   3
  -5  -1   9 170.598 52.2340   8
  -5  -1   9 239.406 82.1303   1
   5   1  -9 167.446 60.8306   3
  -5   0  10 3412.20 279.905   8
  -5   0  10 3371.73 317.593   1
   5   0 -10 3155.40 267.645   3
  -5   1  11 662.709 147.400   1
  -5   1  11 601.922 122.993   8
   5  -1 -11 591.882 126.081   3
  -5   2  12 29.9814 41.0451   1
  -5   2  12 107.760 71.7146   8
   5  -2 -12 39.3904 33.0027   3
   5  -3 -13 431.640 105.267   3
  -5   3  13 555.560 150.368   1
  -5 -10   1 761.272 166.707   7
   5  10  -1 1094.37 193.860   6
  -5  -9   2-11.0045 37.8443   7
   5   9  -2-47.0255 40.1242   6
  -5  -8   3 783.394 147.287   7
   5   8  -3 1138.53 127.539   3
  -5  -7   4 523.556 114.959   7
  -5  -7   4 544.310 121.526   1
   5   7  -4 653.736 94.8920   3
   5   7  -4 746.808 114.256   5
  -5  -6   5 1496.64 190.173   7
  -5  -6   5 1593.93 193.854   1
   5   6  -5 1281.49 138.856   3
  -5  -5   6 873.483 142.229   7
   5   5  -6 638.055 99.3355   3
  -5  -5   6 672.059 119.851   1
  -5  -4   7 63.2971 44.3898   1
   5   4  -7 22.3338 22.1656   3
  -5  -3   8 107.300 45.1843   8
   5   3  -8 117.321 50.4658   3
  -5  -3   8 167.770 66.6772   1
  -5  -2   9 266.008 73.1138   8
  -5  -2   9 141.699 59.3130   1
   5   2  -9 208.821 62.6723   3
  -5  -1  10 10.9451 18.7841   8
  -5  -1  10-35.8876 34.8051   1
  -5   0  11 682.296 152.489   1
  -5   0  11 546.211 115.153   8
   5   0 -11 560.620 115.801   3
  -5   1  12 17.4703 57.5121   1
  -5   1  12 28.1563 31.8523   8
   5  -1 -12 33.8946 45.6580   3
  -5   2  13 300.176 125.669   1
  -5   2  13 233.762 85.8790   8
   5  -2 -13 234.426 82.8060   3
  -5 -10   2 178.848 66.1674   7
   5  10  -2 75.9032 27.9004   6
  -5  -9   3 816.860 158.135   7
   5   9  -3 1025.63 128.796   3
  -5  -8   4 4940.28 374.175   7
   5   8  -4 4741.38 276.424   3
   5   7  -5 134.260 48.5924   3
  -5  -7   5 264.346 82.0959   7
  -5  -7   5 283.724 84.4681   1
   5   7  -5 201.551 65.3160   5
  -5  -6   6 5823.96 369.479   1
  -5  -6   6 4751.62 350.786   7
   5   6  -6 5191.78 298.457   3
   5   5  -7 725.685 109.874   3
  -5  -5   7 946.414 148.832   1
   5   4  -8 6333.52 343.814   3
  -5  -4   8 7280.68 427.943   1
  -5  -3   9 450.908 87.6140   8
   5   3  -9 352.581 82.1981   3
  -5  -3   9 317.918 89.2576   1
  -5  -2  10 134.739 49.0359   8
  -5  -2  10 138.707 52.4558   1
   5   2 -10 207.720 70.6566   3
  -5  -1  11 1529.80 190.996   8
  -5  -1  11 1429.73 219.804   1
   5   1 -11 1275.14 175.925   3
  -5   0  12 343.134 116.798   1
  -5   0  12 189.910 75.9637   8
   5   0 -12 234.855 77.5349   3
  -5   1  13 585.529 161.754   1
  -5   1  13 521.644 129.227   8
   5  -1 -13 598.036 135.246   3
  -5   2  14 95.6474 57.7308   8
  -5 -11   2-62.6620 50.7021   7
  -5 -10   3 1816.18 248.243   7
   5  10  -3 1923.78 261.030   6
   5   9  -4 304.567 71.4283   3
  -5  -9   4 270.083 87.8868   7
   5   8  -5 44.6744 35.3959   3
  -5  -8   5 60.3927 53.4986   1
  -5  -8   5-8.93706 21.7575   7
   5   8  -5-29.3107 37.0156   5
  -5  -7   6 88.1268 52.2141   7
  -5  -7   6-37.9237 52.2452   1
   5   7  -6 8.09884 24.2142   3
  -5  -6   7 50.5538 30.3383   7
  -5  -6   7 40.2427 37.9494   1
   5   6  -7 80.0833 46.8877   3
   5   5  -8 4844.37 301.202   3
  -5  -5   8 4882.28 353.346   1
  -5  -4   9 212.585 73.9390   1
  -5  -4   9 142.043 46.9919   8
   5   4  -9 197.823 64.0019   3
  -5  -3  10 1527.53 165.577   8
  -5  -3  10 1473.20 207.375   1
   5   3 -10 1616.47 187.452   3
  -5  -2  11-56.4912 41.6372   8
  -5  -2  11-77.6958 76.4285   1
   5   2 -11 47.0196 25.2601   3
  -5  -1  12 36.8985 17.3402   8
  -5  -1  12-3.37808 37.9728   1
   5   1 -12 25.7256 34.2386   3
  -5   0  13 2751.63 334.582   1
  -5   0  13 2234.50 250.422   8
   5   0 -13 2601.90 269.911   3
  -5   1  14-88.3739 52.9583   8
  -5 -11   3 295.854 109.637   7
   5  11  -3 279.547 102.039   6
  -5 -10   4 1543.01 226.280   7
   5  10  -4 1785.05 186.833   3
  -5  -9   5 3102.72 311.543   7
   5   9  -5 3484.21 253.553   3
   5   8  -6 342.329 76.1298   3
  -5  -8   6 306.917 90.9906   7
  -5  -8   6 280.327 90.1326   1
   5   8  -6 356.946 95.5272   5
  -5  -7   7 546.438 127.866   7
  -5  -7   7 577.281 122.156   1
   5   7  -7 519.074 97.7183   3
  -5  -6   8-24.5557 43.8339   1
   5   6  -8-13.3742 21.5726   3
  -5  -5   9 57.8174 36.6164   1
   5   5  -9 86.3722 41.9572   3
  -5  -4  10 58.8732 39.7456   8
   5   4 -10-3.50153 23.5456   3
  -5  -4  10-57.3202 49.6536   1
  -5  -3  11 37.2554 29.6800   8
  -5  -3  11-32.9080 33.5922   1
   5   3 -11 63.4292 45.3233   3
  -5  -2  12 231.600 59.7096   8
  -5  -2  12 341.788 110.308   1
   5   2 -12 379.663 101.648   3
  -5  -1  13 223.329 105.888   1
   5   1 -13 25.7112 20.4527   3
   5   0 -14 115.846 65.1181   3
  -5 -11   4 128.148 84.1883   7
   5  10  -5 1.17307 14.3701   3
  -5 -10   5 10.4531 39.1584   7
  -5  -9   6 4106.38 366.985   7
  -5  -9   6 4468.95 377.614   1
   5   9  -6 4515.48 300.664   3
   5   8  -7 358.486 85.3931   3
  -5  -8   7 288.194 90.7119   7
  -5  -8   7 426.139 113.290   1
  -5  -7   8 1056.04 176.279   1
   5   7  -8 1074.32 148.885   3
  -5  -6   9 401.962 105.689   1
   5   6  -9 290.757 79.6202   3
  -5  -5  10 320.159 97.7066   1
   5   5 -10 416.758 92.2492   3
  -5  -4  11 4.64658 24.1716   1
   5   4 -11-24.7009 25.6406   3
  -5  -3  12 0.68527 19.3619   1
   5   3 -12 15.0525 23.3963   3
  -5  -2  13-76.0943 64.2969   1
   5   2 -13-74.3805 52.6308   3
   5   1 -14 383.178 107.076   3
   5  11  -5 185.472 58.3348   3
  -5 -11   5 154.303 65.1551   7
   5  10  -6 697.035 119.759   3
  -5 -10   6 711.777 160.501   7
   5   9  -7 435.610 99.3480   3
  -5  -9   7 416.081 119.961   7
  -5  -9   7 558.506 136.038   1
   5   9  -7 375.708 104.177   5
  -5  -8   8 724.552 142.919   1
   5   8  -8 689.960 120.654   3
  -5  -7   9 19.4150 26.2332   1
   5   7  -9 19.1431 22.4672   3
  -5  -6  10 306.227 95.5838   1
   5   6 -10 239.801 75.1120   3
  -5  -5  11 1317.49 208.310   1
   5   5 -11 1267.15 173.771   3
  -5  -4  12-14.1381 47.8921   1
   5   4 -12-30.2485 37.1129   3
  -5  -3  13 689.800 171.052   1
   5   3 -13 607.349 128.545   3
  -5 -11   6 1519.61 238.436   7
   5  11  -6 1550.53 187.181   3
   5  10  -7 137.253 65.0769   3
  -5 -10   7 38.8606 59.8372   7
  -5 -10   7 32.7131 34.3044   1
  -5  -9   8 1678.63 234.707   1
   5   9  -8 1660.58 192.639   3
   5   8  -9 329.221 86.3530   3
  -5  -8   9 280.093 100.246   1
   5   7 -10 1012.16 157.722   3
  -5  -7  10 1060.44 184.596   1
  -5  -6  11 230.236 89.7244   1
   5   6 -11 100.023 44.8248   3
  -5  -5  12 435.775 131.500   1
   5   5 -12 358.718 92.0967   3
  -5  -4  13 178.828 74.7136   1
   5   4 -13 148.859 68.4081   3
   5  11  -7 375.013 92.4376   3
  -5 -11   7 393.847 124.234   7
   5  10  -8 97.8579 35.8571   3
  -5 -10   8 80.9480 29.6766   1
   5   9  -9 215.616 73.3223   3
  -5  -9   9 33.1941 31.2255   1
   5   8 -10 1342.74 180.066   3
  -5  -8  10 1312.64 214.024   1
  -5  -7  11 31.5029 50.8220   1
   5   7 -11 23.8185 32.0614   3
  -5  -6  12 460.589 131.319   1
   5   6 -12 446.691 106.367   3
  -5  -5  13 259.705 97.9367   1
   5   5 -13 352.293 94.3362   3
   5  11  -8 2138.23 236.513   3
   5  10  -9 267.524 92.4990   3
  -5 -10   9-32.5728 52.5398   1
   5   9 -10 361.743 92.2753   3
  -5  -9  10 339.792 119.851   1
  -5  -8  11 173.684 81.1542   1
   5   8 -11 100.351 56.4836   3
  -5  -7  12 477.155 135.764   1
   5   7 -12 503.371 120.183   3
  -6  11  -8 17.0038 32.8805   5
  -6  12  -7 500.348 144.040   5
  -6   9  -9 22.1289 32.3855   2
  -6  10  -8 731.408 166.814   5
  -6  11  -7 209.395 105.596   5
  -6  12  -6 277.023 102.846   5
   6  -8   9 130.996 79.0913   4
  -6   8  -9 84.2068 39.6735   2
   6  -9   8 571.591 136.335   4
  -6   9  -8 535.663 111.091   2
  -6   9  -8 745.179 158.885   5
   6 -10   7 562.935 128.873   4
  -6  10  -7 593.597 144.216   5
   6 -11   6 15.7298 30.8064   4
  -6  11  -6 55.2712 59.9593   5
  -6  12  -5 1005.40 199.626   5
  -6  13  -4 155.959 79.6287   5
   6  -7   9 792.614 163.338   4
  -6   7  -9 804.436 150.982   2
   6  -8   8 617.426 137.832   4
  -6   8  -8 742.265 139.075   2
   6  -9   7-45.2583 62.0629   4
  -6   9  -7-35.7221 52.7065   2
  -6   9  -7-7.20703 34.8216   5
   6 -10   6 1975.06 237.243   4
  -6  10  -6 2177.25 278.535   5
   6 -11   5 69.5649 62.9422   4
  -6  11  -5-9.68789 37.7403   5
   6 -12   4 1412.88 207.621   4
  -6  12  -4 1427.74 237.994   5
  -6  13  -3 1126.10 222.869   5
   6  -6   9 462.575 122.911   4
  -6   6  -9 387.458 107.837   2
   6  -7   8 121.962 64.6484   4
  -6   7  -8 47.4255 33.4836   2
   6  -8   7 51.6494 57.6584   4
  -6   8  -7 118.793 44.8513   2
  -6   8  -7 139.005 73.9992   5
   6  -9   6 490.597 125.446   4
  -6   9  -6 642.892 116.200   2
  -6   9  -6 515.970 128.605   5
   6 -10   5-3.42340 28.9000   4
  -6  10  -5 21.6933 48.7211   5
   6 -11   4 2108.99 246.404   4
  -6  11  -4 1875.37 259.215   5
   6 -12   3 39.0236 21.8248   4
  -6  12  -3-22.4067 48.5280   5
  -6  13  -2 663.268 167.614   5
  -6   5  -9 438.426 114.274   2
   6  -6   8-13.9709 18.1855   4
  -6   6  -8-5.56108 36.9721   2
   6  -7   7 352.111 101.806   4
  -6   7  -7 395.429 99.0734   2
  -6   7  -7 376.319 106.315   5
   6  -8   6 602.883 128.221   4
  -6   8  -6 549.203 111.880   2
  -6   8  -6 546.313 124.766   5
  -6   9  -5 21.3950 16.7434   2
   6  -9   5 57.2264 35.6462   4
  -6   9  -5 69.2170 40.3947   5
   6 -10   4 602.285 126.544   4
  -6  10  -4 477.194 121.554   5
   6 -11   3 18.7260 34.5865   4
  -6  11  -3 28.6112 29.0701   5
   6 -12   2 474.805 113.266   4
  -6  12  -2 328.158 109.460   5
  -6  13  -1 12.3215 54.0425   5
  -6   4  -9 1087.07 182.051   2
   6  -4   9 1080.12 181.433   6
  -6   5  -8 50.2069 16.0926   2
   6  -5   8 3.96029 16.7875   6
   6  -6   7 3188.50 313.679   4
  -6   6  -7 3183.81 279.717   2
   6  -7   6 711.190 139.796   4
  -6   7  -6 907.868 144.611   2
  -6   7  -6 797.017 140.238   5
   6  -8   5 310.490 87.8535   4
  -6   8  -5 423.535 91.7466   2
  -6   8  -5 358.063 92.4087   5
   6  -9   4 799.995 138.989   4
  -6   9  -4 688.223 110.072   2
  -6   9  -4 838.621 153.198   5
  -6  10  -3-7.98432 30.7065   8
   6 -10   3-12.1205 20.6747   4
  -6  10  -3 16.2515 18.7015   5
   6 -11   2 1171.30 175.475   4
  -6  11  -2 1138.25 165.696   8
  -6  11  -2 1008.78 188.183   5
  -6  12  -1 392.814 94.7601   8
   6 -12   1 326.753 89.2219   4
  -6  12  -1 574.814 154.903   5
  -6  13   0 76.1883 59.9551   5
   6  -2  10 52.4438 55.1528   1
  -6   3  -9 990.884 177.095   2
   6  -3   9 1297.76 203.591   6
   6  -3   9 1241.80 201.842   1
  -6   4  -8 112.757 51.7097   2
   6  -4   8 52.6435 33.6588   6
  -6   5  -7 797.509 140.859   2
   6  -5   7 960.269 155.883   6
   6  -6   6 3495.62 319.825   4
  -6   6  -6 3237.06 278.173   2
  -6   6  -6 3575.19 283.375   5
   6  -7   5 2231.98 241.270   4
  -6   7  -5 2136.00 213.566   2
  -6   7  -5 2501.46 243.967   5
   6  -8   4 2308.70 239.886   4
  -6   8  -4 2814.08 232.964   2
  -6   8  -4 3093.56 286.300   5
   6  -9   3 2453.16 247.631   4
  -6   9  -3 3019.15 256.384   8
  -6   9  -3 3124.96 226.276   2
  -6   9  -3 2865.49 282.004   5
   6 -10   2 4462.40 335.775   4
  -6  10  -2 4386.90 322.285   8
  -6  10  -2 4631.18 385.627   5
   6 -11   1 8.34707 22.0324   4
  -6  11  -1 55.8241 46.2272   8
  -6  11  -1 100.307 62.8874   5
   6 -12   0 1231.09 181.294   4
  -6  12   0 1299.23 195.612   8
  -6  12   0 1309.99 238.826   5
  -6  13   1 187.571 79.4684   8
   6  -1  10 158.838 79.7742   1
  -6   1 -10 9.19229 18.4688   7
  -6   2  -9 2332.84 271.790   2
  -6   2  -9 2353.00 243.031   7
   6  -2   9 2326.38 271.864   6
   6  -2   9 2634.31 316.918   1
   6  -3   8 37.9092 49.2734   1
  -6   3  -8-16.0134 36.1754   7
  -6   3  -8 43.2442 25.7064   2
   6  -3   8 9.06442 16.3743   6
  -6   4  -7 1677.96 208.269   2
   6  -4   7 1787.24 212.665   6
   6  -4   7 1800.95 208.919   1
  -6   5  -6 24.2196 25.4798   2
   6  -5   6 46.7794 36.8799   6
  -6   5  -6 55.4125 31.0945   5
   6  -6   5 189.272 62.2688   4
  -6   6  -5 161.233 57.1158   2
  -6   6  -5 207.198 63.7426   5
   6  -7   4 1486.19 187.902   4
  -6   7  -4 1517.17 168.057   2
  -6   7  -4 1795.78 203.130   5
   6  -8   3 1191.80 167.902   4
  -6   8  -3 1229.65 162.307   8
  -6   8  -3 1165.86 138.732   2
  -6   8  -3 1356.28 182.367   5
   6  -9   2 1938.61 212.021   4
  -6   9  -2 1676.28 195.903   8
  -6   9  -2 1983.62 176.586   2
  -6   9  -2 1822.34 223.841   5
   6 -10   1 927.911 151.122   4
  -6  10  -1 898.000 145.673   8
  -6  10  -1 754.577 154.668   5
  -6  11   0 522.740 120.080   8
   6 -11   0 581.555 120.521   4
  -6  11   0 899.961 184.527   5
  -6  12   1 295.874 97.9990   5
  -6  12   1 165.837 60.3224   8
   6 -12  -1 342.798 93.8594   4
  -6  13   2 651.435 145.264   8
  -6   1  -9 206.018 77.5460   7
  -6   1  -9 235.903 104.079   2
   6  -1   9 107.481 65.1264   6
  -6   2  -8-33.3143 37.9649   7
  -6   2  -8-0.75489 34.1235   2
   6  -2   8 33.8528 32.7449   6
  -6   3  -7 770.136 120.850   7
  -6   3  -7 740.921 137.070   2
   6  -3   7 731.903 135.587   6
   6  -4   6 6.08942 16.1158   1
  -6   4  -6-4.81090 10.2157   7
  -6   4  -6-30.3291 43.9868   2
   6  -4   6 6.17994 23.8939   6
  -6   5  -5 3770.06 294.837   2
   6  -5   5 3815.87 275.583   6
  -6   5  -5 4013.43 269.508   5
   6  -6   4 1264.74 172.052   4
  -6   6  -4 1157.68 148.180   2
  -6   6  -4 1333.41 161.147   5
   6  -7   3 730.526 125.617   4
  -6   7  -3 749.082 120.912   8
  -6   7  -3 966.807 130.010   2
  -6   7  -3 1055.88 150.966   5
   6  -8   2 1450.33 175.706   4
  -6   8  -2 1444.33 178.366   8
  -6   8  -2 1642.63 162.141   2
  -6   8  -2 1488.98 191.256   5
  -6   9  -1 469.457 105.918   8
   6  -9   1 388.488 93.5320   4
  -6   9  -1 351.235 102.309   5
  -6  10   0 86.7282 50.3399   8
   6 -10   0 26.8728 20.7305   4
  -6  10   0 154.563 67.6134   5
  -6  11   1-15.0772 18.2358   5
  -6  11   1-40.6441 25.6310   8
   6 -11  -1-11.5748 25.0236   4
  -6  12   2-65.7054 30.0494   8
   6 -12  -2 29.3396 20.9815   4
  -6   0  -9 865.620 158.759   7
  -6   1  -8 303.772 79.2117   7
  -6   1  -8 431.239 109.190   2
   6  -1   8 459.790 116.394   6
  -6   2  -7 549.470 104.800   7
  -6   2  -7 461.648 110.639   2
   6  -2   7 466.283 114.597   6
  -6   3  -6-4.69925 21.6490   7
  -6   3  -6-34.1127 35.7016   2
   6  -3   6-5.88205 19.8439   6
  -6   4  -5 5145.48 347.625   2
  -6   4  -5 5053.51 260.601   7
   6  -4   5 5239.42 320.419   6
  -6   4  -5 5273.97 280.346   5
   6  -5   4 1936.32 218.039   4
  -6   5  -4 2197.09 209.118   2
   6  -5   4 2207.18 193.831   6
  -6   5  -4 2237.24 191.780   5
   6  -6   3 3209.90 265.031   4
  -6   6  -3 3395.57 257.414   2
  -6   6  -3 3401.49 254.335   5
   6  -7   2 5806.39 350.548   4
  -6   7  -2 6404.93 374.785   8
  -6   7  -2 6065.28 319.567   2
  -6   7  -2 6673.91 381.715   5
   6  -8   1 5394.47 342.584   4
  -6   8  -1 5558.52 358.344   8
  -6   8  -1 6371.22 323.534   2
  -6   8  -1 5766.17 379.758   5
   6  -9   0 7695.41 413.773   4
  -6   9   0 7661.46 433.214   8
  -6   9   0 8489.13 504.263   5
   6 -10  -1 1444.15 177.987   4
  -6  10   1 1771.90 223.482   8
  -6  10   1 1825.40 247.853   5
  -6  11   2 601.546 149.564   5
  -6  11   2 472.879 116.865   8
   6 -11  -2 516.622 106.113   4
  -6  12   3-6.10439 36.1740   5
  -6  12   3-13.1661 40.3312   8
   6 -12  -3 6.81502 41.4694   4
  -6  -1  -9 374.697 115.376   7
  -6   0  -8 280.268 87.2758   7
  -6   0  -8 369.784 111.976   2
   6   0   8 433.198 118.667   6
  -6   1  -7 2574.80 267.425   2
  -6   1  -7 2386.56 237.991   7
   6  -1   7 2603.77 272.060   6
  -6   2  -6 387.072 86.2187   7
  -6   2  -6 390.760 98.2335   2
   6  -2   6 426.769 105.569   6
  -6   3  -5 1342.07 178.105   2
  -6   3  -5 1280.86 141.463   7
   6  -3   5 1384.80 172.233   6
  -6   4  -4 2417.95 222.253   2
  -6   4  -4 2552.34 172.575   7
   6  -4   4 2563.75 211.551   6
  -6   4  -4 2569.53 183.553   5
   6  -5   3 3069.08 260.066   4
  -6   5  -3 3209.75 247.233   2
   6  -5   3 3081.22 211.120   6
  -6   5  -3 3329.36 225.868   5
  -6   6  -2 240.464 73.1077   8
   6  -6   2 94.2320 30.5391   4
  -6   6  -2 168.677 51.7169   2
  -6   6  -2 174.411 61.1067   5
   6  -7   1 3185.05 246.616   4
  -6   7  -1 3272.16 267.424   8
  -6   7  -1 3309.94 232.535   2
  -6   7  -1 3513.40 278.147   5
   6  -8   0 2381.03 219.689   4
  -6   8   0 2211.84 220.692   8
  -6   8   0 2796.63 271.468   5
  -6   9   1 199.069 75.3578   5
  -6   9   1 195.145 77.7869   8
   6  -9  -1 166.201 59.6760   4
   6 -10  -2 2365.32 226.238   4
  -6  10   2 2239.87 259.216   8
  -6  10   2 2590.15 298.789   5
  -6  11   3 340.299 111.897   5
  -6  11   3 336.384 105.392   8
   6 -11  -3 383.034 96.6352   4
  -6  12   4 781.802 166.917   8
   6 -12  -4 900.179 157.353   4
  -6  -1  -8 961.332 173.907   2
  -6  -1  -8 827.800 155.522   7
   6   1   8 739.298 155.565   6
  -6   0  -7 25.1677 25.6705   7
  -6   0  -7 112.105 47.7390   2
   6   0   7-9.05622 45.5286   6
  -6   1  -6 171.262 58.9081   7
  -6   1  -6 171.606 56.1555   2
   6  -1   6 300.533 80.9395   6
  -6   2  -5 2354.54 240.969   2
  -6   2  -5 2730.27 228.062   7
   6  -2   5 2450.07 230.626   6
  -6   3  -4 15.1187 17.2912   2
   6  -3   4-24.4449 38.8510   6
  -6   3  -4 7.51604 6.27705   5
  -6   4  -3 429.291 68.4661   7
  -6   4  -3 434.619 90.3109   2
   6  -4   3 435.002 84.0093   6
  -6   4  -3 464.609 73.8786   5
   6  -5   2 4410.73 297.964   4
  -6   5  -2 4345.24 301.515   8
  -6   5  -2 4392.28 278.661   2
   6  -5   2 4863.18 248.415   6
  -6   5  -2 4198.43 179.621   7
  -6   5  -2 4934.40 277.279   5
   6  -6   1 2428.53 213.499   4
  -6   6  -1 2574.13 234.165   8
  -6   6  -1 2687.17 210.314   2
  -6   6  -1 2674.57 222.975   5
   6  -7   0 2618.13 220.977   4
  -6   7   0 2436.24 230.554   8
  -6   7   0 2990.36 227.533   2
  -6   7   0 3181.54 268.580   5
  -6   8   1 610.148 128.655   5
  -6   8   1 567.840 118.232   8
   6  -8  -1 601.955 106.263   4
  -6   9   2 0.99227 17.8775   5
   6  -9  -2 24.6345 28.9471   4
  -6   9   2-26.2767 46.4469   8
  -6  10   3-71.3783 57.4354   5
  -6  10   3 5.22093 19.1158   8
  -6  11   4 408.239 126.982   5
  -6  11   4 422.593 112.619   8
   6 -11  -4 405.797 100.386   4
  -6  -2  -8 831.970 166.683   7
  -6  -2  -8 674.551 146.885   2
  -6  -1  -7-7.56558 47.5373   7
  -6  -1  -7 69.6573 30.2551   2
   6   1   7-62.1269 54.5028   6
  -6   0  -6 1561.52 206.220   2
  -6   0  -6 1496.43 190.028   7
   6   0   6 1577.95 203.923   6
  -6   1  -5 3555.44 298.270   2
  -6   1  -5 4193.28 298.330   7
   6  -1   5 3481.20 282.540   6
  -6   2  -4 476.575 87.9064   7
  -6   2  -4 390.209 87.6189   2
   6  -2   4 472.750 94.4585   6
  -6   3  -3 1960.98 196.229   2
  -6   3  -3 2056.16 163.845   7
   6  -3   3 1948.97 178.822   6
  -6   3  -3 1883.82 125.957   5
   6  -4   2 115.922 31.0296   4
  -6   4  -2 149.548 56.4237   2
   6  -4   2 133.050 43.5288   6
  -6   4  -2 110.844 39.2619   5
   6  -5   1 4289.40 281.895   4
  -6   5  -1 4761.57 316.232   8
  -6   5  -1 4552.65 279.335   2
   6  -5   1 4807.19 224.031   6
  -6   5  -1 4856.95 277.830   5
   6  -6   0 311.377 75.5509   4
  -6   6   0 307.302 80.5570   8
  -6   6   0 254.765 71.1576   2
  -6   6   0 321.786 80.7500   5
   6  -7  -1 4591.25 290.106   4
  -6   7   1 4758.95 328.265   8
  -6   7   1 5049.97 347.543   5
  -6   8   2 358.412 96.7570   5
  -6   8   2 369.020 94.1950   8
   6  -8  -2 237.604 63.0671   4
   6  -9  -3 1307.59 160.148   4
  -6   9   3 1434.26 202.488   8
  -6   9   3 1260.36 196.847   5
  -6  10   4 385.528 116.901   5
  -6  10   4 290.414 95.9423   8
   6 -10  -4 432.193 98.4805   4
  -6  11   5-7.31345 56.4901   5
  -6  11   5 42.7085 51.3380   8
   6 -11  -5 4.70196 12.7925   4
  -6  -2  -7-24.4151 37.3128   7
  -6  -2  -7 90.5782 41.1733   2
   6   2   7-44.5152 73.1500   6
  -6  -1  -6 53.0365 37.5671   7
  -6  -1  -6 70.2961 44.0862   2
   6   1   6 37.3305 24.6072   6
  -6   0  -5 1955.97 223.411   2
  -6   0  -5 2021.29 213.957   7
   6   0   5 1648.19 200.625   6
  -6   1  -4 1099.07 155.865   2
  -6   1  -4 1278.24 157.494   7
   6  -1   4 1254.71 160.201   6
  -6   2  -3 3254.62 255.909   2
  -6   2  -3 3531.37 233.208   7
   6  -2   3 3405.84 246.135   6
  -6   3  -2 13.4385 18.4515   7
  -6   3  -2 44.0031 28.5234   2
   6  -3   2 24.3832 17.0602   6
  -6   3  -2 36.7238 7.73696   5
   6  -4   1 1024.48 135.543   4
  -6   4  -1 1136.30 151.138   8
  -6   4  -1 1023.90 130.956   2
   6  -4   1 1105.33 113.752   6
  -6   4  -1 1125.96 118.326   5
   6  -5   0 1467.21 154.120   4
  -6   5   0 1671.48 186.167   8
  -6   5   0 1674.45 165.002   2
   6  -5   0 1735.72 118.175   6
  -6   5   0 1779.12 169.544   5
   6  -6  -1 598.907 97.7101   4
  -6   6   1 605.812 110.308   8
  -6   6   1 646.848 113.762   5
  -6   7   2-34.4618 39.9290   5
  -6   7   2 4.15875 25.6566   8
   6  -7  -2 35.6810 36.2810   4
   6  -8  -3 710.090 110.173   4
  -6   8   3 825.280 148.359   8
  -6   8   3 863.127 156.371   5
  -6   9   4 23.2393 26.4958   5
  -6   9   4 16.8535 38.9326   8
   6  -9  -4-0.13148 17.3268   4
  -6  10   5 43.7868 31.9952   8
   6 -10  -5 17.8997 26.8210   4
   6 -11  -6 249.509 85.7068   4
  -6  -3  -7 1779.74 238.759   2
  -6  -3  -7 1784.17 249.417   7
   6   3   7 1621.34 230.036   6
  -6  -2  -6-11.9584 23.5745   7
  -6  -2  -6 40.7959 31.3837   2
   6   2   6 32.1484 22.8248   6
  -6  -1  -5 8094.33 462.400   2
  -6  -1  -5 7152.83 435.239   7
   6   1   5 7552.64 449.013   6
  -6   0  -4 363.045 86.4859   7
  -6   0  -4 387.813 94.1630   2
   6   0   4 341.101 86.5773   6
  -6   1  -3 2343.13 220.387   2
  -6   1  -3 2728.68 215.905   7
   6  -1   3 2405.04 124.757   3
   6  -1   3 2458.97 214.653   6
  -6   2  -2 15486.4 500.612   7
   6  -2   2 14606.5 505.515   6
  -6   2  -2 15048.1 242.549   5
  -6   3  -1 425.286 72.8062   7
   6  -3   1 421.727 74.2943   6
  -6   3  -1 453.129 91.2307   2
  -6   3  -1 508.979 65.7943   5
   6  -4   0 16012.7 360.867   1
   6  -4   0 14301.3 510.610   4
  -6   4   0 14545.3 567.824   8
  -6   4   0 15250.8 530.325   2
   6  -4   0 15789.5 420.182   6
  -6   4   0 17044.2 492.858   5
  -6   5   1 191.040 58.4068   5
  -6   5   1 233.083 69.6135   8
   6  -5  -1 171.196 50.8887   4
   6  -5  -1 230.948 36.0547   6
  -6   5   1 298.943 77.6831   2
   6  -6  -2 2071.18 181.747   4
  -6   6   2 2391.89 232.471   8
  -6   6   2 2030.24 205.683   5
   6  -7  -3 3400.93 236.758   4
  -6   7   3 4339.75 335.308   8
  -6   7   3 3947.11 313.577   5
  -6   8   4 652.572 136.019   5
   6  -8  -4 609.296 103.060   4
  -6   8   4 519.308 117.024   8
  -6   9   5 509.894 127.593   5
   6  -9  -5 718.914 124.110   4
  -6   9   5 672.090 144.461   8
  -6  10   6 310.184 104.227   5
   6 -10  -6 311.254 87.0402   4
  -6  -4  -7 648.771 140.846   2
  -6  -3  -6 2990.37 294.581   2
  -6  -3  -6 3229.24 322.468   7
   6   3   6 2710.96 296.145   6
  -6  -2  -5 1284.16 182.194   2
  -6  -2  -5 1139.51 183.613   7
   6   2   5 1379.12 197.592   6
  -6  -1  -4 2348.76 234.838   2
  -6  -1  -4 2712.77 258.003   7
   6   1   4 2317.43 234.896   6
  -6   0  -3 20788.4 694.578   2
  -6   0  -3 19221.7 640.036   7
   6   0   3 19443.8 658.409   6
  -6   1  -2 1484.11 172.260   2
  -6   1  -2 1335.66 146.934   7
   6  -1   2 1481.70 111.232   3
   6  -1   2 1418.22 155.663   6
  -6   2  -1 14353.9 476.001   7
  -6   2  -1 15077.2 541.692   2
   6  -2   1 15709.2 496.493   6
  -6   2  -1 16410.5 294.100   5
   6  -3   0 6835.88 341.541   4
   6  -3   0 6880.73 265.183   1
  -6   3   0 7306.64 360.280   2
   6  -3   0 7237.20 290.034   6
  -6   3   0 6580.24 291.079   7
  -6   3   0 7108.77 265.222   5
   6  -4  -1 2060.45 119.548   1
   6  -4  -1 2111.97 170.507   4
  -6   4   1 1921.90 197.123   8
  -6   4   1 2533.81 222.471   2
   6  -4  -1 2178.99 129.738   6
  -6   4   1 2350.67 179.879   5
   6  -5  -2 26017.9 682.954   4
  -6   5   2 27653.6 813.340   8
  -6   5   2 28248.9 764.901   5
  -6   6   3 336.654 80.4020   5
   6  -6  -3 345.860 69.0887   4
  -6   6   3 368.569 99.2099   8
   6  -7  -4 1490.45 153.206   4
  -6   7   4 1249.90 181.027   8
  -6   7   4 1380.31 188.290   5
  -6   8   5 729.491 148.769   5
   6  -8  -5 750.535 117.848   4
  -6   8   5 628.420 132.974   8
  -6   9   6 1004.48 186.553   5
   6  -9  -6 843.440 132.648   4
   6 -10  -7 1799.13 211.435   4
  -6  -4  -6 1827.69 230.988   2
  -6  -4  -6 1597.68 239.757   7
   6   4   6 1779.47 245.861   6
  -6  -3  -5 1279.95 184.341   2
  -6  -3  -5 1209.54 194.842   7
   6   3   5 1401.32 200.330   6
  -6  -2  -4 4270.79 322.654   2
  -6  -2  -4 3871.94 324.333   7
   6   2   4 3749.66 309.098   6
  -6  -1  -3 5548.74 354.181   2
  -6  -1  -3 5114.93 338.504   7
   6   1   3 5010.42 331.230   6
  -6   0  -2-11.6371 23.7127   7
   6   0   2 7.51358 12.2571   6
   6   0   2 7.52309 10.0486   3
  -6   0  -2 4.36202 21.1446   2
  -6   1  -1 616.446 101.128   7
  -6   1  -1 642.256 107.087   2
   6  -1   1 480.030 66.3025   3
   6  -1   1 448.416 79.1608   6
  -6   2   0 99.8075 20.4772   5
  -6   2   0 47.0014 20.2717   8
  -6   2   0 125.681 36.4038   7
   6  -2   0 99.2823 30.2661   6
  -6   2   0 134.138 46.7806   2
   6  -3  -1 3918.90 199.034   1
   6  -3  -1 3853.33 238.827   4
  -6   3   1 3150.99 255.108   8
  -6   3   1 3965.29 222.381   7
  -6   3   1 3516.59 252.771   2
   6  -3  -1 3594.50 187.909   6
   6  -3  -1 3806.96 222.817   5
  -6   3   1 3529.14 194.001   5
  -6   4   2-1.01826 41.9441   5
  -6   4   2 103.451 51.9743   8
   6  -4  -2 66.7263 27.9877   4
   6  -4  -2 70.5615 27.5992   1
   6  -4  -2 16.7577 12.6561   6
  -6   5   3 181.265 65.5092   5
  -6   5   3 143.880 51.9843   8
   6  -5  -3 136.354 34.6109   4
  -6   5   3 180.365 30.0823   1
   6  -6  -4 2199.88 174.465   4
  -6   6   4 2460.68 249.502   8
  -6   6   4 2345.98 232.548   5
  -6   7   5 131.603 64.7760   5
  -6   7   5 105.583 56.2234   8
   6  -7  -5 138.004 51.3262   4
   6  -8  -6 1688.38 178.744   4
  -6   8   6 1741.60 237.243   8
  -6   8   6 1831.60 244.934   5
  -6   9   7 293.259 99.7161   5
   6  -9  -7 406.638 95.8584   4
  -6  -5  -6 317.113 124.216   2
  -6  -4  -5 677.488 152.026   7
  -6  -4  -5 743.641 144.651   2
   6   4   5 751.069 155.553   6
  -6  -3  -4 40.0242 38.4818   7
   6   3   4 1.22469 41.4115   6
  -6  -3  -4 67.8879 48.1590   2
  -6  -2  -3 2867.95 266.369   7
   6   2   3 3201.68 275.492   6
  -6  -1  -2 2180.99 213.519   2
  -6  -1  -2 2217.33 213.260   7
   6   1   2 1906.62 193.952   6
  -6   0  -1 4468.07 280.394   7
  -6   0  -1 4284.61 285.539   2
   6   0   1 3848.82 177.553   3
   6   0   1 3809.24 261.207   6
  -6   1   0 45.0039 22.6666   7
   6  -1   0 91.4025 19.5065   3
   6  -1   0 87.4420 30.3265   6
  -6   1   0 89.8763 30.0780   2
  -6   2   1 1048.71 142.844   8
  -6   2   1 1314.46 135.035   7
  -6   2   1 1249.53 147.525   2
   6  -2  -1 1137.46 111.196   6
  -6   2   1 1235.45 95.4293   5
   6  -3  -2 4013.22 203.959   1
   6  -3  -2 3526.32 210.255   4
  -6   3   2 3743.39 277.544   8
   6  -3  -2 3650.18 172.649   6
  -6   3   2 4384.46 233.671   5
  -6   4   3 329.650 69.5419   5
  -6   4   3 402.423 56.0935   1
   6  -4  -3 377.457 69.2654   4
  -6   4   3 346.375 88.3833   8
   6  -4  -3 322.009 32.4907   6
  -6   5   4 15.7977 25.0653   5
  -6   5   4 5.47903 31.3305   8
   6  -5  -4 10.7045 12.2008   4
  -6   5   4 25.9145 18.7797   1
  -6   6   5 5.02489 27.6531   5
  -6   6   5 52.0309 53.5826   8
   6  -6  -5 9.09698 15.8703   4
  -6   6   5 17.2679 18.9918   1
  -6   7   6 587.404 131.033   5
   6  -7  -6 793.289 116.329   4
  -6   7   6 706.749 144.530   8
  -6   8   7 109.029 62.9920   5
   6  -8  -7 34.9444 32.2142   4
  -6   9   8 352.611 123.235   5
  -6  -6  -6 2630.81 284.587   2
  -6  -5  -5 462.564 131.254   7
   6   5   5 321.128 108.295   6
  -6  -5  -5 330.312 95.0465   2
  -6  -4  -4 4779.12 358.891   2
  -6  -4  -4 5317.46 417.999   7
   6   4   4 4631.61 365.915   6
  -6  -3  -3 2104.95 225.557   2
  -6  -3  -3 2509.50 259.626   7
   6   3   3 2184.26 237.543   6
  -6  -2  -2 3113.76 257.370   2
  -6  -2  -2 3165.04 265.241   7
   6   2   2 2569.82 242.189   6
  -6  -1  -1 12685.9 512.047   7
  -6  -1  -1 12982.8 523.960   2
   6   1   1 14348.6 343.780   3
   6   1   1 12889.7 518.914   6
  -6   0   0 1903.23 182.856   7
  -6   0   0 1681.98 179.690   2
   6   0   0 1800.03 132.775   3
   6   0   0 1742.41 167.179   6
  -6   1   1 15985.0 586.688   8
  -6   1   1 13561.3 479.223   7
  -6   1   1 15094.6 544.213   2
   6  -1  -1 14710.5 452.519   3
   6  -1  -1 14330.5 464.776   6
   6  -2  -2 6425.07 293.792   4
  -6   2   2 6885.48 379.827   8
  -6   2   2 7231.72 328.487   7
   6  -2  -2 6550.78 319.018   3
   6  -2  -2 6954.92 277.215   6
   6  -2  -2 7137.37 294.063   5
  -6   2   2 6871.32 264.871   5
   6  -3  -3 32926.1 729.903   1
   6  -3  -3 33107.7 704.503   4
  -6   3   3 34285.2 676.062   1
   6  -3  -3 33201.6 602.912   6
  -6   4   4 5.97668 12.2656   5
  -6   4   4 7.57439 18.9076   8
   6  -4  -4 36.2027 28.4364   4
  -6   4   4-24.5184 24.4430   1
  -6   5   5 1.16399 31.5053   5
  -6   5   5-10.7249 43.1666   8
   6  -5  -5 35.1709 22.0522   4
  -6   5   5 15.1923 13.9610   1
  -6   6   6 93.3254 44.5594   5
  -6   6   6 130.500 55.5987   8
   6  -6  -6 187.777 52.3309   4
  -6   6   6 146.039 45.1376   1
  -6   7   7 907.187 172.042   5
   6  -7  -7 958.361 128.579   4
  -6   7   7 923.909 173.283   8
   6  -8  -8 2805.78 304.231   3
   6  -8  -8 2686.72 248.607   7
  -6   8   8 2820.78 327.124   5
  -6  -6  -5 305.113 96.0725   2
  -6  -5  -4 4174.39 334.270   2
  -6  -5  -4 4123.93 383.633   7
   6   5   4 3992.44 352.036   6
  -6  -4  -3 2927.21 266.553   2
  -6  -4  -3 2120.33 249.143   7
   6   4   3 2918.30 287.287   6
  -6  -3  -2 1987.44 207.600   2
  -6  -3  -2 2154.40 229.900   7
   6   3   2 2140.96 230.762   6
  -6  -2  -1 8913.54 450.812   7
  -6  -2  -1 8249.52 420.331   2
   6   2   1 9331.97 458.059   6
  -6  -1   0 2891.28 238.011   7
  -6  -1   0 2621.05 228.256   2
   6   1   0 2784.67 157.010   3
   6   1   0 2651.98 224.129   6
  -6   0   1 11125.9 446.277   7
  -6   0   1 10043.9 445.735   2
   6   0  -1 11038.1 368.776   3
   6   0  -1 10878.9 429.348   6
  -6   1   2 839.132 131.870   8
  -6   1   2 763.636 112.577   7
  -6   1   2 1119.18 152.188   2
   6  -1  -2 888.459 109.457   3
   6  -1  -2 819.898 100.611   6
   6  -1  -2 747.094 80.2209   5
   6  -2  -3 3345.68 187.892   4
  -6   2   3 2858.76 242.171   8
  -6   2   3 4192.85 218.728   1
   6  -2  -3 3397.92 234.602   3
   6  -2  -3 3463.15 188.653   6
  -6   2   3 3678.79 208.761   5
   6  -3  -4 25608.1 578.121   4
  -6   3   4 22121.2 731.618   8
   6  -3  -4 24780.3 728.087   3
   6  -3  -4 23595.0 466.883   6
  -6   3   4 26938.4 705.560   5
  -6   3   4 29789.7 631.781   1
   6  -4  -5 5264.33 237.413   4
  -6   4   5 4867.32 341.858   8
  -6   4   5 5556.79 263.080   1
  -6   4   5 5510.30 337.639   5
   6  -5  -6 5470.32 264.504   4
  -6   5   6 5235.51 374.030   8
  -6   5   6 5845.08 291.263   1
  -6   5   6 5118.55 358.806   5
  -6   6   7 441.524 112.631   5
  -6   6   7 338.009 98.4907   8
   6  -6  -7 396.332 76.6701   4
   6  -6  -7 441.710 112.770   3
   6  -7  -8 2723.37 289.166   3
  -6   7   8 2403.07 288.115   5
   6  -8  -9 1497.92 197.189   7
   6  -8  -9 1431.11 217.570   3
  -6   8   9 1537.98 244.989   5
  -6  -6  -4 301.834 104.445   7
   6   6   4 301.446 87.2870   6
  -6  -6  -4 344.532 97.4371   2
  -6  -5  -3 3048.23 312.372   7
  -6  -5  -3 3148.97 279.855   2
   6   5   3 2495.76 278.043   6
  -6  -4  -2-15.5805 23.4071   7
   6   4   2 22.5158 34.0461   6
  -6  -4  -2 37.4771 34.8828   2
  -6  -3  -1 2537.83 247.183   7
  -6  -3  -1 2589.56 237.272   2
   6   3   1 2569.57 248.176   6
  -6  -2   0 116.516 44.7707   7
   6   2   0 179.503 58.6158   6
  -6  -2   0 104.555 44.2597   2
   6   2   0 171.463 34.6411   3
  -6  -1   1 10521.1 453.590   7
   6   1  -1 11400.1 360.561   3
   6   1  -1 10494.6 438.106   6
  -6   0   2 418.536 79.6985   8
  -6   0   2 799.121 116.956   7
   6   0  -2 537.373 78.4479   3
   6   0  -2 586.370 89.8517   6
   6   0  -2 595.744 57.8093   5
  -6   0   2 469.346 98.0408   2
   6  -1  -3 12365.7 384.291   4
  -6   1   3 11238.6 495.155   8
  -6   1   3 16075.1 522.045   7
  -6   1   3 14802.4 456.476   1
   6  -1  -3 12196.9 445.205   3
   6  -1  -3 12121.4 393.343   6
   6  -1  -3 12089.7 388.233   5
   6  -2  -4 7967.44 281.587   4
  -6   2   4 7835.74 410.038   8
   6  -2  -4 7624.61 372.364   3
   6  -2  -4 7237.81 264.183   6
  -6   3   5 261.315 69.6222   5
  -6   3   5 271.613 60.3598   1
  -6   3   5 243.654 72.1330   8
   6  -3  -5 203.589 41.3897   4
   6  -3  -5 217.228 60.8758   3
   6  -3  -5 213.632 34.8564   6
  -6   4   6 51.5309 31.1579   5
  -6   4   6 122.227 61.8528   8
   6  -4  -6 123.296 37.1590   4
   6  -4  -6 143.502 56.5527   3
  -6   4   6 137.063 46.5809   1
  -6   5   7 142.631 69.3928   5
  -6   5   7 172.930 56.7299   8
  -6   5   7 278.180 75.1272   1
   6  -5  -7 191.898 48.2840   4
   6  -5  -7 118.963 49.6188   3
  -6   6   8 1458.58 213.048   8
   6  -6  -8 1395.06 198.345   3
  -6   6   8 1594.61 224.551   5
  -6   7   9 79.1468 62.0041   5
   6  -7  -9 190.375 78.8790   3
   6  -8 -10 628.076 131.957   7
  -6  -7  -4 934.148 162.235   2
  -6  -6  -3 87.7497 57.1572   7
   6   6   3 78.9044 34.6654   6
  -6  -6  -3 96.3908 49.3472   2
  -6  -5  -2-5.95583 23.7703   7
   6   5   2 27.1765 23.8957   6
  -6  -5  -2-9.17848 31.2373   2
  -6  -4  -1 26.4444 28.4457   7
   6   4   1-6.92398 16.1140   6
  -6  -4  -1-24.4760 16.3939   2
  -6  -3   0 265.059 72.9534   7
   6   3   0 289.910 78.9073   6
  -6  -3   0 464.431 96.6857   2
   6   3   0 268.482 41.7360   3
  -6  -2   1 7275.51 397.230   7
  -6  -2   1 7655.93 399.681   2
   6   2  -1 7313.07 275.888   3
   6   2  -1 6377.38 358.075   6
  -6  -1   2 224.683 56.6555   7
   6   1  -2 386.502 76.2440   6
   6   1  -2 372.723 69.3189   3
  -6  -1   2 290.761 85.7716   2
  -6   0   3 1718.28 182.620   8
  -6   0   3 1847.11 180.594   7
  -6   0   3 1950.81 168.715   1
   6   0  -3 1803.98 158.271   3
   6   0  -3 1718.66 151.139   6
   6   0  -3 1807.40 129.531   5
  -6   1   4 308.709 81.0929   8
   6  -1  -4 283.472 48.8137   4
   6  -1  -4 291.608 62.5443   3
   6  -1  -4 283.365 59.3544   6
  -6   1   4 296.662 63.1750   1
   6  -2  -5 1607.06 110.130   4
  -6   2   5 1659.08 184.688   8
   6  -2  -5 1863.09 185.166   3
   6  -2  -5 1553.42 116.969   6
  -6   2   5 1838.04 160.793   1
  -6   3   6 512.537 102.230   5
   6  -3  -6 475.113 63.3074   4
  -6   3   6 653.767 123.696   8
  -6   3   6 542.476 93.9354   1
   6  -3  -6 465.035 97.9657   3
  -6   4   7 668.492 126.749   5
   6  -4  -7 665.047 82.1874   4
  -6   4   7 708.276 132.503   8
  -6   4   7 826.107 119.180   1
   6  -4  -7 671.727 125.820   3
  -6   5   8 59.9369 32.4887   5
  -6   5   8 143.644 63.5697   1
  -6   5   8 145.351 84.9877   8
   6  -5  -8 147.172 55.8103   3
  -6   6   9 711.063 154.018   5
   6  -6  -9 593.789 138.051   3
   6  -7 -10 348.078 108.641   3
   6   7   3-11.2905 20.3848   6
  -6  -7  -3 18.0222 38.5366   2
  -6  -6  -2 869.820 147.387   2
  -6  -6  -2 708.039 151.473   7
   6   6   2 756.416 150.679   6
  -6  -5  -1 74.2526 30.9987   7
   6   5   1 2.04292 23.9730   6
  -6  -5  -1 8.62026 19.9840   2
  -6  -4   0 2142.69 228.139   7
  -6  -4   0 2043.77 208.585   2
   6   4   0 2096.66 227.222   6
  -6  -3   1 4822.63 339.568   7
   6   3  -1 5190.99 329.354   6
   6   3  -1 5823.92 233.807   3
  -6  -2   2 497.478 96.0089   7
   6   2  -2 543.483 81.4510   3
   6   2  -2 523.433 96.7201   6
  -6  -2   2 587.165 109.171   2
   6   1  -3 7749.45 330.268   3
   6   1  -3 7932.99 362.337   6
   6   1  -3 7739.04 252.264   5
  -6   0   4 832.766 107.712   1
   6   0  -4 983.431 90.1065   4
  -6   0   4 1215.91 156.975   8
  -6   0   4 987.619 132.948   7
   6   0  -4 922.265 117.352   3
   6   0  -4 878.713 106.895   6
   6  -1  -5 11722.1 299.046   4
  -6   1   5 10510.8 485.805   8
   6  -1  -5 11273.1 464.030   3
  -6   1   5 10881.2 417.045   1
   6  -2  -6 369.655 48.9580   4
  -6   2   6 493.289 102.175   8
   6  -2  -6 429.345 95.6439   3
  -6   2   6 480.284 88.4542   1
  -6   3   7 236.677 74.7177   8
   6  -3  -7 177.132 35.4655   4
  -6   3   7 183.441 57.6036   1
   6  -3  -7 259.497 79.6002   3
  -6   4   8 759.551 130.179   1
  -6   4   8 628.146 128.851   8
   6  -4  -8 647.264 121.956   3
  -6   5   9 9.71896 36.6462   1
  -6   5   9-5.28714 41.4993   8
   6  -5  -9 22.5710 36.7310   3
   6  -6 -10 2846.04 298.862   3
  -6  -7  -2 1260.47 211.451   7
  -6  -7  -2 1398.82 188.635   2
   6   7   2 1191.55 202.900   6
  -6  -6  -1 1063.93 181.921   7
  -6  -6  -1 826.403 139.551   2
   6   6   1 1019.34 177.335   6
  -6  -5   0 641.699 131.206   7
   6   5   0 588.039 128.586   6
  -6  -5   0 573.365 112.199   2
  -6  -4   1 1994.86 223.408   7
   6   4  -1 2142.17 220.105   6
   6   4  -1 2494.81 151.814   3
  -6  -3   2 48.7502 24.0224   7
   6   3  -2 59.1843 25.8953   6
   6   3  -2 43.0814 12.3340   3
   6   2  -3 9301.95 356.605   3
   6   2  -3 9375.29 422.991   6
  -6  -2   3 10012.7 438.075   1
  -6  -1   4 5397.01 331.715   8
  -6  -1   4 4543.47 302.480   7
   6   1  -4 5377.10 285.731   3
   6   0  -5 11544.2 282.577   4
  -6   0   5 12523.5 520.984   8
   6   0  -5 11076.5 444.489   3
  -6   0   5 11708.0 455.122   1
  -6   1   6 188.932 60.7684   1
  -6   1   6 279.029 80.3009   8
   6  -1  -6 154.785 25.9212   4
   6  -1  -6 192.146 55.3784   3
  -6   2   7 1698.89 206.225   8
  -6   2   7 1745.62 181.054   1
   6  -2  -7 1566.37 183.560   3
  -6   3   8 245.051 82.7910   8
  -6   3   8 268.923 78.4854   1
   6  -3  -8 237.901 78.0108   3
  -6   4   9 1013.36 161.819   1
  -6   4   9 990.679 176.090   8
   6  -4  -9 908.265 153.986   3
  -6   5  10 622.503 134.993   1
  -6   5  10 476.501 132.978   8
   6  -5 -10 337.298 99.7464   3
   6  -6 -11 498.572 128.906   3
   6   8   2 241.354 103.721   6
  -6  -7  -1 953.006 159.034   2
  -6  -7  -1 887.544 175.277   7
   6   7   1 1027.78 185.094   6
  -6  -6   0-21.5980 57.4147   7
   6   6   0 88.3466 49.0346   6
  -6  -6   0 122.871 43.0269   2
  -6  -5   1 2838.14 278.931   7
  -6  -5   1 2464.45 245.825   2
   6   5  -1 2044.78 226.088   6
   6   5  -1 2355.11 147.242   3
  -6  -4   2 46.3850 21.0111   7
   6   4  -2 39.9323 23.4919   6
   6   4  -2 25.6056 8.32149   3
  -6  -3   3 2052.92 210.496   7
   6   3  -3 2224.30 213.145   6
   6   3  -3 2501.82 176.725   3
  -6  -2   4 2730.90 227.984   1
  -6  -2   4 2468.48 227.279   7
   6   2  -4 2293.80 180.382   3
   6   1  -5 3314.98 134.445   4
  -6  -1   5 3271.90 262.286   8
   6   1  -5 3646.52 247.299   3
  -6  -1   5 3713.95 260.902   1
  -6   0   6 673.126 120.729   8
   6   0  -6 606.642 106.866   3
  -6   0   6 707.722 111.595   1
  -6   1   7 773.400 127.516   8
  -6   1   7 895.083 130.764   1
   6  -1  -7 772.491 126.134   3
  -6   2   8-9.80211 26.2633   8
  -6   2   8 38.7089 28.5190   1
   6  -2  -8 32.5543 28.5929   3
  -6   3   9-5.27326 43.3356   8
  -6   3   9-48.6471 31.7141   1
   6  -3  -9-36.2851 43.4975   3
  -6   4  10 1499.49 209.569   1
  -6   4  10 1260.59 198.273   8
   6  -4 -10 1373.36 199.838   3
  -6   5  11 71.5558 67.3298   8
   6  -5 -11-70.8339 70.1580   3
  -6  -8  -1-4.83763 41.1845   7
   6   8   1 64.2364 54.3750   6
  -6  -7   0-36.1876 45.7788   7
   6   7   0-28.3128 48.8105   6
  -6  -6   1 82.9399 46.7466   7
   6   6  -1 103.663 59.2552   6
  -6  -5   2 101.852 47.0379   7
   6   5  -2 10.4773 14.3484   6
   6   5  -2 63.8048 29.0293   3
  -6  -4   3 4435.62 327.856   7
   6   4  -3 4640.88 327.267   6
   6   4  -3 4932.66 248.255   3
  -6  -3   4 241.237 72.2297   1
  -6  -3   4 192.708 66.8897   7
   6   3  -4 126.694 38.7519   3
  -6  -2   5 1445.45 164.907   1
   6   2  -5 1321.63 85.9892   4
  -6  -2   5 1339.34 164.694   8
  -6  -2   5 1330.70 169.096   7
   6   2  -5 1220.24 138.773   3
  -6  -1   6 562.802 109.428   8
  -6  -1   6 583.681 104.778   1
   6   1  -6 584.297 104.220   3
  -6   0   7 1100.76 148.316   8
   6   0  -7 997.186 141.994   3
  -6   0   7 1076.20 147.994   1
  -6   1   8 1556.94 194.575   8
  -6   1   8 1506.75 181.787   1
   6  -1  -8 1316.18 167.528   3
  -6   2   9 160.885 59.3899   8
  -6   2   9 184.931 64.4145   1
   6  -2  -9 184.524 68.0241   3
  -6   3  10 705.080 142.314   8
  -6   3  10 851.626 158.142   1
   6  -3 -10 675.894 138.675   3
  -6   4  11 16.2278 26.1221   1
   6  -4 -11-17.9326 42.1633   3
  -6  -8   0 81.0865 50.0499   7
   6   8   0 95.6453 66.9796   6
  -6  -7   1 517.869 122.290   7
   6   7  -1 418.481 115.431   6
  -6  -6   2 764.184 149.650   7
   6   6  -2 670.610 133.315   6
   6   6  -2 716.974 89.4357   3
  -6  -5   3 1012.88 161.973   7
   6   5  -3 1088.42 165.388   6
   6   5  -3 1029.55 114.527   3
  -6  -4   4 365.788 93.4889   7
   6   4  -4 383.427 75.0141   3
  -6  -4   4 489.461 105.582   1
  -6  -3   5 52.6527 34.6774   7
  -6  -3   5 54.9576 16.0615   1
   6   3  -5 63.4404 32.1824   3
  -6  -2   6 1351.72 165.925   8
   6   2  -6 1231.42 145.309   3
  -6  -2   6 1439.05 174.333   1
  -6  -1   7 377.335 86.2237   1
  -6  -1   7 319.567 85.0116   8
   6   1  -7 346.672 80.7947   3
  -6   0   8 644.831 113.556   8
  -6   0   8 743.148 129.469   1
   6   0  -8 686.972 126.058   3
  -6   1   9 245.044 85.8151   8
  -6   1   9 231.735 75.5971   1
   6  -1  -9 265.664 78.1218   3
  -6   2  10-47.1269 43.1751   8
  -6   2  10-19.9752 45.3670   1
   6  -2 -10 27.2838 35.8000   3
  -6   3  11 20.9691 30.0786   1
  -6   3  11 52.5011 62.7580   8
   6  -3 -11 18.3794 20.0279   3
  -6   4  12 267.554 100.995   1
  -6   4  12 347.740 106.600   8
   6  -4 -12 400.837 110.883   3
  -6  -8   1 257.377 86.7929   7
   6   8  -1 146.946 57.6465   6
  -6  -7   2 955.572 175.079   7
   6   7  -2 1195.96 186.476   6
   6   6  -3 6283.39 419.929   6
   6   6  -3 6356.68 295.228   3
  -6  -5   4 2163.61 236.502   7
  -6  -5   4 2167.23 229.724   1
   6   5  -4 2156.67 175.244   3
  -6  -4   5 6137.27 397.880   7
   6   4  -5 6288.11 315.083   3
  -6  -4   5 7249.50 416.281   1
  -6  -3   6-22.7454 51.2492   7
   6   3  -6 9.43783 23.8463   3
  -6  -3   6 35.0444 37.8188   1
  -6  -2   7 1962.95 203.662   8
   6   2  -7 2186.58 204.264   3
  -6  -2   7 2071.31 212.109   1
  -6  -1   8 617.855 117.923   1
  -6  -1   8 673.062 120.046   8
   6   1  -8 609.542 112.335   3
  -6   0   9 200.795 65.4899   8
   6   0  -9 226.378 76.7849   3
  -6   0   9 171.237 55.3193   1
  -6   1  10 2122.17 243.449   8
  -6   1  10 2600.86 272.850   1
   6  -1 -10 2536.06 254.883   3
  -6   2  11 1292.51 207.388   1
  -6   2  11 922.906 167.594   8
   6  -2 -11 1253.92 189.862   3
  -6   3  12 854.893 176.929   1
  -6   3  12 783.630 167.877   8
   6  -3 -12 710.039 147.143   3
  -6  -9   1 137.612 64.0286   7
   6   9  -1 149.029 78.0601   6
  -6  -8   2 5703.94 451.426   7
   6   8  -2 4811.53 395.532   6
   6   7  -3 178.512 48.2866   3
  -6  -7   3 92.8932 50.7254   7
   6   7  -3 236.588 95.7988   6
  -6  -6   4 1220.28 182.794   7
   6   6  -4 1197.50 134.846   3
  -6  -5   5 3442.52 298.050   1
   6   5  -5 3263.80 230.674   3
  -6  -4   6 247.346 74.5751   1
  -6  -4   6 302.305 82.5381   7
   6   4  -6 228.763 64.0674   3
  -6  -3   7 5067.28 325.638   8
   6   3  -7 5665.49 332.282   3
  -6  -2   8 1206.06 162.587   8
   6   2  -8 1344.48 166.437   3
  -6  -2   8 1556.66 197.383   1
  -6  -1   9 1749.94 201.345   8
  -6  -1   9 1853.69 220.080   1
   6   1  -9 1837.12 203.466   3
  -6   0  10 774.987 135.625   8
   6   0 -10 923.461 153.730   3
  -6   0  10 725.797 137.946   1
  -6   1  11 375.845 104.381   8
  -6   1  11 524.925 133.990   1
   6  -1 -11 318.639 85.8167   3
  -6   2  12 2234.07 272.424   8
  -6   2  12 2891.65 330.772   1
   6  -2 -12 2566.33 279.821   3
  -6   3  13 161.114 92.0308   1
  -6   3  13 23.1097 41.7877   8
  -6  -9   2 239.712 91.8590   7
   6   9  -2 553.352 140.877   6
  -6  -8   3 166.797 79.9208   7
   6   8  -3 268.979 87.3097   6
  -6  -7   4 6800.92 460.255   7
   6   7  -4 8067.65 359.691   3
  -6  -6   5 145.396 72.9928   1
  -6  -6   5 174.993 77.3206   7
   6   6  -5 82.6031 37.7934   3
  -6  -5   6 1699.47 209.146   1
  -6  -5   6 1355.89 191.090   7
   6   5  -6 1772.51 173.524   3
  -6  -4   7 107.302 51.4093   1
   6   4  -7 175.269 58.6755   3
  -6  -3   8 886.838 136.483   8
  -6  -3   8 782.510 137.200   1
   6   3  -8 767.953 123.981   3
  -6  -2   9 210.658 78.0157   1
  -6  -2   9 231.041 70.7113   8
   6   2  -9 118.311 50.9299   3
  -6  -1  10 152.148 62.2936   8
  -6  -1  10 276.285 88.4462   1
   6   1 -10 202.483 68.5834   3
  -6   0  11-0.62267 22.3980   1
   6   0 -11 37.4763 55.3026   3
  -6   1  12 1317.74 202.019   8
  -6   1  12 1405.91 233.173   1
   6  -1 -12 1264.66 192.012   3
  -6   2  13 168.036 94.9427   8
  -6   2  13 137.269 87.3833   1
  -6  -9   3 135.799 61.2223   7
   6   9  -3 147.546 84.3596   6
   6   8  -4 258.177 68.8625   3
  -6  -8   4 197.876 82.6782   7
   6   7  -5 3712.54 255.764   3
  -6  -7   5 3857.93 340.217   1
  -6  -6   6-13.8946 33.2152   1
  -6  -6   6 8.76127 23.6496   7
   6   6  -6 7.78521 24.8390   3
  -6  -5   7 586.988 117.656   1
   6   5  -7 454.482 92.2239   3
  -6  -4   8 198.758 69.3572   1
   6   4  -8 164.609 56.2942   3
  -6  -3   9 3048.00 254.391   8
   6   3  -9 3136.74 265.213   3
  -6  -3   9 3284.37 303.488   1
  -6  -2  10 596.326 116.428   8
   6   2 -10 719.584 132.076   3
  -6  -2  10 512.407 117.736   1
  -6  -1  11 596.779 117.129   8
  -6  -1  11 390.239 107.711   1
   6   1 -11 510.363 119.446   3
  -6   0  12 27.8212 36.5034   8
  -6   0  12 150.580 75.6361   1
   6   0 -12 115.124 57.7711   3
  -6   1  13 65.4282 54.4773   8
  -6   1  13-45.6901 61.7917   1
   6  -1 -13 2.66446 25.2863   3
  -6  -9   4 3074.86 329.469   7
   6   9  -4 3434.25 353.684   6
  -6  -8   5 2377.76 282.862   7
   6   8  -5 3671.78 259.259   3
  -6  -7   6 2962.40 304.421   7
   6   7  -6 2704.67 227.459   3
  -6  -6   7 1407.87 199.380   1
  -6  -6   7 1522.53 208.872   7
   6   6  -7 1214.31 153.938   3
  -6  -5   8 406.026 111.507   1
   6   5  -8 346.600 86.4903   3
  -6  -4   9 793.680 148.701   1
   6   4  -9 668.630 119.062   3
  -6  -3  10 3657.15 286.667   8
   6   3 -10 4003.44 315.753   3
  -6  -3  10 4508.89 369.681   1
  -6  -2  11 1134.30 164.716   8
  -6  -2  11 1228.86 200.222   1
   6   2 -11 1260.78 180.421   3
  -6  -1  12 809.233 141.411   8
  -6  -1  12 1174.95 200.272   1
   6   1 -12 1203.16 185.481   3
  -6   0  13 1506.27 215.515   8
  -6   0  13 1318.18 231.203   1
   6   0 -13 1269.22 198.026   3
   6   9  -5 123.840 54.8564   3
  -6  -9   5 111.883 83.6594   7
  -6  -8   6 1767.87 245.874   7
  -6  -8   6 2410.08 282.370   1
   6   8  -6 1919.36 192.837   3
  -6  -7   7 1989.42 252.599   7
  -6  -7   7 2281.08 264.776   1
   6   7  -7 2467.43 226.649   3
  -6  -6   8 5469.56 411.674   1
   6   6  -8 5239.14 337.876   3
   6   5  -9 1476.97 182.425   3
  -6  -5   9 1616.40 218.745   1
  -6  -4  10 1474.33 173.523   8
   6   4 -10 1559.74 191.849   3
  -6  -4  10 1712.77 232.393   1
  -6  -3  11 33.4464 37.1877   8
   6   3 -11 16.2373 22.4214   3
  -6  -3  11 42.8924 35.6846   1
  -6  -2  12 344.493 94.3397   8
  -6  -2  12 514.318 140.381   1
   6   2 -12 355.689 100.207   3
   6   1 -13 1148.15 186.688   3
  -6  -1  13 1238.10 218.082   1
  -6 -10   5 114.249 85.1248   7
  -6  -9   6 3322.43 346.481   7
   6   9  -6 3977.73 288.639   3
   6   8  -7 452.759 99.4087   3
  -6  -8   7 512.174 131.638   7
  -6  -8   7 437.752 121.517   1
  -6  -7   8 860.168 163.690   1
   6   7  -8 1101.27 160.405   3
  -6  -6   9-4.82801 24.6248   1
   6   6  -9 0.75087 25.4088   3
   6   5 -10 2157.08 228.014   3
  -6  -5  10 2115.50 257.504   1
  -6  -4  11 1410.85 217.049   1
   6   4 -11 1323.10 185.764   3
  -6  -3  12 1446.08 231.246   1
   6   3 -12 1484.11 204.944   3
  -6  -2  13 475.387 142.174   1
   6   2 -13 591.338 132.453   3
   6  10  -6 890.054 140.600   3
   6   9  -7 546.493 113.111   3
  -6  -9   7 383.654 121.250   7
  -6  -9   7 601.776 152.017   1
   6   8  -8 1116.12 159.975   3
  -6  -8   8 712.622 162.317   1
  -6  -7   9 51.8013 39.0407   1
   6   7  -9 107.312 60.6949   3
  -6  -6  10 814.307 166.881   1
   6   6 -10 922.064 148.105   3
  -6  -5  11 208.401 92.3461   1
   6   5 -11 111.156 49.2199   3
  -6  -4  12 88.8646 64.0035   1
   6   4 -12 79.9388 46.1964   3
  -6  -3  13-16.8095 37.4928   1
   6  10  -7 633.497 121.104   3
   6   9  -8 311.173 86.7383   3
  -6  -9   8 287.942 110.128   1
  -6  -8   9 633.649 148.429   1
   6   8  -9 814.981 144.732   3
  -6  -7  10 157.978 78.8176   1
   6   7 -10 74.9091 40.2821   3
  -6  -6  11 571.168 151.537   1
   6   6 -11 622.140 125.910   3
  -6  -5  12 869.557 180.812   1
   6   5 -12 528.288 119.178   3
   6  10  -8 184.862 69.6909   3
   6   9  -9 449.834 110.150   3
  -6  -8  10-33.2793 56.8543   1
   6   8 -10 15.5315 25.0447   3
  -6  -7  11 1110.89 207.269   1
   6   7 -11 1106.79 173.845   3
  -7   8  -8 321.149 100.854   2
  -7   9  -7-49.1348 50.2250   2
  -7  11  -5 50.2274 54.4771   5
  -7  12  -4 103.714 54.4809   5
  -7   7  -8 212.453 83.2416   2
   7  -8   7 495.813 129.128   4
  -7   8  -7 457.064 109.717   2
   7  -9   6 754.654 151.065   4
  -7   9  -6 791.895 145.748   2
   7 -10   5 358.355 103.195   4
  -7  10  -5 118.678 69.8093   5
   7 -11   4 165.719 85.3065   4
  -7  11  -4 209.765 84.8017   5
  -7  12  -3 141.998 74.8724   5
  -7   6  -8 103.113 62.0121   2
   7  -7   7 385.932 109.225   4
  -7   7  -7 377.685 103.149   2
   7  -8   6 728.013 145.947   4
  -7   8  -6 836.944 146.344   2
   7  -9   5 3.74919 32.2883   4
  -7   9  -5 32.8925 24.5079   2
   7 -10   4 617.651 138.205   4
  -7  10  -4 629.848 146.431   5
   7 -11   3 172.186 77.3524   4
  -7  11  -3 31.7939 21.1087   5
  -7  12  -2 123.060 73.7596   5
  -7   5  -8 89.1354 45.1666   2
   7  -5   8-40.4222 57.9567   6
   7  -6   7 91.7344 48.4803   4
  -7   6  -7 154.894 61.6976   2
   7  -7   6 243.146 90.6972   4
  -7   7  -6 136.791 57.5798   2
   7  -8   5-27.0708 19.6616   4
  -7   8  -5-26.0920 29.3308   2
   7  -9   4 576.679 124.051   4
  -7   9  -4 682.678 119.493   2
  -7   9  -4 647.694 132.758   5
  -7  10  -3 338.701 87.2918   8
   7 -10   3 481.596 118.398   4
  -7  10  -3 437.072 121.230   5
   7 -11   2 1811.78 228.903   4
  -7  11  -2 1729.81 218.692   8
  -7  11  -2 2095.89 276.684   5
  -7  12  -1 187.948 84.3790   5
  -7   4  -8 413.497 125.402   2
   7  -4   8 443.966 125.371   6
  -7   5  -7 317.774 98.4570   2
   7  -5   7 411.574 108.943   6
   7  -6   6 1799.68 238.275   4
  -7   6  -6 1553.71 204.930   2
   7  -7   5 631.713 136.997   4
  -7   7  -5 544.253 116.886   2
   7  -8   4-9.28938 22.4314   4
  -7   8  -4 60.1963 34.7377   2
  -7   8  -4-15.3369 31.8413   5
  -7   9  -3 149.655 60.0713   8
   7  -9   3 142.810 50.6800   4
  -7   9  -3 238.433 72.0029   2
  -7   9  -3 188.483 81.3379   5
  -7  10  -2 56.9993 53.5315   8
   7 -10   2 56.0975 31.1368   4
  -7  10  -2 1.67179 44.4767   5
  -7  11  -1 223.143 79.4612   8
   7 -11   1 324.640 87.5848   4
  -7  11  -1 316.516 101.266   5
  -7  12   0 33.6346 34.1794   8
   7 -12   0-18.2820 25.3953   4
  -7   3  -8 3852.62 364.270   2
   7  -3   8 3659.06 345.489   6
  -7   4  -7 154.282 77.6238   2
   7  -4   7 56.4026 34.4564   6
  -7   5  -6 2917.88 284.892   2
   7  -5   6 2748.86 262.372   6
   7  -6   5 1458.28 209.209   4
  -7   6  -5 1487.58 194.804   2
   7  -6   5 1807.05 205.138   6
   7  -7   4 5183.89 379.469   4
  -7   7  -4 5727.90 366.595   2
   7  -8   3 2348.77 250.571   4
  -7   8  -3 2577.47 232.520   2
  -7   8  -3 2534.35 254.108   5
   7  -9   2 1875.42 222.294   4
  -7   9  -2 2056.24 205.497   2
  -7   9  -2 1859.54 223.521   8
  -7   9  -2 2006.05 240.012   5
   7 -10   1 2040.28 233.294   4
  -7  10  -1 2315.89 254.483   8
  -7  10  -1 2256.10 275.485   5
  -7  11   0 99.4354 56.8442   5
  -7  11   0 190.579 75.4121   8
   7 -11   0 93.0283 43.8486   4
  -7  12   1 986.841 200.704   5
   7 -12  -1 1017.68 170.106   4
  -7  12   1 895.563 172.939   8
   7  -2   8 109.166 65.5206   6
  -7   3  -7 90.8339 60.9447   2
   7  -3   7 146.700 70.5832   6
  -7   4  -6 1976.80 236.784   2
   7  -4   6 1990.92 223.570   6
   7  -5   5 656.098 123.382   6
  -7   5  -5 626.495 129.261   2
   7  -5   5 573.500 122.171   4
   7  -6   4 3848.37 327.580   4
  -7   6  -4 4438.52 328.832   2
   7  -6   4 4918.25 314.507   6
   7  -7   3 33.3239 33.9680   4
  -7   7  -3 32.6102 45.8356   2
  -7   7  -3-9.17058 11.6865   5
   7  -8   2 4116.14 319.044   4
  -7   8  -2 4628.80 350.279   8
  -7   8  -2 5065.29 318.569   2
  -7   8  -2 5018.71 356.416   5
  -7   9  -1 124.833 61.1441   8
   7  -9   1 118.259 49.0057   4
  -7   9  -1 277.280 95.7000   5
   7 -10   0 1728.98 211.197   4
  -7  10   0 1795.96 224.050   8
  -7  10   0 2034.87 264.564   5
  -7  11   1 550.131 142.145   5
  -7  11   1 428.781 118.478   8
   7 -11  -1 367.650 99.5914   4
  -7  12   2 266.915 95.8480   5
  -7  12   2 221.250 73.5502   8
  -7   1  -8 32.5482 17.6282   7
  -7   2  -7 129.360 69.0296   7
  -7   2  -7 90.5741 59.3443   2
   7  -2   7 100.679 55.2253   6
  -7   3  -6 115.943 58.3498   2
   7  -3   6 98.9931 46.8591   6
  -7   4  -5 2.16865 30.3594   2
   7  -4   5-17.4623 33.8549   6
   7  -5   4 1138.22 173.304   4
  -7   5  -4 1442.72 185.898   2
   7  -5   4 1412.38 163.947   6
   7  -6   3 62.1261 43.9761   4
  -7   6  -3 31.9330 28.6806   2
   7  -6   3 61.7472 29.9338   6
  -7   6  -3 66.7898 37.3290   5
  -7   7  -2 213.002 68.9130   8
   7  -7   2 362.873 91.8483   4
  -7   7  -2 321.476 81.1747   2
  -7   7  -2 296.701 82.0927   5
  -7   8  -1 171.018 69.4438   8
   7  -8   1 202.436 68.5564   4
  -7   8  -1 151.103 52.3653   2
  -7   8  -1 283.993 89.3599   5
   7  -9   0 2406.28 240.754   4
  -7   9   0 2241.14 250.652   8
  -7   9   0 2388.24 269.635   5
  -7  10   1-22.3848 33.0378   5
  -7  10   1 57.9731 31.4435   8
   7 -10  -1 9.93795 21.9152   4
  -7  11   2 319.424 105.578   5
  -7  11   2 186.016 74.5402   8
   7 -11  -2 395.497 99.1208   4
  -7   0  -8-25.3372 47.4021   7
  -7   1  -7 2629.17 292.819   2
  -7   1  -7 2656.55 273.962   7
   7  -1   7 2962.92 310.394   6
  -7   2  -6 25.3222 31.0374   7
  -7   2  -6 0.57623 16.5170   2
   7  -2   6 58.1613 38.6857   6
  -7   3  -5 588.327 103.233   7
  -7   3  -5 602.449 125.148   2
   7  -3   5 628.404 123.358   6
  -7   4  -4 3904.21 313.928   2
   7  -4   4 3733.58 276.702   6
   7  -5   3 262.147 83.4682   4
  -7   5  -3 163.695 63.3554   2
   7  -5   3 190.840 56.4831   6
   7  -6   2 6099.35 380.948   4
  -7   6  -2 6396.11 407.379   8
  -7   6  -2 6826.52 384.974   2
   7  -6   2 7009.65 326.438   6
  -7   6  -2 7377.73 376.871   5
  -7   7  -1 395.795 106.015   8
   7  -7   1 323.760 81.5723   4
  -7   7  -1 437.950 97.0732   2
  -7   7  -1 383.971 90.9341   5
   7  -8   0 1128.16 158.484   4
  -7   8   0 1294.50 183.654   8
  -7   8   0 1495.86 196.196   5
   7  -9  -1 1096.45 156.609   4
  -7   9   1 1099.13 175.058   8
  -7   9   1 1220.08 191.656   5
  -7  10   2 442.192 121.865   5
  -7  10   2 527.498 129.868   8
   7 -10  -2 531.697 111.958   4
  -7  11   3 144.165 65.5280   5
  -7  11   3 298.094 94.9152   8
   7 -11  -3 267.482 78.3970   4
  -7  -1  -8 364.264 107.837   7
  -7   0  -7 211.920 84.4380   7
  -7   0  -7 184.516 77.6439   2
   7   0   7 222.780 88.6140   6
  -7   1  -6 2255.98 260.599   2
  -7   1  -6 2583.60 254.154   7
   7  -1   6 2613.59 274.542   6
  -7   2  -5 3330.96 300.450   2
  -7   2  -5 2909.89 250.818   7
   7  -2   5 3153.39 281.954   6
  -7   3  -4 902.676 150.117   2
  -7   3  -4 1083.77 137.491   7
   7  -3   4 1138.39 155.654   6
  -7   4  -3 1372.16 133.753   7
  -7   4  -3 1180.40 167.887   2
   7  -4   3 1501.61 167.173   6
   7  -5   2 3116.49 270.759   4
  -7   5  -2 3198.83 261.561   2
   7  -5   2 3403.47 223.193   6
  -7   5  -2 3630.66 235.992   5
  -7   6  -1 100.368 34.7478   5
  -7   6  -1 85.1931 33.3887   8
   7  -6   1 37.0402 24.9898   4
  -7   6  -1 80.4244 31.3848   2
  -7   7   0 10637.9 534.661   8
  -7   7   0 11932.6 519.679   2
  -7   7   0 11825.1 531.106   5
  -7   8   1-7.66816 43.9872   5
  -7   8   1 56.7265 41.8744   8
   7  -8  -1-57.4988 44.8953   4
  -7   9   2 247.415 84.3309   5
  -7   9   2 243.343 93.9825   8
   7  -9  -2 295.240 78.7668   4
  -7  10   3 325.850 112.752   5
  -7  10   3 379.475 114.995   8
   7 -10  -3 289.026 80.3232   4
  -7  11   4-9.54055 54.5909   5
  -7  11   4-9.46920 51.9025   8
   7 -11  -4 38.7116 47.9758   4
  -7  -1  -7 1261.98 208.458   7
  -7   0  -6 53.8152 37.2799   7
  -7   0  -6 15.6337 22.1859   2
   7   0   6 39.4869 26.3968   6
  -7   1  -5 2228.45 250.249   2
  -7   1  -5 2352.37 232.708   7
   7  -1   5 2396.27 251.872   6
  -7   2  -4 1062.76 170.477   2
  -7   2  -4 898.740 132.050   7
   7  -2   4 914.723 146.490   6
  -7   3  -3 119.394 46.5302   7
  -7   3  -3 87.9565 40.2925   2
   7  -3   3 66.1647 26.4732   6
   7  -4   2 997.894 149.649   4
  -7   4  -2 1253.06 126.737   7
  -7   4  -2 1258.36 163.524   2
   7  -4   2 1230.24 141.310   6
  -7   5  -1 92.6849 31.9342   5
  -7   5  -1 52.7900 16.3514   8
   7  -5   1 62.4781 33.2200   4
   7  -5   1 54.4380 24.3122   6
  -7   5  -1 70.7976 33.7408   2
  -7   6   0 48.2090 31.4199   5
  -7   6   0 61.1283 40.3288   8
   7  -6   0 68.6892 41.5963   4
  -7   6   0 51.8639 42.2943   2
  -7   7   1 563.947 116.087   5
  -7   7   1 549.100 118.328   8
   7  -7  -1 581.416 109.562   4
  -7   8   2 683.028 137.404   5
  -7   8   2 572.677 125.941   8
   7  -8  -2 627.618 109.312   4
  -7   9   3 160.869 78.3083   5
  -7   9   3 259.612 94.1216   8
   7  -9  -3 186.653 62.1604   4
  -7  10   4 91.4075 63.2434   5
  -7  10   4-20.8660 32.0444   8
   7 -10  -4 106.517 48.5233   4
   7 -11  -5 531.334 119.606   4
  -7  -2  -7 731.315 168.060   7
  -7  -1  -6 296.753 91.5166   7
  -7  -1  -6 301.143 101.595   2
   7   1   6 176.770 72.1924   6
  -7   0  -5 1387.11 199.405   2
  -7   0  -5 1403.33 188.967   7
   7   0   5 1419.91 200.209   6
  -7   1  -4 31.8928 38.9548   7
  -7   1  -4 45.0713 43.3628   2
   7  -1   4 62.0437 39.7674   6
  -7   2  -3 731.338 117.360   7
   7  -2   3 775.821 128.120   6
  -7   2  -3 740.453 131.854   2
  -7   3  -2 2418.04 191.006   7
  -7   3  -2 2568.04 236.087   2
   7  -3   2 2473.56 206.241   6
  -7   4  -1 15.4994 20.5064   5
   7  -4   1 13.8223 28.2645   4
  -7   4  -1 15.2220 11.8687   7
   7  -4   1-8.49168 19.9778   6
  -7   4  -1-17.0846 20.3054   2
  -7   5   0 82.7367 33.9248   5
  -7   5   0 58.1401 50.9639   8
   7  -5   0 81.8534 40.0254   4
   7  -5   0 78.0794 29.4413   6
  -7   5   0 93.3700 51.0314   2
  -7   6   1 176.501 68.8808   5
  -7   6   1 213.434 76.9374   8
   7  -6  -1 157.253 60.1143   4
  -7   7   2 119.585 44.9590   5
  -7   7   2 182.851 69.1577   8
   7  -7  -2 219.697 63.8078   4
  -7   8   3 574.357 127.804   5
  -7   8   3 463.275 119.156   8
   7  -8  -3 439.538 92.6727   4
  -7   9   4 319.383 100.226   5
  -7   9   4 203.603 85.5347   8
   7  -9  -4 209.233 70.7665   4
  -7  10   5 163.271 63.7883   5
  -7  10   5 140.185 67.0502   8
   7 -10  -5 63.0198 13.1700   4
  -7  -2  -6 747.890 163.549   7
   7   2   6 936.165 178.631   6
  -7  -2  -6 967.382 174.470   2
  -7  -1  -5 585.952 129.500   7
   7   1   5 785.416 155.164   6
  -7  -1  -5 560.657 130.113   2
  -7   0  -4 381.650 95.1985   7
  -7   0  -4 432.767 105.941   2
   7   0   4 282.272 83.5163   6
  -7   1  -3 3268.70 260.611   7
  -7   1  -3 3073.99 280.361   2
   7  -1   3 3474.52 279.298   6
  -7   2  -2 1809.89 180.437   7
  -7   2  -2 1674.11 194.004   2
   7  -2   2 1686.14 139.978   3
   7  -2   2 1585.89 171.615   6
  -7   3  -1 2760.83 202.320   7
  -7   3  -1 2450.71 230.847   2
   7  -3   1 2241.01 187.119   6
   7  -4   0 6233.82 350.178   4
  -7   4   0 6021.78 387.295   8
  -7   4   0 6538.93 376.144   2
   7  -4   0 6608.16 287.943   6
  -7   4   0 6896.44 288.850   5
   7  -5  -1 9983.53 434.991   4
  -7   5   1 8967.70 491.258   8
  -7   6   2 234.661 69.8720   5
  -7   6   2 197.384 84.4242   8
   7  -6  -2 217.901 64.1911   4
  -7   7   3 152.038 69.2843   5
  -7   7   3 218.657 82.6486   8
   7  -7  -3 97.5463 41.7734   4
  -7   8   4 25.2318 50.0420   5
  -7   8   4-16.0683 27.0879   8
   7  -8  -4 48.9412 36.5711   4
  -7   9   5 805.220 170.219   5
   7  -9  -5 790.715 130.628   4
  -7   9   5 798.226 172.182   8
  -7  10   6 1083.80 212.658   5
   7 -10  -6 890.840 146.700   4
  -7  -3  -6 63.8810 44.0059   7
  -7  -3  -6 114.121 66.0083   2
  -7  -2  -5 1105.32 189.196   2
  -7  -2  -5 798.305 157.608   7
   7   2   5 1002.99 178.002   6
  -7  -1  -4 206.506 76.2791   7
   7   1   4 250.235 82.4038   6
  -7  -1  -4 182.108 74.5038   2
  -7   0  -3 1072.52 157.725   7
  -7   0  -3 1188.21 175.557   2
   7   0   3 1149.97 165.392   6
  -7   1  -2 146.394 52.8555   7
   7  -1   2 100.207 56.3230   6
  -7   1  -2 99.1102 55.9819   2
  -7   2  -1 811.106 116.872   7
  -7   2  -1 948.178 143.746   2
   7  -2   1 911.997 108.470   3
   7  -2   1 879.698 121.267   6
  -7   3   0 215.919 41.8804   5
  -7   3   0 106.117 39.3560   8
   7  -3   0 116.744 37.9104   4
  -7   3   0 157.394 52.4844   7
   7  -3   0 168.743 51.4991   6
  -7   3   0 194.294 61.8843   2
  -7   4   1 161.948 47.2669   5
  -7   4   1 87.4311 42.5744   8
   7  -4  -1 85.2274 26.1401   4
   7  -4  -1 116.803 35.8621   6
  -7   4   1 179.797 63.3192   2
   7  -5  -2 11385.4 449.150   4
  -7   5   2 11715.3 564.787   8
  -7   5   2 13012.6 496.608   5
  -7   6   3 20.8413 24.1780   5
  -7   6   3 69.7896 42.0190   8
   7  -6  -3 38.6569 17.7632   4
   7  -7  -4 1166.39 139.455   4
  -7   7   4 1271.63 200.404   8
  -7   7   4 1299.16 183.133   5
  -7   8   5 222.716 82.1598   5
  -7   8   5 161.731 70.1647   8
   7  -8  -5 150.453 60.8178   4
  -7   9   6 184.257 91.7424   5
  -7   9   6 142.575 54.8641   8
   7  -9  -6 150.227 58.1069   4
  -7  -3  -5 3762.30 347.577   2
  -7  -3  -5 3596.50 350.287   7
   7   3   5 3936.65 363.036   6
  -7  -2  -4 1852.56 234.035   2
  -7  -2  -4 1973.46 241.397   7
   7   2   4 1637.30 220.804   6
  -7  -1  -3 1486.00 191.843   7
  -7  -1  -3 1548.35 197.871   2
   7   1   3 1485.75 195.935   6
  -7   0  -2 2756.48 247.095   7
  -7   0  -2 2697.74 255.644   2
   7   0   2 2813.10 246.796   6
  -7   1  -1 2083.54 198.451   7
  -7   1  -1 2617.40 245.134   2
   7  -1   1 2512.81 168.874   3
   7  -1   1 2436.55 212.316   6
  -7   2   0 4203.03 266.870   7
  -7   2   0 4460.16 314.029   2
   7  -2   0 4151.88 247.017   3
   7  -2   0 4076.06 252.557   6
   7  -3  -1 1706.69 170.627   4
  -7   3   1 1429.56 183.564   8
  -7   3   1 2177.02 182.305   7
  -7   3   1 2161.06 221.088   2
   7  -3  -1 1811.08 148.673   6
  -7   3   1 1811.33 132.248   5
  -7   4   2 76.1057 36.3826   5
  -7   4   2 117.188 56.7139   8
   7  -4  -2 111.854 41.9290   4
   7  -4  -2 109.317 31.1260   6
   7  -5  -3 627.171 98.2297   4
  -7   5   3 605.816 125.169   8
  -7   5   3 619.673 109.162   5
  -7   6   4 43.5484 32.1564   5
  -7   6   4 79.6310 46.7264   8
   7  -6  -4 11.5643 16.6826   4
   7  -7  -5 986.479 127.994   4
  -7   7   5 943.214 171.161   8
  -7   7   5 1023.43 171.761   5
  -7   8   6 161.896 70.5946   5
  -7   8   6 209.398 90.3445   8
   7  -8  -6 183.368 54.9499   4
  -7   9   7 1545.46 245.565   5
  -7  -4  -5 164.422 80.3448   7
  -7  -4  -5 116.351 61.0027   2
  -7  -3  -4 220.568 72.0986   7
   7   3   4 194.509 67.8614   6
  -7  -3  -4 220.266 75.3229   2
  -7  -2  -3 207.924 75.2784   7
   7   2   3 228.298 71.5035   6
  -7  -2  -3 127.331 52.4965   2
  -7  -1  -2 107.928 49.4651   7
   7   1   2 124.360 60.3957   6
  -7  -1  -2 189.858 70.5948   2
  -7   0  -1 3597.97 280.569   7
  -7   0  -1 4066.05 311.063   2
   7   0   1 3227.19 258.514   6
  -7   1   0 2254.34 204.719   7
  -7   1   0 2356.70 232.457   2
   7  -1   0 2248.97 170.353   3
   7  -1   0 2133.05 195.475   6
  -7   2   1 472.436 105.302   8
   7  -2  -1 398.306 81.2100   4
  -7   2   1 517.635 94.1028   7
   7  -2  -1 479.964 80.4174   6
   7  -2  -1 542.317 89.3438   3
  -7   2   1 378.710 92.1899   2
  -7   3   2 253.578 54.6638   5
  -7   3   2 375.889 97.7849   8
   7  -3  -2 262.931 59.0221   4
   7  -3  -2 284.565 69.9106   3
   7  -3  -2 264.602 54.1876   6
   7  -4  -3 782.320 105.935   4
  -7   4   3 853.886 145.961   8
  -7   4   3 713.555 106.122   5
  -7   5   4-29.7076 23.9351   5
  -7   5   4 20.9665 17.7544   8
   7  -5  -4 4.37722 19.2026   4
  -7   6   5-33.7342 39.2638   5
  -7   6   5-20.1549 37.1523   8
   7  -6  -5 29.6843 33.4667   4
  -7   7   6 38.8721 55.1876   5
  -7   7   6 46.2340 36.8775   8
   7  -7  -6 11.6656 28.9187   4
  -7   8   7-16.6630 20.6949   5
  -7   8   7-2.61692 58.0787   8
  -7  -4  -4-45.2284 66.0500   7
   7   4   4 73.1807 60.7485   6
  -7  -4  -4 15.4304 36.2379   2
  -7  -3  -3 69.2893 57.6987   7
   7   3   3-21.8126 26.2094   6
  -7  -3  -3-17.0375 38.8318   2
  -7  -2  -2-1.71942 30.5153   7
   7   2   2 52.2848 19.7120   6
  -7  -2  -2 24.8297 35.6168   2
  -7  -1  -1 580.173 113.018   7
   7   1   1 625.845 121.645   6
  -7  -1  -1 584.306 121.219   2
  -7   0   0 155.662 49.9924   7
   7   0   0 212.075 53.3290   6
   7   0   0 237.228 50.3532   3
  -7   0   0 310.970 77.0746   2
  -7   1   1 240.763 69.1373   7
   7  -1  -1 276.571 59.1527   3
   7  -1  -1 314.497 69.2182   6
  -7   1   1 392.989 98.0530   2
  -7   2   2-24.3692 45.4606   8
   7  -2  -2 1.49532 22.4343   4
  -7   2   2 2.77297 28.0324   7
   7  -2  -2-21.6135 31.6143   3
   7  -2  -2-0.42066 31.4912   6
   7  -3  -3 1749.87 155.727   4
  -7   3   3 1811.32 210.210   8
   7  -3  -3 1615.89 175.953   3
   7  -3  -3 1839.89 129.157   6
  -7   3   3 2016.30 167.876   5
  -7   4   4 423.963 86.5511   5
   7  -4  -4 432.751 75.9942   4
  -7   4   4 362.243 90.3852   8
  -7   4   4 427.854 65.1055   1
   7  -4  -4 363.933 89.3379   3
  -7   5   5 121.303 50.9830   5
  -7   5   5 136.106 72.0493   8
   7  -5  -5 202.914 51.4795   4
  -7   6   6-20.7560 32.1393   5
  -7   6   6 34.7258 38.3725   8
   7  -6  -6 27.1337 36.4115   4
  -7   7   7 352.029 108.843   5
  -7   7   7 516.433 127.205   8
   7  -7  -7 378.355 105.031   3
   7  -8  -8 1700.20 244.726   3
  -7   8   8 1351.60 231.088   5
  -7  -5  -4 1.82959 19.8564   2
  -7  -4  -3 2776.24 304.199   7
  -7  -4  -3 2172.02 252.464   2
   7   4   3 2264.20 267.185   6
  -7  -3  -2 2242.09 254.863   7
  -7  -3  -2 2469.87 259.125   2
   7   3   2 2292.35 257.720   6
  -7  -2  -1 1042.44 164.466   7
  -7  -2  -1 1090.22 167.010   2
   7   2   1 868.965 146.247   6
  -7  -1   0 5472.54 366.327   7
  -7  -1   0 6201.57 388.338   2
   7   1   0 6302.04 374.087   6
  -7   0   1 2396.28 220.897   7
  -7   0   1 2546.55 249.340   2
   7   0  -1 2614.03 184.074   3
   7   0  -1 2305.60 205.630   6
  -7   1   2 539.058 114.152   8
  -7   1   2 456.151 95.3911   7
   7  -1  -2 307.261 64.3945   3
   7  -1  -2 376.254 75.4362   6
   7  -2  -3 944.246 109.040   4
  -7   2   3 1319.42 181.324   8
   7  -2  -3 921.484 126.354   3
   7  -2  -3 993.325 107.969   6
  -7   3   4 396.019 78.7742   5
   7  -3  -4 411.083 73.6861   4
  -7   3   4 487.259 111.431   8
  -7   3   4 435.371 73.5947   1
   7  -3  -4 404.820 58.1858   6
   7  -3  -4 331.905 79.1915   3
   7  -4  -5 609.110 83.4370   4
  -7   4   5 643.553 128.422   8
   7  -4  -5 583.922 110.805   3
  -7   4   5 656.330 118.611   5
  -7   4   5 633.508 89.3187   1
  -7   5   6 227.333 75.6315   5
  -7   5   6 185.358 72.0733   8
   7  -5  -6 107.519 34.7401   4
   7  -5  -6 115.940 47.9781   3
  -7   6   7 101.509 56.1168   5
  -7   6   7 103.901 46.3416   8
   7  -6  -7 96.8513 54.9901   3
  -7   7   8 94.5972 61.2999   5
   7  -7  -8-2.58091 49.0421   3
  -7  -6  -4 42.8162 46.1278   2
  -7  -5  -3 3099.63 339.356   7
  -7  -5  -3 4160.67 355.503   2
   7   5   3 3613.74 353.039   6
  -7  -4  -2 2006.33 249.655   7
  -7  -4  -2 1557.69 209.352   2
   7   4   2 1924.73 241.836   6
  -7  -3  -1 4739.88 367.705   7
  -7  -3  -1 4304.35 336.924   2
   7   3   1 4861.12 367.229   6
  -7  -2   0 4050.72 322.964   7
  -7  -2   0 4398.18 329.745   2
   7   2   0 3880.62 308.226   6
  -7  -1   1 3730.56 287.657   7
  -7  -1   1 3994.99 315.557   2
   7   1  -1 3496.63 205.214   3
   7   1  -1 3465.89 269.618   6
  -7   0   2 18014.4 651.196   7
   7   0  -2 19168.2 558.302   3
   7   0  -2 19231.7 622.246   6
   7  -1  -3 1171.61 124.310   4
  -7   1   3 1207.38 170.371   8
  -7   1   3 1411.03 161.738   7
   7  -1  -3 1232.00 145.336   3
   7  -1  -3 1241.56 134.763   6
   7  -2  -4 8055.54 307.591   4
  -7   2   4 8055.37 457.289   8
  -7   2   4 9052.26 369.358   1
   7  -2  -4 7764.28 394.611   3
   7  -2  -4 7866.41 313.643   6
  -7   3   5 175.955 65.5683   8
   7  -3  -5 173.050 40.8280   4
   7  -3  -5 119.080 46.1775   3
  -7   3   5 187.324 50.1122   1
  -7   4   6 560.107 124.130   8
   7  -4  -6 759.643 135.987   3
  -7   4   6 803.956 105.972   1
  -7   4   6 646.861 123.989   5
  -7   5   7 2233.75 265.934   8
   7  -5  -7 1962.65 235.308   3
  -7   5   7 2186.80 247.818   5
  -7   6   8 1171.96 205.056   8
   7  -6  -8 1330.46 202.395   3
  -7   6   8 1148.79 192.584   5
   7  -7  -9 1382.89 219.219   3
  -7   7   9 1592.46 247.207   5
  -7  -6  -3 513.915 130.156   2
  -7  -5  -2-4.49059 44.2236   7
   7   5   2-48.0745 59.9549   6
  -7  -5  -2 93.4569 56.5805   2
  -7  -4  -1 800.149 147.351   2
  -7  -4  -1 894.905 163.008   7
   7   4   1 886.819 159.290   6
  -7  -3   0 182.141 70.3010   7
   7   3   0 283.169 90.3978   6
  -7  -3   0 222.791 79.1398   2
  -7  -2   1 9088.96 479.245   7
   7   2  -1 9433.20 478.708   6
   7   2  -1 9696.72 338.236   3
  -7  -1   2 5156.51 341.078   7
   7   1  -2 4452.14 250.616   3
   7   1  -2 4756.33 310.438   6
  -7   0   3 2942.31 268.379   8
  -7   0   3 3440.56 271.618   7
   7   0  -3 3335.71 231.374   3
   7   0  -3 3385.19 238.691   6
   7  -1  -4 5855.68 258.175   4
  -7   1   4 8241.64 458.582   8
  -7   1   4 8268.50 368.648   1
   7  -1  -4 6737.46 358.947   3
   7  -1  -4 6536.75 307.944   6
  -7   2   5 1462.61 149.193   1
   7  -2  -5 1200.98 106.720   4
  -7   2   5 1417.15 186.012   8
   7  -2  -5 1326.77 164.769   3
   7  -2  -5 1248.75 116.500   6
  -7   3   6 6073.51 402.835   8
   7  -3  -6 6677.36 401.405   3
  -7   3   6 6699.30 328.503   1
  -7   4   7 303.484 73.5259   1
  -7   4   7 222.839 83.5011   8
   7  -4  -7 397.062 103.635   3
  -7   5   8 1963.91 255.401   8
   7  -5  -8 1956.29 238.720   3
  -7   6   9 468.588 133.929   8
   7  -6  -9 366.378 107.610   3
  -7  -6  -2 29.0268 54.6731   7
   7   6   2 86.8221 50.0278   6
  -7  -6  -2 41.7729 47.7357   2
  -7  -5  -1 1126.16 192.857   7
  -7  -5  -1 1424.89 199.895   2
   7   5   1 1305.09 203.149   6
  -7  -4   0 415.374 111.269   7
   7   4   0 554.090 124.610   6
  -7  -4   0 440.824 112.274   2
  -7  -3   1 3312.84 301.329   7
  -7  -3   1 3519.99 316.994   2
   7   3  -1 2711.68 260.860   6
  -7  -2   2 2.30453 28.4773   7
   7   2  -2 37.7874 17.9039   6
   7   2  -2 58.7186 25.3587   3
  -7  -1   3 631.827 118.711   7
   7   1  -3 823.542 111.807   3
   7   1  -3 680.209 109.810   6
   7   0  -4 397.269 65.7616   4
  -7   0   4 446.990 95.4665   7
  -7   0   4 447.233 89.0230   1
   7   0  -4 305.814 67.0973   6
   7   0  -4 373.436 76.7172   3
  -7   0   4 427.514 101.837   8
  -7   1   5 2074.83 187.062   1
   7  -1  -5 2420.46 143.662   4
  -7   1   5 2482.69 252.849   8
   7  -1  -5 2387.95 219.370   3
   7  -1  -5 2145.90 167.927   6
  -7   2   6 2231.23 243.352   8
   7  -2  -6 1838.40 203.704   3
  -7   2   6 2075.84 189.777   1
  -7   3   7 559.709 124.543   8
  -7   3   7 623.272 109.825   1
   7  -3  -7 494.245 116.061   3
  -7   4   8 172.306 68.9760   8
   7  -4  -8 124.086 52.0911   3
  -7   4   8 181.241 64.0439   1
  -7   5   9 11.4750 18.8022   8
   7  -5  -9 9.08660 33.2733   3
  -7  -7  -2 36.2914 37.6651   2
  -7  -6  -1-35.9205 49.3185   7
   7   6   1-29.2279 32.3796   6
  -7  -6  -1-131.984 64.1282   2
  -7  -5   0 2574.46 292.875   7
  -7  -5   0 2951.52 305.643   2
   7   5   0 2139.22 260.324   6
  -7  -4   1 2343.11 268.244   7
  -7  -4   1 2398.29 263.693   2
   7   4  -1 2454.29 259.766   6
  -7  -3   2 1942.93 226.295   7
   7   3  -2 2023.43 219.418   6
   7   3  -2 2184.79 161.403   3
  -7  -2   3 2758.17 260.088   7
   7   2  -3 3371.87 223.093   3
   7   2  -3 3069.12 248.364   6
   7   1  -4-17.9056 20.5102   4
  -7  -1   4-12.5115 38.3569   7
   7   1  -4-42.4139 50.3584   6
   7   1  -4 14.2792 20.0473   3
  -7  -1   4 38.7572 47.2916   1
  -7   0   5 1100.99 140.716   1
  -7   0   5 1093.22 166.018   8
   7   0  -5 1141.56 149.636   3
   7   0  -5 1101.05 131.173   6
  -7   1   6 193.715 60.6572   8
   7  -1  -6 151.618 46.7033   6
   7  -1  -6 209.247 67.0949   3
  -7   1   6 237.021 65.3910   1
  -7   2   7 333.569 81.1106   1
  -7   2   7 286.119 87.7584   8
   7  -2  -7 314.555 83.3564   3
  -7   3   8 873.970 160.930   8
  -7   3   8 1194.81 158.987   1
   7  -3  -8 1133.22 174.171   3
  -7   4   9 643.647 148.748   8
   7  -4  -9 506.863 120.643   3
  -7   4   9 634.536 122.082   1
  -7   5  10 667.486 157.786   8
   7  -5 -10 660.802 144.944   3
  -7  -7  -1 316.688 102.300   2
  -7  -6   0 698.961 155.757   7
   7   6   0 467.381 122.362   6
  -7  -6   0 494.781 123.010   2
  -7  -5   1 612.757 144.623   7
   7   5  -1 703.041 144.711   6
  -7  -4   2 213.664 84.3162   7
   7   4  -2 406.333 102.256   6
   7   4  -2 403.842 69.1052   3
  -7  -3   3 1098.12 169.670   7
   7   3  -3 973.443 146.939   6
   7   3  -3 1019.93 118.373   3
  -7  -2   4 2651.89 256.416   7
   7   2  -4 2492.99 203.786   3
   7   2  -4 2410.13 224.421   6
  -7  -2   4 2892.32 251.417   1
  -7  -1   5 787.487 135.565   8
  -7  -1   5 961.259 139.589   1
   7   1  -5 999.577 134.280   3
   7   1  -5 904.866 126.861   6
  -7   0   6 2040.91 226.606   8
   7   0  -6 1951.53 202.439   3
  -7   0   6 2365.86 219.028   1
  -7   1   7 7.03589 31.4260   8
  -7   1   7 39.1178 27.8175   1
   7  -1  -7-5.56286 18.0353   3
  -7   2   8 566.005 110.195   1
  -7   2   8 560.576 120.756   8
   7  -2  -8 453.432 99.4859   3
  -7   3   9-34.8508 40.4363   8
   7  -3  -9 28.8333 32.8235   3
  -7   3   9 22.1895 14.5380   1
  -7   4  10 1731.67 248.724   8
   7  -4 -10 1216.99 196.048   3
  -7  -7   0 344.607 119.631   7
   7   7   0 294.286 106.385   6
  -7  -6   1 890.514 176.963   7
   7   6  -1 1141.03 190.907   6
  -7  -5   2 1202.90 187.956   7
   7   5  -2 1230.96 183.420   6
   7   4  -3 69.9504 41.2623   6
   7   4  -3 152.592 41.5270   3
  -7  -3   4 170.522 62.4898   1
  -7  -3   4 122.751 50.1258   7
   7   3  -4 87.7672 41.5754   6
   7   3  -4 180.918 54.5144   3
  -7  -2   5 75.8556 45.1601   1
  -7  -2   5 72.4378 44.7226   7
   7   2  -5 3.16694 26.0735   3
  -7  -1   6-17.9719 28.0101   1
  -7  -1   6 75.8363 50.3831   8
   7   1  -6 38.5150 32.7515   3
  -7   0   7 330.482 92.7663   8
  -7   0   7 436.022 97.6612   1
   7   0  -7 331.612 83.9183   3
  -7   1   8 582.928 113.889   1
  -7   1   8 755.335 143.531   8
   7  -1  -8 471.758 108.372   3
  -7   2   9 1602.58 217.424   8
  -7   2   9 1981.02 221.881   1
   7  -2  -9 1536.32 202.628   3
  -7   3  10 939.264 182.217   8
  -7   3  10 904.893 156.345   1
   7  -3 -10 960.410 168.052   3
  -7   4  11 445.650 124.944   8
   7  -4 -11 309.656 97.1575   3
  -7  -7   1 1104.25 203.379   7
   7   7  -1 1155.64 204.524   6
  -7  -6   2 676.644 147.195   7
   7   6  -2 664.607 146.085   6
  -7  -5   3 4425.40 369.242   7
   7   5  -3 4615.50 357.878   6
   7   5  -3 5230.80 275.106   3
  -7  -4   4 3891.58 334.866   7
   7   4  -4 3154.37 288.569   6
   7   4  -4 3470.27 235.081   3
  -7  -3   5 240.109 71.9087   7
  -7  -3   5 322.984 92.0458   1
   7   3  -5 340.209 78.5672   3
  -7  -2   6 2988.68 258.920   1
   7   2  -6 2992.70 245.998   3
  -7  -1   7 1855.63 216.548   8
   7   1  -7 1455.38 179.726   3
  -7  -1   7 1496.96 187.862   1
  -7   0   8 2385.33 249.435   8
   7   0  -8 2492.84 246.858   3
  -7   0   8 2618.10 249.040   1
  -7   1   9 189.035 75.1131   8
   7  -1  -9 200.880 77.2659   3
  -7   1   9 174.401 64.3498   1
  -7   2  10 390.371 112.186   8
   7  -2 -10 302.863 97.6445   3
  -7   2  10 231.488 77.3038   1
  -7   3  11 572.235 143.254   8
  -7   3  11 725.129 155.764   1
   7  -3 -11 726.513 156.736   3
  -7  -7   2 673.897 151.913   7
   7   7  -2 496.522 126.759   6
  -7  -6   3 4238.52 375.324   7
   7   6  -3 4941.43 388.693   6
  -7  -5   4 142.145 72.3244   7
   7   5  -4 214.994 82.3599   6
   7   5  -4 164.075 46.0814   3
  -7  -4   5 1756.50 226.768   7
  -7  -4   5 1671.04 211.422   1
   7   4  -5 1684.26 171.607   3
  -7  -3   6 1066.76 164.684   1
  -7  -3   6 730.017 145.527   7
   7   3  -6 826.734 125.905   3
  -7  -2   7 82.2787 33.9493   8
   7   2  -7 92.5145 45.2237   3
  -7  -2   7 157.868 62.1259   1
  -7  -1   8 10794.7 544.170   8
   7   1  -8 10329.6 504.975   3
  -7  -1   8 10860.1 527.047   1
  -7   0   9 103.079 55.0201   1
  -7   0   9 274.370 90.5158   8
   7   0  -9 122.949 54.0116   3
  -7   1  10 2129.46 246.112   8
  -7   1  10 2189.07 248.143   1
   7  -1 -10 2482.67 267.841   3
  -7   2  11 123.671 75.5890   8
  -7   2  11 190.405 87.1682   1
   7  -2 -11 324.028 105.635   3
  -7   3  12 1269.71 218.847   8
   7   8  -2 228.208 87.9863   6
  -7  -7   3 169.130 82.4857   7
   7   7  -3 92.3856 68.9966   6
  -7  -6   4 112.772 64.8280   7
   7   6  -4 89.2628 51.8170   6
   7   6  -4 125.217 48.0260   3
  -7  -5   5 4381.39 379.538   7
  -7  -5   5 5097.84 385.737   1
   7   5  -5 4518.22 283.375   3
  -7  -4   6 1053.40 178.231   7
  -7  -4   6 1491.65 199.431   1
   7   4  -6 1109.79 145.688   3
  -7  -3   7 1453.02 193.261   1
   7   3  -7 1233.84 159.941   3
  -7  -2   8 262.847 90.3716   8
  -7  -2   8 217.833 71.8222   1
   7   2  -8 274.912 78.5255   3
  -7  -1   9 646.559 129.416   8
   7   1  -9 808.051 140.460   3
  -7  -1   9 1005.60 169.244   1
  -7   0  10 1917.75 236.580   8
   7   0 -10 1806.91 224.255   3
  -7   0  10 1935.51 236.406   1
  -7   1  11-15.8280 50.8854   8
   7  -1 -11 31.0898 21.9841   3
  -7   1  11 13.1579 38.0901   1
  -7   2  12 1515.90 229.901   8
  -7   2  12 1529.50 225.705   1
  -7  -8   3 687.676 157.355   7
   7   8  -3 759.526 169.428   6
  -7  -7   4 1244.22 209.334   7
   7   7  -4 1267.28 203.640   6
  -7  -6   5 154.363 67.2925   7
   7   6  -5 85.2137 35.7736   3
  -7  -5   6 26.7302 41.0470   7
  -7  -5   6 83.0456 67.7941   1
   7   5  -6-70.4549 50.0290   3
  -7  -4   7 279.555 83.9382   1
   7   4  -7 309.172 75.0737   3
  -7  -3   8 217.453 81.0691   1
   7   3  -8 176.948 64.1158   3
  -7  -2   9 1487.55 196.943   8
   7   2  -9 1561.48 195.067   3
  -7  -2   9 1772.63 220.996   1
  -7  -1  10-24.8226 37.2846   1
  -7  -1  10 61.5021 39.7679   8
   7   1 -10-10.5961 34.6153   3
  -7   0  11 66.4358 21.0491   8
   7   0 -11 99.0876 50.4908   3
  -7   0  11 18.2789 38.4727   1
  -7   1  12 340.993 106.275   8
  -7   1  12 429.883 124.854   1
  -7  -8   4 493.271 131.743   7
   7   8  -4 712.321 164.079   6
  -7  -7   5 2598.47 306.692   7
   7   7  -5 2038.65 264.146   6
   7   7  -5 2214.17 200.968   3
  -7  -6   6 350.896 111.730   7
  -7  -6   6 533.622 132.101   1
   7   6  -6 331.846 77.8950   3
  -7  -5   7 47.4736 33.5353   1
   7   5  -7 62.8571 15.9362   3
  -7  -4   8 381.213 106.575   1
   7   4  -8 287.133 80.0398   3
  -7  -3   9 124.801 36.4674   8
  -7  -3   9 163.206 70.7528   1
   7   3  -9 201.288 60.4837   3
  -7  -2  10 66.6706 41.4258   8
  -7  -2  10 30.4222 27.7507   1
   7   2 -10 97.0632 47.5888   3
  -7  -1  11-3.64354 25.5052   1
  -7  -1  11-11.1339 20.9669   8
   7   1 -11 52.3520 18.1108   3
  -7   0  12 262.970 91.0439   8
   7   0 -12 215.279 83.0889   3
  -7   0  12 331.562 102.588   1
  -7   1  13 103.421 73.6071   8
  -7  -8   5 1084.18 209.451   7
   7   8  -5 1372.62 227.972   6
  -7  -7   6 26.5247 65.1374   7
  -7  -7   6 75.9722 62.7457   1
   7   7  -6-19.9241 26.3348   3
  -7  -6   7 856.628 169.347   7
  -7  -6   7 1055.26 183.173   1
   7   6  -7 1132.72 154.636   3
  -7  -5   8-17.5559 47.8360   1
   7   5  -8-11.4293 20.9657   3
  -7  -4   9 254.315 92.9174   1
   7   4  -9 228.247 74.8160   3
  -7  -3  10 1667.72 206.324   8
   7   3 -10 2077.51 233.701   3
  -7  -3  10 2188.45 260.345   1
  -7  -2  11 12.9117 27.3830   1
   7   2 -11 31.9088 35.3444   3
  -7  -2  11 63.2746 58.5830   8
  -7  -1  12 88.0566 76.9473   8
   7   1 -12 69.3157 44.4709   3
  -7  -1  12 50.5777 19.0277   1
   7   8  -6 120.556 58.2375   3
  -7  -8   6 104.712 64.5601   7
  -7  -7   7 1368.19 222.920   7
  -7  -7   7 1302.46 215.381   1
   7   7  -7 1251.25 168.535   3
  -7  -6   8 1309.04 209.823   1
   7   6  -8 1446.00 182.495   3
  -7  -5   9 1484.17 222.429   1
   7   5  -9 1309.79 176.879   3
  -7  -4  10 537.268 131.465   1
   7   4 -10 424.900 107.077   3
  -7  -3  11 237.401 93.1791   8
  -7  -3  11 103.661 43.1330   1
   7   3 -11 128.089 56.9816   3
  -7  -2  12 1282.47 216.022   1
  -7  -8   7 2411.54 300.408   1
  -7  -8   7 1759.04 253.115   7
   7   8  -7 1725.45 195.809   3
  -7  -7   8 27.7725 53.0666   1
   7   7  -8 20.8820 24.5742   3
  -7  -6   9 30.8459 33.5930   1
   7   6  -9 67.0784 36.6375   3
   7   5 -10 1213.22 179.042   3
  -7  -5  10 1494.48 229.863   1
  -7  -4  11 362.654 106.145   1
   7   4 -11 422.717 107.829   3
  -7  -3  12 174.227 84.7199   1
   7   8  -8 11.6167 30.2611   3
  -7  -7   9 798.326 183.457   1
   7   7  -9 855.391 148.498   3
  -7  -6  10 856.641 179.086   1
   7   6 -10 783.690 146.502   3
  -7  -5  11 449.075 125.106   1
   7   5 -11 306.885 86.3494   3
   7   8  -9 1479.86 196.866   3
  -8   8  -6 340.279 96.9270   2
  -8   7  -6 761.023 149.240   2
   8  -8   5 148.399 54.5103   4
  -8   8  -5 327.790 98.4736   2
   8  -9   4 24.0601 34.8931   4
   8  -5   7 31.6857 36.2409   6
   8  -6   6 625.811 153.733   4
  -8   6  -6 755.272 160.254   2
   8  -7   5 372.078 112.094   4
  -8   7  -5 206.419 72.6849   2
   8  -8   4 1637.48 225.178   4
  -8   8  -4 2116.09 235.324   2
   8  -9   3 55.4555 56.0654   4
  -8  10  -2 161.931 69.4417   8
   8 -10   2 154.044 68.5809   4
  -8  11  -1 1024.14 194.789   5
  -8  11  -1 703.382 154.062   8
   8  -4   7 67.1516 34.4843   6
  -8   5  -6 22.2588 36.2740   2
   8  -5   6 25.1500 25.9473   6
   8  -6   5-188.000 79.3170   4
  -8   6  -5-41.7919 56.2274   2
   8  -7   4 112.857 59.8443   4
  -8   7  -4 155.303 68.3077   2
   8  -8   3 366.482 103.480   4
  -8   8  -3 357.309 94.1325   2
   8  -9   2 1725.25 222.001   4
  -8   9  -2 1688.21 230.095   8
  -8  10  -1-16.7259 15.0990   5
  -8  10  -1-75.6023 47.0031   8
   8 -10   1-4.51384 35.9947   4
  -8  11   0 51.6900 59.3253   5
  -8  11   0-21.1826 28.8981   8
  -8   4  -6 229.041 88.2391   2
   8  -4   6 173.293 83.3225   6
   8  -5   5 1686.38 240.283   4
  -8   5  -5 1606.18 218.034   2
   8  -5   5 1548.53 197.693   6
   8  -6   4-70.3523 52.0472   4
  -8   6  -4-5.47517 20.7564   2
   8  -7   3 1506.10 205.194   4
  -8   7  -3 1841.47 221.484   2
  -8   8  -2 355.048 108.707   8
   8  -8   2 523.064 118.690   4
  -8   8  -2 695.372 131.350   2
   8  -9   1 976.525 164.786   4
  -8   9  -1 1062.99 189.440   8
  -8  10   0 9.19097 36.8666   5
  -8  10   0 56.8011 57.8772   8
   8 -10   0 58.5074 19.8524   4
  -8  11   1 55.4960 72.6946   5
  -8  11   1 32.3833 23.2712   8
   8 -11  -1 133.929 71.6172   4
  -8   3  -6 254.946 89.4519   2
   8  -3   6 313.593 100.853   6
   8  -4   5 828.126 147.986   6
  -8   4  -5 778.416 159.801   2
   8  -5   4 1438.93 212.848   4
  -8   5  -4 1680.83 217.361   2
   8  -5   4 1457.61 178.307   6
   8  -6   3 1998.52 241.260   4
  -8   6  -3 2005.58 230.199   2
   8  -7   2 186.538 73.8985   4
  -8   7  -2 220.815 73.6006   2
   8  -8   1 1835.36 217.832   4
  -8   8  -1 1779.81 233.885   8
  -8   8  -1 2274.40 247.619   2
  -8   9   0 101.663 40.1070   5
  -8   9   0 18.6057 42.8693   8
   8  -9   0 176.136 66.3390   4
   8 -10  -1 1013.80 161.591   4
  -8  10   1 986.051 183.634   8
  -8  10   1 1312.85 210.937   5
  -8  11   2 184.679 77.3568   5
   8 -11  -2 291.642 91.8305   4
   8  -2   6 147.334 73.3190   6
  -8   3  -5 237.102 86.4904   2
   8  -3   5 151.795 68.2961   6
  -8   4  -4 1566.99 209.906   2
   8  -4   4 1496.19 185.080   6
   8  -5   3 14.2096 36.9840   4
   8  -5   3 74.7032 43.2395   6
  -8   5  -3 142.965 65.5549   2
   8  -6   2 3279.43 295.985   4
  -8   6  -2 3848.94 315.332   2
  -8   7  -1 557.479 123.830   8
   8  -7   1 393.097 99.8981   4
  -8   7  -1 546.415 118.518   2
  -8   8   0 192.818 70.8263   5
  -8   8   0 178.184 73.6271   8
   8  -8   0 225.443 75.5734   4
  -8   9   1 962.847 182.321   8
   8  -9  -1 758.279 137.395   4
  -8   9   1 1049.17 174.157   5
  -8  10   2 272.817 95.5548   5
  -8  10   2 314.895 113.971   8
   8 -10  -2 241.462 81.2780   4
  -8  11   3 768.981 168.161   5
   8 -11  -3 864.942 152.326   4
   8  -1   6 568.460 134.377   6
  -8   2  -5 16.2517 14.5007   2
   8  -2   5 48.3980 25.2749   6
  -8   3  -4 628.986 132.744   2
   8  -3   4 533.768 113.411   6
   8  -4   3-81.8718 79.9371   4
   8  -4   3-46.1228 42.3517   6
  -8   4  -3 11.2522 26.4513   2
   8  -5   2 483.931 112.686   4
  -8   5  -2 514.019 115.220   2
   8  -6   1 1184.04 167.467   4
  -8   6  -1 1177.70 186.899   8
  -8   6  -1 1328.26 180.629   2
   8  -7   0 4122.02 315.996   4
  -8   7   0 4647.66 384.050   8
  -8   8   1 285.823 74.2889   5
  -8   8   1 473.226 123.812   8
   8  -8  -1 456.064 105.404   4
  -8   9   2 274.152 86.6324   5
  -8   9   2 187.061 78.7377   8
   8  -9  -2 133.352 58.9539   4
  -8  10   3 606.940 146.503   5
  -8  10   3 451.838 122.520   8
   8 -10  -3 467.232 108.435   4
  -8   0  -6 1099.51 186.512   7
  -8   1  -5 14.9663 35.7059   7
  -8   1  -5 39.8544 18.2642   2
   8  -1   5 9.35259 45.7041   6
  -8   2  -4 1578.38 195.351   7
  -8   2  -4 1622.11 220.323   2
   8  -2   4 1534.96 197.740   6
   8  -3   3 62.4650 25.7143   6
  -8   3  -3 31.1483 29.6795   2
   8  -4   2 3187.85 296.012   4
  -8   4  -2 3276.44 300.206   2
   8  -4   2 3400.81 255.174   6
   8  -5   1-22.2906 33.4507   4
  -8   5  -1 15.0796 28.6951   2
  -8   6   0 55.1034 30.2622   8
   8  -6   0 39.0621 24.9016   4
  -8   6   0-34.8555 57.2999   2
  -8   7   1 706.879 125.996   5
  -8   7   1 797.247 160.076   8
   8  -7  -1 779.290 131.560   4
  -8   8   2-8.79810 24.3690   5
  -8   8   2 5.35314 33.4179   8
   8  -8  -2 5.44103 13.3436   4
  -8   9   3 766.499 156.475   5
  -8   9   3 581.182 139.682   8
   8  -9  -3 624.509 115.155   4
  -8  10   4-32.2477 55.1697   5
   8 -10  -4-3.00604 25.0619   4
  -8  -1  -6 340.939 107.491   7
  -8   0  -5 11.3448 31.5998   7
   8   0   5-66.7810 62.4186   6
  -8   1  -4 40.3189 39.7134   7
   8  -1   4 35.6098 14.6107   6
  -8   1  -4 55.2930 55.0731   2
  -8   2  -3 201.237 70.4027   7
   8  -2   3 111.477 44.4621   6
  -8   2  -3 184.431 70.5749   2
  -8   3  -2 715.144 117.669   7
   8  -3   2 887.356 134.135   6
  -8   3  -2 729.485 139.857   2
   8  -4   1 38.1092 14.8397   6
  -8   4  -1 49.4556 36.6247   2
  -8   5   0 29.7671 26.3120   8
   8  -5   0-9.20360 19.3396   4
  -8   5   0 21.5096 19.3999   2
  -8   6   1 119.668 69.6935   8
   8  -6  -1 122.266 47.2345   4
  -8   7   2 87.4309 44.4931   5
  -8   7   2 39.4960 51.1386   8
   8  -7  -2 127.718 58.3400   4
  -8   8   3 62.5591 43.3207   5
  -8   8   3 75.3540 64.8909   8
   8  -8  -3 0.41177 12.3979   4
  -8   9   4 170.645 79.7847   5
  -8   9   4 222.232 98.1799   8
   8  -9  -4 278.795 74.3516   4
  -8  10   5-24.6311 32.8713   5
  -8  -1  -5 233.115 88.8900   7
   8   1   5 197.672 62.3597   6
  -8   0  -4 284.156 93.4103   7
   8   0   4 291.026 91.5253   6
  -8   0  -4 280.607 98.5009   2
  -8   1  -3 239.630 79.7820   7
   8  -1   3 121.808 45.9368   6
  -8   1  -3 165.819 67.7457   2
  -8   2  -2 92.9103 41.7834   7
   8  -2   2 60.2035 12.5205   6
  -8   2  -2 128.378 62.5891   2
   8  -3   1 620.465 123.042   4
  -8   3  -1 700.454 112.661   7
   8  -3   1 699.140 104.171   3
   8  -3   1 577.725 102.546   6
  -8   3  -1 658.873 126.053   2
   8  -4   0 87.0710 49.6335   4
  -8   4   0 91.9377 57.9742   2
  -8   5   1-23.7905 54.4826   8
   8  -5  -1-27.3902 21.2840   4
  -8   6   2-8.23261 27.9344   5
  -8   6   2 30.2138 32.2840   8
   8  -6  -2 98.3916 47.5202   4
  -8   7   3 436.370 103.734   5
  -8   7   3 421.827 118.732   8
   8  -7  -3 358.188 83.3940   4
  -8   8   4 629.636 140.076   5
  -8   8   4 603.481 140.403   8
   8  -8  -4 565.074 106.458   4
  -8   9   5 305.737 98.1424   5
  -8   9   5 315.329 105.719   8
  -8  -2  -5 516.209 139.074   7
  -8  -1  -4 2053.63 251.182   7
  -8  -1  -4 2265.71 274.209   2
   8   1   4 2497.57 282.128   6
  -8   0  -3-3.04534 28.9443   7
   8   0   3 0.17953 36.2589   6
  -8   0  -3 58.1125 42.1237   2
  -8   1  -2 4960.60 345.999   7
  -8   1  -2 4898.12 377.383   2
   8  -1   2 4546.35 333.361   6
  -8   2  -1 59.2574 44.4293   7
   8  -2   1 2.90187 21.1700   6
  -8   2  -1 24.6055 19.4318   2
   8  -3   0 567.541 111.540   4
  -8   3   0 520.101 93.3785   7
   8  -3   0 593.332 103.603   3
   8  -3   0 563.879 98.4285   6
  -8   3   0 730.799 139.759   2
  -8   4   1 33.3387 28.4129   8
   8  -4  -1 119.183 54.6523   4
  -8   4   1 86.5342 46.8249   2
  -8   5   2 36.5456 18.4721   5
  -8   5   2 59.0830 58.6558   8
   8  -5  -2 78.1860 51.8422   4
   8  -6  -3 1334.43 159.643   4
  -8   6   3 1229.81 195.513   8
  -8   6   3 1208.78 163.840   5
  -8   7   4-14.5513 49.2873   5
  -8   7   4-32.7753 35.7411   8
   8  -7  -4 43.8776 19.1415   4
  -8   8   5 294.438 92.8254   5
  -8   8   5 305.164 106.290   8
  -8   9   6 52.8366 47.6218   5
  -8  -2  -4 1768.18 243.555   7
  -8  -2  -4 1483.55 221.288   2
   8   2   4 1899.61 253.137   6
  -8  -1  -3 77.4992 50.8697   7
   8   1   3 233.415 82.2783   6
  -8  -1  -3 284.538 100.906   2
  -8   0  -2 3001.88 284.814   7
  -8   0  -2 2805.52 290.462   2
   8   0   2 3043.34 280.427   6
  -8   1  -1 27.8486 35.4390   7
   8  -1   1 3.42926 30.2691   6
  -8   1  -1 64.1194 55.9996   2
  -8   2   0 11642.0 509.111   7
  -8   2   0 10474.5 541.114   2
   8  -2   0 10808.5 428.654   3
   8  -2   0 10375.2 450.857   6
   8  -3  -1 138.190 47.8508   4
   8  -3  -1 156.510 55.9733   3
   8  -3  -1 172.471 54.2849   6
  -8   3   1 144.078 58.7748   2
   8  -4  -2 2161.55 199.777   4
  -8   4   2 2159.18 255.490   8
   8  -4  -2 2219.07 222.466   3
   8  -5  -3 841.411 123.053   4
  -8   5   3 742.396 152.089   8
  -8   5   3 830.289 127.553   5
  -8   6   4 26.8210 30.7257   5
  -8   6   4 37.3573 33.4235   8
   8  -6  -4 38.6658 27.7229   4
  -8   7   5 1643.25 238.065   8
  -8   7   5 1595.36 217.562   5
  -8   8   6 49.2541 61.1168   5
  -8   8   6-80.3140 98.2425   8
  -8  -3  -4 999.302 191.561   7
  -8  -2  -3 5.19749 38.2163   7
   8   2   3 40.3208 43.9157   6
  -8  -2  -3 53.2369 53.7271   2
  -8  -1  -2 1452.31 205.631   7
  -8  -1  -2 1485.62 215.629   2
   8   1   2 1329.60 191.116   6
  -8   0  -1 260.490 78.9819   7
   8   0   1 305.025 81.6383   6
  -8   0  -1 344.320 101.143   2
  -8   1   0 4573.87 321.772   7
  -8   1   0 4189.25 342.858   2
   8  -1   0 4532.60 304.547   6
   8  -2  -1 195.645 64.9927   4
  -8   2   1 315.225 81.7972   7
   8  -2  -1 278.949 69.9122   3
   8  -2  -1 239.625 67.2488   6
  -8   2   1 196.012 67.4547   2
   8  -3  -2 2980.73 231.366   4
  -8   3   2 3424.84 318.289   8
   8  -3  -2 3060.06 253.708   3
  -8   4   3 139.937 48.1188   5
  -8   4   3 198.428 86.9183   8
   8  -4  -3 217.325 63.1139   4
   8  -4  -3 63.4145 31.2284   3
   8  -5  -4 1245.60 141.816   4
  -8   5   4 1112.99 186.471   8
   8  -5  -4 857.947 145.977   3
  -8   5   4 1144.61 154.386   5
  -8   6   5 1400.80 215.346   8
   8  -6  -5 1719.53 227.223   3
  -8   6   5 1831.93 219.864   5
  -8   7   6-75.7367 50.0325   5
  -8   7   6 64.3264 68.4601   8
   8  -7  -6-38.7108 62.0450   3
  -8   8   7 739.783 164.410   5
  -8  -3  -3 426.304 117.866   7
   8   3   3 394.131 112.526   6
  -8  -3  -3 529.760 129.109   2
  -8  -2  -2 712.423 147.555   7
   8   2   2 684.866 136.986   6
  -8  -2  -2 680.549 145.774   2
  -8  -1  -1 283.766 86.0960   7
   8   1   1 220.894 67.0053   6
  -8  -1  -1 352.808 103.561   2
  -8   0   0 1356.06 180.887   7
  -8   0   0 1268.13 188.517   2
   8   0   0 1177.60 159.582   6
  -8   1   1 136.398 46.9438   7
   8  -1  -1 101.773 34.4274   3
   8  -1  -1 142.830 45.0231   6
  -8   1   1 183.890 80.1222   2
  -8   2   2 107.885 63.5908   8
   8  -2  -2 99.9460 45.0884   4
  -8   2   2 52.8371 21.4406   7
   8  -2  -2 74.1189 35.9473   3
   8  -2  -2 70.2731 27.9557   6
  -8   3   3 9.93225 17.6606   8
   8  -3  -3 10.0344 16.3963   4
   8  -3  -3 26.0329 17.0592   3
   8  -4  -4 1001.99 125.387   4
  -8   4   4 1101.95 179.765   8
   8  -4  -4 888.844 146.353   3
  -8   5   5 247.987 76.1421   5
  -8   5   5 282.976 104.837   8
   8  -5  -5 174.333 65.8868   3
  -8   6   6 182.049 71.4404   5
  -8   6   6 308.885 112.445   8
   8  -6  -6 247.174 80.8378   3
  -8   7   7 471.812 130.093   8
   8  -7  -7 583.690 137.662   3
  -8  -3  -2 3919.95 368.004   7
  -8  -3  -2 3459.99 336.032   2
   8   3   2 3673.45 341.260   6
  -8  -2  -1 780.173 153.314   2
  -8  -2  -1 790.890 155.978   7
   8   2   1 532.254 119.444   6
  -8  -1   0 3834.43 318.775   7
  -8  -1   0 4564.54 365.881   2
   8   1   0 3615.86 301.216   6
  -8   0   1 504.957 108.037   7
   8   0  -1 282.886 78.4043   6
   8   0  -1 437.992 80.0305   3
  -8   0   1 489.415 122.810   2
   8  -1  -2 1090.04 141.169   4
  -8   1   2 993.577 147.641   7
   8  -1  -2 867.739 124.347   3
   8  -1  -2 1031.28 135.210   6
  -8   2   3-2.46325 23.9570   8
   8  -2  -3 6.59501 22.5982   4
   8  -2  -3-33.7826 44.7550   3
   8  -2  -3-19.1377 25.8798   6
  -8   3   4 281.446 89.6802   8
   8  -3  -4 365.989 69.6134   4
   8  -3  -4 330.382 83.5128   3
  -8   4   5 1875.98 244.111   8
   8  -4  -5 1521.47 195.682   3
  -8   5   6 328.595 94.9498   5
  -8   5   6 256.392 95.5737   8
   8  -5  -6 125.085 56.8416   3
  -8   6   7 86.4584 45.3034   5
  -8   6   7 119.423 64.6054   8
   8  -6  -7 113.158 59.2185   3
  -8   7   8 38.1533 35.5764   5
  -8  -4  -2 27.5679 34.5223   7
   8   4   2 5.37320 16.2888   6
  -8  -4  -2 84.3640 51.5505   2
  -8  -3  -1 1335.22 212.824   7
  -8  -3  -1 1206.02 195.193   2
   8   3   1 968.948 175.853   6
  -8  -2   0 1741.09 224.219   7
  -8  -2   0 1848.41 242.166   2
   8   2   0 1770.84 218.972   6
  -8  -1   1 72.6032 45.4222   7
   8   1  -1 66.0310 43.6828   6
  -8  -1   1 131.928 57.7260   2
  -8   0   2 4031.20 324.432   7
   8   0  -2 4289.96 267.180   3
   8   0  -2 4045.47 291.155   6
   8  -1  -3 14.0837 16.3978   4
  -8   1   3-7.23001 40.5055   7
   8  -1  -3 16.7165 11.2279   3
   8  -1  -3 43.7017 35.8706   6
  -8   2   4 2156.63 254.917   8
   8  -2  -4 1877.00 205.330   3
  -8   3   5 688.544 143.912   8
   8  -3  -5 527.118 112.910   3
  -8   4   6 528.968 134.243   8
   8  -4  -6 650.842 135.927   3
  -8   5   7 806.689 165.712   8
   8  -5  -7 785.318 156.822   3
  -8   6   8 923.399 192.365   8
   8  -6  -8 821.495 170.630   3
  -8  -5  -2 1136.20 195.493   2
  -8  -4  -1 292.161 110.969   7
   8   4   1 169.885 73.2520   6
  -8  -4  -1 257.218 91.7511   2
  -8  -3   0 46.5971 18.8003   7
   8   3   0 76.6812 44.1796   6
  -8  -3   0 5.78820 32.2182   2
  -8  -2   1-15.7119 43.4443   7
   8   2  -1 9.72026 23.5740   6
  -8  -2   1-51.3682 37.0707   2
   8   1  -2 1084.82 127.466   3
   8   1  -2 890.399 144.530   6
   8   0  -3 285.659 67.5580   4
  -8   0   3 388.093 96.2512   7
   8   0  -3 250.825 74.4919   6
   8   0  -3 253.180 67.8946   3
  -8   1   4 30.1764 37.3203   8
   8  -1  -4 10.7467 11.1312   6
   8  -1  -4-33.3872 17.4998   3
  -8   2   5 681.818 143.066   8
  -8   2   5 650.576 108.496   1
   8  -2  -5 525.071 108.811   3
  -8   3   6 218.998 86.6509   8
   8  -3  -6 129.863 57.0827   3
  -8   4   7 2313.72 270.659   8
   8  -4  -7 2615.95 276.208   3
  -8   5   8 148.289 71.6338   8
   8  -5  -8 237.055 84.8976   3
  -8  -5  -1 118.263 56.2139   2
  -8  -4   0 2053.98 272.276   7
  -8  -4   0 2092.75 268.443   2
   8   4   0 1868.50 244.312   6
  -8  -3   1 792.183 156.035   7
   8   3  -1 1031.62 173.431   6
  -8  -2   2 3880.54 333.423   7
   8   2  -2 4250.29 335.974   6
  -8  -1   3 116.916 55.5319   7
   8   1  -3 55.4924 46.4975   6
   8   1  -3 141.148 52.9792   3
   8   0  -4 2142.14 206.460   3
   8   0  -4 2152.86 204.075   6
  -8   1   5 263.967 90.5312   8
  -8   1   5 296.253 70.7720   1
   8  -1  -5 204.678 72.3576   3
  -8   2   6 702.884 110.585   1
  -8   2   6 599.173 130.995   8
   8  -2  -6 624.671 123.372   3
  -8   3   7 1026.94 187.891   8
   8  -3  -7 862.626 158.558   3
  -8   4   8 50.5453 52.4810   8
   8  -4  -8 52.5022 59.2682   3
  -8   5   9 1107.95 209.855   8
   8  -5  -9 1168.30 199.611   3
  -8  -5   0 247.219 102.731   7
   8   5   0 203.218 76.3629   6
  -8  -4   1 1994.84 258.731   7
   8   4  -1 1768.47 234.916   6
  -8  -3   2 395.651 110.971   7
   8   3  -2 346.194 100.108   6
  -8  -2   3 66.9598 33.3504   7
   8   2  -3 9.72244 23.0517   6
   8   2  -3 49.5939 33.5008   3
  -8  -1   4 1163.05 174.922   7
   8   1  -4 1426.07 162.386   3
   8   1  -4 1506.71 178.134   6
  -8   0   5 707.707 140.421   8
  -8   0   5 1094.96 151.954   1
   8   0  -5 863.288 135.199   3
   8   0  -5 781.601 116.682   6
  -8   1   6 6131.44 439.700   8
   8  -1  -6 6406.95 393.762   3
  -8   2   7 529.703 120.476   8
   8  -2  -7 295.038 94.1539   3
  -8   2   7 474.336 97.7053   1
  -8   3   8 386.085 112.621   8
   8  -3  -8 436.065 111.099   3
  -8   4   9 6.57493 24.7659   8
   8  -4  -9 31.3417 17.9823   3
  -8  -5   1-10.4196 19.5703   7
   8   5  -1 56.1221 52.6186   6
  -8  -4   2 468.302 132.157   7
   8   4  -2 490.655 118.567   6
  -8  -3   3 1953.66 243.403   7
   8   3  -3 1789.17 218.814   6
  -8  -2   4 20.0407 41.1252   7
   8   2  -4-1.21966 29.5453   6
   8   2  -4-8.73093 18.8500   3
  -8  -1   5 41.1299 30.8268   1
   8   1  -5 15.1327 22.2487   6
   8   1  -5-29.3866 25.1158   3
  -8   0   6 94.1622 48.9025   8
   8   0  -6 73.4126 41.2038   6
  -8   0   6 74.5787 34.4838   1
   8   0  -6 69.9690 41.4719   3
  -8   1   7 4345.71 314.565   1
  -8   1   7 4157.86 362.796   8
   8  -1  -7 3899.63 316.603   3
  -8   2   8 1429.99 219.303   8
   8  -2  -8 992.524 164.698   3
  -8   2   8 1100.97 157.160   1
  -8   3   9 681.226 149.643   8
   8  -3  -9 753.689 152.617   3
  -8  -5   2 120.707 56.9636   7
   8   5  -2 61.2342 38.8565   6
  -8  -4   3 24.1685 35.9679   7
   8   4  -3-23.0893 36.7426   6
  -8  -3   4 705.380 148.607   7
   8   3  -4 896.765 124.667   3
   8   3  -4 671.561 129.828   6
  -8  -2   5-40.8250 37.8426   7
  -8  -2   5-4.80508 27.2043   1
   8   2  -5-32.5290 41.6748   6
   8   2  -5-19.7602 33.4885   3
  -8  -1   6 36.1646 36.4232   1
  -8  -1   6-39.0122 47.2108   8
   8   1  -6 5.39772 18.9991   6
   8   1  -6-11.7759 29.7026   3
  -8   0   7 344.750 89.5877   1
  -8   0   7 452.411 120.564   8
   8   0  -7 408.216 97.5103   3
  -8   1   8-37.4761 43.7216   8
  -8   1   8-16.3399 27.8188   1
   8  -1  -8 19.1379 37.5095   3
  -8   2   9 99.9584 58.8004   8
  -8   2   9 165.150 54.4222   1
   8  -2  -9 172.038 71.1706   3
  -8   3  10 139.859 59.9522   8
   8  -3 -10 260.006 86.1258   3
  -8  -6   2 19.9038 57.7344   7
   8   6  -2-64.2771 59.9242   6
  -8  -5   3 845.900 173.464   7
   8   5  -3 656.488 139.284   6
  -8  -4   4 62.2564 57.6449   7
   8   4  -4 125.821 68.9416   6
  -8  -3   5 173.392 76.9476   7
   8   3  -5 186.279 65.7377   6
   8   3  -5 170.902 57.9920   3
  -8  -2   6 447.374 104.431   1
   8   2  -6 450.317 106.268   6
   8   2  -6 402.997 95.9535   3
  -8  -1   7-3.24343 43.3505   8
  -8  -1   7-26.5212 41.7374   1
   8   1  -7 7.83088 34.4551   6
   8   1  -7 49.9024 39.7129   3
  -8   0   8 172.754 79.3478   8
   8   0  -8 84.0677 57.5719   3
  -8   0   8-12.3151 36.9424   1
  -8   1   9 565.571 137.425   8
  -8   1   9 413.720 99.8283   1
   8  -1  -9 434.345 114.901   3
  -8   2  10-31.9425 40.6154   8
   8  -2 -10 93.3643 51.7452   3
  -8  -6   3 236.438 100.587   7
   8   6  -3 130.019 70.6770   6
  -8  -5   4 746.374 170.625   7
   8   5  -4 855.773 163.662   6
  -8  -4   5 102.588 74.8816   7
   8   4  -5 55.8553 39.0558   6
   8   4  -5 175.203 63.7573   3
   8   3  -6 84.8699 40.7302   6
   8   3  -6 161.746 57.2333   3
  -8  -2   7 698.673 135.772   1
   8   2  -7 560.631 112.320   3
  -8  -1   8 1241.15 184.356   1
  -8  -1   8 1403.90 207.133   8
   8   1  -8 1345.64 189.360   3
  -8   0   9 1134.82 191.873   8
   8   0  -9 1117.75 180.966   3
  -8   0   9 1219.81 183.646   1
  -8   1  10 6.22003 34.6462   8
  -8   1  10 65.2559 52.5382   1
   8  -1 -10 25.3743 22.6552   3
  -8   2  11 675.711 152.957   8
  -8  -6   4 1844.08 263.272   7
   8   6  -4 1761.66 243.634   6
  -8  -5   5 354.482 117.905   7
   8   5  -5 224.701 73.2430   6
  -8  -4   6 6277.36 462.163   7
   8   4  -6 5754.99 415.624   6
   8   4  -6 5395.59 338.599   3
  -8  -4   6 6671.39 454.152   1
  -8  -3   7 108.441 58.6323   1
   8   3  -7 118.678 54.8348   3
  -8  -2   8 1008.68 170.933   1
   8   2  -8 1484.70 193.734   3
  -8  -1   9 2411.50 273.949   8
   8   1  -9 1773.94 223.105   3
  -8  -1   9 2236.49 256.413   1
  -8   0  10 1239.89 202.616   8
   8   0 -10 1026.17 175.482   3
  -8   0  10 1197.60 185.393   1
  -8   1  11 814.917 163.971   1
  -8   1  11 865.717 179.078   8
  -8  -6   5 1254.84 220.258   7
   8   6  -5 1370.29 213.685   6
  -8  -5   6 666.684 156.149   7
   8   5  -6 582.186 139.463   6
   8   5  -6 595.538 109.443   3
  -8  -4   7 966.973 176.352   1
   8   4  -7 1071.40 157.236   3
  -8  -3   8 2700.54 281.942   1
   8   3  -8 2256.85 237.878   3
  -8  -2   9 4.35938 36.3749   8
   8   2  -9-10.5126 30.6785   3
  -8  -2   9 2.81278 25.2621   1
  -8  -1  10 576.777 137.955   8
  -8  -1  10 697.619 141.721   1
   8   1 -10 544.309 127.059   3
  -8   0  11 312.374 104.004   8
  -8   0  11 200.355 72.3339   1
  -8  -6   6 235.475 96.7036   7
   8   6  -6 171.719 75.5396   6
  -8  -5   7 103.959 61.0436   1
   8   5  -7 90.7478 38.8484   3
  -8  -4   8 282.130 91.9120   1
   8   4  -8 206.014 75.4224   3
  -8  -3   9 118.496 66.5183   1
   8   3  -9 106.577 56.1134   3
  -8  -2  10 691.619 145.135   8
  -8  -2  10 696.871 151.691   1
   8   2 -10 671.489 141.423   3
  -8  -1  11 193.995 77.9671   8
  -8  -1  11 56.5791 25.3161   1
  -8   0  12 85.0544 62.5524   1
  -8   0  12-4.82650 52.5791   8
  -8  -6   7 2343.71 294.946   1
   8   6  -7 1914.56 211.000   3
  -8  -5   8-41.2319 44.8670   1
   8   5  -8 0.96759 48.2937   3
  -8  -4   9 622.986 144.076   1
   8   4  -9 570.283 124.199   3
   8   3 -10 748.990 145.724   3
  -8  -3  10 516.519 132.307   1
  -8  -2  11 175.266 92.4872   8
  -8  -2  11 72.1195 21.2458   1
   8   6  -8 6167.38 398.578   3
  -8  -5   9 1994.36 269.279   1
   8   5  -9 2049.22 233.941   3
  -8  -4  10 2115.65 272.146   1
   8   4 -10 1979.38 236.826   3
  -9   7  -4 254.316 97.0104   2
  -9   8  -3 1015.38 175.386   2
  -9   6  -4 398.074 112.325   2
   9  -7   3 813.148 160.139   4
  -9   7  -3 844.482 158.223   2
   9  -8   2 311.966 87.3578   4
  -9   8  -2 327.579 102.561   2
  -9   9  -1 407.927 115.443   8
  -9   5  -4 97.0874 44.6910   2
   9  -6   3 891.524 162.721   4
  -9   6  -3 902.457 168.803   2
   9  -7   2 65.3338 49.5363   4
  -9   7  -2 80.7584 57.4800   2
   9  -8   1-7.54479 19.0697   4
  -9   9   0 331.286 112.490   8
   9  -9   0 437.062 117.821   4
   9  -3   5 400.599 117.286   6
   9  -4   4-43.5857 80.1624   4
   9  -5   3 807.859 162.125   4
  -9   5  -3 882.987 168.778   2
   9  -6   2 36.2484 26.4567   4
  -9   6  -2 46.9209 37.5349   2
   9  -7   1 26.5878 19.3001   4
  -9   7  -1 121.440 66.3856   2
  -9   8   0-3.77794 36.9140   8
   9  -8   0 131.140 59.8090   4
  -9   9   1 68.5376 65.2803   8
   9  -9  -1 131.838 60.5551   4
   9  -3   4 983.903 166.281   6
   9  -4   3 73.9938 52.3510   4
  -9   4  -3 151.292 85.2976   2
   9  -5   2 31.1803 43.9297   4
  -9   5  -2 3.64651 40.5799   2
   9  -6   1 134.247 62.1817   4
  -9   6  -1 108.527 51.6258   2
  -9   7   0 10.1864 34.8889   8
   9  -7   0 71.5804 53.6371   4
  -9   8   1 311.147 107.997   8
   9  -8  -1 356.145 100.394   4
   9  -9  -2 82.2796 24.1441   4
   9  -2   4 495.575 118.053   6
   9  -3   3 460.314 112.344   6
  -9   3  -3 573.631 144.590   2
   9  -4   2 2137.43 255.264   4
  -9   4  -2 2173.37 264.521   2
   9  -5   1 631.637 130.313   4
  -9   5  -1 684.872 144.459   2
   9  -6   0-28.7578 50.3224   4
  -9   7   1 447.687 133.968   8
   9  -7  -1 376.778 99.7103   4
  -9   8   2 476.906 126.179   8
   9  -8  -2 458.633 107.251   4
   9  -1   4 653.856 145.926   6
   9  -2   3 212.358 75.5473   6
  -9   2  -3 257.731 94.1094   2
   9  -3   2 1803.93 234.064   4
  -9   3  -2 1665.13 232.007   2
   9  -3   2 1652.02 195.607   6
   9  -4   1 1414.13 198.659   4
  -9   4  -1 1425.75 213.455   2
   9  -5   0 474.083 109.663   4
   9  -5   0 556.450 116.099   3
  -9   5   0 648.450 149.037   2
  -9   6   1 506.534 127.189   8
   9  -6  -1 450.401 100.395   4
  -9   7   2 4.35142 49.8643   8
   9  -7  -2 57.5411 45.2214   4
  -9   8   3 1088.85 207.285   8
   9  -1   3 7.08070 46.2481   6
   9  -2   2 336.246 93.8221   6
  -9   2  -2 487.615 124.096   2
   9  -3   1 128.572 58.9643   4
  -9   3  -1 93.8272 57.9019   2
   9  -4   0 75.4355 69.7804   4
  -9   4   0 15.2406 37.2179   2
  -9   5   1-21.4972 55.7830   8
   9  -5  -1 66.9734 43.7855   4
   9  -5  -1-48.2989 41.0732   3
  -9   6   2 382.150 121.234   8
   9  -6  -2 294.209 82.4451   4
  -9   7   3 93.5810 55.7462   8
  -9   0  -3 47.2603 40.7337   7
   9   0   3 37.5781 33.7508   6
  -9   1  -2 307.914 91.1073   7
   9  -1   2 410.080 106.473   6
  -9   1  -2 351.312 110.572   2
  -9   2  -1-2.09910 20.9013   7
   9  -2   1-10.9541 28.3887   6
  -9   2  -1-58.0309 39.7647   2
   9  -3   0 0.33646 26.5758   4
  -9   3   0-63.2986 73.3473   2
   9  -4  -1-7.63838 26.9927   4
   9  -4  -1-60.5352 53.3548   3
  -9   5   2 83.6192 57.5428   8
   9  -5  -2 38.6944 45.5566   4
   9  -5  -2-17.7352 36.5826   3
  -9   6   3 134.377 74.2141   8
   9  -6  -3 39.8879 23.3284   3
  -9   7   4 115.806 55.6482   8
  -9  -1  -3 2438.85 292.374   7
  -9   0  -2 623.786 136.452   7
   9   0   2 516.316 125.317   6
  -9   0  -2 619.948 148.867   2
  -9   1  -1 393.494 99.0456   7
   9  -1   1 353.939 97.9534   6
  -9   1  -1 451.308 123.932   2
   9  -2   0 919.159 152.851   4
  -9   2   0 864.238 144.933   7
   9  -2   0 843.221 135.548   6
  -9   2   0 953.917 181.250   2
   9  -3  -1 867.893 140.221   4
   9  -3  -1 831.008 129.470   3
  -9   4   2 34.6156 48.1241   8
   9  -4  -2 42.9731 24.0463   4
   9  -4  -2-43.2214 46.5423   3
  -9   5   3 830.630 173.797   8
   9  -5  -3 576.848 124.717   3
  -9   6   4 129.464 79.5553   8
   9  -6  -4-38.6416 54.3427   3
   9  -7  -5 262.191 91.8217   3
  -9  -1  -2-18.5738 20.8415   7
   9   1   2 91.4646 61.3710   6
  -9   0  -1 249.951 78.7881   7
   9   0   1 235.548 77.1629   6
  -9   0  -1 255.262 96.5246   2
  -9   1   0 517.562 118.336   7
   9  -1   0 407.650 98.1749   6
  -9   1   0 532.422 132.903   2
   9  -2  -1 589.245 114.448   4
  -9   2   1 568.106 114.217   7
   9  -3  -2 199.572 60.7851   4
   9  -3  -2 224.369 72.7093   3
  -9   4   3 291.901 102.876   8
   9  -4  -3 323.278 87.2129   3
  -9   5   4 74.4383 60.8810   8
   9  -5  -4-56.8068 40.7586   3
  -9   6   5 1341.35 224.255   8
   9  -6  -5 1440.95 213.835   3
  -9  -2  -2 105.271 55.7699   7
  -9  -1  -1-68.7719 63.4917   7
   9   1   1-48.7303 48.8695   6
  -9  -1  -1-7.22878 41.2518   2
  -9   0   0 393.760 109.086   7
   9   0   0 447.921 113.681   6
  -9   0   0 511.374 128.853   2
   9  -1  -1 498.840 104.402   4
  -9   1   1 433.087 105.879   7
   9  -1  -1 524.719 105.055   6
   9  -2  -2 30.6842 22.0959   4
   9  -2  -2 7.49986 25.0548   3
  -9   3   3 257.147 99.5322   8
   9  -3  -3 301.589 80.0332   3
  -9   4   4 112.200 52.8482   8
   9  -4  -4 43.5682 30.3285   3
  -9   5   5 141.628 78.3740   8
   9  -5  -5 45.5521 42.0473   3
   9  -6  -6 249.511 80.1697   3
  -9  -2  -1 382.170 117.309   7
   9   2   1 506.724 126.291   6
  -9  -1   0 26.6160 17.5592   7
   9   1   0-24.2264 33.7197   6
  -9  -1   0 4.82640 41.9485   2
  -9   0   1 1464.40 208.714   7
   9   0  -1 1436.75 186.510   6
  -9   1   2 83.9370 49.1264   7
   9  -2  -3 2056.96 216.017   3
  -9   3   4 191.388 85.2442   8
   9  -3  -4 255.512 80.6590   3
  -9   4   5 157.187 78.3800   8
   9  -4  -5 186.558 72.1864   3
  -9   5   6 737.929 165.721   8
   9  -5  -6 730.111 150.035   3
  -9  -2   0 1091.82 188.815   7
  -9  -2   0 1593.63 251.996   2
   9   2   0 1309.04 200.625   6
  -9  -1   1 709.032 151.678   7
   9   1  -1 754.187 144.587   6
  -9   0   2-14.5830 24.3076   7
   9   0  -2-32.0689 27.4199   6
   9  -1  -3 3272.41 264.328   3
  -9   2   4 2342.33 285.467   8
   9  -2  -4 2136.76 228.308   3
  -9   3   5 5950.21 473.082   8
   9  -3  -5 6985.52 444.392   3
  -9   4   6 894.230 181.163   8
   9  -4  -6 896.481 165.086   3
   9  -5  -7 1549.12 227.714   3
  -9  -3   0 1000.14 185.778   7
   9   3   0 882.555 168.965   6
  -9  -2   1 857.081 168.937   7
   9   2  -1 881.742 164.478   6
  -9  -1   2 3628.09 343.612   7
   9   1  -2 3436.12 303.075   6
  -9   0   3 2907.08 290.971   7
   9   0  -3 3325.90 260.156   3
   9   0  -3 3322.21 277.268   6
   9  -1  -4 116.070 39.4909   3
  -9   2   5 1813.17 254.092   8
   9  -2  -5 1397.60 188.052   3
  -9   3   6 338.471 101.079   8
   9  -3  -6 239.319 95.2020   3
  -9   4   7 3552.70 368.852   8
   9  -4  -7 2635.24 296.118   3
  -9  -3   1 569.083 134.718   7
   9   3  -1 586.330 137.672   6
  -9  -2   2 704.808 148.534   7
   9   2  -2 530.590 121.873   6
  -9  -1   3 349.094 108.881   7
   9   1  -3 282.405 89.8199   6
   9   0  -4 171.016 59.1622   3
  -9   1   5 283.652 94.0781   8
   9  -1  -5 420.535 100.122   3
  -9   2   6 477.551 142.131   8
   9  -2  -6 376.298 99.6302   3
  -9   3   7 1738.77 255.099   8
   9  -3  -7 2435.45 274.477   3
  -9  -3   2 658.545 149.426   7
   9   3  -2 569.454 133.123   6
  -9  -2   3 671.809 148.473   7
   9   2  -3 348.501 92.4613   6
  -9  -1   4 91.1735 48.5766   7
   9   1  -4 57.3516 39.6714   6
   9   1  -4-23.3458 37.4426   3
   9   0  -5 9.43246 23.3613   3
  -9   1   6 1041.43 196.184   8
   9  -1  -6 862.199 146.555   3
  -9   2   7 938.394 188.966   8
   9  -2  -7 737.440 140.520   3
  -9   3   8 16.7390 65.4527   8
   9  -3  -8 24.3062 27.9400   3
   9   4  -2 756.442 164.120   6
  -9  -3   3 31.2057 49.8852   7
   9   3  -3 19.1917 54.6378   6
  -9  -2   4 2562.51 288.105   7
   9   2  -4 2677.70 273.753   6
   9   1  -5-23.2960 48.5841   3
  -9   0   6 23.4168 15.2890   1
   9   0  -6 11.8811 22.1505   3
  -9   1   7 1125.93 198.729   8
   9  -1  -7 830.809 152.507   3
  -9   2   8 52.5532 88.9183   8
   9  -2  -8 112.908 51.8978   3
   9   4  -3-37.6695 36.7587   6
  -9  -3   4 465.249 135.361   7
   9   3  -4 261.920 81.7573   6
  -9  -2   5 2661.60 298.814   7
   9   2  -5 3026.99 286.871   6
   9   2  -5 3138.95 261.125   3
  -9  -1   6 635.966 133.138   1
   9   1  -6 583.142 115.680   3
  -9   0   7 254.190 96.4419   8
  -9   0   7 224.485 79.6082   1
   9   0  -7 392.723 112.763   3
  -9   1   8 24.5421 35.0837   8
   9  -1  -8-85.1959 45.8322   3
  -9  -4   4 122.536 52.3296   7
   9   4  -4 87.5657 47.1871   6
  -9  -3   5 102.927 64.6495   7
   9   3  -5 24.0942 38.0201   6
   9   2  -6 380.905 93.0684   6
   9   2  -6 360.632 93.4861   3
  -9  -1   7 787.554 147.272   1
   9   1  -7 619.434 130.614   3
  -9   0   8 250.648 99.3899   8
  -9   0   8 223.916 75.1887   1
   9   0  -8 165.553 60.4828   3
  -9   1   9 686.462 165.079   8
   9   4  -5 1424.66 211.996   6
   9   3  -6 124.249 57.9800   6
   9   3  -6 233.763 76.1661   3
  -9  -2   7 494.861 126.619   1
   9   2  -7 548.518 118.114   3
   9   1  -8-15.2095 57.1699   3
  -9  -1   8 22.4717 36.9601   1
  -9   0   9 152.915 72.3091   8
   9   0  -9 125.789 58.6095   3
   9   4  -6 2842.11 298.713   6
  -9  -3   7 236.769 94.4080   1
   9   3  -7 104.332 53.2880   6
   9   3  -7 204.092 74.1259   3
  -9  -2   8 112.595 70.5965   1
   9   2  -8 145.142 54.5298   3
  -9  -1   9 31.1844 52.4577   8
  -9  -1   9-18.9241 25.8943   1
   9   1  -9-53.7943 60.7911   3
   9   4  -7 3015.97 308.649   6
   9   4  -7 3490.35 290.947   3
  -9  -3   8 1244.26 207.222   1
   9   3  -8 1107.50 171.108   3
  -9  -2   9 1150.14 192.068   1
  -9  -1  10 277.763 92.1751   1
  -9  -1  10 203.273 80.4152   8
   9   4  -8 70.5962 58.0648   3
  10  -5   1 532.496 126.149   4
  10  -6   0 63.1721 35.7296   4
  10  -4   1 458.135 119.722   4
  10  -5   0 846.474 153.436   4
  10  -3   1 1103.11 183.854   4
  10  -4   0 80.5178 51.8590   4
  10  -6  -2 644.497 136.402   3
  10  -2   1 642.971 138.077   4
  10  -5  -2 71.7479 46.3711   3
  10  -6  -3 131.115 51.0279   3
  10  -5  -3 1083.51 176.166   3
  10  -4  -3-29.1266 17.1110   3
  10  -5  -4 545.722 128.837   3
 -10   0   0 51.0416 23.3257   7
 -10   1   1 816.756 156.720   7
  10  -4  -4-55.5575 55.8536   3
 -10   0   1 673.519 153.859   7
 -10   1   2-25.9349 55.2307   7
  10  -3  -4 350.449 94.1301   3
  10  -4  -5 325.782 92.1457   3
 -10  -1   1 65.3597 53.1648   7
 -10   0   2 221.122 92.9493   7
  10  -2  -4 296.189 91.0612   3
  10  -3  -5 105.852 28.7397   3
 -10  -1   2 1900.90 258.063   7
  10  -2  -5 112.341 59.2208   3
  10  -3  -6 1776.92 235.313   3
 -10  -1   3 2197.71 276.069   7
  10  -1  -5 1687.76 216.166   3
  10  -2  -6 1587.06 221.732   3
  10  -1  -6 241.847 92.8560   3
  10   0  -6 51.0007 41.8194   3
   0   0   0    0.00    0.00   0
;
loop_
_symmetry_equiv_pos_as_xyz
'x, y, z'
'-x, -y, -z'
loop_
_atom_site_type_symbol
_atom_site_label
_atom_site_fract_x
_atom_site_fract_y
_atom_site_fract_z
_atom_site_U_iso_or_equiv
_atom_site_adp_type
_atom_site_calc_flag
_atom_site_occupancy
S S1 0.12454(4) 0.47628(3) 0.74105(3) 0.02885(9) Uani d 1
O O1 -0.33898(16) -0.03940(10) 0.38167(11) 0.0433(2) Uani d 1
H H1 -0.443606 -0.066604 0.404167 0.065 Uiso calc 1
O O2 -0.32527(14) 0.14767(10) 0.54881(12) 0.0406(2) Uani d 1
O O3 -0.01498(16) 0.51483(10) 0.82160(11) 0.0403(2) Uani d 1
O O4 0.25416(15) 0.58008(10) 0.70247(11) 0.0393(2) Uani d 1
O O5 0.58057(18) 0.11306(11) 1.12775(11) 0.0458(3) Uani d 1
O O6 0.79937(17) 0.14961(13) 1.00541(14) 0.0546(3) Uani d 1
N N1 -0.01504(15) 0.36229(11) 0.60268(11) 0.0308(2) Uani d 1
H H1N -0.129422 0.323849 0.611424 0.037 Uiso d 1
N N2 0.64156(17) 0.16245(12) 1.03919(12) 0.0358(2) Uani d 1
C C1 -0.25207(18) 0.08679(13) 0.45781(13) 0.0307(2) Uani d 1
C C2 -0.06143(17) 0.14679(12) 0.42646(12) 0.0276(2) Uani d 1
C C3 0.05425(17) 0.28066(12) 0.49812(12) 0.0265(2) Uani d 1
C C4 0.2329(2) 0.33032(15) 0.46234(14) 0.0361(3) Uani d 1
H H4 0.30801 0.419659 0.507179 0.043 Uiso calc 1
C C5 0.2993(2) 0.24796(17) 0.36091(16) 0.0418(3) Uani d 1
H H5 0.420223 0.281618 0.33951 0.05 Uiso calc 1
C C6 0.1880(2) 0.11621(16) 0.29097(15) 0.0414(3) Uani d 1
H H6 0.233994 0.060917 0.223264 0.05 Uiso calc 1
C C7 0.0083(2) 0.06735(14) 0.32238(14) 0.0364(3) Uani d 1
H H7 -0.068407 -0.020376 0.273293 0.044 Uiso calc 1
C C8 0.28090(17) 0.38494(12) 0.83002(12) 0.0280(2) Uani d 1
C C9 0.2009(2) 0.30539(16) 0.91162(16) 0.0380(3) Uani d 1
H H9 0.068394 0.301506 0.919686 0.046 Uiso calc 1
C C10 0.3196(2) 0.23221(15) 0.98058(15) 0.0373(3) Uani d 1
H H10 0.268501 0.178123 1.035203 0.045 Uiso calc 1
C C11 0.51523(19) 0.24128(12) 0.96650(13) 0.0300(2) Uani d 1
C C12 0.5970(2) 0.32060(15) 0.88735(15) 0.0370(3) Uani d 1
H H12 0.72984 0.324516 0.880113 0.044 Uiso calc 1
C C13 0.47850(19) 0.39464(15) 0.81850(14) 0.0349(3) Uani d 1
H H13 0.53117 0.449933 0.765428 0.042 Uiso calc 1
loop_
_atom_site_aniso_label
_atom_site_aniso_U_11
_atom_site_aniso_U_22
_atom_site_aniso_U_33
_atom_site_aniso_U_12
_atom_site_aniso_U_13
_atom_site_aniso_U_23
S1 0.02764(15) 0.02435(15) 0.03087(16) 0.00152(11) 0.00438(11) 0.00453(11)
O1 0.0386(5) 0.0351(5) 0.0449(6) -0.0104(4) 0.0123(4) -0.0017(4)
O2 0.0288(4) 0.0346(5) 0.0517(6) -0.0038(4) 0.0147(4) 0.0000(4)
O3 0.0398(5) 0.0385(5) 0.0421(5) 0.0128(4) 0.0122(4) 0.0032(4)
O4 0.0375(5) 0.0283(4) 0.0465(6) -0.0046(4) 0.0031(4) 0.0126(4)
O5 0.0538(6) 0.0428(6) 0.0410(6) 0.0088(5) 0.0051(5) 0.0176(5)
O6 0.0403(6) 0.0572(7) 0.0746(9) 0.0202(5) 0.0156(6) 0.0252(6)
N1 0.0230(4) 0.0315(5) 0.0319(5) -0.0014(4) 0.0053(4) 0.0022(4)
N2 0.0355(6) 0.0292(5) 0.0378(6) 0.0047(4) 0.0019(4) 0.0056(4)
C1 0.0255(5) 0.0294(6) 0.0331(6) -0.0002(4) 0.0031(4) 0.0071(5)
C2 0.0251(5) 0.0295(5) 0.0266(5) 0.0017(4) 0.0043(4) 0.0081(4)
C3 0.0245(5) 0.0288(5) 0.0248(5) 0.0022(4) 0.0032(4) 0.0087(4)
C4 0.0309(6) 0.0377(7) 0.0360(6) -0.0037(5) 0.0097(5) 0.0086(5)
C5 0.0376(7) 0.0519(8) 0.0392(7) 0.0040(6) 0.0172(6) 0.0160(6)
C6 0.0457(8) 0.0464(8) 0.0355(7) 0.0098(6) 0.0192(6) 0.0092(6)
C7 0.0414(7) 0.0345(6) 0.0303(6) 0.0035(5) 0.0095(5) 0.0041(5)
C8 0.0261(5) 0.0274(5) 0.0277(5) 0.0018(4) 0.0051(4) 0.0055(4)
C9 0.0279(6) 0.0468(8) 0.0460(8) 0.0078(5) 0.0147(5) 0.0207(6)
C10 0.0345(6) 0.0420(7) 0.0413(7) 0.0059(5) 0.0139(5) 0.0202(6)
C11 0.0303(6) 0.0269(5) 0.0291(5) 0.0035(4) 0.0036(4) 0.0042(4)
C12 0.0266(6) 0.0461(7) 0.0417(7) 0.0067(5) 0.0114(5) 0.0158(6)
C13 0.0295(6) 0.0415(7) 0.0364(6) 0.0036(5) 0.0109(5) 0.0159(5)
loop_
_atom_type_symbol
_atom_type_description
_atom_type_scat_dispersion_real
_atom_type_scat_dispersion_imag
_atom_type_scat_source
C C 0.0033 0.0016 'International Tables Vol C Tables 4.2.6.8 and 6.1.1.4'
H H 0 0 'International Tables Vol C Tables 4.2.6.8 and 6.1.1.4'
N N 0.0061 0.0033 'International Tables Vol C Tables 4.2.6.8 and 6.1.1.4'
O O 0.0106 0.006 'International Tables Vol C Tables 4.2.6.8 and 6.1.1.4'
S S 0.1246 0.1234 'International Tables Vol C Tables 4.2.6.8 and 6.1.1.4'
loop_
_exptl_crystal_face_index_h
_exptl_crystal_face_index_k
_exptl_crystal_face_index_l
_exptl_crystal_face_perp_dist
3.0000 -2.9989 -2.0013 0.382407
-3.9998 -5.0019 1.9979 0.310788
-0.0006 -1.0077 4.9996 0.070483
0.0006 1.0077 -4.9996 0.070482
0.0000 -1.0001 -0.0004 0.166275
0.0000 1.0001 0.0004 0.183031
-4.9999 3.9984 3.0017 0.301824
loop_
_geom_angle_atom_site_label_1
_geom_angle_atom_site_label_2
_geom_angle_atom_site_label_3
_geom_angle
O4 S1 O3 120.22(6)
O4 S1 N1 109.78(6)
O3 S1 N1 104.49(6)
O4 S1 C8 107.12(6)
O3 S1 C8 108.39(6)
N1 S1 C8 106.03(6)
C1 O1 H1 109.5
C3 N1 S1 126.42(8)
C3 N1 H1N 113.2
S1 N1 H1N 114.7
O5 N2 O6 124.50(12)
O5 N2 C11 117.92(12)
O6 N2 C11 117.58(12)
O2 C1 O1 121.85(11)
O2 C1 C2 123.80(11)
O1 C1 C2 114.34(11)
C7 C2 C3 118.68(11)
C7 C2 C1 118.77(11)
C3 C2 C1 122.55(11)
C4 C3 C2 119.19(11)
C4 C3 N1 121.53(11)
C2 C3 N1 119.27(10)
C5 C4 C3 120.56(13)
C5 C4 H4 119.7
C3 C4 H4 119.7
C6 C5 C4 120.67(13)
C6 C5 H5 119.7
C4 C5 H5 119.7
C7 C6 C5 119.39(13)
C7 C6 H6 120.3
C5 C6 H6 120.3
C6 C7 C2 121.45(13)
C6 C7 H7 119.3
C2 C7 H7 119.3
C13 C8 C9 121.35(12)
C13 C8 S1 119.98(10)
C9 C8 S1 118.67(9)
C10 C9 C8 119.56(12)
C10 C9 H9 120.2
C8 C9 H9 120.2
C11 C10 C9 118.42(12)
C11 C10 H10 120.8
C9 C10 H10 120.8
C12 C11 C10 122.67(12)
C12 C11 N2 118.86(11)
C10 C11 N2 118.47(12)
C11 C12 C13 119.04(12)
C11 C12 H12 120.5
C13 C12 H12 120.5
C8 C13 C12 118.95(12)
C8 C13 H13 120.5
C12 C13 H13 120.5
loop_
_geom_bond_atom_site_label_1
_geom_bond_atom_site_label_2
_geom_bond_distance
S1 O4 1.4271(10)
S1 O3 1.4293(10)
S1 N1 1.6287(11)
S1 C8 1.7733(12)
O1 C1 1.3128(15)
O1 H1 0.82
O2 C1 1.2368(16)
O5 N2 1.2226(16)
O6 N2 1.2232(16)
N1 C3 1.4109(16)
N1 H1N 0.8488
N2 C11 1.4742(16)
C1 C2 1.4745(17)
C2 C7 1.3988(18)
C2 C3 1.4091(16)
C3 C4 1.3950(17)
C4 C5 1.381(2)
C4 H4 0.93
C5 C6 1.380(2)
C5 H5 0.93
C6 C7 1.378(2)
C6 H6 0.93
C7 H7 0.93
C8 C13 1.3821(17)
C8 C9 1.3919(17)
C9 C10 1.3818(19)
C9 H9 0.93
C10 C11 1.3771(18)
C10 H10 0.93
C11 C12 1.3758(18)
C12 C13 1.3869(19)
C12 H12 0.93
C13 H13 0.93
loop_
_geom_hbond_atom_site_label_D
_geom_hbond_atom_site_label_H
_geom_hbond_atom_site_label_A
_geom_hbond_site_symmetry_A
_geom_hbond_distance_DH
_geom_hbond_distance_HA
_geom_hbond_distance_DA
_geom_hbond_angle_DHA
_geom_hbond_publ_flag
O1 H1 O2 2_456 0.82 1.86 2.6766(14) 173.7 yes
C5 H5 O4 2_666 0.93 2.6 3.5150(17) 169.6 yes
C9 H9 O6 1_455 0.93 2.6 3.3511(18) 138 yes
loop_
_geom_torsion_atom_site_label_1
_geom_torsion_atom_site_label_2
_geom_torsion_atom_site_label_3
_geom_torsion_atom_site_label_4
_geom_torsion
O4 S1 N1 C3 57.75(12)
O3 S1 N1 C3 -172.05(10)
C8 S1 N1 C3 -57.63(12)
O2 C1 C2 C7 179.10(13)
O1 C1 C2 C7 -0.05(17)
O2 C1 C2 C3 -0.3(2)
O1 C1 C2 C3 -179.48(11)
C7 C2 C3 C4 0.65(18)
C1 C2 C3 C4 -179.91(11)
C7 C2 C3 N1 179.55(11)
C1 C2 C3 N1 -1.01(17)
S1 N1 C3 C4 -32.39(17)
S1 N1 C3 C2 148.74(10)
C2 C3 C4 C5 -2.0(2)
N1 C3 C4 C5 179.15(12)
C3 C4 C5 C6 1.4(2)
C4 C5 C6 C7 0.5(2)
C5 C6 C7 C2 -1.8(2)
C3 C2 C7 C6 1.3(2)
C1 C2 C7 C6 -178.20(13)
O4 S1 C8 C13 -17.03(12)
O3 S1 C8 C13 -148.14(11)
N1 S1 C8 C13 100.16(11)
O4 S1 C8 C9 162.39(11)
O3 S1 C8 C9 31.28(12)
N1 S1 C8 C9 -80.42(12)
C13 C8 C9 C10 -1.3(2)
S1 C8 C9 C10 179.30(11)
C8 C9 C10 C11 0.3(2)
C9 C10 C11 C12 0.3(2)
C9 C10 C11 N2 -179.56(12)
O5 N2 C11 C12 167.21(13)
O6 N2 C11 C12 -13.63(18)
O5 N2 C11 C10 -12.89(18)
O6 N2 C11 C10 166.27(13)
C10 C11 C12 C13 -0.1(2)
N2 C11 C12 C13 179.83(12)
C9 C8 C13 C12 1.6(2)
S1 C8 C13 C12 -179.04(11)
C11 C12 C13 C8 -0.9(2)

_cod_database_fobs_code 2021692
